MODEL 1
REMARK VINA RESULT:     -12.4      0.000      0.000
REMARK SMILES Nc1ccc(C(=O)NC[C@@H]2CC[C@@H](C(=O)NCCCCNC(=O)c3ccc(-c4c5nc(c(-c6c(F)c(F)c(F)c(F)c6F)c6ccc([nH]6)c(-c6c(F)c(F)c(F)c(F)c6F)c6nc(c(-c7c(F)c(F)c(F)c(F)c7F)c7ccc4[nH]7)C=C6)C=C5)cc3)O2)cc1Cl
REMARK SMILES IDX 17 1 16 2 14 3 15 4 13 6 10 7 11 8 87 9 12 10 9 11 8 12 6 13
REMARK SMILES IDX 7 14 5 16 2 17 3 18 89 19 4 20 88 21 90 22 1 23 18 26 19 27
REMARK SMILES IDX 20 28 21 29 22 30 23 32 24 33 25 34 86 35 26 36 85 37 27 38
REMARK SMILES IDX 28 39 29 40 79 41 30 42 84 43 78 44 80 45 31 46 83 47 77 48
REMARK SMILES IDX 76 49 32 51 64 52 44 53 63 54 45 55 48 56 62 57 81 58 46 59
REMARK SMILES IDX 47 60 61 62 82 63 49 64 33 65 34 66 42 67 35 68 36 69 40 70
REMARK SMILES IDX 43 71 37 72 38 73 41 74 39 75 65 76 66 77 74 78 67 79 68 80
REMARK SMILES IDX 72 81 75 82 69 83 70 84 73 85 71 86 50 87 51 88 59 89 52 90
REMARK SMILES IDX 53 91 57 92 60 93 54 94 55 95 58 96 56 97
REMARK H PARENT 16 5 8 15 1 24 1 25 21 31 80 50 48 61
REMARK Flexibility Score: inf
ROOT
ATOM      1  C   UNL A   1      36.413  21.800  25.723  1.00  0.00     0.116 C 
ENDROOT
BRANCH   1   2
ATOM      2  N   UNL A   1      35.269  20.957  26.007  1.00  0.00    -0.354 N 
ATOM      3  C   UNL A   1      33.941  21.232  25.836  1.00  0.00     0.249 C 
ATOM      4  O   UNL A   1      33.130  20.349  26.124  1.00  0.00    -0.272 OA
ATOM      5  H   UNL A   1      35.477  20.067  26.371  1.00  0.00     0.163 HD
BRANCH   3   6
ATOM      6  C   UNL A   1      33.512  22.636  25.369  1.00  0.00     0.207 C 
ATOM      7  C   UNL A   1      31.470  23.329  24.458  1.00  0.00     0.138 C 
ATOM      8  C   UNL A   1      31.798  24.251  25.619  1.00  0.00     0.037 C 
ATOM      9  O   UNL A   1      32.690  22.624  24.186  1.00  0.00    -0.363 OA
ATOM     10  C   UNL A   1      32.719  23.381  26.438  1.00  0.00     0.045 C 
BRANCH   7  11
ATOM     11  C   UNL A   1      30.916  23.976  23.176  1.00  0.00     0.148 C 
BRANCH  11  12
ATOM     12  N   UNL A   1      31.922  24.578  22.316  1.00  0.00    -0.349 N 
ATOM     13  C   UNL A   1      32.453  25.821  22.129  1.00  0.00     0.251 C 
ATOM     14  O   UNL A   1      33.278  25.904  21.215  1.00  0.00    -0.269 OA
ATOM     15  H   UNL A   1      32.327  23.916  21.711  1.00  0.00     0.163 HD
BRANCH  13  16
ATOM     16  C   UNL A   1      32.143  27.053  22.916  1.00  0.00     0.041 A 
ATOM     17  C   UNL A   1      31.739  29.305  24.612  1.00  0.00     0.050 A 
ATOM     18  C   UNL A   1      30.865  29.024  23.559  1.00  0.00     0.028 A 
ATOM     19  C   UNL A   1      32.859  28.478  24.769  1.00  0.00     0.064 A 
ATOM     20  C   UNL A   1      31.060  27.910  22.723  1.00  0.00     0.016 A 
ATOM     21  C   UNL A   1      33.049  27.365  23.946  1.00  0.00     0.036 A 
ATOM     22  Cl  UNL A   1      34.027  28.797  26.005  1.00  0.00    -0.082 Cl
BRANCH  17  23
ATOM     23  N   UNL A   1      31.554  30.453  25.376  1.00  0.00    -0.398 N 
ATOM     24  H   UNL A   1      32.023  31.286  25.136  1.00  0.00     0.156 HD
ATOM     25  H   UNL A   1      30.956  30.433  26.157  1.00  0.00     0.156 HD
ENDBRANCH  17  23
ENDBRANCH  13  16
ENDBRANCH  11  12
ENDBRANCH   7  11
ENDBRANCH   3   6
ENDBRANCH   1   2
BRANCH   1  26
ATOM     26  C   UNL A   1      37.295  21.230  24.617  1.00  0.00     0.023 C 
BRANCH  26  27
ATOM     27  C   UNL A   1      38.105  19.995  25.002  1.00  0.00     0.023 C 
BRANCH  27  28
ATOM     28  C   UNL A   1      39.212  20.232  26.023  1.00  0.00     0.116 C 
BRANCH  28  29
ATOM     29  N   UNL A   1      40.221  19.184  26.022  1.00  0.00    -0.352 N 
ATOM     30  C   UNL A   1      41.589  19.285  26.126  1.00  0.00     0.251 C 
ATOM     31  H   UNL A   1      39.873  18.267  25.932  1.00  0.00     0.163 HD
ATOM     32  O   UNL A   1      42.292  18.297  25.957  1.00  0.00    -0.269 OA
BRANCH  30  33
ATOM     33  C   UNL A   1      42.213  20.596  26.410  1.00  0.00     0.039 A 
ATOM     34  C   UNL A   1      42.650  21.380  25.338  1.00  0.00     0.014 A 
ATOM     35  C   UNL A   1      42.359  21.057  27.720  1.00  0.00     0.014 A 
ATOM     36  C   UNL A   1      43.162  22.657  25.578  1.00  0.00     0.010 A 
ATOM     37  C   UNL A   1      42.789  22.360  27.951  1.00  0.00     0.010 A 
ATOM     38  C   UNL A   1      43.195  23.175  26.883  1.00  0.00    -0.014 A 
BRANCH  38  39
ATOM     39  C   UNL A   1      43.645  24.565  27.151  1.00  0.00     0.031 A 
ATOM     40  C   UNL A   1      42.669  25.598  27.638  1.00  0.00     0.074 A 
ATOM     41  C   UNL A   1      44.918  24.917  26.886  1.00  0.00     0.049 A 
ATOM     42  N   UNL A   1      42.854  26.876  27.858  1.00  0.00    -0.248 NA
ATOM     43  C   UNL A   1      41.293  25.141  27.881  1.00  0.00     0.031 C 
ATOM     44  C   UNL A   1      45.949  24.022  26.358  1.00  0.00     0.029 A 
ATOM     45  N   UNL A   1      45.558  26.126  27.008  1.00  0.00    -0.354 N 
ATOM     46  C   UNL A   1      41.619  27.373  28.255  1.00  0.00     0.074 A 
ATOM     47  C   UNL A   1      40.679  26.276  28.180  1.00  0.00     0.031 C 
ATOM     48  C   UNL A   1      47.095  24.706  26.220  1.00  0.00     0.029 A 
ATOM     49  C   UNL A   1      46.872  26.095  26.607  1.00  0.00     0.049 A 
ATOM     50  H   UNL A   1      45.118  26.936  27.351  1.00  0.00     0.167 HD
ATOM     51  C   UNL A   1      41.303  28.624  28.670  1.00  0.00     0.037 A 
ATOM     52  C   UNL A   1      47.791  27.078  26.547  1.00  0.00     0.037 A 
ATOM     53  C   UNL A   1      42.243  29.711  28.749  1.00  0.00     0.049 A 
ATOM     54  C   UNL A   1      47.414  28.464  26.995  1.00  0.00     0.074 A 
ATOM     55  C   UNL A   1      42.036  31.001  29.204  1.00  0.00     0.029 A 
ATOM     56  N   UNL A   1      43.572  29.639  28.350  1.00  0.00    -0.354 N 
ATOM     57  N   UNL A   1      46.263  28.907  27.439  1.00  0.00    -0.248 NA
ATOM     58  C   UNL A   1      48.469  29.486  26.944  1.00  0.00     0.031 C 
ATOM     59  C   UNL A   1      43.220  31.724  29.028  1.00  0.00     0.029 A 
ATOM     60  C   UNL A   1      44.187  30.869  28.523  1.00  0.00     0.049 A 
ATOM     61  H   UNL A   1      44.011  28.832  27.997  1.00  0.00     0.167 HD
ATOM     62  C   UNL A   1      46.458  30.248  27.742  1.00  0.00     0.074 A 
ATOM     63  C   UNL A   1      47.845  30.543  27.447  1.00  0.00     0.031 C 
ATOM     64  C   UNL A   1      45.569  31.151  28.223  1.00  0.00     0.037 A 
BRANCH  51  65
ATOM     65  C   UNL A   1      39.874  28.877  29.065  1.00  0.00     0.064 A 
ATOM     66  C   UNL A   1      39.425  28.681  30.381  1.00  0.00     0.173 A 
ATOM     67  C   UNL A   1      38.942  29.328  28.118  1.00  0.00     0.173 A 
ATOM     68  F   UNL A   1      40.272  28.241  31.325  1.00  0.00    -0.203 F 
ATOM     69  C   UNL A   1      38.091  28.881  30.722  1.00  0.00     0.198 A 
ATOM     70  C   UNL A   1      37.616  29.565  28.473  1.00  0.00     0.198 A 
ATOM     71  F   UNL A   1      39.315  29.542  26.848  1.00  0.00    -0.203 F 
ATOM     72  F   UNL A   1      37.674  28.618  31.968  1.00  0.00    -0.200 F 
ATOM     73  C   UNL A   1      37.189  29.327  29.770  1.00  0.00     0.200 A 
ATOM     74  F   UNL A   1      36.748  30.011  27.553  1.00  0.00    -0.200 F 
ATOM     75  F   UNL A   1      35.904  29.519  30.099  1.00  0.00    -0.200 F 
ENDBRANCH  51  65
BRANCH  52  76
ATOM     76  C   UNL A   1      49.161  26.774  26.057  1.00  0.00     0.064 A 
ATOM     77  C   UNL A   1      49.509  26.980  24.716  1.00  0.00     0.173 A 
ATOM     78  C   UNL A   1      50.154  26.294  26.923  1.00  0.00     0.173 A 
ATOM     79  F   UNL A   1      48.589  27.420  23.844  1.00  0.00    -0.203 F 
ATOM     80  C   UNL A   1      50.795  26.703  24.256  1.00  0.00     0.198 A 
ATOM     81  C   UNL A   1      51.447  26.045  26.470  1.00  0.00     0.198 A 
ATOM     82  F   UNL A   1      49.873  26.087  28.219  1.00  0.00    -0.203 F 
ATOM     83  F   UNL A   1      51.092  26.872  22.960  1.00  0.00    -0.200 F 
ATOM     84  C   UNL A   1      51.765  26.244  25.135  1.00  0.00     0.200 A 
ATOM     85  F   UNL A   1      52.386  25.620  27.326  1.00  0.00    -0.200 F 
ATOM     86  F   UNL A   1      53.005  25.991  24.694  1.00  0.00    -0.200 F 
ENDBRANCH  52  76
BRANCH  64  87
ATOM     87  C   UNL A   1      46.074  32.541  28.491  1.00  0.00     0.064 A 
ATOM     88  C   UNL A   1      46.001  33.555  27.524  1.00  0.00     0.173 A 
ATOM     89  C   UNL A   1      46.600  32.873  29.750  1.00  0.00     0.173 A 
ATOM     90  F   UNL A   1      45.521  33.287  26.300  1.00  0.00    -0.203 F 
ATOM     91  C   UNL A   1      46.461  34.840  27.799  1.00  0.00     0.198 A 
ATOM     92  C   UNL A   1      47.026  34.167  30.032  1.00  0.00     0.198 A 
ATOM     93  F   UNL A   1      46.685  31.944  30.715  1.00  0.00    -0.203 F 
ATOM     94  F   UNL A   1      46.429  35.780  26.843  1.00  0.00    -0.200 F 
ATOM     95  C   UNL A   1      46.964  35.148  29.054  1.00  0.00     0.200 A 
ATOM     96  F   UNL A   1      47.497  34.466  31.251  1.00  0.00    -0.200 F 
ATOM     97  F   UNL A   1      47.397  36.389  29.318  1.00  0.00    -0.200 F 
ENDBRANCH  64  87
ENDBRANCH  38  39
ENDBRANCH  30  33
ENDBRANCH  28  29
ENDBRANCH  27  28
ENDBRANCH  26  27
ENDBRANCH   1  26
TORSDOF 15
ENDMDL
MODEL 2
REMARK VINA RESULT:     -12.2      3.578      7.966
REMARK SMILES Nc1ccc(C(=O)NC[C@@H]2CC[C@@H](C(=O)NCCCCNC(=O)c3ccc(-c4c5nc(c(-c6c(F)c(F)c(F)c(F)c6F)c6ccc([nH]6)c(-c6c(F)c(F)c(F)c(F)c6F)c6nc(c(-c7c(F)c(F)c(F)c(F)c7F)c7ccc4[nH]7)C=C6)C=C5)cc3)O2)cc1Cl
REMARK SMILES IDX 17 1 16 2 14 3 15 4 13 6 10 7 11 8 87 9 12 10 9 11 8 12 6 13
REMARK SMILES IDX 7 14 5 16 2 17 3 18 89 19 4 20 88 21 90 22 1 23 18 26 19 27
REMARK SMILES IDX 20 28 21 29 22 30 23 32 24 33 25 34 86 35 26 36 85 37 27 38
REMARK SMILES IDX 28 39 29 40 79 41 30 42 84 43 78 44 80 45 31 46 83 47 77 48
REMARK SMILES IDX 76 49 32 51 64 52 44 53 63 54 45 55 48 56 62 57 81 58 46 59
REMARK SMILES IDX 47 60 61 62 82 63 49 64 33 65 34 66 42 67 35 68 36 69 40 70
REMARK SMILES IDX 43 71 37 72 38 73 41 74 39 75 65 76 66 77 74 78 67 79 68 80
REMARK SMILES IDX 72 81 75 82 69 83 70 84 73 85 71 86 50 87 51 88 59 89 52 90
REMARK SMILES IDX 53 91 57 92 60 93 54 94 55 95 58 96 56 97
REMARK H PARENT 16 5 8 15 1 24 1 25 21 31 80 50 48 61
REMARK Flexibility Score: inf
ROOT
ATOM      1  C   UNL A   1      31.493  28.682  24.834  1.00  0.00     0.116 C 
ENDROOT
BRANCH   1   2
ATOM      2  N   UNL A   1      31.084  28.316  23.492  1.00  0.00    -0.354 N 
ATOM      3  C   UNL A   1      31.344  27.164  22.804  1.00  0.00     0.249 C 
ATOM      4  O   UNL A   1      30.872  27.054  21.670  1.00  0.00    -0.272 OA
ATOM      5  H   UNL A   1      30.548  28.988  23.013  1.00  0.00     0.163 HD
BRANCH   3   6
ATOM      6  C   UNL A   1      32.262  26.097  23.430  1.00  0.00     0.207 C 
ATOM      7  C   UNL A   1      32.610  23.878  22.771  1.00  0.00     0.138 C 
ATOM      8  C   UNL A   1      33.968  24.545  22.893  1.00  0.00     0.037 C 
ATOM      9  O   UNL A   1      31.696  24.774  23.422  1.00  0.00    -0.363 OA
ATOM     10  C   UNL A   1      33.603  25.998  22.710  1.00  0.00     0.045 C 
BRANCH   7  11
ATOM     11  C   UNL A   1      32.470  22.451  23.334  1.00  0.00     0.148 C 
BRANCH  11  12
ATOM     12  N   UNL A   1      32.385  22.375  24.783  1.00  0.00    -0.349 N 
ATOM     13  C   UNL A   1      33.262  22.332  25.827  1.00  0.00     0.251 C 
ATOM     14  O   UNL A   1      32.743  22.205  26.940  1.00  0.00    -0.269 OA
ATOM     15  H   UNL A   1      31.451  22.350  25.092  1.00  0.00     0.163 HD
BRANCH  13  16
ATOM     16  C   UNL A   1      34.751  22.430  25.749  1.00  0.00     0.041 A 
ATOM     17  C   UNL A   1      37.594  22.328  25.603  1.00  0.00     0.050 A 
ATOM     18  C   UNL A   1      36.926  23.514  25.916  1.00  0.00     0.028 A 
ATOM     19  C   UNL A   1      36.818  21.201  25.301  1.00  0.00     0.064 A 
ATOM     20  C   UNL A   1      35.522  23.566  25.992  1.00  0.00     0.016 A 
ATOM     21  C   UNL A   1      35.423  21.247  25.387  1.00  0.00     0.036 A 
ATOM     22  Cl  UNL A   1      37.564  19.711  24.838  1.00  0.00    -0.082 Cl
BRANCH  17  23
ATOM     23  N   UNL A   1      38.979  22.329  25.469  1.00  0.00    -0.398 N 
ATOM     24  H   UNL A   1      39.464  21.478  25.367  1.00  0.00     0.156 HD
ATOM     25  H   UNL A   1      39.473  23.180  25.478  1.00  0.00     0.156 HD
ENDBRANCH  17  23
ENDBRANCH  13  16
ENDBRANCH  11  12
ENDBRANCH   7  11
ENDBRANCH   3   6
ENDBRANCH   1   2
BRANCH   1  26
ATOM     26  C   UNL A   1      32.911  29.241  24.877  1.00  0.00     0.023 C 
BRANCH  26  27
ATOM     27  C   UNL A   1      33.906  28.432  25.706  1.00  0.00     0.023 C 
BRANCH  27  28
ATOM     28  C   UNL A   1      33.774  28.588  27.217  1.00  0.00     0.116 C 
BRANCH  28  29
ATOM     29  N   UNL A   1      33.732  29.978  27.643  1.00  0.00    -0.352 N 
ATOM     30  C   UNL A   1      34.686  30.725  28.294  1.00  0.00     0.251 C 
ATOM     31  H   UNL A   1      32.896  30.455  27.435  1.00  0.00     0.163 HD
ATOM     32  O   UNL A   1      34.414  31.845  28.705  1.00  0.00    -0.269 OA
BRANCH  30  33
ATOM     33  C   UNL A   1      36.033  30.158  28.528  1.00  0.00     0.039 A 
ATOM     34  C   UNL A   1      36.997  30.277  27.523  1.00  0.00     0.014 A 
ATOM     35  C   UNL A   1      36.349  29.522  29.731  1.00  0.00     0.014 A 
ATOM     36  C   UNL A   1      38.299  29.827  27.756  1.00  0.00     0.010 A 
ATOM     37  C   UNL A   1      37.665  29.153  29.993  1.00  0.00     0.010 A 
ATOM     38  C   UNL A   1      38.654  29.300  29.008  1.00  0.00    -0.014 A 
BRANCH  38  39
ATOM     39  C   UNL A   1      40.054  28.905  29.310  1.00  0.00     0.031 A 
ATOM     40  C   UNL A   1      40.963  29.840  30.057  1.00  0.00     0.074 A 
ATOM     41  C   UNL A   1      40.530  27.733  28.848  1.00  0.00     0.049 A 
ATOM     42  N   UNL A   1      42.232  29.705  30.351  1.00  0.00    -0.248 NA
ATOM     43  C   UNL A   1      40.374  31.110  30.507  1.00  0.00     0.031 C 
ATOM     44  C   UNL A   1      39.766  26.761  28.065  1.00  0.00     0.029 A 
ATOM     45  N   UNL A   1      41.777  27.166  28.957  1.00  0.00    -0.354 N 
ATOM     46  C   UNL A   1      42.593  30.874  31.010  1.00  0.00     0.074 A 
ATOM     47  C   UNL A   1      41.428  31.733  31.012  1.00  0.00     0.031 C 
ATOM     48  C   UNL A   1      40.553  25.711  27.780  1.00  0.00     0.029 A 
ATOM     49  C   UNL A   1      41.886  25.953  28.322  1.00  0.00     0.049 A 
ATOM     50  H   UNL A   1      42.520  27.588  29.445  1.00  0.00     0.167 HD
ATOM     51  C   UNL A   1      43.778  31.191  31.584  1.00  0.00     0.037 A 
ATOM     52  C   UNL A   1      42.945  25.132  28.181  1.00  0.00     0.037 A 
ATOM     53  C   UNL A   1      44.933  30.331  31.585  1.00  0.00     0.049 A 
ATOM     54  C   UNL A   1      44.258  25.512  28.810  1.00  0.00     0.074 A 
ATOM     55  C   UNL A   1      46.163  30.537  32.182  1.00  0.00     0.029 A 
ATOM     56  N   UNL A   1      45.001  29.100  30.944  1.00  0.00    -0.354 N 
ATOM     57  N   UNL A   1      44.568  26.586  29.495  1.00  0.00    -0.248 NA
ATOM     58  C   UNL A   1      45.366  24.560  28.657  1.00  0.00     0.031 C 
ATOM     59  C   UNL A   1      46.995  29.460  31.856  1.00  0.00     0.029 A 
ATOM     60  C   UNL A   1      46.263  28.550  31.109  1.00  0.00     0.049 A 
ATOM     61  H   UNL A   1      44.262  28.681  30.447  1.00  0.00     0.167 HD
ATOM     62  C   UNL A   1      45.895  26.430  29.874  1.00  0.00     0.074 A 
ATOM     63  C   UNL A   1      46.326  25.148  29.356  1.00  0.00     0.031 C 
ATOM     64  C   UNL A   1      46.682  27.273  30.587  1.00  0.00     0.037 A 
BRANCH  51  65
ATOM     65  C   UNL A   1      43.881  32.534  32.254  1.00  0.00     0.064 A 
ATOM     66  C   UNL A   1      43.555  32.710  33.609  1.00  0.00     0.173 A 
ATOM     67  C   UNL A   1      44.317  33.658  31.537  1.00  0.00     0.173 A 
ATOM     68  F   UNL A   1      43.122  31.670  34.340  1.00  0.00    -0.203 F 
ATOM     69  C   UNL A   1      43.616  33.966  34.205  1.00  0.00     0.198 A 
ATOM     70  C   UNL A   1      44.414  34.906  32.148  1.00  0.00     0.198 A 
ATOM     71  F   UNL A   1      44.650  33.548  30.242  1.00  0.00    -0.203 F 
ATOM     72  F   UNL A   1      43.231  34.119  35.480  1.00  0.00    -0.200 F 
ATOM     73  C   UNL A   1      44.050  35.062  33.476  1.00  0.00     0.200 A 
ATOM     74  F   UNL A   1      44.849  35.961  31.445  1.00  0.00    -0.200 F 
ATOM     75  F   UNL A   1      44.108  36.271  34.051  1.00  0.00    -0.200 F 
ENDBRANCH  51  65
BRANCH  52  76
ATOM     76  C   UNL A   1      42.795  23.862  27.424  1.00  0.00     0.064 A 
ATOM     77  C   UNL A   1      43.147  23.784  26.069  1.00  0.00     0.173 A 
ATOM     78  C   UNL A   1      42.317  22.698  28.042  1.00  0.00     0.173 A 
ATOM     79  F   UNL A   1      43.590  24.875  25.428  1.00  0.00    -0.203 F 
ATOM     80  C   UNL A   1      43.014  22.592  25.360  1.00  0.00     0.198 A 
ATOM     81  C   UNL A   1      42.212  21.499  27.340  1.00  0.00     0.198 A 
ATOM     82  F   UNL A   1      41.972  22.718  29.339  1.00  0.00    -0.203 F 
ATOM     83  F   UNL A   1      43.322  22.554  24.056  1.00  0.00    -0.200 F 
ATOM     84  C   UNL A   1      42.555  21.449  25.998  1.00  0.00     0.200 A 
ATOM     85  F   UNL A   1      41.786  20.393  27.964  1.00  0.00    -0.200 F 
ATOM     86  F   UNL A   1      42.440  20.300  25.317  1.00  0.00    -0.200 F 
ENDBRANCH  52  76
BRANCH  64  87
ATOM     87  C   UNL A   1      48.086  26.823  30.879  1.00  0.00     0.064 A 
ATOM     88  C   UNL A   1      49.168  27.198  30.069  1.00  0.00     0.173 A 
ATOM     89  C   UNL A   1      48.358  26.039  32.013  1.00  0.00     0.173 A 
ATOM     90  F   UNL A   1      48.962  27.935  28.966  1.00  0.00    -0.203 F 
ATOM     91  C   UNL A   1      50.463  26.784  30.366  1.00  0.00     0.198 A 
ATOM     92  C   UNL A   1      49.658  25.656  32.326  1.00  0.00     0.198 A 
ATOM     93  F   UNL A   1      47.361  25.658  32.827  1.00  0.00    -0.203 F 
ATOM     94  F   UNL A   1      51.474  27.112  29.549  1.00  0.00    -0.200 F 
ATOM     95  C   UNL A   1      50.709  26.021  31.498  1.00  0.00     0.200 A 
ATOM     96  F   UNL A   1      49.895  24.932  33.429  1.00  0.00    -0.200 F 
ATOM     97  F   UNL A   1      51.958  25.631  31.787  1.00  0.00    -0.200 F 
ENDBRANCH  64  87
ENDBRANCH  38  39
ENDBRANCH  30  33
ENDBRANCH  28  29
ENDBRANCH  27  28
ENDBRANCH  26  27
ENDBRANCH   1  26
TORSDOF 15
ENDMDL
MODEL 3
REMARK VINA RESULT:     -12.1      5.568     11.327
REMARK SMILES Nc1ccc(C(=O)NC[C@@H]2CC[C@@H](C(=O)NCCCCNC(=O)c3ccc(-c4c5nc(c(-c6c(F)c(F)c(F)c(F)c6F)c6ccc([nH]6)c(-c6c(F)c(F)c(F)c(F)c6F)c6nc(c(-c7c(F)c(F)c(F)c(F)c7F)c7ccc4[nH]7)C=C6)C=C5)cc3)O2)cc1Cl
REMARK SMILES IDX 17 1 16 2 14 3 15 4 13 6 10 7 11 8 87 9 12 10 9 11 8 12 6 13
REMARK SMILES IDX 7 14 5 16 2 17 3 18 89 19 4 20 88 21 90 22 1 23 18 26 19 27
REMARK SMILES IDX 20 28 21 29 22 30 23 32 24 33 25 34 86 35 26 36 85 37 27 38
REMARK SMILES IDX 28 39 29 40 79 41 30 42 84 43 78 44 80 45 31 46 83 47 77 48
REMARK SMILES IDX 76 49 32 51 64 52 44 53 63 54 45 55 48 56 62 57 81 58 46 59
REMARK SMILES IDX 47 60 61 62 82 63 49 64 33 65 34 66 42 67 35 68 36 69 40 70
REMARK SMILES IDX 43 71 37 72 38 73 41 74 39 75 65 76 66 77 74 78 67 79 68 80
REMARK SMILES IDX 72 81 75 82 69 83 70 84 73 85 71 86 50 87 51 88 59 89 52 90
REMARK SMILES IDX 53 91 57 92 60 93 54 94 55 95 58 96 56 97
REMARK H PARENT 16 5 8 15 1 24 1 25 21 31 80 50 48 61
REMARK Flexibility Score: inf
ROOT
ATOM      1  C   UNL A   1      31.125  30.165  25.283  1.00  0.00     0.116 C 
ENDROOT
BRANCH   1   2
ATOM      2  N   UNL A   1      30.710  29.959  23.910  1.00  0.00    -0.354 N 
ATOM      3  C   UNL A   1      30.683  28.796  23.191  1.00  0.00     0.249 C 
ATOM      4  O   UNL A   1      30.265  28.848  22.032  1.00  0.00    -0.272 OA
ATOM      5  H   UNL A   1      30.408  30.764  23.431  1.00  0.00     0.163 HD
BRANCH   3   6
ATOM      6  C   UNL A   1      31.234  27.503  23.821  1.00  0.00     0.207 C 
ATOM      7  C   UNL A   1      31.085  25.301  23.040  1.00  0.00     0.138 C 
ATOM      8  C   UNL A   1      32.546  25.592  23.331  1.00  0.00     0.037 C 
ATOM      9  O   UNL A   1      30.359  26.369  23.668  1.00  0.00    -0.363 OA
ATOM     10  C   UNL A   1      32.576  27.097  23.219  1.00  0.00     0.045 C 
BRANCH   7  11
ATOM     11  C   UNL A   1      30.534  23.933  23.484  1.00  0.00     0.148 C 
BRANCH  11  12
ATOM     12  N   UNL A   1      30.430  23.759  24.923  1.00  0.00    -0.349 N 
ATOM     13  C   UNL A   1      31.113  23.084  25.893  1.00  0.00     0.251 C 
ATOM     14  O   UNL A   1      30.629  23.166  27.025  1.00  0.00    -0.269 OA
ATOM     15  H   UNL A   1      29.670  24.259  25.297  1.00  0.00     0.163 HD
BRANCH  13  16
ATOM     16  C   UNL A   1      32.363  22.286  25.715  1.00  0.00     0.041 A 
ATOM     17  C   UNL A   1      34.889  21.016  25.363  1.00  0.00     0.050 A 
ATOM     18  C   UNL A   1      33.694  20.309  25.209  1.00  0.00     0.028 A 
ATOM     19  C   UNL A   1      34.808  22.357  25.759  1.00  0.00     0.064 A 
ATOM     20  C   UNL A   1      32.445  20.935  25.379  1.00  0.00     0.016 A 
ATOM     21  C   UNL A   1      33.569  22.985  25.917  1.00  0.00     0.036 A 
ATOM     22  Cl  UNL A   1      36.241  23.285  26.038  1.00  0.00    -0.082 Cl
BRANCH  17  23
ATOM     23  N   UNL A   1      36.105  20.349  25.255  1.00  0.00    -0.398 N 
ATOM     24  H   UNL A   1      36.803  20.482  25.938  1.00  0.00     0.156 HD
ATOM     25  H   UNL A   1      36.269  19.745  24.496  1.00  0.00     0.156 HD
ENDBRANCH  17  23
ENDBRANCH  13  16
ENDBRANCH  11  12
ENDBRANCH   7  11
ENDBRANCH   3   6
ENDBRANCH   1   2
BRANCH   1  26
ATOM     26  C   UNL A   1      31.037  31.629  25.704  1.00  0.00     0.023 C 
BRANCH  26  27
ATOM     27  C   UNL A   1      31.516  31.929  27.122  1.00  0.00     0.023 C 
BRANCH  27  28
ATOM     28  C   UNL A   1      32.748  32.821  27.219  1.00  0.00     0.116 C 
BRANCH  28  29
ATOM     29  N   UNL A   1      32.431  34.189  27.601  1.00  0.00    -0.352 N 
ATOM     30  C   UNL A   1      32.975  34.970  28.595  1.00  0.00     0.251 C 
ATOM     31  H   UNL A   1      31.721  34.619  27.071  1.00  0.00     0.163 HD
ATOM     32  O   UNL A   1      32.476  36.054  28.866  1.00  0.00    -0.269 OA
BRANCH  30  33
ATOM     33  C   UNL A   1      34.144  34.482  29.359  1.00  0.00     0.039 A 
ATOM     34  C   UNL A   1      33.927  33.785  30.551  1.00  0.00     0.014 A 
ATOM     35  C   UNL A   1      35.446  34.702  28.903  1.00  0.00     0.014 A 
ATOM     36  C   UNL A   1      35.012  33.242  31.243  1.00  0.00     0.010 A 
ATOM     37  C   UNL A   1      36.517  34.087  29.547  1.00  0.00     0.010 A 
ATOM     38  C   UNL A   1      36.312  33.352  30.723  1.00  0.00    -0.014 A 
BRANCH  38  39
ATOM     39  C   UNL A   1      37.467  32.699  31.391  1.00  0.00     0.031 A 
ATOM     40  C   UNL A   1      38.153  31.527  30.748  1.00  0.00     0.074 A 
ATOM     41  C   UNL A   1      37.854  33.116  32.612  1.00  0.00     0.049 A 
ATOM     42  N   UNL A   1      39.128  30.782  31.207  1.00  0.00    -0.248 NA
ATOM     43  C   UNL A   1      37.657  31.118  29.426  1.00  0.00     0.031 C 
ATOM     44  C   UNL A   1      37.236  34.207  33.367  1.00  0.00     0.029 A 
ATOM     45  N   UNL A   1      38.850  32.661  33.441  1.00  0.00    -0.354 N 
ATOM     46  C   UNL A   1      39.353  29.815  30.235  1.00  0.00     0.074 A 
ATOM     47  C   UNL A   1      38.369  30.026  29.196  1.00  0.00     0.031 C 
ATOM     48  C   UNL A   1      37.877  34.349  34.538  1.00  0.00     0.029 A 
ATOM     49  C   UNL A   1      38.921  33.335  34.636  1.00  0.00     0.049 A 
ATOM     50  H   UNL A   1      39.455  31.923  33.201  1.00  0.00     0.167 HD
ATOM     51  C   UNL A   1      40.309  28.855  30.201  1.00  0.00     0.037 A 
ATOM     52  C   UNL A   1      39.730  33.149  35.697  1.00  0.00     0.037 A 
ATOM     53  C   UNL A   1      41.289  28.653  31.235  1.00  0.00     0.049 A 
ATOM     54  C   UNL A   1      40.773  32.066  35.646  1.00  0.00     0.074 A 
ATOM     55  C   UNL A   1      42.332  27.744  31.272  1.00  0.00     0.029 A 
ATOM     56  N   UNL A   1      41.342  29.367  32.425  1.00  0.00    -0.354 N 
ATOM     57  N   UNL A   1      41.026  31.204  34.691  1.00  0.00    -0.248 NA
ATOM     58  C   UNL A   1      41.651  31.936  36.817  1.00  0.00     0.031 C 
ATOM     59  C   UNL A   1      42.978  27.867  32.506  1.00  0.00     0.029 A 
ATOM     60  C   UNL A   1      42.381  28.898  33.214  1.00  0.00     0.049 A 
ATOM     61  H   UNL A   1      40.731  30.098  32.671  1.00  0.00     0.167 HD
ATOM     62  C   UNL A   1      42.103  30.447  35.132  1.00  0.00     0.074 A 
ATOM     63  C   UNL A   1      42.467  30.963  36.436  1.00  0.00     0.031 C 
ATOM     64  C   UNL A   1      42.733  29.419  34.512  1.00  0.00     0.037 A 
BRANCH  51  65
ATOM     65  C   UNL A   1      40.330  27.948  29.001  1.00  0.00     0.064 A 
ATOM     66  C   UNL A   1      41.078  28.259  27.854  1.00  0.00     0.173 A 
ATOM     67  C   UNL A   1      39.601  26.750  29.000  1.00  0.00     0.173 A 
ATOM     68  F   UNL A   1      41.786  29.397  27.797  1.00  0.00    -0.203 F 
ATOM     69  C   UNL A   1      41.055  27.430  26.736  1.00  0.00     0.198 A 
ATOM     70  C   UNL A   1      39.612  25.903  27.893  1.00  0.00     0.198 A 
ATOM     71  F   UNL A   1      38.875  26.397  30.071  1.00  0.00    -0.203 F 
ATOM     72  F   UNL A   1      41.721  27.785  25.628  1.00  0.00    -0.200 F 
ATOM     73  C   UNL A   1      40.328  26.251  26.758  1.00  0.00     0.200 A 
ATOM     74  F   UNL A   1      38.919  24.756  27.923  1.00  0.00    -0.200 F 
ATOM     75  F   UNL A   1      40.307  25.454  25.681  1.00  0.00    -0.200 F 
ENDBRANCH  51  65
BRANCH  52  76
ATOM     76  C   UNL A   1      39.590  34.025  36.890  1.00  0.00     0.064 A 
ATOM     77  C   UNL A   1      38.823  33.626  37.993  1.00  0.00     0.173 A 
ATOM     78  C   UNL A   1      40.236  35.268  36.960  1.00  0.00     0.173 A 
ATOM     79  F   UNL A   1      38.170  32.454  37.966  1.00  0.00    -0.203 F 
ATOM     80  C   UNL A   1      38.697  34.442  39.115  1.00  0.00     0.198 A 
ATOM     81  C   UNL A   1      40.133  36.071  38.094  1.00  0.00     0.198 A 
ATOM     82  F   UNL A   1      40.987  35.694  35.934  1.00  0.00    -0.203 F 
ATOM     83  F   UNL A   1      37.926  34.053  40.140  1.00  0.00    -0.200 F 
ATOM     84  C   UNL A   1      39.359  35.660  39.168  1.00  0.00     0.200 A 
ATOM     85  F   UNL A   1      40.789  37.238  38.149  1.00  0.00    -0.200 F 
ATOM     86  F   UNL A   1      39.247  36.439  40.253  1.00  0.00    -0.200 F 
ENDBRANCH  52  76
BRANCH  64  87
ATOM     87  C   UNL A   1      43.905  28.800  35.221  1.00  0.00     0.064 A 
ATOM     88  C   UNL A   1      43.753  27.712  36.093  1.00  0.00     0.173 A 
ATOM     89  C   UNL A   1      45.205  29.278  34.990  1.00  0.00     0.173 A 
ATOM     90  F   UNL A   1      42.531  27.227  36.360  1.00  0.00    -0.203 F 
ATOM     91  C   UNL A   1      44.854  27.144  36.727  1.00  0.00     0.198 A 
ATOM     92  C   UNL A   1      46.307  28.685  35.599  1.00  0.00     0.198 A 
ATOM     93  F   UNL A   1      45.409  30.312  34.159  1.00  0.00    -0.203 F 
ATOM     94  F   UNL A   1      44.680  26.138  37.596  1.00  0.00    -0.200 F 
ATOM     95  C   UNL A   1      46.130  27.624  36.474  1.00  0.00     0.200 A 
ATOM     96  F   UNL A   1      47.540  29.140  35.339  1.00  0.00    -0.200 F 
ATOM     97  F   UNL A   1      47.190  27.068  37.078  1.00  0.00    -0.200 F 
ENDBRANCH  64  87
ENDBRANCH  38  39
ENDBRANCH  30  33
ENDBRANCH  28  29
ENDBRANCH  27  28
ENDBRANCH  26  27
ENDBRANCH   1  26
TORSDOF 15
ENDMDL
