MODEL 1
REMARK VINA RESULT:     -13.5      0.000      0.000
REMARK SMILES O=C(NCCCCNC(=O)[C@@H]1CN(C(=O)C2CCCC2)C[C@H]1c1ccccc1)c1ccc(-c2c3nc(c(-c4c(F)c(F)c(F)c(F)c4F)c4ccc([nH]4)c(-c4c(F)c(F)c(F)c(F)c4F)c4nc(c(-c5c(F)c(F)c(F)c(F)c5F)c5ccc2[nH]5)C=C4)C=C3)cc1
REMARK SMILES IDX 5 1 4 2 3 3 1 4 2 5 29 7 30 8 91 9 31 10 90 11 32 12 33 13
REMARK SMILES IDX 34 14 84 15 35 16 89 17 83 18 85 19 36 20 88 21 82 22 81 23
REMARK SMILES IDX 37 25 69 26 49 27 68 28 50 29 53 30 67 31 86 32 51 33 52 34
REMARK SMILES IDX 66 36 87 37 54 38 38 39 39 40 47 41 40 42 41 43 45 44 48 45
REMARK SMILES IDX 42 46 43 47 46 48 44 49 70 50 71 51 79 52 72 53 73 54 77 55
REMARK SMILES IDX 80 56 74 57 75 58 78 59 76 60 55 61 56 62 64 63 57 64 58 65
REMARK SMILES IDX 62 66 65 67 59 68 60 69 63 70 61 71 6 72 7 73 8 74 9 75
REMARK SMILES IDX 10 77 11 78 12 79 22 80 13 81 21 82 23 83 24 84 28 85 25 86
REMARK SMILES IDX 27 87 26 88 14 89 15 90 16 91 17 92 20 93 18 94 19 95
REMARK H PARENT 3 6 85 24 53 35 8 76
REMARK Flexibility Score: inf
ROOT
ATOM      1  C   UNL A   1      31.592  31.921  26.615  1.00  0.00     0.023 C 
ENDROOT
BRANCH   1   2
ATOM      2  C   UNL A   1      32.753  32.678  27.251  1.00  0.00     0.116 C 
BRANCH   2   3
ATOM      3  N   UNL A   1      32.418  34.044  27.625  1.00  0.00    -0.352 N 
ATOM      4  O   UNL A   1      32.528  35.948  28.839  1.00  0.00    -0.269 OA
ATOM      5  C   UNL A   1      33.005  34.849  28.575  1.00  0.00     0.251 C 
ATOM      6  H   UNL A   1      31.668  34.448  27.132  1.00  0.00     0.163 HD
BRANCH   5   7
ATOM      7  C   UNL A   1      34.193  34.362  29.308  1.00  0.00     0.039 A 
ATOM      8  C   UNL A   1      35.477  34.571  28.800  1.00  0.00     0.014 A 
ATOM      9  C   UNL A   1      34.014  33.651  30.497  1.00  0.00     0.014 A 
ATOM     10  C   UNL A   1      36.560  33.928  29.386  1.00  0.00     0.010 A 
ATOM     11  C   UNL A   1      35.116  33.075  31.133  1.00  0.00     0.010 A 
ATOM     12  C   UNL A   1      36.392  33.166  30.555  1.00  0.00    -0.014 A 
BRANCH  12  13
ATOM     13  C   UNL A   1      37.570  32.481  31.148  1.00  0.00     0.031 A 
ATOM     14  C   UNL A   1      38.026  32.794  32.547  1.00  0.00     0.074 A 
ATOM     15  C   UNL A   1      38.199  31.529  30.432  1.00  0.00     0.049 A 
ATOM     16  N   UNL A   1      38.993  32.248  33.242  1.00  0.00    -0.248 NA
ATOM     17  C   UNL A   1      37.310  33.863  33.261  1.00  0.00     0.031 C 
ATOM     18  C   UNL A   1      37.858  31.148  29.060  1.00  0.00     0.029 A 
ATOM     19  N   UNL A   1      39.232  30.692  30.764  1.00  0.00    -0.354 N 
ATOM     20  C   UNL A   1      39.019  32.921  34.457  1.00  0.00     0.074 A 
ATOM     21  C   UNL A   1      37.986  33.932  34.399  1.00  0.00     0.031 C 
ATOM     22  C   UNL A   1      38.627  30.115  28.689  1.00  0.00     0.029 A 
ATOM     23  C   UNL A   1      39.548  29.795  29.774  1.00  0.00     0.049 A 
ATOM     24  H   UNL A   1      39.701  30.729  31.629  1.00  0.00     0.167 HD
ATOM     25  C   UNL A   1      39.827  32.709  35.524  1.00  0.00     0.037 A 
ATOM     26  C   UNL A   1      40.477  28.822  29.743  1.00  0.00     0.037 A 
ATOM     27  C   UNL A   1      40.833  31.680  35.592  1.00  0.00     0.049 A 
ATOM     28  C   UNL A   1      41.348  28.601  30.946  1.00  0.00     0.074 A 
ATOM     29  C   UNL A   1      41.670  31.359  36.647  1.00  0.00     0.029 A 
ATOM     30  N   UNL A   1      41.135  30.802  34.562  1.00  0.00    -0.354 N 
ATOM     31  N   UNL A   1      41.337  29.222  32.100  1.00  0.00    -0.248 NA
ATOM     32  C   UNL A   1      42.362  27.543  30.840  1.00  0.00     0.031 C 
ATOM     33  C   UNL A   1      42.506  30.312  36.242  1.00  0.00     0.029 A 
ATOM     34  C   UNL A   1      42.158  29.951  34.950  1.00  0.00     0.049 A 
ATOM     35  H   UNL A   1      40.690  30.786  33.684  1.00  0.00     0.167 HD
ATOM     36  C   UNL A   1      42.324  28.617  32.866  1.00  0.00     0.074 A 
ATOM     37  C   UNL A   1      42.902  27.570  32.050  1.00  0.00     0.031 C 
ATOM     38  C   UNL A   1      42.718  28.907  34.129  1.00  0.00     0.037 A 
BRANCH  25  39
ATOM     39  C   UNL A   1      39.671  33.619  36.709  1.00  0.00     0.064 A 
ATOM     40  C   UNL A   1      40.326  34.856  36.782  1.00  0.00     0.173 A 
ATOM     41  C   UNL A   1      38.813  33.268  37.762  1.00  0.00     0.173 A 
ATOM     42  F   UNL A   1      41.166  35.234  35.807  1.00  0.00    -0.203 F 
ATOM     43  C   UNL A   1      40.146  35.699  37.878  1.00  0.00     0.198 A 
ATOM     44  C   UNL A   1      38.615  34.123  38.843  1.00  0.00     0.198 A 
ATOM     45  F   UNL A   1      38.156  32.098  37.738  1.00  0.00    -0.203 F 
ATOM     46  F   UNL A   1      40.814  36.858  37.945  1.00  0.00    -0.200 F 
ATOM     47  C   UNL A   1      39.286  35.335  38.903  1.00  0.00     0.200 A 
ATOM     48  F   UNL A   1      37.775  33.774  39.827  1.00  0.00    -0.200 F 
ATOM     49  F   UNL A   1      39.109  36.149  39.952  1.00  0.00    -0.200 F 
ENDBRANCH  25  39
BRANCH  26  50
ATOM     50  C   UNL A   1      40.609  27.970  28.534  1.00  0.00     0.064 A 
ATOM     51  C   UNL A   1      41.397  28.379  27.449  1.00  0.00     0.173 A 
ATOM     52  C   UNL A   1      39.968  26.727  28.446  1.00  0.00     0.173 A 
ATOM     53  F   UNL A   1      42.016  29.569  27.482  1.00  0.00    -0.203 F 
ATOM     54  C   UNL A   1      41.527  27.581  26.315  1.00  0.00     0.198 A 
ATOM     55  C   UNL A   1      40.120  25.919  27.323  1.00  0.00     0.198 A 
ATOM     56  F   UNL A   1      39.209  26.290  29.461  1.00  0.00    -0.203 F 
ATOM     57  F   UNL A   1      42.255  28.011  25.276  1.00  0.00    -0.200 F 
ATOM     58  C   UNL A   1      40.893  26.348  26.256  1.00  0.00     0.200 A 
ATOM     59  F   UNL A   1      39.519  24.721  27.277  1.00  0.00    -0.200 F 
ATOM     60  F   UNL A   1      41.025  25.577  25.168  1.00  0.00    -0.200 F 
ENDBRANCH  26  50
BRANCH  38  61
ATOM     61  C   UNL A   1      43.801  28.055  34.717  1.00  0.00     0.064 A 
ATOM     62  C   UNL A   1      43.512  26.859  35.390  1.00  0.00     0.173 A 
ATOM     63  C   UNL A   1      45.147  28.431  34.590  1.00  0.00     0.173 A 
ATOM     64  F   UNL A   1      42.239  26.466  35.551  1.00  0.00    -0.203 F 
ATOM     65  C   UNL A   1      44.529  26.085  35.941  1.00  0.00     0.198 A 
ATOM     66  C   UNL A   1      46.163  27.641  35.120  1.00  0.00     0.198 A 
ATOM     67  F   UNL A   1      45.475  29.564  33.951  1.00  0.00    -0.203 F 
ATOM     68  F   UNL A   1      44.227  24.972  36.624  1.00  0.00    -0.200 F 
ATOM     69  C   UNL A   1      45.853  26.474  35.801  1.00  0.00     0.200 A 
ATOM     70  F   UNL A   1      47.443  28.013  34.975  1.00  0.00    -0.200 F 
ATOM     71  F   UNL A   1      46.832  25.728  36.333  1.00  0.00    -0.200 F 
ENDBRANCH  38  61
ENDBRANCH  12  13
ENDBRANCH   5   7
ENDBRANCH   2   3
ENDBRANCH   1   2
BRANCH   1  72
ATOM     72  C   UNL A   1      31.715  30.396  26.637  1.00  0.00     0.023 C 
BRANCH  72  73
ATOM     73  C   UNL A   1      33.128  29.871  26.395  1.00  0.00     0.116 C 
BRANCH  73  74
ATOM     74  N   UNL A   1      33.401  29.708  24.978  1.00  0.00    -0.356 N 
ATOM     75  C   UNL A   1      32.836  28.865  24.069  1.00  0.00     0.225 C 
ATOM     76  H   UNL A   1      34.102  30.298  24.618  1.00  0.00     0.163 HD
ATOM     77  O   UNL A   1      33.213  28.935  22.900  1.00  0.00    -0.275 OA
BRANCH  75  78
ATOM     78  C   UNL A   1      31.771  27.891  24.511  1.00  0.00     0.107 C 
ATOM     79  C   UNL A   1      32.404  26.519  24.696  1.00  0.00     0.133 C 
ATOM     80  C   UNL A   1      30.674  27.623  23.453  1.00  0.00     0.053 C 
ATOM     81  N   UNL A   1      31.260  25.635  24.686  1.00  0.00    -0.341 N 
ATOM     82  C   UNL A   1      30.204  26.200  23.851  1.00  0.00     0.128 C 
BRANCH  80  83
ATOM     83  C   UNL A   1      29.617  28.720  23.384  1.00  0.00    -0.042 A 
ATOM     84  C   UNL A   1      29.895  30.080  23.592  1.00  0.00     0.004 A 
ATOM     85  C   UNL A   1      28.277  28.371  23.126  1.00  0.00     0.004 A 
ATOM     86  C   UNL A   1      28.892  31.050  23.481  1.00  0.00     0.000 A 
ATOM     87  C   UNL A   1      27.278  29.340  23.003  1.00  0.00     0.000 A 
ATOM     88  C   UNL A   1      27.588  30.683  23.172  1.00  0.00     0.000 A 
ENDBRANCH  80  83
BRANCH  81  89
ATOM     89  C   UNL A   1      31.027  24.485  25.400  1.00  0.00     0.225 C 
ATOM     90  O   UNL A   1      30.753  24.543  26.604  1.00  0.00    -0.275 OA
BRANCH  89  91
ATOM     91  C   UNL A   1      31.166  23.112  24.752  1.00  0.00     0.078 C 
ATOM     92  C   UNL A   1      32.237  22.974  23.676  1.00  0.00     0.013 C 
ATOM     93  C   UNL A   1      31.402  21.960  25.736  1.00  0.00     0.013 C 
ATOM     94  C   UNL A   1      32.448  21.471  23.588  1.00  0.00     0.001 C 
ATOM     95  C   UNL A   1      32.345  20.986  25.028  1.00  0.00     0.001 C 
ENDBRANCH  89  91
ENDBRANCH  81  89
ENDBRANCH  75  78
ENDBRANCH  73  74
ENDBRANCH  72  73
ENDBRANCH   1  72
TORSDOF 14
ENDMDL
MODEL 2
REMARK VINA RESULT:     -13.5      5.547     11.355
REMARK SMILES O=C(NCCCCNC(=O)[C@@H]1CN(C(=O)C2CCCC2)C[C@H]1c1ccccc1)c1ccc(-c2c3nc(c(-c4c(F)c(F)c(F)c(F)c4F)c4ccc([nH]4)c(-c4c(F)c(F)c(F)c(F)c4F)c4nc(c(-c5c(F)c(F)c(F)c(F)c5F)c5ccc2[nH]5)C=C4)C=C3)cc1
REMARK SMILES IDX 5 1 4 2 3 3 1 4 2 5 29 7 30 8 91 9 31 10 90 11 32 12 33 13
REMARK SMILES IDX 34 14 84 15 35 16 89 17 83 18 85 19 36 20 88 21 82 22 81 23
REMARK SMILES IDX 37 25 69 26 49 27 68 28 50 29 53 30 67 31 86 32 51 33 52 34
REMARK SMILES IDX 66 36 87 37 54 38 38 39 39 40 47 41 40 42 41 43 45 44 48 45
REMARK SMILES IDX 42 46 43 47 46 48 44 49 70 50 71 51 79 52 72 53 73 54 77 55
REMARK SMILES IDX 80 56 74 57 75 58 78 59 76 60 55 61 56 62 64 63 57 64 58 65
REMARK SMILES IDX 62 66 65 67 59 68 60 69 63 70 61 71 6 72 7 73 8 74 9 75
REMARK SMILES IDX 10 77 11 78 12 79 22 80 13 81 21 82 23 83 24 84 28 85 25 86
REMARK SMILES IDX 27 87 26 88 14 89 15 90 16 91 17 92 20 93 18 94 19 95
REMARK H PARENT 3 6 85 24 53 35 8 76
REMARK Flexibility Score: inf
ROOT
ATOM      1  C   UNL A   1      38.059  19.872  25.091  1.00  0.00     0.023 C 
ENDROOT
BRANCH   1   2
ATOM      2  C   UNL A   1      39.263  20.137  25.989  1.00  0.00     0.116 C 
BRANCH   2   3
ATOM      3  N   UNL A   1      40.260  19.078  25.948  1.00  0.00    -0.352 N 
ATOM      4  O   UNL A   1      42.336  18.185  25.926  1.00  0.00    -0.269 OA
ATOM      5  C   UNL A   1      41.625  19.171  26.094  1.00  0.00     0.251 C 
ATOM      6  H   UNL A   1      39.910  18.171  25.795  1.00  0.00     0.163 HD
BRANCH   5   7
ATOM      7  C   UNL A   1      42.236  20.479  26.414  1.00  0.00     0.039 A 
ATOM      8  C   UNL A   1      42.325  20.918  27.736  1.00  0.00     0.014 A 
ATOM      9  C   UNL A   1      42.686  21.291  25.370  1.00  0.00     0.014 A 
ATOM     10  C   UNL A   1      42.703  22.228  28.000  1.00  0.00     0.010 A 
ATOM     11  C   UNL A   1      43.147  22.581  25.646  1.00  0.00     0.010 A 
ATOM     12  C   UNL A   1      43.111  23.078  26.958  1.00  0.00    -0.014 A 
BRANCH  12  13
ATOM     13  C   UNL A   1      43.498  24.478  27.275  1.00  0.00     0.031 A 
ATOM     14  C   UNL A   1      44.874  24.994  26.953  1.00  0.00     0.074 A 
ATOM     15  C   UNL A   1      42.576  25.303  27.808  1.00  0.00     0.049 A 
ATOM     16  N   UNL A   1      45.359  26.202  27.104  1.00  0.00    -0.248 NA
ATOM     17  C   UNL A   1      45.837  24.031  26.397  1.00  0.00     0.031 C 
ATOM     18  C   UNL A   1      41.214  24.914  28.176  1.00  0.00     0.029 A 
ATOM     19  N   UNL A   1      42.634  26.640  28.106  1.00  0.00    -0.354 N 
ATOM     20  C   UNL A   1      46.682  26.138  26.689  1.00  0.00     0.074 A 
ATOM     21  C   UNL A   1      46.935  24.767  26.300  1.00  0.00     0.031 C 
ATOM     22  C   UNL A   1      40.547  25.998  28.596  1.00  0.00     0.029 A 
ATOM     23  C   UNL A   1      41.448  27.146  28.575  1.00  0.00     0.049 A 
ATOM     24  H   UNL A   1      43.447  27.184  27.994  1.00  0.00     0.167 HD
ATOM     25  C   UNL A   1      47.600  27.134  26.632  1.00  0.00     0.037 A 
ATOM     26  C   UNL A   1      41.120  28.397  28.948  1.00  0.00     0.037 A 
ATOM     27  C   UNL A   1      47.337  28.505  26.987  1.00  0.00     0.049 A 
ATOM     28  C   UNL A   1      42.153  29.483  28.860  1.00  0.00     0.074 A 
ATOM     29  C   UNL A   1      48.190  29.593  26.921  1.00  0.00     0.029 A 
ATOM     30  N   UNL A   1      46.128  28.976  27.476  1.00  0.00    -0.354 N 
ATOM     31  N   UNL A   1      43.390  29.414  28.432  1.00  0.00    -0.248 NA
ATOM     32  C   UNL A   1      41.744  30.820  29.308  1.00  0.00     0.031 C 
ATOM     33  C   UNL A   1      47.508  30.716  27.404  1.00  0.00     0.029 A 
ATOM     34  C   UNL A   1      46.216  30.335  27.730  1.00  0.00     0.049 A 
ATOM     35  H   UNL A   1      45.324  28.425  27.621  1.00  0.00     0.167 HD
ATOM     36  C   UNL A   1      43.900  30.701  28.538  1.00  0.00     0.074 A 
ATOM     37  C   UNL A   1      42.833  31.532  29.054  1.00  0.00     0.031 C 
ATOM     38  C   UNL A   1      45.142  31.151  28.237  1.00  0.00     0.037 A 
BRANCH  25  39
ATOM     39  C   UNL A   1      48.987  26.779  26.179  1.00  0.00     0.064 A 
ATOM     40  C   UNL A   1      49.391  26.932  24.845  1.00  0.00     0.173 A 
ATOM     41  C   UNL A   1      49.939  26.325  27.105  1.00  0.00     0.173 A 
ATOM     42  F   UNL A   1      48.517  27.351  23.918  1.00  0.00    -0.203 F 
ATOM     43  C   UNL A   1      50.692  26.623  24.450  1.00  0.00     0.198 A 
ATOM     44  C   UNL A   1      51.245  26.041  26.712  1.00  0.00     0.198 A 
ATOM     45  F   UNL A   1      49.606  26.168  28.395  1.00  0.00    -0.203 F 
ATOM     46  F   UNL A   1      51.044  26.739  23.163  1.00  0.00    -0.200 F 
ATOM     47  C   UNL A   1      51.619  26.185  25.385  1.00  0.00     0.200 A 
ATOM     48  F   UNL A   1      52.141  25.629  27.618  1.00  0.00    -0.200 F 
ATOM     49  F   UNL A   1      52.870  25.895  25.004  1.00  0.00    -0.200 F 
ENDBRANCH  25  39
BRANCH  26  50
ATOM     50  C   UNL A   1      39.741  28.687  29.416  1.00  0.00     0.064 A 
ATOM     51  C   UNL A   1      39.386  28.509  30.760  1.00  0.00     0.173 A 
ATOM     52  C   UNL A   1      38.759  29.163  28.537  1.00  0.00     0.173 A 
ATOM     53  F   UNL A   1      40.288  28.039  31.635  1.00  0.00    -0.203 F 
ATOM     54  C   UNL A   1      38.095  28.784  31.204  1.00  0.00     0.198 A 
ATOM     55  C   UNL A   1      37.477  29.463  28.987  1.00  0.00     0.198 A 
ATOM     56  F   UNL A   1      39.054  29.355  27.243  1.00  0.00    -0.203 F 
ATOM     57  F   UNL A   1      37.769  28.571  32.486  1.00  0.00    -0.200 F 
ATOM     58  C   UNL A   1      37.143  29.268  30.318  1.00  0.00     0.200 A 
ATOM     59  F   UNL A   1      36.565  29.946  28.130  1.00  0.00    -0.200 F 
ATOM     60  F   UNL A   1      35.903  29.540  30.747  1.00  0.00    -0.200 F 
ENDBRANCH  26  50
BRANCH  38  61
ATOM     61  C   UNL A   1      45.400  32.616  28.426  1.00  0.00     0.064 A 
ATOM     62  C   UNL A   1      45.931  33.120  29.621  1.00  0.00     0.173 A 
ATOM     63  C   UNL A   1      45.126  33.523  27.391  1.00  0.00     0.173 A 
ATOM     64  F   UNL A   1      46.194  32.293  30.645  1.00  0.00    -0.203 F 
ATOM     65  C   UNL A   1      46.152  34.484  29.785  1.00  0.00     0.198 A 
ATOM     66  C   UNL A   1      45.374  34.883  27.550  1.00  0.00     0.198 A 
ATOM     67  F   UNL A   1      44.621  33.088  26.227  1.00  0.00    -0.203 F 
ATOM     68  F   UNL A   1      46.614  34.951  30.954  1.00  0.00    -0.200 F 
ATOM     69  C   UNL A   1      45.878  35.363  28.748  1.00  0.00     0.200 A 
ATOM     70  F   UNL A   1      45.117  35.730  26.543  1.00  0.00    -0.200 F 
ATOM     71  F   UNL A   1      46.091  36.678  28.908  1.00  0.00    -0.200 F 
ENDBRANCH  38  61
ENDBRANCH  12  13
ENDBRANCH   5   7
ENDBRANCH   2   3
ENDBRANCH   1   2
BRANCH   1  72
ATOM     72  C   UNL A   1      37.352  21.120  24.558  1.00  0.00     0.023 C 
BRANCH  72  73
ATOM     73  C   UNL A   1      37.096  22.199  25.608  1.00  0.00     0.116 C 
BRANCH  73  74
ATOM     74  N   UNL A   1      36.025  21.820  26.513  1.00  0.00    -0.356 N 
ATOM     75  C   UNL A   1      34.694  21.659  26.274  1.00  0.00     0.225 C 
ATOM     76  H   UNL A   1      36.305  21.652  27.442  1.00  0.00     0.163 HD
ATOM     77  O   UNL A   1      33.978  21.293  27.206  1.00  0.00    -0.275 OA
BRANCH  75  78
ATOM     78  C   UNL A   1      34.143  21.919  24.893  1.00  0.00     0.107 C 
ATOM     79  C   UNL A   1      33.619  23.347  24.833  1.00  0.00     0.133 C 
ATOM     80  C   UNL A   1      32.893  21.079  24.538  1.00  0.00     0.053 C 
ATOM     81  N   UNL A   1      32.763  23.324  23.667  1.00  0.00    -0.341 N 
ATOM     82  C   UNL A   1      32.198  21.990  23.493  1.00  0.00     0.128 C 
BRANCH  80  83
ATOM     83  C   UNL A   1      33.222  19.650  24.118  1.00  0.00    -0.042 A 
ATOM     84  C   UNL A   1      34.307  18.922  24.629  1.00  0.00     0.004 A 
ATOM     85  C   UNL A   1      32.423  19.016  23.148  1.00  0.00     0.004 A 
ATOM     86  C   UNL A   1      34.542  17.599  24.235  1.00  0.00     0.000 A 
ATOM     87  C   UNL A   1      32.649  17.691  22.764  1.00  0.00     0.000 A 
ATOM     88  C   UNL A   1      33.706  16.979  23.316  1.00  0.00     0.000 A 
ENDBRANCH  80  83
BRANCH  81  89
ATOM     89  C   UNL A   1      32.534  24.294  22.722  1.00  0.00     0.225 C 
ATOM     90  O   UNL A   1      33.386  24.537  21.859  1.00  0.00    -0.275 OA
BRANCH  89  91
ATOM     91  C   UNL A   1      31.265  25.139  22.750  1.00  0.00     0.078 C 
ATOM     92  C   UNL A   1      30.691  25.456  24.125  1.00  0.00     0.013 C 
ATOM     93  C   UNL A   1      31.372  26.480  22.015  1.00  0.00     0.013 C 
ATOM     94  C   UNL A   1      29.781  26.644  23.855  1.00  0.00     0.001 C 
ATOM     95  C   UNL A   1      30.531  27.472  22.820  1.00  0.00     0.001 C 
ENDBRANCH  89  91
ENDBRANCH  81  89
ENDBRANCH  75  78
ENDBRANCH  73  74
ENDBRANCH  72  73
ENDBRANCH   1  72
TORSDOF 14
ENDMDL
MODEL 3
REMARK VINA RESULT:     -13.4      0.181      1.937
REMARK SMILES O=C(NCCCCNC(=O)[C@@H]1CN(C(=O)C2CCCC2)C[C@H]1c1ccccc1)c1ccc(-c2c3nc(c(-c4c(F)c(F)c(F)c(F)c4F)c4ccc([nH]4)c(-c4c(F)c(F)c(F)c(F)c4F)c4nc(c(-c5c(F)c(F)c(F)c(F)c5F)c5ccc2[nH]5)C=C4)C=C3)cc1
REMARK SMILES IDX 5 1 4 2 3 3 1 4 2 5 29 7 30 8 91 9 31 10 90 11 32 12 33 13
REMARK SMILES IDX 34 14 84 15 35 16 89 17 83 18 85 19 36 20 88 21 82 22 81 23
REMARK SMILES IDX 37 25 69 26 49 27 68 28 50 29 53 30 67 31 86 32 51 33 52 34
REMARK SMILES IDX 66 36 87 37 54 38 38 39 39 40 47 41 40 42 41 43 45 44 48 45
REMARK SMILES IDX 42 46 43 47 46 48 44 49 70 50 71 51 79 52 72 53 73 54 77 55
REMARK SMILES IDX 80 56 74 57 75 58 78 59 76 60 55 61 56 62 64 63 57 64 58 65
REMARK SMILES IDX 62 66 65 67 59 68 60 69 63 70 61 71 6 72 7 73 8 74 9 75
REMARK SMILES IDX 10 77 11 78 12 79 22 80 13 81 21 82 23 83 24 84 28 85 25 86
REMARK SMILES IDX 27 87 26 88 14 89 15 90 16 91 17 92 20 93 18 94 19 95
REMARK H PARENT 3 6 85 24 53 35 8 76
REMARK Flexibility Score: inf
ROOT
ATOM      1  C   UNL A   1      31.599  31.772  26.681  1.00  0.00     0.023 C 
ENDROOT
BRANCH   1   2
ATOM      2  C   UNL A   1      32.778  32.554  27.251  1.00  0.00     0.116 C 
BRANCH   2   3
ATOM      3  N   UNL A   1      32.451  33.931  27.588  1.00  0.00    -0.352 N 
ATOM      4  O   UNL A   1      32.567  35.864  28.753  1.00  0.00    -0.269 OA
ATOM      5  C   UNL A   1      33.038  34.755  28.520  1.00  0.00     0.251 C 
ATOM      6  H   UNL A   1      31.707  34.328  27.079  1.00  0.00     0.163 HD
BRANCH   5   7
ATOM      7  C   UNL A   1      34.218  34.279  29.273  1.00  0.00     0.039 A 
ATOM      8  C   UNL A   1      35.510  34.556  28.821  1.00  0.00     0.014 A 
ATOM      9  C   UNL A   1      34.024  33.510  30.423  1.00  0.00     0.014 A 
ATOM     10  C   UNL A   1      36.594  33.926  29.416  1.00  0.00     0.010 A 
ATOM     11  C   UNL A   1      35.125  32.946  31.072  1.00  0.00     0.010 A 
ATOM     12  C   UNL A   1      36.416  33.107  30.544  1.00  0.00    -0.014 A 
BRANCH  12  13
ATOM     13  C   UNL A   1      37.598  32.439  31.148  1.00  0.00     0.031 A 
ATOM     14  C   UNL A   1      38.039  32.762  32.550  1.00  0.00     0.074 A 
ATOM     15  C   UNL A   1      38.243  31.492  30.440  1.00  0.00     0.049 A 
ATOM     16  N   UNL A   1      39.008  32.230  33.254  1.00  0.00    -0.248 NA
ATOM     17  C   UNL A   1      37.305  33.825  33.254  1.00  0.00     0.031 C 
ATOM     18  C   UNL A   1      37.917  31.102  29.067  1.00  0.00     0.029 A 
ATOM     19  N   UNL A   1      39.283  30.668  30.783  1.00  0.00    -0.354 N 
ATOM     20  C   UNL A   1      39.016  32.907  34.466  1.00  0.00     0.074 A 
ATOM     21  C   UNL A   1      37.971  33.906  34.397  1.00  0.00     0.031 C 
ATOM     22  C   UNL A   1      38.701  30.077  28.705  1.00  0.00     0.029 A 
ATOM     23  C   UNL A   1      39.618  29.772  29.798  1.00  0.00     0.049 A 
ATOM     24  H   UNL A   1      39.746  30.714  31.651  1.00  0.00     0.167 HD
ATOM     25  C   UNL A   1      39.819  32.709  35.540  1.00  0.00     0.037 A 
ATOM     26  C   UNL A   1      40.559  28.811  29.777  1.00  0.00     0.037 A 
ATOM     27  C   UNL A   1      40.837  31.692  35.619  1.00  0.00     0.049 A 
ATOM     28  C   UNL A   1      41.424  28.604  30.987  1.00  0.00     0.074 A 
ATOM     29  C   UNL A   1      41.670  31.385  36.681  1.00  0.00     0.029 A 
ATOM     30  N   UNL A   1      41.158  30.815  34.594  1.00  0.00    -0.354 N 
ATOM     31  N   UNL A   1      41.397  29.229  32.140  1.00  0.00    -0.248 NA
ATOM     32  C   UNL A   1      42.451  27.559  30.893  1.00  0.00     0.031 C 
ATOM     33  C   UNL A   1      42.522  30.347  36.286  1.00  0.00     0.029 A 
ATOM     34  C   UNL A   1      42.188  29.977  34.993  1.00  0.00     0.049 A 
ATOM     35  H   UNL A   1      40.719  30.790  33.713  1.00  0.00     0.167 HD
ATOM     36  C   UNL A   1      42.385  28.639  32.914  1.00  0.00     0.074 A 
ATOM     37  C   UNL A   1      42.982  27.596  32.107  1.00  0.00     0.031 C 
ATOM     38  C   UNL A   1      42.766  28.938  34.180  1.00  0.00     0.037 A 
BRANCH  25  39
ATOM     39  C   UNL A   1      39.643  33.620  36.720  1.00  0.00     0.064 A 
ATOM     40  C   UNL A   1      38.789  33.295  37.784  1.00  0.00     0.173 A 
ATOM     41  C   UNL A   1      40.376  34.813  36.810  1.00  0.00     0.173 A 
ATOM     42  F   UNL A   1      38.057  32.172  37.744  1.00  0.00    -0.203 F 
ATOM     43  C   UNL A   1      38.660  34.141  38.885  1.00  0.00     0.198 A 
ATOM     44  C   UNL A   1      40.264  35.644  37.921  1.00  0.00     0.198 A 
ATOM     45  F   UNL A   1      41.212  35.168  35.822  1.00  0.00    -0.203 F 
ATOM     46  F   UNL A   1      37.809  33.829  39.870  1.00  0.00    -0.200 F 
ATOM     47  C   UNL A   1      39.403  35.311  38.955  1.00  0.00     0.200 A 
ATOM     48  F   UNL A   1      40.991  36.768  37.993  1.00  0.00    -0.200 F 
ATOM     49  F   UNL A   1      39.282  36.119  40.016  1.00  0.00    -0.200 F 
ENDBRANCH  25  39
BRANCH  26  50
ATOM     50  C   UNL A   1      40.711  27.956  28.572  1.00  0.00     0.064 A 
ATOM     51  C   UNL A   1      40.041  26.730  28.472  1.00  0.00     0.173 A 
ATOM     52  C   UNL A   1      41.513  28.355  27.494  1.00  0.00     0.173 A 
ATOM     53  F   UNL A   1      39.275  26.299  29.486  1.00  0.00    -0.203 F 
ATOM     54  C   UNL A   1      40.178  25.927  27.342  1.00  0.00     0.198 A 
ATOM     55  C   UNL A   1      41.628  27.565  26.354  1.00  0.00     0.198 A 
ATOM     56  F   UNL A   1      42.169  29.523  27.542  1.00  0.00    -0.203 F 
ATOM     57  F   UNL A   1      39.556  24.741  27.285  1.00  0.00    -0.200 F 
ATOM     58  C   UNL A   1      40.966  26.349  26.281  1.00  0.00     0.200 A 
ATOM     59  F   UNL A   1      42.377  27.983  25.325  1.00  0.00    -0.200 F 
ATOM     60  F   UNL A   1      41.091  25.580  25.191  1.00  0.00    -0.200 F 
ENDBRANCH  26  50
BRANCH  38  61
ATOM     61  C   UNL A   1      43.856  28.101  34.779  1.00  0.00     0.064 A 
ATOM     62  C   UNL A   1      45.203  28.481  34.698  1.00  0.00     0.173 A 
ATOM     63  C   UNL A   1      43.545  26.912  35.456  1.00  0.00     0.173 A 
ATOM     64  F   UNL A   1      45.551  29.600  34.046  1.00  0.00    -0.203 F 
ATOM     65  C   UNL A   1      46.203  27.685  35.248  1.00  0.00     0.198 A 
ATOM     66  C   UNL A   1      44.546  26.133  36.028  1.00  0.00     0.198 A 
ATOM     67  F   UNL A   1      42.270  26.508  35.564  1.00  0.00    -0.203 F 
ATOM     68  F   UNL A   1      47.489  28.041  35.116  1.00  0.00    -0.200 F 
ATOM     69  C   UNL A   1      45.874  26.515  35.917  1.00  0.00     0.200 A 
ATOM     70  F   UNL A   1      44.226  25.007  36.682  1.00  0.00    -0.200 F 
ATOM     71  F   UNL A   1      46.839  25.749  36.446  1.00  0.00    -0.200 F 
ENDBRANCH  38  61
ENDBRANCH  12  13
ENDBRANCH   5   7
ENDBRANCH   2   3
ENDBRANCH   1   2
BRANCH   1  72
ATOM     72  C   UNL A   1      31.777  30.253  26.643  1.00  0.00     0.023 C 
BRANCH  72  73
ATOM     73  C   UNL A   1      33.203  29.790  26.355  1.00  0.00     0.116 C 
BRANCH  73  74
ATOM     74  N   UNL A   1      33.441  29.655  24.928  1.00  0.00    -0.356 N 
ATOM     75  C   UNL A   1      32.845  28.840  24.015  1.00  0.00     0.225 C 
ATOM     76  H   UNL A   1      34.141  30.245  24.566  1.00  0.00     0.163 HD
ATOM     77  O   UNL A   1      33.197  28.932  22.839  1.00  0.00    -0.275 OA
BRANCH  75  78
ATOM     78  C   UNL A   1      31.779  27.869  24.459  1.00  0.00     0.107 C 
ATOM     79  C   UNL A   1      32.404  26.491  24.621  1.00  0.00     0.133 C 
ATOM     80  C   UNL A   1      30.667  27.620  23.412  1.00  0.00     0.053 C 
ATOM     81  N   UNL A   1      31.254  25.614  24.616  1.00  0.00    -0.341 N 
ATOM     82  C   UNL A   1      30.192  26.197  23.801  1.00  0.00     0.128 C 
BRANCH  80  83
ATOM     83  C   UNL A   1      29.617  28.725  23.369  1.00  0.00    -0.042 A 
ATOM     84  C   UNL A   1      29.908  30.081  23.585  1.00  0.00     0.004 A 
ATOM     85  C   UNL A   1      28.272  28.389  23.126  1.00  0.00     0.004 A 
ATOM     86  C   UNL A   1      28.911  31.060  23.498  1.00  0.00     0.000 A 
ATOM     87  C   UNL A   1      27.278  29.366  23.026  1.00  0.00     0.000 A 
ATOM     88  C   UNL A   1      27.601  30.705  23.203  1.00  0.00     0.000 A 
ENDBRANCH  80  83
BRANCH  81  89
ATOM     89  C   UNL A   1      31.022  24.458  25.321  1.00  0.00     0.225 C 
ATOM     90  O   UNL A   1      30.663  24.510  26.502  1.00  0.00    -0.275 OA
BRANCH  89  91
ATOM     91  C   UNL A   1      31.263  23.090  24.693  1.00  0.00     0.078 C 
ATOM     92  C   UNL A   1      31.808  23.083  23.270  1.00  0.00     0.013 C 
ATOM     93  C   UNL A   1      32.181  22.166  25.503  1.00  0.00     0.013 C 
ATOM     94  C   UNL A   1      32.373  21.679  23.122  1.00  0.00     0.001 C 
ATOM     95  C   UNL A   1      32.992  21.371  24.479  1.00  0.00     0.001 C 
ENDBRANCH  89  91
ENDBRANCH  81  89
ENDBRANCH  75  78
ENDBRANCH  73  74
ENDBRANCH  72  73
ENDBRANCH   1  72
TORSDOF 14
ENDMDL
