MODEL 1
REMARK VINA RESULT:     -13.4      0.000      0.000
REMARK SMILES Cc1c(Cl)cc2c(c1C)O[C@H](C(F)(F)F)C(C(=O)NCCCCNC(=O)c1ccc(-c3c4nc(c(-c5c(F)c(F)c(F)c(F)c5F)c5ccc([nH]5)c(-c5c(F)c(F)c(F)c(F)c5F)c5nc(c(-c6c(F)c(F)c(F)c(F)c6F)c6ccc3[nH]6)C=C5)C=C4)cc1)=C2
REMARK SMILES IDX 22 1 21 2 20 3 19 4 17 5 18 6 16 8 1 9 2 10 3 11 8 12 4 13
REMARK SMILES IDX 5 14 7 15 9 16 6 17 10 18 90 19 11 20 12 21 13 22 14 23
REMARK SMILES IDX 15 24 23 25 24 26 25 27 26 29 27 30 28 31 89 32 29 33 88 34
REMARK SMILES IDX 30 35 31 36 32 37 82 38 33 39 87 40 81 41 83 42 34 43 86 44
REMARK SMILES IDX 80 45 79 46 35 48 67 49 47 50 66 51 48 52 51 53 65 54 84 55
REMARK SMILES IDX 49 56 50 57 64 59 85 60 52 61 36 62 37 63 45 64 38 65 39 66
REMARK SMILES IDX 43 67 46 68 40 69 41 70 44 71 42 72 68 73 69 74 77 75 70 76
REMARK SMILES IDX 71 77 75 78 78 79 72 80 73 81 76 82 74 83 53 84 54 85 62 86
REMARK SMILES IDX 55 87 56 88 60 89 63 90 57 91 58 92 61 93 59 94
REMARK H PARENT 19 7 24 28 83 47 51 58
REMARK Flexibility Score: inf
ROOT
ATOM      1  C   UNL A   1      31.626  32.000  26.716  1.00  0.00     0.023 C 
ENDROOT
BRANCH   1   2
ATOM      2  C   UNL A   1      31.866  30.489  26.689  1.00  0.00     0.023 C 
BRANCH   2   3
ATOM      3  C   UNL A   1      33.233  30.084  26.146  1.00  0.00     0.116 C 
BRANCH   3   4
ATOM      4  N   UNL A   1      33.178  29.737  24.738  1.00  0.00    -0.352 N 
ATOM      5  C   UNL A   1      33.043  28.607  24.006  1.00  0.00     0.251 C 
ATOM      6  O   UNL A   1      33.060  28.771  22.782  1.00  0.00    -0.270 OA
ATOM      7  H   UNL A   1      33.261  30.534  24.164  1.00  0.00     0.163 HD
BRANCH   5   8
ATOM      8  C   UNL A   1      32.884  27.231  24.564  1.00  0.00     0.067 C 
ATOM      9  C   UNL A   1      33.679  21.180  26.933  1.00  0.00     0.046 C 
ATOM     10  C   UNL A   1      33.766  22.576  26.368  1.00  0.00    -0.026 A 
ATOM     11  C   UNL A   1      34.989  23.087  25.884  1.00  0.00     0.045 A 
ATOM     12  C   UNL A   1      32.632  23.424  26.369  1.00  0.00    -0.004 A 
ATOM     13  Cl  UNL A   1      36.454  22.166  25.926  1.00  0.00    -0.084 Cl
ATOM     14  C   UNL A   1      35.078  24.381  25.361  1.00  0.00     0.032 A 
ATOM     15  C   UNL A   1      32.737  24.711  25.805  1.00  0.00     0.131 A 
ATOM     16  C   UNL A   1      31.291  22.986  26.907  1.00  0.00     0.049 C 
ATOM     17  C   UNL A   1      33.949  25.195  25.309  1.00  0.00     0.019 A 
ATOM     18  O   UNL A   1      31.612  25.492  25.810  1.00  0.00    -0.475 OA
ATOM     19  C   UNL A   1      34.026  26.556  24.791  1.00  0.00     0.025 C 
ATOM     20  C   UNL A   1      31.564  26.570  24.837  1.00  0.00     0.314 C 
BRANCH  20  21
ATOM     21  C   UNL A   1      30.871  26.073  23.553  1.00  0.00     0.429 C 
ATOM     22  F   UNL A   1      30.221  27.095  22.942  1.00  0.00    -0.167 F 
ATOM     23  F   UNL A   1      31.752  25.585  22.647  1.00  0.00    -0.167 F 
ATOM     24  F   UNL A   1      29.967  25.099  23.789  1.00  0.00    -0.167 F 
ENDBRANCH  20  21
ENDBRANCH   5   8
ENDBRANCH   3   4
ENDBRANCH   2   3
ENDBRANCH   1   2
BRANCH   1  25
ATOM     25  C   UNL A   1      32.734  32.829  27.363  1.00  0.00     0.116 C 
BRANCH  25  26
ATOM     26  N   UNL A   1      32.337  34.189  27.701  1.00  0.00    -0.352 N 
ATOM     27  C   UNL A   1      32.921  35.035  28.614  1.00  0.00     0.251 C 
ATOM     28  H   UNL A   1      31.558  34.546  27.218  1.00  0.00     0.163 HD
ATOM     29  O   UNL A   1      32.447  36.141  28.847  1.00  0.00    -0.269 OA
BRANCH  27  30
ATOM     30  C   UNL A   1      34.106  34.560  29.349  1.00  0.00     0.039 A 
ATOM     31  C   UNL A   1      33.919  33.903  30.566  1.00  0.00     0.014 A 
ATOM     32  C   UNL A   1      35.380  34.683  28.787  1.00  0.00     0.014 A 
ATOM     33  C   UNL A   1      35.007  33.292  31.185  1.00  0.00     0.010 A 
ATOM     34  C   UNL A   1      36.453  34.023  29.376  1.00  0.00     0.010 A 
ATOM     35  C   UNL A   1      36.272  33.313  30.573  1.00  0.00    -0.014 A 
BRANCH  35  36
ATOM     36  C   UNL A   1      37.412  32.579  31.167  1.00  0.00     0.031 A 
ATOM     37  C   UNL A   1      37.909  32.942  32.534  1.00  0.00     0.074 A 
ATOM     38  C   UNL A   1      38.025  31.616  30.451  1.00  0.00     0.049 A 
ATOM     39  N   UNL A   1      38.904  32.430  33.213  1.00  0.00    -0.248 NA
ATOM     40  C   UNL A   1      37.214  34.042  33.220  1.00  0.00     0.031 C 
ATOM     41  C   UNL A   1      37.661  31.213  29.091  1.00  0.00     0.029 A 
ATOM     42  N   UNL A   1      39.082  30.802  30.767  1.00  0.00    -0.354 N 
ATOM     43  C   UNL A   1      38.955  33.145  34.400  1.00  0.00     0.074 A 
ATOM     44  C   UNL A   1      37.929  34.164  34.329  1.00  0.00     0.031 C 
ATOM     45  C   UNL A   1      38.458  30.204  28.704  1.00  0.00     0.029 A 
ATOM     46  C   UNL A   1      39.401  29.906  29.778  1.00  0.00     0.049 A 
ATOM     47  H   UNL A   1      39.566  30.856  31.623  1.00  0.00     0.167 HD
ATOM     48  C   UNL A   1      39.765  32.950  35.465  1.00  0.00     0.037 A 
ATOM     49  C   UNL A   1      40.344  28.945  29.748  1.00  0.00     0.037 A 
ATOM     50  C   UNL A   1      40.763  31.919  35.545  1.00  0.00     0.049 A 
ATOM     51  C   UNL A   1      41.230  28.746  30.945  1.00  0.00     0.074 A 
ATOM     52  C   UNL A   1      41.597  31.605  36.603  1.00  0.00     0.029 A 
ATOM     53  N   UNL A   1      41.057  31.029  34.522  1.00  0.00    -0.354 N 
ATOM     54  N   UNL A   1      41.231  29.391  32.086  1.00  0.00    -0.248 NA
ATOM     55  C   UNL A   1      42.246  27.688  30.852  1.00  0.00     0.031 C 
ATOM     56  C   UNL A   1      42.415  30.540  36.211  1.00  0.00     0.029 A 
ATOM     57  C   UNL A   1      42.070  30.173  34.921  1.00  0.00     0.049 A 
ATOM     58  H   UNL A   1      40.612  31.008  33.644  1.00  0.00     0.167 HD
ATOM     59  C   UNL A   1      42.227  28.807  32.854  1.00  0.00     0.074 A 
ATOM     60  C   UNL A   1      42.807  27.748  32.053  1.00  0.00     0.031 C 
ATOM     61  C   UNL A   1      42.627  29.122  34.109  1.00  0.00     0.037 A 
BRANCH  48  62
ATOM     62  C   UNL A   1      39.588  33.861  36.641  1.00  0.00     0.064 A 
ATOM     63  C   UNL A   1      38.800  33.483  37.738  1.00  0.00     0.173 A 
ATOM     64  C   UNL A   1      40.238  35.101  36.691  1.00  0.00     0.173 A 
ATOM     65  F   UNL A   1      38.146  32.311  37.729  1.00  0.00    -0.203 F 
ATOM     66  C   UNL A   1      38.651  34.326  38.835  1.00  0.00     0.198 A 
ATOM     67  C   UNL A   1      40.106  35.932  37.801  1.00  0.00     0.198 A 
ATOM     68  F   UNL A   1      41.005  35.506  35.668  1.00  0.00    -0.203 F 
ATOM     69  F   UNL A   1      37.861  33.963  39.855  1.00  0.00    -0.200 F 
ATOM     70  C   UNL A   1      39.309  35.546  38.869  1.00  0.00     0.200 A 
ATOM     71  F   UNL A   1      40.749  37.108  37.836  1.00  0.00    -0.200 F 
ATOM     72  F   UNL A   1      39.171  36.354  39.929  1.00  0.00    -0.200 F 
ENDBRANCH  48  62
BRANCH  49  73
ATOM     73  C   UNL A   1      40.456  28.061  28.561  1.00  0.00     0.064 A 
ATOM     74  C   UNL A   1      41.236  28.442  27.460  1.00  0.00     0.173 A 
ATOM     75  C   UNL A   1      39.810  26.818  28.507  1.00  0.00     0.173 A 
ATOM     76  F   UNL A   1      41.857  29.631  27.461  1.00  0.00    -0.203 F 
ATOM     77  C   UNL A   1      41.360  27.616  26.346  1.00  0.00     0.198 A 
ATOM     78  C   UNL A   1      39.950  25.984  27.399  1.00  0.00     0.198 A 
ATOM     79  F   UNL A   1      39.056  26.408  29.536  1.00  0.00    -0.203 F 
ATOM     80  F   UNL A   1      42.092  28.016  25.297  1.00  0.00    -0.200 F 
ATOM     81  C   UNL A   1      40.722  26.385  26.318  1.00  0.00     0.200 A 
ATOM     82  F   UNL A   1      39.341  24.791  27.379  1.00  0.00    -0.200 F 
ATOM     83  F   UNL A   1      40.848  25.587  25.249  1.00  0.00    -0.200 F 
ENDBRANCH  49  73
BRANCH  61  84
ATOM     84  C   UNL A   1      43.734  28.308  34.707  1.00  0.00     0.064 A 
ATOM     85  C   UNL A   1      43.472  27.103  35.372  1.00  0.00     0.173 A 
ATOM     86  C   UNL A   1      45.071  28.697  34.539  1.00  0.00     0.173 A 
ATOM     87  F   UNL A   1      42.208  26.701  35.567  1.00  0.00    -0.203 F 
ATOM     88  C   UNL A   1      44.513  26.314  35.853  1.00  0.00     0.198 A 
ATOM     89  C   UNL A   1      46.110  27.895  35.003  1.00  0.00     0.198 A 
ATOM     90  F   UNL A   1      45.369  29.840  33.903  1.00  0.00    -0.203 F 
ATOM     91  F   UNL A   1      44.242  25.176  36.505  1.00  0.00    -0.200 F 
ATOM     92  C   UNL A   1      45.830  26.707  35.660  1.00  0.00     0.200 A 
ATOM     93  F   UNL A   1      47.382  28.270  34.808  1.00  0.00    -0.200 F 
ATOM     94  F   UNL A   1      46.831  25.937  36.110  1.00  0.00    -0.200 F 
ENDBRANCH  61  84
ENDBRANCH  35  36
ENDBRANCH  27  30
ENDBRANCH  25  26
ENDBRANCH   1  25
TORSDOF 12
ENDMDL
MODEL 2
REMARK VINA RESULT:     -13.4      0.119      1.127
REMARK SMILES Cc1c(Cl)cc2c(c1C)O[C@H](C(F)(F)F)C(C(=O)NCCCCNC(=O)c1ccc(-c3c4nc(c(-c5c(F)c(F)c(F)c(F)c5F)c5ccc([nH]5)c(-c5c(F)c(F)c(F)c(F)c5F)c5nc(c(-c6c(F)c(F)c(F)c(F)c6F)c6ccc3[nH]6)C=C5)C=C4)cc1)=C2
REMARK SMILES IDX 22 1 21 2 20 3 19 4 17 5 18 6 16 8 1 9 2 10 3 11 8 12 4 13
REMARK SMILES IDX 5 14 7 15 9 16 6 17 10 18 90 19 11 20 12 21 13 22 14 23
REMARK SMILES IDX 15 24 23 25 24 26 25 27 26 29 27 30 28 31 89 32 29 33 88 34
REMARK SMILES IDX 30 35 31 36 32 37 82 38 33 39 87 40 81 41 83 42 34 43 86 44
REMARK SMILES IDX 80 45 79 46 35 48 67 49 47 50 66 51 48 52 51 53 65 54 84 55
REMARK SMILES IDX 49 56 50 57 64 59 85 60 52 61 36 62 37 63 45 64 38 65 39 66
REMARK SMILES IDX 43 67 46 68 40 69 41 70 44 71 42 72 68 73 69 74 77 75 70 76
REMARK SMILES IDX 71 77 75 78 78 79 72 80 73 81 76 82 74 83 53 84 54 85 62 86
REMARK SMILES IDX 55 87 56 88 60 89 63 90 57 91 58 92 61 93 59 94
REMARK H PARENT 19 7 24 28 83 47 51 58
REMARK Flexibility Score: inf
ROOT
ATOM      1  C   UNL A   1      31.612  31.907  26.784  1.00  0.00     0.023 C 
ENDROOT
BRANCH   1   2
ATOM      2  C   UNL A   1      31.909  30.409  26.692  1.00  0.00     0.023 C 
BRANCH   2   3
ATOM      3  C   UNL A   1      33.280  30.080  26.109  1.00  0.00     0.116 C 
BRANCH   3   4
ATOM      4  N   UNL A   1      33.202  29.730  24.702  1.00  0.00    -0.352 N 
ATOM      5  C   UNL A   1      33.058  28.598  23.975  1.00  0.00     0.251 C 
ATOM      6  O   UNL A   1      33.054  28.761  22.750  1.00  0.00    -0.270 OA
ATOM      7  H   UNL A   1      33.273  30.526  24.126  1.00  0.00     0.163 HD
BRANCH   5   8
ATOM      8  C   UNL A   1      32.912  27.223  24.537  1.00  0.00     0.067 C 
ATOM      9  C   UNL A   1      33.765  21.176  26.897  1.00  0.00     0.046 C 
ATOM     10  C   UNL A   1      33.838  22.571  26.329  1.00  0.00    -0.026 A 
ATOM     11  C   UNL A   1      35.050  23.084  25.820  1.00  0.00     0.045 A 
ATOM     12  C   UNL A   1      32.702  23.418  26.352  1.00  0.00    -0.004 A 
ATOM     13  Cl  UNL A   1      36.517  22.166  25.833  1.00  0.00    -0.084 Cl
ATOM     14  C   UNL A   1      35.126  24.378  25.293  1.00  0.00     0.032 A 
ATOM     15  C   UNL A   1      32.795  24.704  25.784  1.00  0.00     0.131 A 
ATOM     16  C   UNL A   1      31.373  22.979  26.916  1.00  0.00     0.049 C 
ATOM     17  C   UNL A   1      33.996  25.190  25.263  1.00  0.00     0.019 A 
ATOM     18  O   UNL A   1      31.669  25.484  25.810  1.00  0.00    -0.475 OA
ATOM     19  C   UNL A   1      34.060  26.551  24.742  1.00  0.00     0.025 C 
ATOM     20  C   UNL A   1      31.600  26.560  24.837  1.00  0.00     0.314 C 
BRANCH  20  21
ATOM     21  C   UNL A   1      30.882  26.060  23.568  1.00  0.00     0.429 C 
ATOM     22  F   UNL A   1      30.030  27.009  23.103  1.00  0.00    -0.167 F 
ATOM     23  F   UNL A   1      31.744  25.795  22.559  1.00  0.00    -0.167 F 
ATOM     24  F   UNL A   1      30.163  24.937  23.780  1.00  0.00    -0.167 F 
ENDBRANCH  20  21
ENDBRANCH   5   8
ENDBRANCH   3   4
ENDBRANCH   2   3
ENDBRANCH   1   2
BRANCH   1  25
ATOM     25  C   UNL A   1      32.746  32.769  27.334  1.00  0.00     0.116 C 
BRANCH  25  26
ATOM     26  N   UNL A   1      32.349  34.132  27.664  1.00  0.00    -0.352 N 
ATOM     27  C   UNL A   1      32.936  34.983  28.570  1.00  0.00     0.251 C 
ATOM     28  H   UNL A   1      31.568  34.484  27.182  1.00  0.00     0.163 HD
ATOM     29  O   UNL A   1      32.462  36.091  28.798  1.00  0.00    -0.269 OA
BRANCH  27  30
ATOM     30  C   UNL A   1      34.124  34.515  29.304  1.00  0.00     0.039 A 
ATOM     31  C   UNL A   1      33.941  33.854  30.520  1.00  0.00     0.014 A 
ATOM     32  C   UNL A   1      35.397  34.646  28.742  1.00  0.00     0.014 A 
ATOM     33  C   UNL A   1      35.033  33.248  31.138  1.00  0.00     0.010 A 
ATOM     34  C   UNL A   1      36.474  33.991  29.330  1.00  0.00     0.010 A 
ATOM     35  C   UNL A   1      36.297  33.278  30.525  1.00  0.00    -0.014 A 
BRANCH  35  36
ATOM     36  C   UNL A   1      37.441  32.549  31.118  1.00  0.00     0.031 A 
ATOM     37  C   UNL A   1      37.935  32.910  32.487  1.00  0.00     0.074 A 
ATOM     38  C   UNL A   1      38.063  31.594  30.398  1.00  0.00     0.049 A 
ATOM     39  N   UNL A   1      38.932  32.402  33.165  1.00  0.00    -0.248 NA
ATOM     40  C   UNL A   1      37.230  34.002  33.177  1.00  0.00     0.031 C 
ATOM     41  C   UNL A   1      37.703  31.195  29.036  1.00  0.00     0.029 A 
ATOM     42  N   UNL A   1      39.125  30.786  30.713  1.00  0.00    -0.354 N 
ATOM     43  C   UNL A   1      38.976  33.113  34.355  1.00  0.00     0.074 A 
ATOM     44  C   UNL A   1      37.943  34.124  34.287  1.00  0.00     0.031 C 
ATOM     45  C   UNL A   1      38.508  30.193  28.647  1.00  0.00     0.029 A 
ATOM     46  C   UNL A   1      39.452  29.897  29.720  1.00  0.00     0.049 A 
ATOM     47  H   UNL A   1      39.608  30.840  31.569  1.00  0.00     0.167 HD
ATOM     48  C   UNL A   1      39.786  32.919  35.421  1.00  0.00     0.037 A 
ATOM     49  C   UNL A   1      40.401  28.942  29.687  1.00  0.00     0.037 A 
ATOM     50  C   UNL A   1      40.792  31.895  35.497  1.00  0.00     0.049 A 
ATOM     51  C   UNL A   1      41.288  28.745  30.884  1.00  0.00     0.074 A 
ATOM     52  C   UNL A   1      41.626  31.582  36.555  1.00  0.00     0.029 A 
ATOM     53  N   UNL A   1      41.094  31.011  34.471  1.00  0.00    -0.354 N 
ATOM     54  N   UNL A   1      41.282  29.385  32.028  1.00  0.00    -0.248 NA
ATOM     55  C   UNL A   1      42.311  27.695  30.788  1.00  0.00     0.031 C 
ATOM     56  C   UNL A   1      42.452  30.525  36.160  1.00  0.00     0.029 A 
ATOM     57  C   UNL A   1      42.111  30.161  34.867  1.00  0.00     0.049 A 
ATOM     58  H   UNL A   1      40.650  30.991  33.592  1.00  0.00     0.167 HD
ATOM     59  C   UNL A   1      42.282  28.805  32.795  1.00  0.00     0.074 A 
ATOM     60  C   UNL A   1      42.870  27.754  31.990  1.00  0.00     0.031 C 
ATOM     61  C   UNL A   1      42.678  29.117  34.052  1.00  0.00     0.037 A 
BRANCH  48  62
ATOM     62  C   UNL A   1      39.601  33.823  36.600  1.00  0.00     0.064 A 
ATOM     63  C   UNL A   1      38.813  33.436  37.694  1.00  0.00     0.173 A 
ATOM     64  C   UNL A   1      40.243  35.068  36.657  1.00  0.00     0.173 A 
ATOM     65  F   UNL A   1      38.168  32.260  37.679  1.00  0.00    -0.203 F 
ATOM     66  C   UNL A   1      38.657  34.273  38.795  1.00  0.00     0.198 A 
ATOM     67  C   UNL A   1      40.103  35.892  37.770  1.00  0.00     0.198 A 
ATOM     68  F   UNL A   1      41.009  35.482  35.637  1.00  0.00    -0.203 F 
ATOM     69  F   UNL A   1      37.867  33.899  39.812  1.00  0.00    -0.200 F 
ATOM     70  C   UNL A   1      39.307  35.497  38.835  1.00  0.00     0.200 A 
ATOM     71  F   UNL A   1      40.738  37.072  37.812  1.00  0.00    -0.200 F 
ATOM     72  F   UNL A   1      39.161  36.299  39.898  1.00  0.00    -0.200 F 
ENDBRANCH  48  62
BRANCH  49  73
ATOM     73  C   UNL A   1      40.521  28.065  28.496  1.00  0.00     0.064 A 
ATOM     74  C   UNL A   1      41.306  28.453  27.402  1.00  0.00     0.173 A 
ATOM     75  C   UNL A   1      39.879  26.821  28.433  1.00  0.00     0.173 A 
ATOM     76  F   UNL A   1      41.924  29.644  27.411  1.00  0.00    -0.203 F 
ATOM     77  C   UNL A   1      41.438  27.633  26.284  1.00  0.00     0.198 A 
ATOM     78  C   UNL A   1      40.027  25.992  27.322  1.00  0.00     0.198 A 
ATOM     79  F   UNL A   1      39.121  26.403  29.457  1.00  0.00    -0.203 F 
ATOM     80  F   UNL A   1      42.174  28.039  25.240  1.00  0.00    -0.200 F 
ATOM     81  C   UNL A   1      40.803  26.401  26.247  1.00  0.00     0.200 A 
ATOM     82  F   UNL A   1      39.420  24.798  27.294  1.00  0.00    -0.200 F 
ATOM     83  F   UNL A   1      40.936  25.608  25.175  1.00  0.00    -0.200 F 
ENDBRANCH  49  73
BRANCH  61  84
ATOM     84  C   UNL A   1      43.790  28.309  34.648  1.00  0.00     0.064 A 
ATOM     85  C   UNL A   1      45.120  28.746  34.583  1.00  0.00     0.173 A 
ATOM     86  C   UNL A   1      43.511  27.132  35.358  1.00  0.00     0.173 A 
ATOM     87  F   UNL A   1      45.432  29.859  33.903  1.00  0.00    -0.203 F 
ATOM     88  C   UNL A   1      46.135  28.030  35.209  1.00  0.00     0.198 A 
ATOM     89  C   UNL A   1      44.527  26.429  35.999  1.00  0.00     0.198 A 
ATOM     90  F   UNL A   1      42.252  26.680  35.450  1.00  0.00    -0.203 F 
ATOM     91  F   UNL A   1      47.404  28.452  35.119  1.00  0.00    -0.200 F 
ATOM     92  C   UNL A   1      45.837  26.877  35.923  1.00  0.00     0.200 A 
ATOM     93  F   UNL A   1      44.237  25.323  36.697  1.00  0.00    -0.200 F 
ATOM     94  F   UNL A   1      46.815  26.199  36.538  1.00  0.00    -0.200 F 
ENDBRANCH  61  84
ENDBRANCH  35  36
ENDBRANCH  27  30
ENDBRANCH  25  26
ENDBRANCH   1  25
TORSDOF 12
ENDMDL
MODEL 3
REMARK VINA RESULT:     -13.4      1.907      2.986
REMARK SMILES Cc1c(Cl)cc2c(c1C)O[C@H](C(F)(F)F)C(C(=O)NCCCCNC(=O)c1ccc(-c3c4nc(c(-c5c(F)c(F)c(F)c(F)c5F)c5ccc([nH]5)c(-c5c(F)c(F)c(F)c(F)c5F)c5nc(c(-c6c(F)c(F)c(F)c(F)c6F)c6ccc3[nH]6)C=C5)C=C4)cc1)=C2
REMARK SMILES IDX 22 1 21 2 20 3 19 4 17 5 18 6 16 8 1 9 2 10 3 11 8 12 4 13
REMARK SMILES IDX 5 14 7 15 9 16 6 17 10 18 90 19 11 20 12 21 13 22 14 23
REMARK SMILES IDX 15 24 23 25 24 26 25 27 26 29 27 30 28 31 89 32 29 33 88 34
REMARK SMILES IDX 30 35 31 36 32 37 82 38 33 39 87 40 81 41 83 42 34 43 86 44
REMARK SMILES IDX 80 45 79 46 35 48 67 49 47 50 66 51 48 52 51 53 65 54 84 55
REMARK SMILES IDX 49 56 50 57 64 59 85 60 52 61 36 62 37 63 45 64 38 65 39 66
REMARK SMILES IDX 43 67 46 68 40 69 41 70 44 71 42 72 68 73 69 74 77 75 70 76
REMARK SMILES IDX 71 77 75 78 78 79 72 80 73 81 76 82 74 83 53 84 54 85 62 86
REMARK SMILES IDX 55 87 56 88 60 89 63 90 57 91 58 92 61 93 59 94
REMARK H PARENT 19 7 24 28 83 47 51 58
REMARK Flexibility Score: inf
ROOT
ATOM      1  C   UNL A   1      31.667  29.276  25.213  1.00  0.00     0.023 C 
ENDROOT
BRANCH   1   2
ATOM      2  C   UNL A   1      32.140  28.469  24.002  1.00  0.00     0.023 C 
BRANCH   2   3
ATOM      3  C   UNL A   1      31.275  27.253  23.687  1.00  0.00     0.116 C 
BRANCH   3   4
ATOM      4  N   UNL A   1      30.658  26.701  24.880  1.00  0.00    -0.352 N 
ATOM      5  C   UNL A   1      30.823  25.608  25.659  1.00  0.00     0.251 C 
ATOM      6  O   UNL A   1      30.039  25.519  26.610  1.00  0.00    -0.270 OA
ATOM      7  H   UNL A   1      29.925  27.273  25.206  1.00  0.00     0.163 HD
BRANCH   5   8
ATOM      8  C   UNL A   1      31.851  24.546  25.449  1.00  0.00     0.067 C 
ATOM      9  C   UNL A   1      37.294  20.927  25.070  1.00  0.00     0.046 C 
ATOM     10  C   UNL A   1      36.204  21.953  25.252  1.00  0.00    -0.026 A 
ATOM     11  C   UNL A   1      36.515  23.290  25.583  1.00  0.00     0.045 A 
ATOM     12  C   UNL A   1      34.842  21.581  25.156  1.00  0.00    -0.004 A 
ATOM     13  Cl  UNL A   1      38.144  23.826  25.817  1.00  0.00    -0.084 Cl
ATOM     14  C   UNL A   1      35.510  24.247  25.756  1.00  0.00     0.032 A 
ATOM     15  C   UNL A   1      33.848  22.570  25.301  1.00  0.00     0.131 A 
ATOM     16  C   UNL A   1      34.405  20.168  24.852  1.00  0.00     0.049 C 
ATOM     17  C   UNL A   1      34.172  23.893  25.605  1.00  0.00     0.019 A 
ATOM     18  O   UNL A   1      32.543  22.170  25.182  1.00  0.00    -0.475 OA
ATOM     19  C   UNL A   1      33.108  24.870  25.807  1.00  0.00     0.025 C 
ATOM     20  C   UNL A   1      31.576  23.200  24.845  1.00  0.00     0.314 C 
BRANCH  20  21
ATOM     21  C   UNL A   1      31.401  23.259  23.315  1.00  0.00     0.429 C 
ATOM     22  F   UNL A   1      30.142  23.655  22.998  1.00  0.00    -0.167 F 
ATOM     23  F   UNL A   1      32.238  24.152  22.735  1.00  0.00    -0.167 F 
ATOM     24  F   UNL A   1      31.615  22.069  22.715  1.00  0.00    -0.167 F 
ENDBRANCH  20  21
ENDBRANCH   5   8
ENDBRANCH   3   4
ENDBRANCH   2   3
ENDBRANCH   1   2
BRANCH   1  25
ATOM     25  C   UNL A   1      32.775  29.887  26.068  1.00  0.00     0.116 C 
BRANCH  25  26
ATOM     26  N   UNL A   1      32.500  31.247  26.512  1.00  0.00    -0.352 N 
ATOM     27  C   UNL A   1      33.287  32.049  27.305  1.00  0.00     0.251 C 
ATOM     28  H   UNL A   1      31.650  31.639  26.209  1.00  0.00     0.163 HD
ATOM     29  O   UNL A   1      32.907  33.160  27.657  1.00  0.00    -0.269 OA
BRANCH  27  30
ATOM     30  C   UNL A   1      34.581  31.522  27.769  1.00  0.00     0.039 A 
ATOM     31  C   UNL A   1      35.631  32.417  27.981  1.00  0.00     0.014 A 
ATOM     32  C   UNL A   1      34.719  30.166  28.081  1.00  0.00     0.014 A 
ATOM     33  C   UNL A   1      36.801  31.964  28.586  1.00  0.00     0.010 A 
ATOM     34  C   UNL A   1      35.863  29.730  28.739  1.00  0.00     0.010 A 
ATOM     35  C   UNL A   1      36.907  30.628  29.007  1.00  0.00    -0.014 A 
BRANCH  35  36
ATOM     36  C   UNL A   1      38.102  30.161  29.747  1.00  0.00     0.031 A 
ATOM     37  C   UNL A   1      38.354  30.639  31.145  1.00  0.00     0.074 A 
ATOM     38  C   UNL A   1      38.982  29.343  29.136  1.00  0.00     0.049 A 
ATOM     39  N   UNL A   1      39.351  30.360  31.946  1.00  0.00    -0.248 NA
ATOM     40  C   UNL A   1      37.369  31.574  31.712  1.00  0.00     0.031 C 
ATOM     41  C   UNL A   1      38.867  28.855  27.760  1.00  0.00     0.029 A 
ATOM     42  N   UNL A   1      40.144  28.778  29.594  1.00  0.00    -0.354 N 
ATOM     43  C   UNL A   1      39.115  31.084  33.104  1.00  0.00     0.074 A 
ATOM     44  C   UNL A   1      37.913  31.859  32.886  1.00  0.00     0.031 C 
ATOM     45  C   UNL A   1      39.897  28.035  27.499  1.00  0.00     0.029 A 
ATOM     46  C   UNL A   1      40.755  27.958  28.678  1.00  0.00     0.049 A 
ATOM     47  H   UNL A   1      40.506  28.944  30.494  1.00  0.00     0.167 HD
ATOM     48  C   UNL A   1      39.823  31.080  34.257  1.00  0.00     0.037 A 
ATOM     49  C   UNL A   1      41.876  27.220  28.784  1.00  0.00     0.037 A 
ATOM     50  C   UNL A   1      41.001  30.287  34.481  1.00  0.00     0.049 A 
ATOM     51  C   UNL A   1      42.644  27.231  30.076  1.00  0.00     0.074 A 
ATOM     52  C   UNL A   1      41.757  30.171  35.633  1.00  0.00     0.029 A 
ATOM     53  N   UNL A   1      41.590  29.468  33.529  1.00  0.00    -0.354 N 
ATOM     54  N   UNL A   1      42.379  27.874  31.187  1.00  0.00    -0.248 NA
ATOM     55  C   UNL A   1      43.863  26.413  30.131  1.00  0.00     0.031 C 
ATOM     56  C   UNL A   1      42.820  29.302  35.371  1.00  0.00     0.029 A 
ATOM     57  C   UNL A   1      42.708  28.853  34.065  1.00  0.00     0.049 A 
ATOM     58  H   UNL A   1      41.261  29.342  32.609  1.00  0.00     0.167 HD
ATOM     59  C   UNL A   1      43.383  27.527  32.078  1.00  0.00     0.074 A 
ATOM     60  C   UNL A   1      44.259  26.607  31.383  1.00  0.00     0.031 C 
ATOM     61  C   UNL A   1      43.563  27.935  33.357  1.00  0.00     0.037 A 
BRANCH  48  62
ATOM     62  C   UNL A   1      39.326  31.946  35.373  1.00  0.00     0.064 A 
ATOM     63  C   UNL A   1      38.499  31.427  36.381  1.00  0.00     0.173 A 
ATOM     64  C   UNL A   1      39.707  33.292  35.460  1.00  0.00     0.173 A 
ATOM     65  F   UNL A   1      38.096  30.149  36.331  1.00  0.00    -0.203 F 
ATOM     66  C   UNL A   1      38.052  32.232  37.424  1.00  0.00     0.198 A 
ATOM     67  C   UNL A   1      39.278  34.088  36.519  1.00  0.00     0.198 A 
ATOM     68  F   UNL A   1      40.499  33.833  34.523  1.00  0.00    -0.203 F 
ATOM     69  F   UNL A   1      37.230  31.726  38.354  1.00  0.00    -0.200 F 
ATOM     70  C   UNL A   1      38.447  33.560  37.496  1.00  0.00     0.200 A 
ATOM     71  F   UNL A   1      39.666  35.369  36.593  1.00  0.00    -0.200 F 
ATOM     72  F   UNL A   1      38.022  34.332  38.505  1.00  0.00    -0.200 F 
ENDBRANCH  48  62
BRANCH  49  73
ATOM     73  C   UNL A   1      42.305  26.367  27.648  1.00  0.00     0.064 A 
ATOM     74  C   UNL A   1      43.285  26.815  26.751  1.00  0.00     0.173 A 
ATOM     75  C   UNL A   1      41.769  25.088  27.448  1.00  0.00     0.173 A 
ATOM     76  F   UNL A   1      43.813  28.039  26.895  1.00  0.00    -0.203 F 
ATOM     77  C   UNL A   1      43.706  26.017  25.690  1.00  0.00     0.198 A 
ATOM     78  C   UNL A   1      42.205  24.284  26.396  1.00  0.00     0.198 A 
ATOM     79  F   UNL A   1      40.832  24.613  28.282  1.00  0.00    -0.203 F 
ATOM     80  F   UNL A   1      44.626  26.480  24.832  1.00  0.00    -0.200 F 
ATOM     81  C   UNL A   1      43.170  24.750  25.516  1.00  0.00     0.200 A 
ATOM     82  F   UNL A   1      41.692  23.055  26.237  1.00  0.00    -0.200 F 
ATOM     83  F   UNL A   1      43.581  23.981  24.499  1.00  0.00    -0.200 F 
ENDBRANCH  49  73
BRANCH  61  84
ATOM     84  C   UNL A   1      44.742  27.384  34.099  1.00  0.00     0.064 A 
ATOM     85  C   UNL A   1      45.961  28.074  34.140  1.00  0.00     0.173 A 
ATOM     86  C   UNL A   1      44.624  26.201  34.841  1.00  0.00     0.173 A 
ATOM     87  F   UNL A   1      46.121  29.203  33.433  1.00  0.00    -0.203 F 
ATOM     88  C   UNL A   1      47.025  27.595  34.898  1.00  0.00     0.198 A 
ATOM     89  C   UNL A   1      45.684  25.735  35.614  1.00  0.00     0.198 A 
ATOM     90  F   UNL A   1      43.474  25.510  34.836  1.00  0.00    -0.203 F 
ATOM     91  F   UNL A   1      48.190  28.258  34.908  1.00  0.00    -0.200 F 
ATOM     92  C   UNL A   1      46.883  26.432  35.641  1.00  0.00     0.200 A 
ATOM     93  F   UNL A   1      45.542  24.617  36.340  1.00  0.00    -0.200 F 
ATOM     94  F   UNL A   1      47.904  25.982  36.383  1.00  0.00    -0.200 F 
ENDBRANCH  61  84
ENDBRANCH  35  36
ENDBRANCH  27  30
ENDBRANCH  25  26
ENDBRANCH   1  25
TORSDOF 12
ENDMDL
