MODEL 1
REMARK VINA RESULT:     -12.4      0.000      0.000
REMARK SMILES Cc1nc2scc(-c3cccs3)c2c(=O)n1CC(=O)NCCCCNC(=O)c1ccc(-c2c3nc(c(-c4c(F)c(F)c(F)c(F)c4F)c4ccc([nH]4)c(-c4c(F)c(F)c(F)c(F)c4F)c4nc(c(-c5c(F)c(F)c(F)c(F)c5F)c5ccc2[nH]5)C=C4)C=C3)cc1
REMARK SMILES IDX 22 1 21 2 20 3 18 4 19 5 17 7 16 8 1 9 2 10 3 11 4 12 14 13
REMARK SMILES IDX 5 14 13 15 15 16 6 17 7 18 8 19 9 20 12 21 10 22 11 23 23 24
REMARK SMILES IDX 24 25 25 26 26 27 27 29 28 30 29 31 90 32 30 33 89 34 31 35
REMARK SMILES IDX 32 36 33 37 83 38 34 39 88 40 82 41 84 42 35 43 87 44 81 45
REMARK SMILES IDX 80 46 36 48 68 49 48 50 67 51 49 52 52 53 66 54 85 55 50 56
REMARK SMILES IDX 51 57 65 59 86 60 53 61 37 62 38 63 46 64 39 65 40 66 44 67
REMARK SMILES IDX 47 68 41 69 42 70 45 71 43 72 69 73 70 74 78 75 71 76 72 77
REMARK SMILES IDX 76 78 79 79 73 80 74 81 77 82 75 83 54 84 55 85 63 86 56 87
REMARK SMILES IDX 57 88 61 89 64 90 58 91 59 92 62 93 60 94
REMARK H PARENT 20 6 25 28 84 47 52 58
REMARK Flexibility Score: inf
ROOT
ATOM      1  C   UNL A   1      40.626  21.782  26.537  1.00  0.00     0.023 C 
ENDROOT
BRANCH   1   2
ATOM      2  C   UNL A   1      39.123  22.062  26.501  1.00  0.00     0.116 C 
BRANCH   2   3
ATOM      3  N   UNL A   1      38.537  21.952  25.181  1.00  0.00    -0.355 N 
ATOM      4  C   UNL A   1      37.229  21.959  24.787  1.00  0.00     0.240 C 
ATOM      5  O   UNL A   1      37.014  22.215  23.597  1.00  0.00    -0.273 OA
ATOM      6  H   UNL A   1      39.187  21.856  24.448  1.00  0.00     0.163 HD
BRANCH   4   7
ATOM      7  C   UNL A   1      36.059  21.847  25.780  1.00  0.00     0.227 C 
BRANCH   7   8
ATOM      8  N   UNL A   1      34.761  22.210  25.210  1.00  0.00    -0.287 N 
ATOM      9  C   UNL A   1      34.141  19.821  24.709  1.00  0.00     0.088 C 
ATOM     10  C   UNL A   1      33.860  21.310  24.664  1.00  0.00     0.110 A 
ATOM     11  N   UNL A   1      32.732  21.655  24.123  1.00  0.00    -0.224 NA
ATOM     12  C   UNL A   1      32.441  22.976  24.150  1.00  0.00     0.131 A 
ATOM     13  C   UNL A   1      34.447  23.577  25.335  1.00  0.00     0.263 A 
ATOM     14  S   UNL A   1      30.984  23.558  23.490  1.00  0.00    -0.123 S 
ATOM     15  C   UNL A   1      33.201  23.978  24.711  1.00  0.00     0.085 A 
ATOM     16  O   UNL A   1      35.176  24.364  25.931  1.00  0.00    -0.268 OA
ATOM     17  C   UNL A   1      31.315  25.147  24.019  1.00  0.00     0.077 A 
ATOM     18  C   UNL A   1      32.550  25.256  24.629  1.00  0.00     0.017 A 
BRANCH  18  19
ATOM     19  C   UNL A   1      33.044  26.582  25.140  1.00  0.00     0.036 A 
ATOM     20  C   UNL A   1      33.048  26.978  26.460  1.00  0.00     0.020 A 
ATOM     21  S   UNL A   1      33.707  27.793  24.123  1.00  0.00    -0.144 S 
ATOM     22  C   UNL A   1      33.548  28.305  26.629  1.00  0.00     0.012 A 
ATOM     23  C   UNL A   1      33.894  28.880  25.428  1.00  0.00     0.065 A 
ENDBRANCH  18  19
ENDBRANCH   7   8
ENDBRANCH   4   7
ENDBRANCH   2   3
ENDBRANCH   1   2
BRANCH   1  24
ATOM     24  C   UNL A   1      41.065  20.370  26.126  1.00  0.00     0.023 C 
BRANCH  24  25
ATOM     25  C   UNL A   1      42.351  19.884  26.776  1.00  0.00     0.116 C 
BRANCH  25  26
ATOM     26  N   UNL A   1      43.443  19.640  25.829  1.00  0.00    -0.352 N 
ATOM     27  C   UNL A   1      44.076  20.571  25.013  1.00  0.00     0.251 C 
ATOM     28  H   UNL A   1      43.766  18.711  25.765  1.00  0.00     0.163 HD
ATOM     29  O   UNL A   1      44.689  20.248  24.015  1.00  0.00    -0.269 OA
BRANCH  27  30
ATOM     30  C   UNL A   1      43.998  21.983  25.424  1.00  0.00     0.039 A 
ATOM     31  C   UNL A   1      43.381  22.971  24.653  1.00  0.00     0.014 A 
ATOM     32  C   UNL A   1      44.496  22.268  26.688  1.00  0.00     0.014 A 
ATOM     33  C   UNL A   1      43.203  24.235  25.217  1.00  0.00     0.010 A 
ATOM     34  C   UNL A   1      44.103  23.414  27.313  1.00  0.00     0.010 A 
ATOM     35  C   UNL A   1      43.555  24.441  26.561  1.00  0.00    -0.014 A 
BRANCH  35  36
ATOM     36  C   UNL A   1      43.335  25.708  27.243  1.00  0.00     0.031 A 
ATOM     37  C   UNL A   1      44.283  26.800  26.892  1.00  0.00     0.074 A 
ATOM     38  C   UNL A   1      42.226  25.935  27.985  1.00  0.00     0.049 A 
ATOM     39  N   UNL A   1      45.141  27.372  27.669  1.00  0.00    -0.248 NA
ATOM     40  C   UNL A   1      44.362  27.241  25.491  1.00  0.00     0.031 C 
ATOM     41  C   UNL A   1      41.052  25.074  28.200  1.00  0.00     0.029 A 
ATOM     42  N   UNL A   1      41.879  27.062  28.659  1.00  0.00    -0.354 N 
ATOM     43  C   UNL A   1      45.761  28.360  26.908  1.00  0.00     0.074 A 
ATOM     44  C   UNL A   1      45.345  28.142  25.546  1.00  0.00     0.031 C 
ATOM     45  C   UNL A   1      40.045  25.790  28.746  1.00  0.00     0.029 A 
ATOM     46  C   UNL A   1      40.563  27.093  29.107  1.00  0.00     0.049 A 
ATOM     47  H   UNL A   1      42.510  27.801  28.818  1.00  0.00     0.167 HD
ATOM     48  C   UNL A   1      46.411  29.401  27.499  1.00  0.00     0.037 A 
ATOM     49  C   UNL A   1      39.955  28.124  29.742  1.00  0.00     0.037 A 
ATOM     50  C   UNL A   1      46.679  29.128  28.888  1.00  0.00     0.049 A 
ATOM     51  C   UNL A   1      41.034  28.970  30.306  1.00  0.00     0.074 A 
ATOM     52  C   UNL A   1      47.442  28.195  29.563  1.00  0.00     0.029 A 
ATOM     53  N   UNL A   1      45.807  29.632  29.821  1.00  0.00    -0.354 N 
ATOM     54  N   UNL A   1      41.825  28.586  31.268  1.00  0.00    -0.248 NA
ATOM     55  C   UNL A   1      41.526  30.062  29.481  1.00  0.00     0.031 C 
ATOM     56  C   UNL A   1      46.661  27.834  30.702  1.00  0.00     0.029 A 
ATOM     57  C   UNL A   1      45.506  28.615  30.693  1.00  0.00     0.049 A 
ATOM     58  H   UNL A   1      45.459  30.552  29.857  1.00  0.00     0.167 HD
ATOM     59  C   UNL A   1      43.071  29.080  30.914  1.00  0.00     0.074 A 
ATOM     60  C   UNL A   1      42.810  30.046  29.849  1.00  0.00     0.031 C 
ATOM     61  C   UNL A   1      44.214  28.452  31.317  1.00  0.00     0.037 A 
BRANCH  48  62
ATOM     62  C   UNL A   1      46.507  30.789  26.923  1.00  0.00     0.064 A 
ATOM     63  C   UNL A   1      47.759  31.437  26.872  1.00  0.00     0.173 A 
ATOM     64  C   UNL A   1      45.385  31.611  26.690  1.00  0.00     0.173 A 
ATOM     65  F   UNL A   1      48.890  30.755  27.105  1.00  0.00    -0.203 F 
ATOM     66  C   UNL A   1      47.869  32.815  26.667  1.00  0.00     0.198 A 
ATOM     67  C   UNL A   1      45.502  32.977  26.433  1.00  0.00     0.198 A 
ATOM     68  F   UNL A   1      44.134  31.154  26.814  1.00  0.00    -0.203 F 
ATOM     69  F   UNL A   1      49.069  33.406  26.744  1.00  0.00    -0.200 F 
ATOM     70  C   UNL A   1      46.740  33.584  26.452  1.00  0.00     0.200 A 
ATOM     71  F   UNL A   1      44.395  33.709  26.250  1.00  0.00    -0.200 F 
ATOM     72  F   UNL A   1      46.837  34.913  26.312  1.00  0.00    -0.200 F 
ENDBRANCH  48  62
BRANCH  49  73
ATOM     73  C   UNL A   1      38.570  28.625  29.599  1.00  0.00     0.064 A 
ATOM     74  C   UNL A   1      37.801  28.912  30.740  1.00  0.00     0.173 A 
ATOM     75  C   UNL A   1      38.107  29.150  28.378  1.00  0.00     0.173 A 
ATOM     76  F   UNL A   1      38.191  28.469  31.943  1.00  0.00    -0.203 F 
ATOM     77  C   UNL A   1      36.674  29.737  30.675  1.00  0.00     0.198 A 
ATOM     78  C   UNL A   1      36.979  29.971  28.315  1.00  0.00     0.198 A 
ATOM     79  F   UNL A   1      38.801  28.968  27.245  1.00  0.00    -0.203 F 
ATOM     80  F   UNL A   1      36.017  30.060  31.798  1.00  0.00    -0.200 F 
ATOM     81  C   UNL A   1      36.277  30.282  29.465  1.00  0.00     0.200 A 
ATOM     82  F   UNL A   1      36.621  30.521  27.146  1.00  0.00    -0.200 F 
ATOM     83  F   UNL A   1      35.247  31.140  29.416  1.00  0.00    -0.200 F 
ENDBRANCH  49  73
BRANCH  61  84
ATOM     84  C   UNL A   1      44.078  27.356  32.342  1.00  0.00     0.064 A 
ATOM     85  C   UNL A   1      44.065  25.983  32.036  1.00  0.00     0.173 A 
ATOM     86  C   UNL A   1      44.086  27.709  33.697  1.00  0.00     0.173 A 
ATOM     87  F   UNL A   1      44.152  25.557  30.772  1.00  0.00    -0.203 F 
ATOM     88  C   UNL A   1      44.014  25.014  33.038  1.00  0.00     0.198 A 
ATOM     89  C   UNL A   1      44.072  26.739  34.697  1.00  0.00     0.198 A 
ATOM     90  F   UNL A   1      44.153  29.000  34.054  1.00  0.00    -0.203 F 
ATOM     91  F   UNL A   1      43.988  23.712  32.716  1.00  0.00    -0.200 F 
ATOM     92  C   UNL A   1      44.024  25.394  34.369  1.00  0.00     0.200 A 
ATOM     93  F   UNL A   1      44.129  27.111  35.984  1.00  0.00    -0.200 F 
ATOM     94  F   UNL A   1      44.014  24.465  35.334  1.00  0.00    -0.200 F 
ENDBRANCH  61  84
ENDBRANCH  35  36
ENDBRANCH  27  30
ENDBRANCH  25  26
ENDBRANCH  24  25
ENDBRANCH   1  24
TORSDOF 13
ENDMDL
MODEL 2
REMARK VINA RESULT:     -12.2      2.547      3.494
REMARK SMILES Cc1nc2scc(-c3cccs3)c2c(=O)n1CC(=O)NCCCCNC(=O)c1ccc(-c2c3nc(c(-c4c(F)c(F)c(F)c(F)c4F)c4ccc([nH]4)c(-c4c(F)c(F)c(F)c(F)c4F)c4nc(c(-c5c(F)c(F)c(F)c(F)c5F)c5ccc2[nH]5)C=C4)C=C3)cc1
REMARK SMILES IDX 22 1 21 2 20 3 18 4 19 5 17 7 16 8 1 9 2 10 3 11 4 12 14 13
REMARK SMILES IDX 5 14 13 15 15 16 6 17 7 18 8 19 9 20 12 21 10 22 11 23 23 24
REMARK SMILES IDX 24 25 25 26 26 27 27 29 28 30 29 31 90 32 30 33 89 34 31 35
REMARK SMILES IDX 32 36 33 37 83 38 34 39 88 40 82 41 84 42 35 43 87 44 81 45
REMARK SMILES IDX 80 46 36 48 68 49 48 50 67 51 49 52 52 53 66 54 85 55 50 56
REMARK SMILES IDX 51 57 65 59 86 60 53 61 37 62 38 63 46 64 39 65 40 66 44 67
REMARK SMILES IDX 47 68 41 69 42 70 45 71 43 72 69 73 70 74 78 75 71 76 72 77
REMARK SMILES IDX 76 78 79 79 73 80 74 81 77 82 75 83 54 84 55 85 63 86 56 87
REMARK SMILES IDX 57 88 61 89 64 90 58 91 59 92 62 93 60 94
REMARK H PARENT 20 6 25 28 84 47 52 58
REMARK Flexibility Score: inf
ROOT
ATOM      1  C   UNL A   1      38.270  23.656  26.395  1.00  0.00     0.023 C 
ENDROOT
BRANCH   1   2
ATOM      2  C   UNL A   1      36.777  23.685  26.064  1.00  0.00     0.116 C 
BRANCH   2   3
ATOM      3  N   UNL A   1      36.475  23.361  24.685  1.00  0.00    -0.355 N 
ATOM      4  C   UNL A   1      35.278  23.303  24.028  1.00  0.00     0.240 C 
ATOM      5  O   UNL A   1      35.324  23.362  22.794  1.00  0.00    -0.273 OA
ATOM      6  H   UNL A   1      37.259  23.149  24.129  1.00  0.00     0.163 HD
BRANCH   4   7
ATOM      7  C   UNL A   1      33.925  23.353  24.758  1.00  0.00     0.227 C 
BRANCH   7   8
ATOM      8  N   UNL A   1      33.004  24.360  24.230  1.00  0.00    -0.287 N 
ATOM      9  C   UNL A   1      31.803  22.711  22.753  1.00  0.00     0.088 C 
ATOM     10  C   UNL A   1      32.035  24.117  23.270  1.00  0.00     0.110 A 
ATOM     11  N   UNL A   1      31.256  25.033  22.780  1.00  0.00    -0.224 NA
ATOM     12  C   UNL A   1      31.406  26.275  23.294  1.00  0.00     0.131 A 
ATOM     13  C   UNL A   1      33.123  25.620  24.848  1.00  0.00     0.263 A 
ATOM     14  S   UNL A   1      30.434  27.563  22.752  1.00  0.00    -0.123 S 
ATOM     15  C   UNL A   1      32.275  26.657  24.292  1.00  0.00     0.085 A 
ATOM     16  O   UNL A   1      33.886  25.817  25.788  1.00  0.00    -0.268 OA
ATOM     17  C   UNL A   1      31.107  28.629  23.903  1.00  0.00     0.077 A 
ATOM     18  C   UNL A   1      32.111  28.039  24.647  1.00  0.00     0.017 A 
BRANCH  18  19
ATOM     19  C   UNL A   1      32.855  28.821  25.696  1.00  0.00     0.036 A 
ATOM     20  C   UNL A   1      34.188  28.666  26.011  1.00  0.00     0.020 A 
ATOM     21  S   UNL A   1      32.129  30.053  26.641  1.00  0.00    -0.144 S 
ATOM     22  C   UNL A   1      34.600  29.529  27.072  1.00  0.00     0.012 A 
ATOM     23  C   UNL A   1      33.561  30.300  27.540  1.00  0.00     0.065 A 
ENDBRANCH  18  19
ENDBRANCH   7   8
ENDBRANCH   4   7
ENDBRANCH   2   3
ENDBRANCH   1   2
BRANCH   1  24
ATOM     24  C   UNL A   1      38.999  22.332  26.126  1.00  0.00     0.023 C 
BRANCH  24  25
ATOM     25  C   UNL A   1      40.240  22.101  26.974  1.00  0.00     0.116 C 
BRANCH  25  26
ATOM     26  N   UNL A   1      41.501  22.248  26.241  1.00  0.00    -0.352 N 
ATOM     27  C   UNL A   1      42.157  23.432  25.922  1.00  0.00     0.251 C 
ATOM     28  H   UNL A   1      41.932  21.414  25.941  1.00  0.00     0.163 HD
ATOM     29  O   UNL A   1      42.967  23.501  25.019  1.00  0.00    -0.269 OA
BRANCH  27  30
ATOM     30  C   UNL A   1      41.851  24.611  26.750  1.00  0.00     0.039 A 
ATOM     31  C   UNL A   1      42.355  24.790  28.041  1.00  0.00     0.014 A 
ATOM     32  C   UNL A   1      41.099  25.600  26.130  1.00  0.00     0.014 A 
ATOM     33  C   UNL A   1      42.152  26.022  28.664  1.00  0.00     0.010 A 
ATOM     34  C   UNL A   1      41.119  26.865  26.639  1.00  0.00     0.010 A 
ATOM     35  C   UNL A   1      41.544  27.062  27.943  1.00  0.00    -0.014 A 
BRANCH  35  36
ATOM     36  C   UNL A   1      41.363  28.397  28.497  1.00  0.00     0.031 A 
ATOM     37  C   UNL A   1      42.384  29.402  28.099  1.00  0.00     0.074 A 
ATOM     38  C   UNL A   1      40.235  28.747  29.160  1.00  0.00     0.049 A 
ATOM     39  N   UNL A   1      43.236  29.999  28.863  1.00  0.00    -0.248 NA
ATOM     40  C   UNL A   1      42.551  29.708  26.669  1.00  0.00     0.031 C 
ATOM     41  C   UNL A   1      39.007  27.969  29.391  1.00  0.00     0.029 A 
ATOM     42  N   UNL A   1      39.920  29.947  29.712  1.00  0.00    -0.354 N 
ATOM     43  C   UNL A   1      43.944  30.880  28.050  1.00  0.00     0.074 A 
ATOM     44  C   UNL A   1      43.578  30.560  26.694  1.00  0.00     0.031 C 
ATOM     45  C   UNL A   1      38.017  28.783  29.819  1.00  0.00     0.029 A 
ATOM     46  C   UNL A   1      38.589  30.085  30.088  1.00  0.00     0.049 A 
ATOM     47  H   UNL A   1      40.583  30.664  29.835  1.00  0.00     0.167 HD
ATOM     48  C   UNL A   1      44.622  31.937  28.577  1.00  0.00     0.037 A 
ATOM     49  C   UNL A   1      38.010  31.200  30.597  1.00  0.00     0.037 A 
ATOM     50  C   UNL A   1      44.811  31.780  29.996  1.00  0.00     0.049 A 
ATOM     51  C   UNL A   1      39.107  32.038  31.136  1.00  0.00     0.074 A 
ATOM     52  C   UNL A   1      45.490  30.875  30.790  1.00  0.00     0.029 A 
ATOM     53  N   UNL A   1      43.926  32.411  30.836  1.00  0.00    -0.354 N 
ATOM     54  N   UNL A   1      39.831  31.705  32.168  1.00  0.00    -0.248 NA
ATOM     55  C   UNL A   1      39.696  33.024  30.243  1.00  0.00     0.031 C 
ATOM     56  C   UNL A   1      44.640  30.661  31.916  1.00  0.00     0.029 A 
ATOM     57  C   UNL A   1      43.531  31.495  31.779  1.00  0.00     0.049 A 
ATOM     58  H   UNL A   1      43.628  33.347  30.772  1.00  0.00     0.167 HD
ATOM     59  C   UNL A   1      41.117  32.101  31.834  1.00  0.00     0.074 A 
ATOM     60  C   UNL A   1      40.959  32.977  30.676  1.00  0.00     0.031 C 
ATOM     61  C   UNL A   1      42.204  31.456  32.349  1.00  0.00     0.037 A 
BRANCH  48  62
ATOM     62  C   UNL A   1      44.821  33.260  27.885  1.00  0.00     0.064 A 
ATOM     63  C   UNL A   1      46.111  33.636  27.459  1.00  0.00     0.173 A 
ATOM     64  C   UNL A   1      43.855  34.288  27.884  1.00  0.00     0.173 A 
ATOM     65  F   UNL A   1      47.112  32.744  27.445  1.00  0.00    -0.203 F 
ATOM     66  C   UNL A   1      46.421  34.956  27.121  1.00  0.00     0.198 A 
ATOM     67  C   UNL A   1      44.155  35.593  27.496  1.00  0.00     0.198 A 
ATOM     68  F   UNL A   1      42.620  34.100  28.365  1.00  0.00    -0.203 F 
ATOM     69  F   UNL A   1      47.687  35.291  26.836  1.00  0.00    -0.200 F 
ATOM     70  C   UNL A   1      45.444  35.934  27.143  1.00  0.00     0.200 A 
ATOM     71  F   UNL A   1      43.199  36.531  27.547  1.00  0.00    -0.200 F 
ATOM     72  F   UNL A   1      45.750  37.211  26.876  1.00  0.00    -0.200 F 
ENDBRANCH  48  62
BRANCH  49  73
ATOM     73  C   UNL A   1      36.662  31.755  30.340  1.00  0.00     0.064 A 
ATOM     74  C   UNL A   1      35.827  32.108  31.414  1.00  0.00     0.173 A 
ATOM     75  C   UNL A   1      36.313  32.264  29.076  1.00  0.00     0.173 A 
ATOM     76  F   UNL A   1      36.109  31.683  32.653  1.00  0.00    -0.203 F 
ATOM     77  C   UNL A   1      34.745  32.977  31.246  1.00  0.00     0.198 A 
ATOM     78  C   UNL A   1      35.229  33.130  28.909  1.00  0.00     0.198 A 
ATOM     79  F   UNL A   1      37.077  32.019  28.001  1.00  0.00    -0.203 F 
ATOM     80  F   UNL A   1      34.025  33.361  32.309  1.00  0.00    -0.200 F 
ATOM     81  C   UNL A   1      34.461  33.504  29.996  1.00  0.00     0.200 A 
ATOM     82  F   UNL A   1      34.981  33.660  27.702  1.00  0.00    -0.200 F 
ATOM     83  F   UNL A   1      33.477  34.403  29.850  1.00  0.00    -0.200 F 
ENDBRANCH  49  73
BRANCH  61  84
ATOM     84  C   UNL A   1      41.962  30.467  33.460  1.00  0.00     0.064 A 
ATOM     85  C   UNL A   1      41.681  29.103  33.259  1.00  0.00     0.173 A 
ATOM     86  C   UNL A   1      42.144  30.893  34.781  1.00  0.00     0.173 A 
ATOM     87  F   UNL A   1      41.586  28.593  32.027  1.00  0.00    -0.203 F 
ATOM     88  C   UNL A   1      41.543  28.222  34.331  1.00  0.00     0.198 A 
ATOM     89  C   UNL A   1      42.041  30.005  35.849  1.00  0.00     0.198 A 
ATOM     90  F   UNL A   1      42.467  32.170  35.035  1.00  0.00    -0.203 F 
ATOM     91  F   UNL A   1      41.260  26.930  34.109  1.00  0.00    -0.200 F 
ATOM     92  C   UNL A   1      41.729  28.674  35.626  1.00  0.00     0.200 A 
ATOM     93  F   UNL A   1      42.268  30.438  37.097  1.00  0.00    -0.200 F 
ATOM     94  F   UNL A   1      41.634  27.822  36.656  1.00  0.00    -0.200 F 
ENDBRANCH  61  84
ENDBRANCH  35  36
ENDBRANCH  27  30
ENDBRANCH  25  26
ENDBRANCH  24  25
ENDBRANCH   1  24
TORSDOF 13
ENDMDL
MODEL 3
REMARK VINA RESULT:     -12.1      3.055      8.641
REMARK SMILES Cc1nc2scc(-c3cccs3)c2c(=O)n1CC(=O)NCCCCNC(=O)c1ccc(-c2c3nc(c(-c4c(F)c(F)c(F)c(F)c4F)c4ccc([nH]4)c(-c4c(F)c(F)c(F)c(F)c4F)c4nc(c(-c5c(F)c(F)c(F)c(F)c5F)c5ccc2[nH]5)C=C4)C=C3)cc1
REMARK SMILES IDX 22 1 21 2 20 3 18 4 19 5 17 7 16 8 1 9 2 10 3 11 4 12 14 13
REMARK SMILES IDX 5 14 13 15 15 16 6 17 7 18 8 19 9 20 12 21 10 22 11 23 23 24
REMARK SMILES IDX 24 25 25 26 26 27 27 29 28 30 29 31 90 32 30 33 89 34 31 35
REMARK SMILES IDX 32 36 33 37 83 38 34 39 88 40 82 41 84 42 35 43 87 44 81 45
REMARK SMILES IDX 80 46 36 48 68 49 48 50 67 51 49 52 52 53 66 54 85 55 50 56
REMARK SMILES IDX 51 57 65 59 86 60 53 61 37 62 38 63 46 64 39 65 40 66 44 67
REMARK SMILES IDX 47 68 41 69 42 70 45 71 43 72 69 73 70 74 78 75 71 76 72 77
REMARK SMILES IDX 76 78 79 79 73 80 74 81 77 82 75 83 54 84 55 85 63 86 56 87
REMARK SMILES IDX 57 88 61 89 64 90 58 91 59 92 62 93 60 94
REMARK H PARENT 20 6 25 28 84 47 52 58
REMARK Flexibility Score: inf
ROOT
ATOM      1  C   UNL A   1      32.130  30.530  26.257  1.00  0.00     0.023 C 
ENDROOT
BRANCH   1   2
ATOM      2  C   UNL A   1      31.922  29.621  25.045  1.00  0.00     0.116 C 
BRANCH   2   3
ATOM      3  N   UNL A   1      33.128  29.377  24.280  1.00  0.00    -0.355 N 
ATOM      4  C   UNL A   1      33.337  28.601  23.176  1.00  0.00     0.240 C 
ATOM      5  O   UNL A   1      34.350  28.848  22.513  1.00  0.00    -0.273 OA
ATOM      6  H   UNL A   1      33.928  29.847  24.610  1.00  0.00     0.163 HD
BRANCH   4   7
ATOM      7  C   UNL A   1      32.294  27.597  22.654  1.00  0.00     0.227 C 
BRANCH   7   8
ATOM      8  N   UNL A   1      31.913  26.577  23.631  1.00  0.00    -0.287 N 
ATOM      9  C   UNL A   1      29.492  27.271  23.640  1.00  0.00     0.088 C 
ATOM     10  C   UNL A   1      30.637  26.417  24.148  1.00  0.00     0.110 A 
ATOM     11  N   UNL A   1      30.327  25.534  25.047  1.00  0.00    -0.224 NA
ATOM     12  C   UNL A   1      31.328  24.718  25.447  1.00  0.00     0.131 A 
ATOM     13  C   UNL A   1      32.953  25.686  23.959  1.00  0.00     0.263 A 
ATOM     14  S   UNL A   1      31.050  23.505  26.608  1.00  0.00    -0.123 S 
ATOM     15  C   UNL A   1      32.625  24.711  24.982  1.00  0.00     0.085 A 
ATOM     16  O   UNL A   1      34.051  25.734  23.414  1.00  0.00    -0.268 OA
ATOM     17  C   UNL A   1      32.639  22.904  26.443  1.00  0.00     0.077 A 
ATOM     18  C   UNL A   1      33.401  23.656  25.569  1.00  0.00     0.017 A 
BRANCH  18  19
ATOM     19  C   UNL A   1      34.842  23.310  25.308  1.00  0.00     0.036 A 
ATOM     20  C   UNL A   1      35.929  24.050  25.723  1.00  0.00     0.020 A 
ATOM     21  S   UNL A   1      35.332  21.902  24.462  1.00  0.00    -0.144 S 
ATOM     22  C   UNL A   1      37.168  23.484  25.296  1.00  0.00     0.012 A 
ATOM     23  C   UNL A   1      36.982  22.339  24.555  1.00  0.00     0.065 A 
ENDBRANCH  18  19
ENDBRANCH   7   8
ENDBRANCH   4   7
ENDBRANCH   2   3
ENDBRANCH   1   2
BRANCH   1  24
ATOM     24  C   UNL A   1      33.175  30.067  27.282  1.00  0.00     0.023 C 
BRANCH  24  25
ATOM     25  C   UNL A   1      34.361  31.002  27.455  1.00  0.00     0.116 C 
BRANCH  25  26
ATOM     26  N   UNL A   1      34.303  31.823  28.668  1.00  0.00    -0.352 N 
ATOM     27  C   UNL A   1      35.131  31.741  29.783  1.00  0.00     0.251 C 
ATOM     28  H   UNL A   1      33.598  32.511  28.698  1.00  0.00     0.163 HD
ATOM     29  O   UNL A   1      34.803  32.176  30.869  1.00  0.00    -0.269 OA
BRANCH  27  30
ATOM     30  C   UNL A   1      36.455  31.123  29.589  1.00  0.00     0.039 A 
ATOM     31  C   UNL A   1      37.630  31.865  29.447  1.00  0.00     0.014 A 
ATOM     32  C   UNL A   1      36.485  29.737  29.652  1.00  0.00     0.014 A 
ATOM     33  C   UNL A   1      38.847  31.181  29.452  1.00  0.00     0.010 A 
ATOM     34  C   UNL A   1      37.670  29.110  29.901  1.00  0.00     0.010 A 
ATOM     35  C   UNL A   1      38.855  29.798  29.698  1.00  0.00    -0.014 A 
BRANCH  35  36
ATOM     36  C   UNL A   1      40.086  29.026  29.790  1.00  0.00     0.031 A 
ATOM     37  C   UNL A   1      40.600  28.801  31.168  1.00  0.00     0.074 A 
ATOM     38  C   UNL A   1      40.610  28.389  28.718  1.00  0.00     0.049 A 
ATOM     39  N   UNL A   1      41.704  29.241  31.674  1.00  0.00    -0.248 NA
ATOM     40  C   UNL A   1      39.746  28.090  32.131  1.00  0.00     0.031 C 
ATOM     41  C   UNL A   1      40.078  28.264  27.351  1.00  0.00     0.029 A 
ATOM     42  N   UNL A   1      41.732  27.625  28.657  1.00  0.00    -0.354 N 
ATOM     43  C   UNL A   1      41.772  28.733  32.968  1.00  0.00     0.074 A 
ATOM     44  C   UNL A   1      40.483  28.151  33.243  1.00  0.00     0.031 C 
ATOM     45  C   UNL A   1      40.744  27.298  26.680  1.00  0.00     0.029 A 
ATOM     46  C   UNL A   1      41.872  26.884  27.489  1.00  0.00     0.049 A 
ATOM     47  H   UNL A   1      42.395  27.597  29.384  1.00  0.00     0.167 HD
ATOM     48  C   UNL A   1      42.958  28.658  33.635  1.00  0.00     0.037 A 
ATOM     49  C   UNL A   1      42.860  26.000  27.212  1.00  0.00     0.037 A 
ATOM     50  C   UNL A   1      43.960  29.481  33.010  1.00  0.00     0.049 A 
ATOM     51  C   UNL A   1      43.989  26.331  28.114  1.00  0.00     0.074 A 
ATOM     52  C   UNL A   1      44.104  30.838  32.792  1.00  0.00     0.029 A 
ATOM     53  N   UNL A   1      44.839  28.876  32.145  1.00  0.00    -0.354 N 
ATOM     54  N   UNL A   1      44.682  27.432  28.030  1.00  0.00    -0.248 NA
ATOM     55  C   UNL A   1      44.043  25.646  29.396  1.00  0.00     0.031 C 
ATOM     56  C   UNL A   1      44.668  30.944  31.486  1.00  0.00     0.029 A 
ATOM     57  C   UNL A   1      44.900  29.652  31.014  1.00  0.00     0.049 A 
ATOM     58  H   UNL A   1      45.332  28.039  32.305  1.00  0.00     0.167 HD
ATOM     59  C   UNL A   1      44.905  27.804  29.346  1.00  0.00     0.074 A 
ATOM     60  C   UNL A   1      44.559  26.627  30.141  1.00  0.00     0.031 C 
ATOM     61  C   UNL A   1      45.074  29.116  29.684  1.00  0.00     0.037 A 
BRANCH  48  62
ATOM     62  C   UNL A   1      43.308  27.595  34.644  1.00  0.00     0.064 A 
ATOM     63  C   UNL A   1      43.547  27.960  35.985  1.00  0.00     0.173 A 
ATOM     64  C   UNL A   1      43.699  26.288  34.288  1.00  0.00     0.173 A 
ATOM     65  F   UNL A   1      43.237  29.189  36.424  1.00  0.00    -0.203 F 
ATOM     66  C   UNL A   1      44.188  27.100  36.880  1.00  0.00     0.198 A 
ATOM     67  C   UNL A   1      44.290  25.413  35.199  1.00  0.00     0.198 A 
ATOM     68  F   UNL A   1      43.631  25.847  33.027  1.00  0.00    -0.203 F 
ATOM     69  F   UNL A   1      44.500  27.530  38.110  1.00  0.00    -0.200 F 
ATOM     70  C   UNL A   1      44.563  25.829  36.485  1.00  0.00     0.200 A 
ATOM     71  F   UNL A   1      44.668  24.194  34.790  1.00  0.00    -0.200 F 
ATOM     72  F   UNL A   1      45.229  25.022  37.323  1.00  0.00    -0.200 F 
ENDBRANCH  48  62
BRANCH  49  73
ATOM     73  C   UNL A   1      42.783  24.700  26.508  1.00  0.00     0.064 A 
ATOM     74  C   UNL A   1      43.530  24.485  25.337  1.00  0.00     0.173 A 
ATOM     75  C   UNL A   1      42.264  23.557  27.144  1.00  0.00     0.173 A 
ATOM     76  F   UNL A   1      44.079  25.522  24.690  1.00  0.00    -0.203 F 
ATOM     77  C   UNL A   1      43.802  23.197  24.868  1.00  0.00     0.198 A 
ATOM     78  C   UNL A   1      42.534  22.270  26.672  1.00  0.00     0.198 A 
ATOM     79  F   UNL A   1      41.579  23.661  28.292  1.00  0.00    -0.203 F 
ATOM     80  F   UNL A   1      44.592  23.028  23.799  1.00  0.00    -0.200 F 
ATOM     81  C   UNL A   1      43.322  22.090  25.549  1.00  0.00     0.200 A 
ATOM     82  F   UNL A   1      42.093  21.204  27.355  1.00  0.00    -0.200 F 
ATOM     83  F   UNL A   1      43.653  20.854  25.148  1.00  0.00    -0.200 F 
ENDBRANCH  49  73
BRANCH  61  84
ATOM     84  C   UNL A   1      45.243  30.105  28.560  1.00  0.00     0.064 A 
ATOM     85  C   UNL A   1      44.181  30.790  27.942  1.00  0.00     0.173 A 
ATOM     86  C   UNL A   1      46.542  30.463  28.179  1.00  0.00     0.173 A 
ATOM     87  F   UNL A   1      42.914  30.579  28.314  1.00  0.00    -0.203 F 
ATOM     88  C   UNL A   1      44.409  31.752  26.958  1.00  0.00     0.198 A 
ATOM     89  C   UNL A   1      46.769  31.449  27.222  1.00  0.00     0.198 A 
ATOM     90  F   UNL A   1      47.598  29.884  28.771  1.00  0.00    -0.203 F 
ATOM     91  F   UNL A   1      43.376  32.379  26.376  1.00  0.00    -0.200 F 
ATOM     92  C   UNL A   1      45.705  32.085  26.604  1.00  0.00     0.200 A 
ATOM     93  F   UNL A   1      48.026  31.801  26.916  1.00  0.00    -0.200 F 
ATOM     94  F   UNL A   1      45.929  33.035  25.686  1.00  0.00    -0.200 F 
ENDBRANCH  61  84
ENDBRANCH  35  36
ENDBRANCH  27  30
ENDBRANCH  25  26
ENDBRANCH  24  25
ENDBRANCH   1  24
TORSDOF 13
ENDMDL
