MODEL 1
REMARK VINA RESULT:     -12.9      0.000      0.000
REMARK SMILES Cn1c(=O)[nH]c(=O)c2c1nc(NC1CCCC1)n2CC(=O)NCCCCNC(=O)c1ccc(-c2c3nc(c(-c4c(F)c(F)c(F)c(F)c4F)c4ccc([nH]4)c(-c4c(F)c(F)c(F)c(F)c4F)c4nc(c(-c5c(F)c(F)c(F)c(F)c5F)c5ccc2[nH]5)C=C4)C=C3)cc1
REMARK SMILES IDX 24 1 23 2 22 3 20 4 21 5 19 7 18 8 1 9 2 10 3 11 9 12 4 13
REMARK SMILES IDX 5 14 8 15 10 16 6 17 11 19 7 20 12 21 13 23 14 24 17 25
REMARK SMILES IDX 15 26 16 27 25 28 26 29 27 30 28 31 29 33 30 34 31 35 92 36
REMARK SMILES IDX 32 37 91 38 33 39 34 40 35 41 85 42 36 43 90 44 84 45 86 46
REMARK SMILES IDX 37 47 89 48 83 49 82 50 38 52 70 53 50 54 69 55 51 56 54 57
REMARK SMILES IDX 68 58 87 59 52 60 53 61 67 63 88 64 55 65 39 66 40 67 48 68
REMARK SMILES IDX 41 69 42 70 46 71 49 72 43 73 44 74 47 75 45 76 71 77 72 78
REMARK SMILES IDX 80 79 73 80 74 81 78 82 81 83 75 84 76 85 79 86 77 87 56 88
REMARK SMILES IDX 57 89 65 90 58 91 59 92 63 93 66 94 60 95 61 96 64 97 62 98
REMARK H PARENT 22 6 5 18 12 22 27 32 86 51 54 62
REMARK Flexibility Score: inf
ROOT
ATOM      1  C   UNL A   1      37.832  23.270  25.758  1.00  0.00     0.023 C 
ENDROOT
BRANCH   1   2
ATOM      2  C   UNL A   1      36.297  23.250  25.722  1.00  0.00     0.116 C 
BRANCH   2   3
ATOM      3  N   UNL A   1      35.773  23.373  24.375  1.00  0.00    -0.355 N 
ATOM      4  C   UNL A   1      34.775  24.183  23.910  1.00  0.00     0.240 C 
ATOM      5  O   UNL A   1      34.417  24.054  22.735  1.00  0.00    -0.273 OA
ATOM      6  H   UNL A   1      36.194  22.792  23.702  1.00  0.00     0.163 HD
BRANCH   4   7
ATOM      7  C   UNL A   1      34.140  25.236  24.798  1.00  0.00     0.226 C 
BRANCH   7   8
ATOM      8  N   UNL A   1      32.719  25.392  24.562  1.00  0.00    -0.295 N 
ATOM      9  C   UNL A   1      28.466  26.915  23.742  1.00  0.00     0.157 C 
ATOM     10  N   UNL A   1      29.865  27.009  23.372  1.00  0.00    -0.279 N 
ATOM     11  C   UNL A   1      30.305  27.974  22.477  1.00  0.00     0.329 A 
ATOM     12  C   UNL A   1      30.792  26.172  23.950  1.00  0.00     0.170 A 
ATOM     13  O   UNL A   1      29.571  28.799  21.935  1.00  0.00    -0.248 OA
ATOM     14  N   UNL A   1      31.661  28.005  22.204  1.00  0.00    -0.272 N 
ATOM     15  C   UNL A   1      32.128  26.272  23.688  1.00  0.00     0.154 A 
ATOM     16  N   UNL A   1      30.529  25.221  24.874  1.00  0.00    -0.194 NA
ATOM     17  C   UNL A   1      32.641  27.214  22.757  1.00  0.00     0.279 A 
ATOM     18  H   UNL A   1      31.959  28.669  21.540  1.00  0.00     0.175 HD
ATOM     19  C   UNL A   1      31.701  24.755  25.251  1.00  0.00     0.206 A 
ATOM     20  O   UNL A   1      33.831  27.366  22.486  1.00  0.00    -0.267 OA
BRANCH  19  21
ATOM     21  N   UNL A   1      31.940  23.828  26.203  1.00  0.00    -0.353 N 
ATOM     22  H   UNL A   1      32.103  24.128  27.127  1.00  0.00     0.163 HD
BRANCH  21  23
ATOM     23  C   UNL A   1      31.964  22.402  25.912  1.00  0.00     0.082 C 
ATOM     24  C   UNL A   1      31.903  22.062  24.426  1.00  0.00     0.025 C 
ATOM     25  C   UNL A   1      33.214  21.698  26.438  1.00  0.00     0.025 C 
ATOM     26  C   UNL A   1      32.469  20.651  24.344  1.00  0.00     0.002 C 
ATOM     27  C   UNL A   1      33.443  20.510  25.510  1.00  0.00     0.002 C 
ENDBRANCH  21  23
ENDBRANCH  19  21
ENDBRANCH   7   8
ENDBRANCH   4   7
ENDBRANCH   2   3
ENDBRANCH   1   2
BRANCH   1  28
ATOM     28  C   UNL A   1      38.521  21.899  25.730  1.00  0.00     0.023 C 
BRANCH  28  29
ATOM     29  C   UNL A   1      39.658  21.748  26.725  1.00  0.00     0.116 C 
BRANCH  29  30
ATOM     30  N   UNL A   1      40.981  21.701  26.096  1.00  0.00    -0.352 N 
ATOM     31  C   UNL A   1      41.860  22.756  25.910  1.00  0.00     0.251 C 
ATOM     32  H   UNL A   1      41.279  20.822  25.769  1.00  0.00     0.163 HD
ATOM     33  O   UNL A   1      42.739  22.722  25.060  1.00  0.00    -0.269 OA
BRANCH  31  34
ATOM     34  C   UNL A   1      41.723  23.926  26.791  1.00  0.00     0.039 A 
ATOM     35  C   UNL A   1      42.368  24.018  28.027  1.00  0.00     0.014 A 
ATOM     36  C   UNL A   1      40.956  24.978  26.301  1.00  0.00     0.014 A 
ATOM     37  C   UNL A   1      42.281  25.217  28.732  1.00  0.00     0.010 A 
ATOM     38  C   UNL A   1      41.058  26.209  26.879  1.00  0.00     0.010 A 
ATOM     39  C   UNL A   1      41.632  26.310  28.137  1.00  0.00    -0.014 A 
BRANCH  39  40
ATOM     40  C   UNL A   1      41.585  27.617  28.771  1.00  0.00     0.031 A 
ATOM     41  C   UNL A   1      42.659  28.551  28.350  1.00  0.00     0.074 A 
ATOM     42  C   UNL A   1      40.521  28.011  29.505  1.00  0.00     0.049 A 
ATOM     43  N   UNL A   1      43.609  29.026  29.083  1.00  0.00    -0.248 NA
ATOM     44  C   UNL A   1      42.781  28.893  26.923  1.00  0.00     0.031 C 
ATOM     45  C   UNL A   1      39.257  27.308  29.756  1.00  0.00     0.029 A 
ATOM     46  N   UNL A   1      40.314  29.208  30.111  1.00  0.00    -0.354 N 
ATOM     47  C   UNL A   1      44.346  29.877  28.264  1.00  0.00     0.074 A 
ATOM     48  C   UNL A   1      43.898  29.626  26.918  1.00  0.00     0.031 C 
ATOM     49  C   UNL A   1      38.340  28.174  30.242  1.00  0.00     0.029 A 
ATOM     50  C   UNL A   1      38.998  29.439  30.498  1.00  0.00     0.049 A 
ATOM     51  H   UNL A   1      41.036  29.861  30.264  1.00  0.00     0.167 HD
ATOM     52  C   UNL A   1      45.101  30.875  28.800  1.00  0.00     0.037 A 
ATOM     53  C   UNL A   1      38.497  30.619  30.942  1.00  0.00     0.037 A 
ATOM     54  C   UNL A   1      45.306  30.665  30.212  1.00  0.00     0.049 A 
ATOM     55  C   UNL A   1      39.656  31.413  31.438  1.00  0.00     0.074 A 
ATOM     56  C   UNL A   1      45.888  29.657  30.956  1.00  0.00     0.029 A 
ATOM     57  N   UNL A   1      44.515  31.367  31.090  1.00  0.00    -0.354 N 
ATOM     58  N   UNL A   1      40.372  31.059  32.474  1.00  0.00    -0.248 NA
ATOM     59  C   UNL A   1      40.330  32.277  30.477  1.00  0.00     0.031 C 
ATOM     60  C   UNL A   1      45.023  29.490  32.078  1.00  0.00     0.029 A 
ATOM     61  C   UNL A   1      44.025  30.463  31.999  1.00  0.00     0.049 A 
ATOM     62  H   UNL A   1      44.334  32.334  31.072  1.00  0.00     0.167 HD
ATOM     63  C   UNL A   1      41.686  31.296  32.097  1.00  0.00     0.074 A 
ATOM     64  C   UNL A   1      41.594  32.091  30.870  1.00  0.00     0.031 C 
ATOM     65  C   UNL A   1      42.724  30.576  32.618  1.00  0.00     0.037 A 
BRANCH  52  66
ATOM     66  C   UNL A   1      45.350  32.213  28.153  1.00  0.00     0.064 A 
ATOM     67  C   UNL A   1      44.257  33.075  27.928  1.00  0.00     0.173 A 
ATOM     68  C   UNL A   1      46.540  32.549  27.473  1.00  0.00     0.173 A 
ATOM     69  F   UNL A   1      43.072  32.845  28.515  1.00  0.00    -0.203 F 
ATOM     70  C   UNL A   1      44.326  34.136  27.022  1.00  0.00     0.198 A 
ATOM     71  C   UNL A   1      46.621  33.640  26.611  1.00  0.00     0.198 A 
ATOM     72  F   UNL A   1      47.632  31.778  27.523  1.00  0.00    -0.203 F 
ATOM     73  F   UNL A   1      43.225  34.844  26.741  1.00  0.00    -0.200 F 
ATOM     74  C   UNL A   1      45.507  34.412  26.357  1.00  0.00     0.200 A 
ATOM     75  F   UNL A   1      47.769  33.881  25.962  1.00  0.00    -0.200 F 
ATOM     76  F   UNL A   1      45.560  35.385  25.439  1.00  0.00    -0.200 F 
ENDBRANCH  52  66
BRANCH  53  77
ATOM     77  C   UNL A   1      37.180  31.213  30.591  1.00  0.00     0.064 A 
ATOM     78  C   UNL A   1      36.224  31.515  31.575  1.00  0.00     0.173 A 
ATOM     79  C   UNL A   1      36.929  31.733  29.304  1.00  0.00     0.173 A 
ATOM     80  F   UNL A   1      36.408  31.108  32.839  1.00  0.00    -0.203 F 
ATOM     81  C   UNL A   1      35.096  32.295  31.290  1.00  0.00     0.198 A 
ATOM     82  C   UNL A   1      35.801  32.505  29.019  1.00  0.00     0.198 A 
ATOM     83  F   UNL A   1      37.819  31.582  28.313  1.00  0.00    -0.203 F 
ATOM     84  F   UNL A   1      34.232  32.605  32.267  1.00  0.00    -0.200 F 
ATOM     85  C   UNL A   1      34.888  32.795  30.015  1.00  0.00     0.200 A 
ATOM     86  F   UNL A   1      35.638  33.014  27.790  1.00  0.00    -0.200 F 
ATOM     87  F   UNL A   1      33.837  33.585  29.754  1.00  0.00    -0.200 F 
ENDBRANCH  53  77
BRANCH  65  88
ATOM     88  C   UNL A   1      42.461  29.638  33.766  1.00  0.00     0.064 A 
ATOM     89  C   UNL A   1      42.107  28.287  33.607  1.00  0.00     0.173 A 
ATOM     90  C   UNL A   1      42.813  30.060  35.055  1.00  0.00     0.173 A 
ATOM     91  F   UNL A   1      41.847  27.778  32.398  1.00  0.00    -0.203 F 
ATOM     92  C   UNL A   1      42.097  27.406  34.690  1.00  0.00     0.198 A 
ATOM     93  C   UNL A   1      42.835  29.174  36.127  1.00  0.00     0.198 A 
ATOM     94  F   UNL A   1      43.212  31.326  35.259  1.00  0.00    -0.203 F 
ATOM     95  F   UNL A   1      41.772  26.117  34.506  1.00  0.00    -0.200 F 
ATOM     96  C   UNL A   1      42.476  27.848  35.946  1.00  0.00     0.200 A 
ATOM     97  F   UNL A   1      43.254  29.594  37.329  1.00  0.00    -0.200 F 
ATOM     98  F   UNL A   1      42.528  26.990  36.975  1.00  0.00    -0.200 F 
ENDBRANCH  65  88
ENDBRANCH  39  40
ENDBRANCH  31  34
ENDBRANCH  29  30
ENDBRANCH  28  29
ENDBRANCH   1  28
TORSDOF 14
ENDMDL
MODEL 2
REMARK VINA RESULT:     -12.8      2.361      3.423
REMARK SMILES Cn1c(=O)[nH]c(=O)c2c1nc(NC1CCCC1)n2CC(=O)NCCCCNC(=O)c1ccc(-c2c3nc(c(-c4c(F)c(F)c(F)c(F)c4F)c4ccc([nH]4)c(-c4c(F)c(F)c(F)c(F)c4F)c4nc(c(-c5c(F)c(F)c(F)c(F)c5F)c5ccc2[nH]5)C=C4)C=C3)cc1
REMARK SMILES IDX 24 1 23 2 22 3 20 4 21 5 19 7 18 8 1 9 2 10 3 11 9 12 4 13
REMARK SMILES IDX 5 14 8 15 10 16 6 17 11 19 7 20 12 21 13 23 14 24 17 25
REMARK SMILES IDX 15 26 16 27 25 28 26 29 27 30 28 31 29 33 30 34 31 35 92 36
REMARK SMILES IDX 32 37 91 38 33 39 34 40 35 41 85 42 36 43 90 44 84 45 86 46
REMARK SMILES IDX 37 47 89 48 83 49 82 50 38 52 70 53 50 54 69 55 51 56 54 57
REMARK SMILES IDX 68 58 87 59 52 60 53 61 67 63 88 64 55 65 39 66 40 67 48 68
REMARK SMILES IDX 41 69 42 70 46 71 49 72 43 73 44 74 47 75 45 76 71 77 72 78
REMARK SMILES IDX 80 79 73 80 74 81 78 82 81 83 75 84 76 85 79 86 77 87 56 88
REMARK SMILES IDX 57 89 65 90 58 91 59 92 63 93 66 94 60 95 61 96 64 97 62 98
REMARK H PARENT 22 6 5 18 12 22 27 32 86 51 54 62
REMARK Flexibility Score: inf
ROOT
ATOM      1  C   UNL A   1      40.148  21.163  26.281  1.00  0.00     0.023 C 
ENDROOT
BRANCH   1   2
ATOM      2  C   UNL A   1      38.846  21.209  25.469  1.00  0.00     0.116 C 
BRANCH   2   3
ATOM      3  N   UNL A   1      37.776  21.887  26.175  1.00  0.00    -0.355 N 
ATOM      4  C   UNL A   1      36.439  21.917  25.893  1.00  0.00     0.240 C 
ATOM      5  O   UNL A   1      35.714  22.646  26.575  1.00  0.00    -0.273 OA
ATOM      6  H   UNL A   1      38.051  22.399  26.970  1.00  0.00     0.163 HD
BRANCH   4   7
ATOM      7  C   UNL A   1      35.851  21.056  24.791  1.00  0.00     0.226 C 
BRANCH   7   8
ATOM      8  N   UNL A   1      34.506  21.450  24.424  1.00  0.00    -0.295 N 
ATOM      9  C   UNL A   1      30.590  23.667  23.509  1.00  0.00     0.157 C 
ATOM     10  N   UNL A   1      32.034  23.674  23.366  1.00  0.00    -0.279 N 
ATOM     11  C   UNL A   1      32.696  24.774  22.839  1.00  0.00     0.329 A 
ATOM     12  C   UNL A   1      32.778  22.603  23.806  1.00  0.00     0.170 A 
ATOM     13  O   UNL A   1      32.134  25.799  22.455  1.00  0.00    -0.248 OA
ATOM     14  N   UNL A   1      34.075  24.701  22.765  1.00  0.00    -0.272 N 
ATOM     15  C   UNL A   1      34.142  22.595  23.758  1.00  0.00     0.154 A 
ATOM     16  N   UNL A   1      32.288  21.486  24.388  1.00  0.00    -0.194 NA
ATOM     17  C   UNL A   1      34.880  23.674  23.200  1.00  0.00     0.279 A 
ATOM     18  H   UNL A   1      34.533  25.470  22.355  1.00  0.00     0.175 HD
ATOM     19  C   UNL A   1      33.338  20.791  24.771  1.00  0.00     0.206 A 
ATOM     20  O   UNL A   1      36.106  23.737  23.139  1.00  0.00    -0.267 OA
BRANCH  19  21
ATOM     21  N   UNL A   1      33.339  19.626  25.452  1.00  0.00    -0.353 N 
ATOM     22  H   UNL A   1      33.486  19.645  26.425  1.00  0.00     0.163 HD
BRANCH  21  23
ATOM     23  C   UNL A   1      33.128  18.342  24.798  1.00  0.00     0.082 C 
ATOM     24  C   UNL A   1      34.373  17.760  24.137  1.00  0.00     0.025 C 
ATOM     25  C   UNL A   1      32.626  17.256  25.747  1.00  0.00     0.025 C 
ATOM     26  C   UNL A   1      34.071  16.274  24.019  1.00  0.00     0.002 C 
ATOM     27  C   UNL A   1      33.121  15.935  25.164  1.00  0.00     0.002 C 
ENDBRANCH  21  23
ENDBRANCH  19  21
ENDBRANCH   7   8
ENDBRANCH   4   7
ENDBRANCH   2   3
ENDBRANCH   1   2
BRANCH   1  28
ATOM     28  C   UNL A   1      40.937  19.848  26.206  1.00  0.00     0.023 C 
BRANCH  28  29
ATOM     29  C   UNL A   1      42.311  19.903  26.851  1.00  0.00     0.116 C 
BRANCH  29  30
ATOM     30  N   UNL A   1      43.410  19.729  25.897  1.00  0.00    -0.352 N 
ATOM     31  C   UNL A   1      43.999  20.705  25.109  1.00  0.00     0.251 C 
ATOM     32  H   UNL A   1      43.770  18.818  25.806  1.00  0.00     0.163 HD
ATOM     33  O   UNL A   1      44.618  20.425  24.091  1.00  0.00    -0.269 OA
BRANCH  31  34
ATOM     34  C   UNL A   1      43.883  22.103  25.548  1.00  0.00     0.039 A 
ATOM     35  C   UNL A   1      43.002  23.010  24.951  1.00  0.00     0.014 A 
ATOM     36  C   UNL A   1      44.659  22.470  26.642  1.00  0.00     0.014 A 
ATOM     37  C   UNL A   1      42.869  24.275  25.519  1.00  0.00     0.010 A 
ATOM     38  C   UNL A   1      44.364  23.616  27.320  1.00  0.00     0.010 A 
ATOM     39  C   UNL A   1      43.548  24.560  26.714  1.00  0.00    -0.014 A 
BRANCH  39  40
ATOM     40  C   UNL A   1      43.384  25.823  27.412  1.00  0.00     0.031 A 
ATOM     41  C   UNL A   1      44.334  26.888  27.002  1.00  0.00     0.074 A 
ATOM     42  C   UNL A   1      42.312  26.065  28.199  1.00  0.00     0.049 A 
ATOM     43  N   UNL A   1      45.254  27.431  27.725  1.00  0.00    -0.248 NA
ATOM     44  C   UNL A   1      44.363  27.306  25.590  1.00  0.00     0.031 C 
ATOM     45  C   UNL A   1      41.142  25.216  28.457  1.00  0.00     0.029 A 
ATOM     46  N   UNL A   1      42.000  27.203  28.870  1.00  0.00    -0.354 N 
ATOM     47  C   UNL A   1      45.862  28.394  26.925  1.00  0.00     0.074 A 
ATOM     48  C   UNL A   1      45.394  28.156  25.584  1.00  0.00     0.031 C 
ATOM     49  C   UNL A   1      40.157  25.953  29.014  1.00  0.00     0.029 A 
ATOM     50  C   UNL A   1      40.682  27.270  29.310  1.00  0.00     0.049 A 
ATOM     51  H   UNL A   1      42.652  27.923  29.030  1.00  0.00     0.167 HD
ATOM     52  C   UNL A   1      46.525  29.444  27.484  1.00  0.00     0.037 A 
ATOM     53  C   UNL A   1      40.074  28.366  29.828  1.00  0.00     0.037 A 
ATOM     54  C   UNL A   1      46.805  29.194  28.876  1.00  0.00     0.049 A 
ATOM     55  C   UNL A   1      41.158  29.260  30.324  1.00  0.00     0.074 A 
ATOM     56  C   UNL A   1      47.521  28.224  29.551  1.00  0.00     0.029 A 
ATOM     57  N   UNL A   1      45.976  29.765  29.814  1.00  0.00    -0.354 N 
ATOM     58  N   UNL A   1      41.947  28.941  31.317  1.00  0.00    -0.248 NA
ATOM     59  C   UNL A   1      41.697  30.235  29.385  1.00  0.00     0.031 C 
ATOM     60  C   UNL A   1      46.723  27.913  30.691  1.00  0.00     0.029 A 
ATOM     61  C   UNL A   1      45.622  28.772  30.693  1.00  0.00     0.049 A 
ATOM     62  H   UNL A   1      45.691  30.706  29.849  1.00  0.00     0.167 HD
ATOM     63  C   UNL A   1      43.213  29.338  30.909  1.00  0.00     0.074 A 
ATOM     64  C   UNL A   1      42.988  30.172  29.727  1.00  0.00     0.031 C 
ATOM     65  C   UNL A   1      44.342  28.714  31.359  1.00  0.00     0.037 A 
BRANCH  52  66
ATOM     66  C   UNL A   1      46.602  30.829  26.896  1.00  0.00     0.064 A 
ATOM     67  C   UNL A   1      47.846  31.494  26.878  1.00  0.00     0.173 A 
ATOM     68  C   UNL A   1      45.476  31.639  26.639  1.00  0.00     0.173 A 
ATOM     69  F   UNL A   1      48.983  30.824  27.121  1.00  0.00    -0.203 F 
ATOM     70  C   UNL A   1      47.943  32.877  26.709  1.00  0.00     0.198 A 
ATOM     71  C   UNL A   1      45.582  33.010  26.417  1.00  0.00     0.198 A 
ATOM     72  F   UNL A   1      44.227  31.166  26.705  1.00  0.00    -0.203 F 
ATOM     73  F   UNL A   1      49.131  33.481  26.835  1.00  0.00    -0.200 F 
ATOM     74  C   UNL A   1      46.808  33.636  26.487  1.00  0.00     0.200 A 
ATOM     75  F   UNL A   1      44.468  33.731  26.221  1.00  0.00    -0.200 F 
ATOM     76  F   UNL A   1      46.888  34.969  26.391  1.00  0.00    -0.200 F 
ENDBRANCH  52  66
BRANCH  53  77
ATOM     77  C   UNL A   1      38.688  28.826  29.551  1.00  0.00     0.064 A 
ATOM     78  C   UNL A   1      37.799  29.149  30.589  1.00  0.00     0.173 A 
ATOM     79  C   UNL A   1      38.286  29.204  28.252  1.00  0.00     0.173 A 
ATOM     80  F   UNL A   1      38.122  28.877  31.861  1.00  0.00    -0.203 F 
ATOM     81  C   UNL A   1      36.590  29.814  30.342  1.00  0.00     0.198 A 
ATOM     82  C   UNL A   1      37.079  29.861  28.007  1.00  0.00     0.198 A 
ATOM     83  F   UNL A   1      39.098  29.027  27.200  1.00  0.00    -0.203 F 
ATOM     84  F   UNL A   1      35.790  30.150  31.365  1.00  0.00    -0.200 F 
ATOM     85  C   UNL A   1      36.234  30.176  29.054  1.00  0.00     0.200 A 
ATOM     86  F   UNL A   1      36.770  30.240  26.759  1.00  0.00    -0.200 F 
ATOM     87  F   UNL A   1      35.104  30.859  28.824  1.00  0.00    -0.200 F 
ENDBRANCH  53  77
BRANCH  65  88
ATOM     88  C   UNL A   1      44.226  27.702  32.468  1.00  0.00     0.064 A 
ATOM     89  C   UNL A   1      44.089  26.319  32.255  1.00  0.00     0.173 A 
ATOM     90  C   UNL A   1      44.503  28.123  33.776  1.00  0.00     0.173 A 
ATOM     91  F   UNL A   1      43.916  25.824  31.024  1.00  0.00    -0.203 F 
ATOM     92  C   UNL A   1      44.215  25.406  33.302  1.00  0.00     0.198 A 
ATOM     93  C   UNL A   1      44.661  27.209  34.814  1.00  0.00     0.198 A 
ATOM     94  F   UNL A   1      44.698  29.427  34.032  1.00  0.00    -0.203 F 
ATOM     95  F   UNL A   1      44.097  24.090  33.067  1.00  0.00    -0.200 F 
ATOM     96  C   UNL A   1      44.515  25.852  34.578  1.00  0.00     0.200 A 
ATOM     97  F   UNL A   1      45.005  27.642  36.034  1.00  0.00    -0.200 F 
ATOM     98  F   UNL A   1      44.699  24.972  35.574  1.00  0.00    -0.200 F 
ENDBRANCH  65  88
ENDBRANCH  39  40
ENDBRANCH  31  34
ENDBRANCH  29  30
ENDBRANCH  28  29
ENDBRANCH   1  28
TORSDOF 14
ENDMDL
MODEL 3
REMARK VINA RESULT:     -12.8      2.925      8.115
REMARK SMILES Cn1c(=O)[nH]c(=O)c2c1nc(NC1CCCC1)n2CC(=O)NCCCCNC(=O)c1ccc(-c2c3nc(c(-c4c(F)c(F)c(F)c(F)c4F)c4ccc([nH]4)c(-c4c(F)c(F)c(F)c(F)c4F)c4nc(c(-c5c(F)c(F)c(F)c(F)c5F)c5ccc2[nH]5)C=C4)C=C3)cc1
REMARK SMILES IDX 24 1 23 2 22 3 20 4 21 5 19 7 18 8 1 9 2 10 3 11 9 12 4 13
REMARK SMILES IDX 5 14 8 15 10 16 6 17 11 19 7 20 12 21 13 23 14 24 17 25
REMARK SMILES IDX 15 26 16 27 25 28 26 29 27 30 28 31 29 33 30 34 31 35 92 36
REMARK SMILES IDX 32 37 91 38 33 39 34 40 35 41 85 42 36 43 90 44 84 45 86 46
REMARK SMILES IDX 37 47 89 48 83 49 82 50 38 52 70 53 50 54 69 55 51 56 54 57
REMARK SMILES IDX 68 58 87 59 52 60 53 61 67 63 88 64 55 65 39 66 40 67 48 68
REMARK SMILES IDX 41 69 42 70 46 71 49 72 43 73 44 74 47 75 45 76 71 77 72 78
REMARK SMILES IDX 80 79 73 80 74 81 78 82 81 83 75 84 76 85 79 86 77 87 56 88
REMARK SMILES IDX 57 89 65 90 58 91 59 92 63 93 66 94 60 95 61 96 64 97 62 98
REMARK H PARENT 22 6 5 18 12 22 27 32 86 51 54 62
REMARK Flexibility Score: inf
ROOT
ATOM      1  C   UNL A   1      32.648  29.550  26.885  1.00  0.00     0.023 C 
ENDROOT
BRANCH   1   2
ATOM      2  C   UNL A   1      33.630  28.775  25.996  1.00  0.00     0.116 C 
BRANCH   2   3
ATOM      3  N   UNL A   1      33.771  27.389  26.402  1.00  0.00    -0.355 N 
ATOM      4  C   UNL A   1      33.616  26.253  25.658  1.00  0.00     0.240 C 
ATOM      5  O   UNL A   1      33.686  25.164  26.234  1.00  0.00    -0.273 OA
ATOM      6  H   UNL A   1      34.012  27.247  27.346  1.00  0.00     0.163 HD
BRANCH   4   7
ATOM      7  C   UNL A   1      33.394  26.321  24.159  1.00  0.00     0.226 C 
BRANCH   7   8
ATOM      8  N   UNL A   1      32.016  26.596  23.804  1.00  0.00    -0.295 N 
ATOM      9  C   UNL A   1      27.929  28.472  22.877  1.00  0.00     0.157 C 
ATOM     10  N   UNL A   1      29.365  28.580  22.703  1.00  0.00    -0.279 N 
ATOM     11  C   UNL A   1      29.932  29.702  22.115  1.00  0.00     0.329 A 
ATOM     12  C   UNL A   1      30.196  27.589  23.173  1.00  0.00     0.170 A 
ATOM     13  O   UNL A   1      29.288  30.664  21.699  1.00  0.00    -0.248 OA
ATOM     14  N   UNL A   1      31.312  29.728  22.015  1.00  0.00    -0.272 N 
ATOM     15  C   UNL A   1      31.556  27.681  23.097  1.00  0.00     0.154 A 
ATOM     16  N   UNL A   1      29.801  26.465  23.814  1.00  0.00    -0.194 NA
ATOM     17  C   UNL A   1      32.199  28.785  22.478  1.00  0.00     0.279 A 
ATOM     18  H   UNL A   1      31.703  30.511  21.563  1.00  0.00     0.175 HD
ATOM     19  C   UNL A   1      30.908  25.868  24.204  1.00  0.00     0.206 A 
ATOM     20  O   UNL A   1      33.416  28.937  22.388  1.00  0.00    -0.267 OA
BRANCH  19  21
ATOM     21  N   UNL A   1      31.009  24.738  24.935  1.00  0.00    -0.353 N 
ATOM     22  H   UNL A   1      31.071  24.811  25.914  1.00  0.00     0.163 HD
BRANCH  21  23
ATOM     23  C   UNL A   1      31.027  23.416  24.324  1.00  0.00     0.082 C 
ATOM     24  C   UNL A   1      31.810  23.337  23.017  1.00  0.00     0.025 C 
ATOM     25  C   UNL A   1      31.633  22.342  25.226  1.00  0.00     0.025 C 
ATOM     26  C   UNL A   1      32.141  21.859  22.871  1.00  0.00     0.002 C 
ATOM     27  C   UNL A   1      32.219  21.293  24.286  1.00  0.00     0.002 C 
ENDBRANCH  21  23
ENDBRANCH  19  21
ENDBRANCH   7   8
ENDBRANCH   4   7
ENDBRANCH   2   3
ENDBRANCH   1   2
BRANCH   1  28
ATOM     28  C   UNL A   1      33.048  30.991  27.228  1.00  0.00     0.023 C 
BRANCH  28  29
ATOM     29  C   UNL A   1      34.401  31.124  27.904  1.00  0.00     0.116 C 
BRANCH  29  30
ATOM     30  N   UNL A   1      34.364  31.924  29.131  1.00  0.00    -0.352 N 
ATOM     31  C   UNL A   1      35.227  31.844  30.212  1.00  0.00     0.251 C 
ATOM     32  H   UNL A   1      33.645  32.593  29.195  1.00  0.00     0.163 HD
ATOM     33  O   UNL A   1      34.912  32.251  31.322  1.00  0.00    -0.269 OA
BRANCH  31  34
ATOM     34  C   UNL A   1      36.562  31.273  29.981  1.00  0.00     0.039 A 
ATOM     35  C   UNL A   1      37.712  32.060  29.879  1.00  0.00     0.014 A 
ATOM     36  C   UNL A   1      36.635  29.884  29.930  1.00  0.00     0.014 A 
ATOM     37  C   UNL A   1      38.947  31.421  29.790  1.00  0.00     0.010 A 
ATOM     38  C   UNL A   1      37.845  29.271  30.067  1.00  0.00     0.010 A 
ATOM     39  C   UNL A   1      38.999  30.022  29.898  1.00  0.00    -0.014 A 
BRANCH  39  40
ATOM     40  C   UNL A   1      40.257  29.295  29.909  1.00  0.00     0.031 A 
ATOM     41  C   UNL A   1      40.846  29.093  31.257  1.00  0.00     0.074 A 
ATOM     42  C   UNL A   1      40.723  28.668  28.807  1.00  0.00     0.049 A 
ATOM     43  N   UNL A   1      41.952  29.584  31.704  1.00  0.00    -0.248 NA
ATOM     44  C   UNL A   1      40.057  28.378  32.274  1.00  0.00     0.031 C 
ATOM     45  C   UNL A   1      40.098  28.530  27.485  1.00  0.00     0.029 A 
ATOM     46  N   UNL A   1      41.846  27.916  28.678  1.00  0.00    -0.354 N 
ATOM     47  C   UNL A   1      42.101  29.093  32.998  1.00  0.00     0.074 A 
ATOM     48  C   UNL A   1      40.836  28.503  33.353  1.00  0.00     0.031 C 
ATOM     49  C   UNL A   1      40.720  27.556  26.785  1.00  0.00     0.029 A 
ATOM     50  C   UNL A   1      41.885  27.128  27.533  1.00  0.00     0.049 A 
ATOM     51  H   UNL A   1      42.574  27.927  29.341  1.00  0.00     0.167 HD
ATOM     52  C   UNL A   1      43.332  29.020  33.576  1.00  0.00     0.037 A 
ATOM     53  C   UNL A   1      42.793  26.156  27.269  1.00  0.00     0.037 A 
ATOM     54  C   UNL A   1      44.288  29.824  32.855  1.00  0.00     0.049 A 
ATOM     55  C   UNL A   1      43.987  26.450  28.111  1.00  0.00     0.074 A 
ATOM     56  C   UNL A   1      44.374  31.169  32.553  1.00  0.00     0.029 A 
ATOM     57  N   UNL A   1      45.131  29.189  31.973  1.00  0.00    -0.354 N 
ATOM     58  N   UNL A   1      44.730  27.514  27.948  1.00  0.00    -0.248 NA
ATOM     59  C   UNL A   1      44.023  25.859  29.443  1.00  0.00     0.031 C 
ATOM     60  C   UNL A   1      44.832  31.208  31.203  1.00  0.00     0.029 A 
ATOM     61  C   UNL A   1      45.086  29.896  30.798  1.00  0.00     0.049 A 
ATOM     62  H   UNL A   1      45.665  28.382  32.151  1.00  0.00     0.167 HD
ATOM     63  C   UNL A   1      44.988  27.968  29.233  1.00  0.00     0.074 A 
ATOM     64  C   UNL A   1      44.564  26.880  30.116  1.00  0.00     0.031 C 
ATOM     65  C   UNL A   1      45.225  29.289  29.494  1.00  0.00     0.037 A 
BRANCH  52  66
ATOM     66  C   UNL A   1      43.766  27.960  34.555  1.00  0.00     0.064 A 
ATOM     67  C   UNL A   1      43.640  26.603  34.191  1.00  0.00     0.173 A 
ATOM     68  C   UNL A   1      44.001  28.202  35.925  1.00  0.00     0.173 A 
ATOM     69  F   UNL A   1      43.403  26.256  32.916  1.00  0.00    -0.203 F 
ATOM     70  C   UNL A   1      43.656  25.578  35.140  1.00  0.00     0.198 A 
ATOM     71  C   UNL A   1      44.070  27.173  36.861  1.00  0.00     0.198 A 
ATOM     72  F   UNL A   1      44.059  29.439  36.431  1.00  0.00    -0.203 F 
ATOM     73  F   UNL A   1      43.397  24.319  34.764  1.00  0.00    -0.200 F 
ATOM     74  C   UNL A   1      43.862  25.866  36.477  1.00  0.00     0.200 A 
ATOM     75  F   UNL A   1      44.254  27.474  38.155  1.00  0.00    -0.200 F 
ATOM     76  F   UNL A   1      43.813  24.895  37.398  1.00  0.00    -0.200 F 
ENDBRANCH  52  66
BRANCH  53  77
ATOM     77  C   UNL A   1      42.521  24.827  26.659  1.00  0.00     0.064 A 
ATOM     78  C   UNL A   1      43.207  24.389  25.515  1.00  0.00     0.173 A 
ATOM     79  C   UNL A   1      41.760  23.851  27.337  1.00  0.00     0.173 A 
ATOM     80  F   UNL A   1      43.997  25.235  24.840  1.00  0.00    -0.203 F 
ATOM     81  C   UNL A   1      43.141  23.057  25.083  1.00  0.00     0.198 A 
ATOM     82  C   UNL A   1      41.691  22.526  26.902  1.00  0.00     0.198 A 
ATOM     83  F   UNL A   1      41.138  24.139  28.490  1.00  0.00    -0.203 F 
ATOM     84  F   UNL A   1      43.851  22.665  24.015  1.00  0.00    -0.200 F 
ATOM     85  C   UNL A   1      42.390  22.126  25.781  1.00  0.00     0.200 A 
ATOM     86  F   UNL A   1      40.991  21.630  27.612  1.00  0.00    -0.200 F 
ATOM     87  F   UNL A   1      42.369  20.841  25.399  1.00  0.00    -0.200 F 
ENDBRANCH  53  77
BRANCH  65  88
ATOM     88  C   UNL A   1      45.400  30.243  28.342  1.00  0.00     0.064 A 
ATOM     89  C   UNL A   1      44.353  31.000  27.787  1.00  0.00     0.173 A 
ATOM     90  C   UNL A   1      46.705  30.574  27.954  1.00  0.00     0.173 A 
ATOM     91  F   UNL A   1      43.086  30.813  28.172  1.00  0.00    -0.203 F 
ATOM     92  C   UNL A   1      44.604  32.031  26.881  1.00  0.00     0.198 A 
ATOM     93  C   UNL A   1      46.956  31.624  27.076  1.00  0.00     0.198 A 
ATOM     94  F   UNL A   1      47.749  29.923  28.492  1.00  0.00    -0.203 F 
ATOM     95  F   UNL A   1      43.587  32.749  26.380  1.00  0.00    -0.200 F 
ATOM     96  C   UNL A   1      45.906  32.351  26.538  1.00  0.00     0.200 A 
ATOM     97  F   UNL A   1      48.219  31.964  26.790  1.00  0.00    -0.200 F 
ATOM     98  F   UNL A   1      46.153  33.382  25.716  1.00  0.00    -0.200 F 
ENDBRANCH  65  88
ENDBRANCH  39  40
ENDBRANCH  31  34
ENDBRANCH  29  30
ENDBRANCH  28  29
ENDBRANCH   1  28
TORSDOF 14
ENDMDL
