MODEL 1
REMARK VINA RESULT:     -11.3      0.000      0.000
REMARK SMILES COCCS(=O)(=O)Cc1ccc(C(=O)NCCCCNC(=O)c2ccc(-c3c4nc(c(-c5c(F)c(F)c(F)c(F)c5F)c5ccc([nH]5)c(-c5c(F)c(F)c(F)c(F)c5F)c5nc(c(-c6c(F)c(F)c(F)c(F)c6F)c6ccc3[nH]6)C=C5)C=C4)cc2)cn1
REMARK SMILES IDX 16 1 15 2 13 3 14 4 12 6 9 7 10 8 87 9 11 10 86 11 8 12 5 13
REMARK SMILES IDX 6 14 7 15 4 16 3 17 2 18 1 19 17 20 18 21 19 22 20 23 21 24
REMARK SMILES IDX 22 26 23 27 24 28 85 29 25 30 84 31 26 32 27 33 28 34 78 35
REMARK SMILES IDX 29 36 83 37 77 38 79 39 30 40 82 41 76 42 75 43 31 45 63 46
REMARK SMILES IDX 43 47 62 48 44 49 47 50 61 51 80 52 45 53 46 54 60 56 81 57
REMARK SMILES IDX 48 58 32 59 33 60 41 61 34 62 35 63 39 64 42 65 36 66 37 67
REMARK SMILES IDX 40 68 38 69 64 70 65 71 73 72 66 73 67 74 71 75 74 76 68 77
REMARK SMILES IDX 69 78 72 79 70 80 49 81 50 82 58 83 51 84 52 85 56 86 59 87
REMARK SMILES IDX 53 88 54 89 57 90 55 91
REMARK H PARENT 15 5 20 25 79 44 47 55
REMARK Flexibility Score: inf
ROOT
ATOM      1  C   UNL A   1      31.493  29.731  25.386  1.00  0.00     0.116 C 
ENDROOT
BRANCH   1   2
ATOM      2  N   UNL A   1      32.520  29.710  24.367  1.00  0.00    -0.352 N 
ATOM      3  C   UNL A   1      33.278  28.683  23.868  1.00  0.00     0.252 C 
ATOM      4  O   UNL A   1      34.032  28.939  22.929  1.00  0.00    -0.269 OA
ATOM      5  H   UNL A   1      32.706  30.588  23.961  1.00  0.00     0.163 HD
BRANCH   3   6
ATOM      6  C   UNL A   1      33.218  27.289  24.376  1.00  0.00     0.058 A 
ATOM      7  C   UNL A   1      33.023  24.589  25.013  1.00  0.00     0.055 A 
ATOM      8  C   UNL A   1      33.776  25.428  25.824  1.00  0.00     0.026 A 
ATOM      9  N   UNL A   1      32.357  25.061  23.938  1.00  0.00    -0.259 NA
ATOM     10  C   UNL A   1      33.874  26.783  25.496  1.00  0.00     0.017 A 
ATOM     11  C   UNL A   1      32.488  26.377  23.628  1.00  0.00     0.125 A 
BRANCH   7  12
ATOM     12  C   UNL A   1      32.890  23.132  25.322  1.00  0.00     0.193 C 
BRANCH  12  13
ATOM     13  S   UNL A   1      34.415  22.287  24.963  1.00  0.00     0.158 S 
ATOM     14  O   UNL A   1      35.289  22.511  26.105  1.00  0.00    -0.228 OA
ATOM     15  O   UNL A   1      34.865  22.731  23.653  1.00  0.00    -0.228 OA
BRANCH  13  16
ATOM     16  C   UNL A   1      34.113  20.528  24.864  1.00  0.00     0.165 C 
BRANCH  16  17
ATOM     17  C   UNL A   1      32.739  20.159  24.330  1.00  0.00     0.176 C 
BRANCH  17  18
ATOM     18  O   UNL A   1      32.106  19.133  25.092  1.00  0.00    -0.384 OA
ATOM     19  C   UNL A   1      32.431  17.808  24.705  1.00  0.00     0.194 C 
ENDBRANCH  17  18
ENDBRANCH  16  17
ENDBRANCH  13  16
ENDBRANCH  12  13
ENDBRANCH   7  12
ENDBRANCH   3   6
ENDBRANCH   1   2
BRANCH   1  20
ATOM     20  C   UNL A   1      32.000  30.402  26.663  1.00  0.00     0.023 C 
BRANCH  20  21
ATOM     21  C   UNL A   1      31.709  31.899  26.764  1.00  0.00     0.023 C 
BRANCH  21  22
ATOM     22  C   UNL A   1      32.820  32.729  27.396  1.00  0.00     0.116 C 
BRANCH  22  23
ATOM     23  N   UNL A   1      32.431  34.098  27.691  1.00  0.00    -0.352 N 
ATOM     24  C   UNL A   1      32.988  34.964  28.605  1.00  0.00     0.251 C 
ATOM     25  H   UNL A   1      31.673  34.452  27.171  1.00  0.00     0.163 HD
ATOM     26  O   UNL A   1      32.501  36.063  28.804  1.00  0.00    -0.269 OA
BRANCH  24  27
ATOM     27  C   UNL A   1      34.160  34.510  29.382  1.00  0.00     0.039 A 
ATOM     28  C   UNL A   1      33.948  33.937  30.637  1.00  0.00     0.014 A 
ATOM     29  C   UNL A   1      35.446  34.599  28.846  1.00  0.00     0.014 A 
ATOM     30  C   UNL A   1      35.026  33.383  31.328  1.00  0.00     0.010 A 
ATOM     31  C   UNL A   1      36.507  33.986  29.503  1.00  0.00     0.010 A 
ATOM     32  C   UNL A   1      36.305  33.371  30.748  1.00  0.00    -0.014 A 
BRANCH  32  33
ATOM     33  C   UNL A   1      37.448  32.713  31.426  1.00  0.00     0.031 A 
ATOM     34  C   UNL A   1      38.144  31.557  30.768  1.00  0.00     0.074 A 
ATOM     35  C   UNL A   1      37.807  33.111  32.661  1.00  0.00     0.049 A 
ATOM     36  N   UNL A   1      39.111  30.803  31.226  1.00  0.00    -0.248 NA
ATOM     37  C   UNL A   1      37.669  31.177  29.428  1.00  0.00     0.031 C 
ATOM     38  C   UNL A   1      37.169  34.185  33.423  1.00  0.00     0.029 A 
ATOM     39  N   UNL A   1      38.789  32.647  33.499  1.00  0.00    -0.354 N 
ATOM     40  C   UNL A   1      39.345  29.853  30.242  1.00  0.00     0.074 A 
ATOM     41  C   UNL A   1      38.389  30.092  29.184  1.00  0.00     0.031 C 
ATOM     42  C   UNL A   1      37.790  34.314  34.607  1.00  0.00     0.029 A 
ATOM     43  C   UNL A   1      38.846  33.310  34.700  1.00  0.00     0.049 A 
ATOM     44  H   UNL A   1      39.396  31.908  33.262  1.00  0.00     0.167 HD
ATOM     45  C   UNL A   1      40.290  28.884  30.215  1.00  0.00     0.037 A 
ATOM     46  C   UNL A   1      39.658  33.124  35.758  1.00  0.00     0.037 A 
ATOM     47  C   UNL A   1      41.262  28.673  31.255  1.00  0.00     0.049 A 
ATOM     48  C   UNL A   1      40.709  32.050  35.696  1.00  0.00     0.074 A 
ATOM     49  C   UNL A   1      42.305  27.764  31.291  1.00  0.00     0.029 A 
ATOM     50  N   UNL A   1      41.308  29.384  32.445  1.00  0.00    -0.354 N 
ATOM     51  N   UNL A   1      40.970  31.204  34.728  1.00  0.00    -0.248 NA
ATOM     52  C   UNL A   1      41.582  31.908  36.869  1.00  0.00     0.031 C 
ATOM     53  C   UNL A   1      42.960  27.900  32.520  1.00  0.00     0.029 A 
ATOM     54  C   UNL A   1      42.351  28.922  33.231  1.00  0.00     0.049 A 
ATOM     55  H   UNL A   1      40.691  30.110  32.695  1.00  0.00     0.167 HD
ATOM     56  C   UNL A   1      42.052  30.451  35.163  1.00  0.00     0.074 A 
ATOM     57  C   UNL A   1      42.407  30.948  36.476  1.00  0.00     0.031 C 
ATOM     58  C   UNL A   1      42.695  29.438  34.531  1.00  0.00     0.037 A 
BRANCH  45  59
ATOM     59  C   UNL A   1      40.324  27.982  29.016  1.00  0.00     0.064 A 
ATOM     60  C   UNL A   1      41.064  28.312  27.870  1.00  0.00     0.173 A 
ATOM     61  C   UNL A   1      39.632  26.762  29.023  1.00  0.00     0.173 A 
ATOM     62  F   UNL A   1      41.732  29.474  27.809  1.00  0.00    -0.203 F 
ATOM     63  C   UNL A   1      41.088  27.466  26.765  1.00  0.00     0.198 A 
ATOM     64  C   UNL A   1      39.682  25.905  27.927  1.00  0.00     0.198 A 
ATOM     65  F   UNL A   1      38.911  26.398  30.094  1.00  0.00    -0.203 F 
ATOM     66  F   UNL A   1      41.762  27.825  25.664  1.00  0.00    -0.200 F 
ATOM     67  C   UNL A   1      40.403  26.261  26.796  1.00  0.00     0.200 A 
ATOM     68  F   UNL A   1      39.028  24.736  27.961  1.00  0.00    -0.200 F 
ATOM     69  F   UNL A   1      40.432  25.445  25.733  1.00  0.00    -0.200 F 
ENDBRANCH  45  59
BRANCH  46  70
ATOM     70  C   UNL A   1      39.533  33.998  36.953  1.00  0.00     0.064 A 
ATOM     71  C   UNL A   1      40.180  35.240  37.003  1.00  0.00     0.173 A 
ATOM     72  C   UNL A   1      38.773  33.612  38.066  1.00  0.00     0.173 A 
ATOM     73  F   UNL A   1      40.935  35.643  35.971  1.00  0.00    -0.203 F 
ATOM     74  C   UNL A   1      40.089  36.055  38.130  1.00  0.00     0.198 A 
ATOM     75  C   UNL A   1      38.661  34.439  39.182  1.00  0.00     0.198 A 
ATOM     76  F   UNL A   1      38.130  32.435  38.065  1.00  0.00    -0.203 F 
ATOM     77  F   UNL A   1      40.753  37.218  38.168  1.00  0.00    -0.200 F 
ATOM     78  C   UNL A   1      39.325  35.656  39.216  1.00  0.00     0.200 A 
ATOM     79  F   UNL A   1      37.911  34.056  40.224  1.00  0.00    -0.200 F 
ATOM     80  F   UNL A   1      39.234  36.441  40.298  1.00  0.00    -0.200 F 
ENDBRANCH  46  70
BRANCH  58  81
ATOM     81  C   UNL A   1      43.868  28.824  35.236  1.00  0.00     0.064 A 
ATOM     82  C   UNL A   1      45.173  29.295  35.037  1.00  0.00     0.173 A 
ATOM     83  C   UNL A   1      43.675  27.780  36.154  1.00  0.00     0.173 A 
ATOM     84  F   UNL A   1      45.408  30.280  34.157  1.00  0.00    -0.203 F 
ATOM     85  C   UNL A   1      46.249  28.727  35.714  1.00  0.00     0.198 A 
ATOM     86  C   UNL A   1      44.749  27.234  36.851  1.00  0.00     0.198 A 
ATOM     87  F   UNL A   1      42.445  27.299  36.384  1.00  0.00    -0.203 F 
ATOM     88  F   UNL A   1      47.493  29.163  35.477  1.00  0.00    -0.200 F 
ATOM     89  C   UNL A   1      46.035  27.704  36.626  1.00  0.00     0.200 A 
ATOM     90  F   UNL A   1      44.541  26.253  37.740  1.00  0.00    -0.200 F 
ATOM     91  F   UNL A   1      47.070  27.164  37.284  1.00  0.00    -0.200 F 
ENDBRANCH  58  81
ENDBRANCH  32  33
ENDBRANCH  24  27
ENDBRANCH  22  23
ENDBRANCH  21  22
ENDBRANCH  20  21
ENDBRANCH   1  20
TORSDOF 16
ENDMDL
MODEL 2
REMARK VINA RESULT:     -11.2      5.814     11.476
REMARK SMILES COCCS(=O)(=O)Cc1ccc(C(=O)NCCCCNC(=O)c2ccc(-c3c4nc(c(-c5c(F)c(F)c(F)c(F)c5F)c5ccc([nH]5)c(-c5c(F)c(F)c(F)c(F)c5F)c5nc(c(-c6c(F)c(F)c(F)c(F)c6F)c6ccc3[nH]6)C=C5)C=C4)cc2)cn1
REMARK SMILES IDX 16 1 15 2 13 3 14 4 12 6 9 7 10 8 87 9 11 10 86 11 8 12 5 13
REMARK SMILES IDX 6 14 7 15 4 16 3 17 2 18 1 19 17 20 18 21 19 22 20 23 21 24
REMARK SMILES IDX 22 26 23 27 24 28 85 29 25 30 84 31 26 32 27 33 28 34 78 35
REMARK SMILES IDX 29 36 83 37 77 38 79 39 30 40 82 41 76 42 75 43 31 45 63 46
REMARK SMILES IDX 43 47 62 48 44 49 47 50 61 51 80 52 45 53 46 54 60 56 81 57
REMARK SMILES IDX 48 58 32 59 33 60 41 61 34 62 35 63 39 64 42 65 36 66 37 67
REMARK SMILES IDX 40 68 38 69 64 70 65 71 73 72 66 73 67 74 71 75 74 76 68 77
REMARK SMILES IDX 69 78 72 79 70 80 49 81 50 82 58 83 51 84 52 85 56 86 59 87
REMARK SMILES IDX 53 88 54 89 57 90 55 91
REMARK H PARENT 15 5 20 25 79 44 47 55
REMARK Flexibility Score: inf
ROOT
ATOM      1  C   UNL A   1      35.592  20.915  25.287  1.00  0.00     0.116 C 
ENDROOT
BRANCH   1   2
ATOM      2  N   UNL A   1      35.110  21.423  26.552  1.00  0.00    -0.352 N 
ATOM      3  C   UNL A   1      34.351  22.524  26.854  1.00  0.00     0.252 C 
ATOM      4  O   UNL A   1      34.011  22.674  28.029  1.00  0.00    -0.269 OA
ATOM      5  H   UNL A   1      35.372  20.883  27.333  1.00  0.00     0.163 HD
BRANCH   3   6
ATOM      6  C   UNL A   1      33.899  23.518  25.849  1.00  0.00     0.058 A 
ATOM      7  C   UNL A   1      32.739  25.286  24.044  1.00  0.00     0.055 A 
ATOM      8  C   UNL A   1      34.030  25.524  24.496  1.00  0.00     0.026 A 
ATOM      9  N   UNL A   1      32.044  24.198  24.437  1.00  0.00    -0.259 NA
ATOM     10  C   UNL A   1      34.606  24.634  25.406  1.00  0.00     0.017 A 
ATOM     11  C   UNL A   1      32.617  23.362  25.341  1.00  0.00     0.125 A 
BRANCH   7  12
ATOM     12  C   UNL A   1      32.079  26.211  23.071  1.00  0.00     0.193 C 
BRANCH  12  13
ATOM     13  S   UNL A   1      30.919  27.264  23.914  1.00  0.00     0.158 S 
ATOM     14  O   UNL A   1      31.523  27.598  25.196  1.00  0.00    -0.228 OA
ATOM     15  O   UNL A   1      29.632  26.588  23.915  1.00  0.00    -0.228 OA
BRANCH  13  16
ATOM     16  C   UNL A   1      30.728  28.791  23.004  1.00  0.00     0.165 C 
BRANCH  16  17
ATOM     17  C   UNL A   1      29.357  28.977  22.378  1.00  0.00     0.176 C 
BRANCH  17  18
ATOM     18  O   UNL A   1      29.334  30.004  21.388  1.00  0.00    -0.384 OA
ATOM     19  C   UNL A   1      28.097  30.684  21.254  1.00  0.00     0.194 C 
ENDBRANCH  17  18
ENDBRANCH  16  17
ENDBRANCH  13  16
ENDBRANCH  12  13
ENDBRANCH   7  12
ENDBRANCH   3   6
ENDBRANCH   1   2
BRANCH   1  20
ATOM     20  C   UNL A   1      37.037  21.349  25.035  1.00  0.00     0.023 C 
BRANCH  20  21
ATOM     21  C   UNL A   1      38.055  20.210  24.991  1.00  0.00     0.023 C 
BRANCH  21  22
ATOM     22  C   UNL A   1      39.194  20.326  25.995  1.00  0.00     0.116 C 
BRANCH  22  23
ATOM     23  N   UNL A   1      40.114  19.201  25.967  1.00  0.00    -0.352 N 
ATOM     24  C   UNL A   1      41.482  19.216  26.125  1.00  0.00     0.251 C 
ATOM     25  H   UNL A   1      39.709  18.316  25.817  1.00  0.00     0.163 HD
ATOM     26  O   UNL A   1      42.138  18.197  25.994  1.00  0.00    -0.269 OA
BRANCH  24  27
ATOM     27  C   UNL A   1      42.146  20.505  26.404  1.00  0.00     0.039 A 
ATOM     28  C   UNL A   1      42.561  21.290  25.325  1.00  0.00     0.014 A 
ATOM     29  C   UNL A   1      42.302  20.957  27.715  1.00  0.00     0.014 A 
ATOM     30  C   UNL A   1      43.068  22.568  25.563  1.00  0.00     0.010 A 
ATOM     31  C   UNL A   1      42.742  22.255  27.947  1.00  0.00     0.010 A 
ATOM     32  C   UNL A   1      43.127  23.072  26.872  1.00  0.00    -0.014 A 
BRANCH  32  33
ATOM     33  C   UNL A   1      43.582  24.457  27.142  1.00  0.00     0.031 A 
ATOM     34  C   UNL A   1      42.605  25.485  27.632  1.00  0.00     0.074 A 
ATOM     35  C   UNL A   1      44.856  24.801  26.873  1.00  0.00     0.049 A 
ATOM     36  N   UNL A   1      42.787  26.762  27.854  1.00  0.00    -0.248 NA
ATOM     37  C   UNL A   1      41.229  25.024  27.875  1.00  0.00     0.031 C 
ATOM     38  C   UNL A   1      45.882  23.903  26.342  1.00  0.00     0.029 A 
ATOM     39  N   UNL A   1      45.501  26.005  26.998  1.00  0.00    -0.354 N 
ATOM     40  C   UNL A   1      41.551  27.256  28.244  1.00  0.00     0.074 A 
ATOM     41  C   UNL A   1      40.614  26.157  28.181  1.00  0.00     0.031 C 
ATOM     42  C   UNL A   1      47.034  24.581  26.208  1.00  0.00     0.029 A 
ATOM     43  C   UNL A   1      46.818  25.967  26.611  1.00  0.00     0.049 A 
ATOM     44  H   UNL A   1      45.062  26.820  27.335  1.00  0.00     0.167 HD
ATOM     45  C   UNL A   1      41.233  28.510  28.642  1.00  0.00     0.037 A 
ATOM     46  C   UNL A   1      47.746  26.943  26.583  1.00  0.00     0.037 A 
ATOM     47  C   UNL A   1      42.176  29.593  28.736  1.00  0.00     0.049 A 
ATOM     48  C   UNL A   1      47.369  28.325  27.045  1.00  0.00     0.074 A 
ATOM     49  C   UNL A   1      41.970  30.882  29.194  1.00  0.00     0.029 A 
ATOM     50  N   UNL A   1      43.510  29.509  28.363  1.00  0.00    -0.354 N 
ATOM     51  N   UNL A   1      46.213  28.764  27.482  1.00  0.00    -0.248 NA
ATOM     52  C   UNL A   1      48.426  29.344  27.014  1.00  0.00     0.031 C 
ATOM     53  C   UNL A   1      43.169  31.589  29.064  1.00  0.00     0.029 A 
ATOM     54  C   UNL A   1      44.134  30.729  28.564  1.00  0.00     0.049 A 
ATOM     55  H   UNL A   1      43.948  28.702  28.008  1.00  0.00     0.167 HD
ATOM     56  C   UNL A   1      46.411  30.100  27.805  1.00  0.00     0.074 A 
ATOM     57  C   UNL A   1      47.801  30.395  27.525  1.00  0.00     0.031 C 
ATOM     58  C   UNL A   1      45.522  31.000  28.290  1.00  0.00     0.037 A 
BRANCH  45  59
ATOM     59  C   UNL A   1      39.804  28.778  29.014  1.00  0.00     0.064 A 
ATOM     60  C   UNL A   1      39.351  28.638  30.335  1.00  0.00     0.173 A 
ATOM     61  C   UNL A   1      38.884  29.207  28.046  1.00  0.00     0.173 A 
ATOM     62  F   UNL A   1      40.189  28.217  31.294  1.00  0.00    -0.203 F 
ATOM     63  C   UNL A   1      38.023  28.890  30.667  1.00  0.00     0.198 A 
ATOM     64  C   UNL A   1      37.564  29.487  28.388  1.00  0.00     0.198 A 
ATOM     65  F   UNL A   1      39.266  29.360  26.769  1.00  0.00    -0.203 F 
ATOM     66  F   UNL A   1      37.602  28.702  31.926  1.00  0.00    -0.200 F 
ATOM     67  C   UNL A   1      37.132  29.321  29.696  1.00  0.00     0.200 A 
ATOM     68  F   UNL A   1      36.706  29.913  27.451  1.00  0.00    -0.200 F 
ATOM     69  F   UNL A   1      35.855  29.569  30.019  1.00  0.00    -0.200 F 
ENDBRANCH  45  59
BRANCH  46  70
ATOM     70  C   UNL A   1      49.128  26.641  26.134  1.00  0.00     0.064 A 
ATOM     71  C   UNL A   1      50.088  26.166  27.038  1.00  0.00     0.173 A 
ATOM     72  C   UNL A   1      49.522  26.825  24.801  1.00  0.00     0.173 A 
ATOM     73  F   UNL A   1      49.764  25.993  28.328  1.00  0.00    -0.203 F 
ATOM     74  C   UNL A   1      51.394  25.904  26.631  1.00  0.00     0.198 A 
ATOM     75  C   UNL A   1      50.822  26.538  24.389  1.00  0.00     0.198 A 
ATOM     76  F   UNL A   1      48.640  27.273  23.896  1.00  0.00    -0.203 F 
ATOM     77  F   UNL A   1      52.302  25.490  27.526  1.00  0.00    -0.200 F 
ATOM     78  C   UNL A   1      51.759  26.085  25.306  1.00  0.00     0.200 A 
ATOM     79  F   UNL A   1      51.167  26.702  23.105  1.00  0.00    -0.200 F 
ATOM     80  F   UNL A   1      53.014  25.831  24.913  1.00  0.00    -0.200 F 
ENDBRANCH  46  70
BRANCH  58  81
ATOM     81  C   UNL A   1      46.032  32.380  28.582  1.00  0.00     0.064 A 
ATOM     82  C   UNL A   1      46.597  32.707  29.823  1.00  0.00     0.173 A 
ATOM     83  C   UNL A   1      45.994  33.373  27.591  1.00  0.00     0.173 A 
ATOM     84  F   UNL A   1      46.641  31.794  30.805  1.00  0.00    -0.203 F 
ATOM     85  C   UNL A   1      47.085  33.987  30.070  1.00  0.00     0.198 A 
ATOM     86  C   UNL A   1      46.509  34.644  27.833  1.00  0.00     0.198 A 
ATOM     87  F   UNL A   1      45.470  33.108  26.386  1.00  0.00    -0.203 F 
ATOM     88  F   UNL A   1      47.581  34.291  31.277  1.00  0.00    -0.200 F 
ATOM     89  C   UNL A   1      47.048  34.951  29.074  1.00  0.00     0.200 A 
ATOM     90  F   UNL A   1      46.483  35.571  26.866  1.00  0.00    -0.200 F 
ATOM     91  F   UNL A   1      47.526  36.181  29.310  1.00  0.00    -0.200 F 
ENDBRANCH  58  81
ENDBRANCH  32  33
ENDBRANCH  24  27
ENDBRANCH  22  23
ENDBRANCH  21  22
ENDBRANCH  20  21
ENDBRANCH   1  20
TORSDOF 16
ENDMDL
MODEL 3
REMARK VINA RESULT:     -11.2      3.885      8.294
REMARK SMILES COCCS(=O)(=O)Cc1ccc(C(=O)NCCCCNC(=O)c2ccc(-c3c4nc(c(-c5c(F)c(F)c(F)c(F)c5F)c5ccc([nH]5)c(-c5c(F)c(F)c(F)c(F)c5F)c5nc(c(-c6c(F)c(F)c(F)c(F)c6F)c6ccc3[nH]6)C=C5)C=C4)cc2)cn1
REMARK SMILES IDX 16 1 15 2 13 3 14 4 12 6 9 7 10 8 87 9 11 10 86 11 8 12 5 13
REMARK SMILES IDX 6 14 7 15 4 16 3 17 2 18 1 19 17 20 18 21 19 22 20 23 21 24
REMARK SMILES IDX 22 26 23 27 24 28 85 29 25 30 84 31 26 32 27 33 28 34 78 35
REMARK SMILES IDX 29 36 83 37 77 38 79 39 30 40 82 41 76 42 75 43 31 45 63 46
REMARK SMILES IDX 43 47 62 48 44 49 47 50 61 51 80 52 45 53 46 54 60 56 81 57
REMARK SMILES IDX 48 58 32 59 33 60 41 61 34 62 35 63 39 64 42 65 36 66 37 67
REMARK SMILES IDX 40 68 38 69 64 70 65 71 73 72 66 73 67 74 71 75 74 76 68 77
REMARK SMILES IDX 69 78 72 79 70 80 49 81 50 82 58 83 51 84 52 85 56 86 59 87
REMARK SMILES IDX 53 88 54 89 57 90 55 91
REMARK H PARENT 15 5 20 25 79 44 47 55
REMARK Flexibility Score: inf
ROOT
ATOM      1  C   UNL A   1      35.499  20.576  25.074  1.00  0.00     0.116 C 
ENDROOT
BRANCH   1   2
ATOM      2  N   UNL A   1      34.233  19.916  25.309  1.00  0.00    -0.352 N 
ATOM      3  C   UNL A   1      32.953  20.264  24.964  1.00  0.00     0.252 C 
ATOM      4  O   UNL A   1      32.057  19.461  25.224  1.00  0.00    -0.269 OA
ATOM      5  H   UNL A   1      34.304  19.067  25.804  1.00  0.00     0.163 HD
BRANCH   3   6
ATOM      6  C   UNL A   1      32.598  21.531  24.277  1.00  0.00     0.058 A 
ATOM      7  C   UNL A   1      31.915  24.041  23.295  1.00  0.00     0.055 A 
ATOM      8  C   UNL A   1      32.557  23.135  22.461  1.00  0.00     0.026 A 
ATOM      9  N   UNL A   1      31.585  23.720  24.563  1.00  0.00    -0.259 NA
ATOM     10  C   UNL A   1      32.902  21.877  22.962  1.00  0.00     0.017 A 
ATOM     11  C   UNL A   1      31.953  22.499  25.033  1.00  0.00     0.125 A 
BRANCH   7  12
ATOM     12  C   UNL A   1      31.527  25.400  22.806  1.00  0.00     0.193 C 
BRANCH  12  13
ATOM     13  S   UNL A   1      32.955  26.461  22.746  1.00  0.00     0.158 S 
ATOM     14  O   UNL A   1      33.623  26.182  21.483  1.00  0.00    -0.228 OA
ATOM     15  O   UNL A   1      33.701  26.262  23.979  1.00  0.00    -0.228 OA
BRANCH  13  16
ATOM     16  C   UNL A   1      32.428  28.168  22.702  1.00  0.00     0.165 C 
BRANCH  16  17
ATOM     17  C   UNL A   1      30.963  28.380  23.044  1.00  0.00     0.176 C 
BRANCH  17  18
ATOM     18  O   UNL A   1      30.176  28.741  21.911  1.00  0.00    -0.384 OA
ATOM     19  C   UNL A   1      29.551  30.012  21.993  1.00  0.00     0.194 C 
ENDBRANCH  17  18
ENDBRANCH  16  17
ENDBRANCH  13  16
ENDBRANCH  12  13
ENDBRANCH   7  12
ENDBRANCH   3   6
ENDBRANCH   1   2
BRANCH   1  20
ATOM     20  C   UNL A   1      35.730  21.698  26.087  1.00  0.00     0.023 C 
BRANCH  20  21
ATOM     21  C   UNL A   1      35.729  23.109  25.498  1.00  0.00     0.023 C 
BRANCH  21  22
ATOM     22  C   UNL A   1      37.107  23.736  25.329  1.00  0.00     0.116 C 
BRANCH  22  23
ATOM     23  N   UNL A   1      38.203  22.810  25.564  1.00  0.00    -0.352 N 
ATOM     24  C   UNL A   1      39.380  23.039  26.241  1.00  0.00     0.251 C 
ATOM     25  H   UNL A   1      38.089  21.905  25.193  1.00  0.00     0.163 HD
ATOM     26  O   UNL A   1      40.250  22.187  26.289  1.00  0.00    -0.269 OA
BRANCH  24  27
ATOM     27  C   UNL A   1      39.589  24.361  26.865  1.00  0.00     0.039 A 
ATOM     28  C   UNL A   1      39.132  24.564  28.169  1.00  0.00     0.014 A 
ATOM     29  C   UNL A   1      40.281  25.367  26.188  1.00  0.00     0.014 A 
ATOM     30  C   UNL A   1      39.436  25.758  28.823  1.00  0.00     0.010 A 
ATOM     31  C   UNL A   1      40.642  26.527  26.864  1.00  0.00     0.010 A 
ATOM     32  C   UNL A   1      40.225  26.731  28.188  1.00  0.00    -0.014 A 
BRANCH  32  33
ATOM     33  C   UNL A   1      40.632  27.970  28.893  1.00  0.00     0.031 A 
ATOM     34  C   UNL A   1      42.028  28.104  29.428  1.00  0.00     0.074 A 
ATOM     35  C   UNL A   1      39.722  28.938  29.114  1.00  0.00     0.049 A 
ATOM     36  N   UNL A   1      42.555  29.071  30.135  1.00  0.00    -0.248 NA
ATOM     37  C   UNL A   1      42.947  26.986  29.159  1.00  0.00     0.031 C 
ATOM     38  C   UNL A   1      38.321  28.895  28.692  1.00  0.00     0.029 A 
ATOM     39  N   UNL A   1      39.837  30.140  29.763  1.00  0.00    -0.354 N 
ATOM     40  C   UNL A   1      43.855  28.671  30.408  1.00  0.00     0.074 A 
ATOM     41  C   UNL A   1      44.024  27.354  29.836  1.00  0.00     0.031 C 
ATOM     42  C   UNL A   1      37.713  30.031  29.072  1.00  0.00     0.029 A 
ATOM     43  C   UNL A   1      38.670  30.864  29.793  1.00  0.00     0.049 A 
ATOM     44  H   UNL A   1      40.677  30.456  30.169  1.00  0.00     0.167 HD
ATOM     45  C   UNL A   1      44.827  29.353  31.058  1.00  0.00     0.037 A 
ATOM     46  C   UNL A   1      38.404  32.064  30.344  1.00  0.00     0.037 A 
ATOM     47  C   UNL A   1      44.664  30.678  31.595  1.00  0.00     0.049 A 
ATOM     48  C   UNL A   1      39.506  32.807  31.048  1.00  0.00     0.074 A 
ATOM     49  C   UNL A   1      45.607  31.484  32.209  1.00  0.00     0.029 A 
ATOM     50  N   UNL A   1      43.474  31.393  31.580  1.00  0.00    -0.354 N 
ATOM     51  N   UNL A   1      40.754  32.451  31.237  1.00  0.00    -0.248 NA
ATOM     52  C   UNL A   1      39.165  34.120  31.610  1.00  0.00     0.031 C 
ATOM     53  C   UNL A   1      44.979  32.671  32.599  1.00  0.00     0.029 A 
ATOM     54  C   UNL A   1      43.655  32.623  32.191  1.00  0.00     0.049 A 
ATOM     55  H   UNL A   1      42.627  31.073  31.194  1.00  0.00     0.167 HD
ATOM     56  C   UNL A   1      41.353  33.506  31.912  1.00  0.00     0.074 A 
ATOM     57  C   UNL A   1      40.334  34.521  32.089  1.00  0.00     0.031 C 
ATOM     58  C   UNL A   1      42.631  33.624  32.347  1.00  0.00     0.037 A 
BRANCH  45  59
ATOM     59  C   UNL A   1      46.159  28.680  31.216  1.00  0.00     0.064 A 
ATOM     60  C   UNL A   1      46.450  27.884  32.334  1.00  0.00     0.173 A 
ATOM     61  C   UNL A   1      47.144  28.809  30.227  1.00  0.00     0.173 A 
ATOM     62  F   UNL A   1      45.545  27.740  33.315  1.00  0.00    -0.203 F 
ATOM     63  C   UNL A   1      47.689  27.264  32.469  1.00  0.00     0.198 A 
ATOM     64  C   UNL A   1      48.372  28.164  30.351  1.00  0.00     0.198 A 
ATOM     65  F   UNL A   1      46.916  29.558  29.137  1.00  0.00    -0.203 F 
ATOM     66  F   UNL A   1      47.962  26.548  33.568  1.00  0.00    -0.200 F 
ATOM     67  C   UNL A   1      48.647  27.399  31.475  1.00  0.00     0.200 A 
ATOM     68  F   UNL A   1      49.293  28.287  29.385  1.00  0.00    -0.200 F 
ATOM     69  F   UNL A   1      49.837  26.796  31.603  1.00  0.00    -0.200 F 
ENDBRANCH  45  59
BRANCH  46  70
ATOM     70  C   UNL A   1      37.046  32.652  30.223  1.00  0.00     0.064 A 
ATOM     71  C   UNL A   1      36.094  32.471  31.235  1.00  0.00     0.173 A 
ATOM     72  C   UNL A   1      36.669  33.398  29.097  1.00  0.00     0.173 A 
ATOM     73  F   UNL A   1      36.401  31.748  32.321  1.00  0.00    -0.203 F 
ATOM     74  C   UNL A   1      34.809  32.998  31.118  1.00  0.00     0.198 A 
ATOM     75  C   UNL A   1      35.392  33.947  28.993  1.00  0.00     0.198 A 
ATOM     76  F   UNL A   1      37.545  33.604  28.104  1.00  0.00    -0.203 F 
ATOM     77  F   UNL A   1      33.905  32.774  32.082  1.00  0.00    -0.200 F 
ATOM     78  C   UNL A   1      34.461  33.739  30.000  1.00  0.00     0.200 A 
ATOM     79  F   UNL A   1      35.064  34.674  27.917  1.00  0.00    -0.200 F 
ATOM     80  F   UNL A   1      33.227  34.249  29.888  1.00  0.00    -0.200 F 
ENDBRANCH  46  70
BRANCH  58  81
ATOM     81  C   UNL A   1      43.010  34.907  33.024  1.00  0.00     0.064 A 
ATOM     82  C   UNL A   1      43.450  36.021  32.294  1.00  0.00     0.173 A 
ATOM     83  C   UNL A   1      42.890  35.036  34.416  1.00  0.00     0.173 A 
ATOM     84  F   UNL A   1      43.595  35.940  30.963  1.00  0.00    -0.203 F 
ATOM     85  C   UNL A   1      43.778  37.212  32.936  1.00  0.00     0.198 A 
ATOM     86  C   UNL A   1      43.192  36.237  35.052  1.00  0.00     0.198 A 
ATOM     87  F   UNL A   1      42.468  34.002  35.158  1.00  0.00    -0.203 F 
ATOM     88  F   UNL A   1      44.237  38.250  32.225  1.00  0.00    -0.200 F 
ATOM     89  C   UNL A   1      43.641  37.322  34.313  1.00  0.00     0.200 A 
ATOM     90  F   UNL A   1      43.049  36.345  36.380  1.00  0.00    -0.200 F 
ATOM     91  F   UNL A   1      43.949  38.471  34.929  1.00  0.00    -0.200 F 
ENDBRANCH  58  81
ENDBRANCH  32  33
ENDBRANCH  24  27
ENDBRANCH  22  23
ENDBRANCH  21  22
ENDBRANCH  20  21
ENDBRANCH   1  20
TORSDOF 16
ENDMDL
