MODEL 1
REMARK VINA RESULT:     -12.7      0.000      0.000
REMARK SMILES CC(C)(C)OC(=O)c1c(F)ccc(C(=O)NCCCCNC(=O)c2ccc(-c3c4nc(c(-c5c(F)c(F)c(F)c(F)c5F)c5ccc([nH]5)c(-c5c(F)c(F)c(F)c(F)c5F)c5nc(c(-c6c(F)c(F)c(F)c(F)c6F)c6ccc3[nH]6)C=C5)C=C4)cc2)c1N
REMARK SMILES IDX 18 1 17 2 16 3 14 4 15 5 13 7 8 8 9 9 87 10 10 11 11 12
REMARK SMILES IDX 12 13 6 14 7 15 5 16 2 17 1 18 3 19 4 20 88 21 19 24 20 25
REMARK SMILES IDX 21 26 22 27 23 29 24 30 25 31 86 32 26 33 85 34 27 35 28 36
REMARK SMILES IDX 29 37 79 38 30 39 84 40 78 41 80 42 31 43 83 44 77 45 76 46
REMARK SMILES IDX 32 48 64 49 44 50 63 51 45 52 48 53 62 54 81 55 46 56 47 57
REMARK SMILES IDX 61 59 82 60 49 61 33 62 34 63 42 64 35 65 36 66 40 67 43 68
REMARK SMILES IDX 37 69 38 70 41 71 39 72 65 73 66 74 74 75 67 76 68 77 72 78
REMARK SMILES IDX 75 79 69 80 70 81 73 82 71 83 50 84 51 85 59 86 52 87 53 88
REMARK SMILES IDX 57 89 60 90 54 91 55 92 58 93 56 94
REMARK H PARENT 16 6 88 22 88 23 21 28 80 47 48 58
REMARK Flexibility Score: inf
ROOT
ATOM      1  C   UNL A   1      31.753  30.703  25.882  1.00  0.00     0.023 C 
ENDROOT
BRANCH   1   2
ATOM      2  C   UNL A   1      32.327  29.488  26.603  1.00  0.00     0.116 C 
BRANCH   2   3
ATOM      3  N   UNL A   1      33.229  28.667  25.811  1.00  0.00    -0.352 N 
ATOM      4  C   UNL A   1      33.003  28.038  24.604  1.00  0.00     0.253 C 
ATOM      5  O   UNL A   1      33.932  27.445  24.058  1.00  0.00    -0.269 OA
ATOM      6  H   UNL A   1      34.129  28.542  26.190  1.00  0.00     0.163 HD
BRANCH   4   7
ATOM      7  C   UNL A   1      31.642  27.970  24.001  1.00  0.00     0.063 A 
ATOM      8  C   UNL A   1      29.811  28.859  22.692  1.00  0.00     0.119 A 
ATOM      9  C   UNL A   1      28.955  27.938  23.314  1.00  0.00     0.139 A 
ATOM     10  C   UNL A   1      31.208  28.767  22.917  1.00  0.00     0.062 A 
ATOM     11  F   UNL A   1      27.642  27.909  23.040  1.00  0.00    -0.206 F 
ATOM     12  C   UNL A   1      29.431  27.008  24.230  1.00  0.00     0.041 A 
ATOM     13  C   UNL A   1      30.766  27.056  24.610  1.00  0.00     0.019 A 
BRANCH   8  14
ATOM     14  C   UNL A   1      29.154  29.960  21.927  1.00  0.00     0.343 C 
ATOM     15  O   UNL A   1      28.297  29.763  21.083  1.00  0.00    -0.246 OA
BRANCH  14  16
ATOM     16  O   UNL A   1      29.552  31.184  22.358  1.00  0.00    -0.456 OA
BRANCH  16  17
ATOM     17  C   UNL A   1      28.579  32.248  22.552  1.00  0.00     0.104 C 
ATOM     18  C   UNL A   1      27.525  31.648  23.496  1.00  0.00     0.056 C 
ATOM     19  C   UNL A   1      27.889  32.614  21.232  1.00  0.00     0.056 C 
ATOM     20  C   UNL A   1      29.209  33.467  23.231  1.00  0.00     0.056 C 
ENDBRANCH  16  17
ENDBRANCH  14  16
ENDBRANCH   8  14
BRANCH  10  21
ATOM     21  N   UNL A   1      32.129  29.504  22.165  1.00  0.00    -0.397 N 
ATOM     22  H   UNL A   1      33.084  29.485  22.403  1.00  0.00     0.156 HD
ATOM     23  H   UNL A   1      31.822  30.041  21.400  1.00  0.00     0.156 HD
ENDBRANCH  10  21
ENDBRANCH   4   7
ENDBRANCH   2   3
ENDBRANCH   1   2
BRANCH   1  24
ATOM     24  C   UNL A   1      31.445  31.925  26.744  1.00  0.00     0.023 C 
BRANCH  24  25
ATOM     25  C   UNL A   1      32.640  32.718  27.265  1.00  0.00     0.116 C 
BRANCH  25  26
ATOM     26  N   UNL A   1      32.324  34.088  27.641  1.00  0.00    -0.352 N 
ATOM     27  C   UNL A   1      32.934  34.936  28.537  1.00  0.00     0.251 C 
ATOM     28  H   UNL A   1      31.545  34.473  27.177  1.00  0.00     0.163 HD
ATOM     29  O   UNL A   1      32.450  36.044  28.752  1.00  0.00    -0.269 OA
BRANCH  27  30
ATOM     30  C   UNL A   1      34.140  34.511  29.283  1.00  0.00     0.039 A 
ATOM     31  C   UNL A   1      33.981  33.981  30.568  1.00  0.00     0.014 A 
ATOM     32  C   UNL A   1      35.419  34.622  28.735  1.00  0.00     0.014 A 
ATOM     33  C   UNL A   1      35.086  33.469  31.255  1.00  0.00     0.010 A 
ATOM     34  C   UNL A   1      36.506  34.037  29.383  1.00  0.00     0.010 A 
ATOM     35  C   UNL A   1      36.350  33.441  30.644  1.00  0.00    -0.014 A 
BRANCH  35  36
ATOM     36  C   UNL A   1      37.511  32.771  31.291  1.00  0.00     0.031 A 
ATOM     37  C   UNL A   1      38.185  31.604  30.624  1.00  0.00     0.074 A 
ATOM     38  C   UNL A   1      37.899  33.155  32.525  1.00  0.00     0.049 A 
ATOM     39  N   UNL A   1      39.136  30.827  31.080  1.00  0.00    -0.248 NA
ATOM     40  C   UNL A   1      37.708  31.240  29.281  1.00  0.00     0.031 C 
ATOM     41  C   UNL A   1      37.293  34.234  33.307  1.00  0.00     0.029 A 
ATOM     42  N   UNL A   1      38.886  32.667  33.347  1.00  0.00    -0.354 N 
ATOM     43  C   UNL A   1      39.347  29.869  30.096  1.00  0.00     0.074 A 
ATOM     44  C   UNL A   1      38.403  30.139  29.033  1.00  0.00     0.031 C 
ATOM     45  C   UNL A   1      37.929  34.338  34.485  1.00  0.00     0.029 A 
ATOM     46  C   UNL A   1      38.962  33.310  34.561  1.00  0.00     0.049 A 
ATOM     47  H   UNL A   1      39.484  31.928  33.091  1.00  0.00     0.167 HD
ATOM     48  C   UNL A   1      40.257  28.866  30.074  1.00  0.00     0.037 A 
ATOM     49  C   UNL A   1      39.764  33.086  35.620  1.00  0.00     0.037 A 
ATOM     50  C   UNL A   1      41.235  28.632  31.104  1.00  0.00     0.049 A 
ATOM     51  C   UNL A   1      40.783  31.980  35.552  1.00  0.00     0.074 A 
ATOM     52  C   UNL A   1      42.263  27.705  31.120  1.00  0.00     0.029 A 
ATOM     53  N   UNL A   1      41.308  29.331  32.298  1.00  0.00    -0.354 N 
ATOM     54  N   UNL A   1      41.031  31.141  34.577  1.00  0.00    -0.248 NA
ATOM     55  C   UNL A   1      41.640  31.794  36.733  1.00  0.00     0.031 C 
ATOM     56  C   UNL A   1      42.932  27.815  32.343  1.00  0.00     0.029 A 
ATOM     57  C   UNL A   1      42.348  28.840  33.069  1.00  0.00     0.049 A 
ATOM     58  H   UNL A   1      40.708  30.068  32.560  1.00  0.00     0.167 HD
ATOM     59  C   UNL A   1      42.088  30.354  35.012  1.00  0.00     0.074 A 
ATOM     60  C   UNL A   1      42.446  30.823  36.333  1.00  0.00     0.031 C 
ATOM     61  C   UNL A   1      42.708  29.332  34.372  1.00  0.00     0.037 A 
BRANCH  48  62
ATOM     62  C   UNL A   1      40.256  27.941  28.893  1.00  0.00     0.064 A 
ATOM     63  C   UNL A   1      40.992  28.226  27.734  1.00  0.00     0.173 A 
ATOM     64  C   UNL A   1      39.572  26.718  28.953  1.00  0.00     0.173 A 
ATOM     65  F   UNL A   1      41.657  29.386  27.625  1.00  0.00    -0.203 F 
ATOM     66  C   UNL A   1      41.030  27.327  26.671  1.00  0.00     0.198 A 
ATOM     67  C   UNL A   1      39.633  25.810  27.900  1.00  0.00     0.198 A 
ATOM     68  F   UNL A   1      38.858  26.394  30.043  1.00  0.00    -0.203 F 
ATOM     69  F   UNL A   1      41.714  27.634  25.561  1.00  0.00    -0.200 F 
ATOM     70  C   UNL A   1      40.359  26.116  26.759  1.00  0.00     0.200 A 
ATOM     71  F   UNL A   1      38.995  24.634  27.991  1.00  0.00    -0.200 F 
ATOM     72  F   UNL A   1      40.410  25.246  25.742  1.00  0.00    -0.200 F 
ENDBRANCH  48  62
BRANCH  49  73
ATOM     73  C   UNL A   1      39.656  33.932  36.837  1.00  0.00     0.064 A 
ATOM     74  C   UNL A   1      38.850  33.538  37.916  1.00  0.00     0.173 A 
ATOM     75  C   UNL A   1      40.316  35.165  36.934  1.00  0.00     0.173 A 
ATOM     76  F   UNL A   1      38.179  32.378  37.861  1.00  0.00    -0.203 F 
ATOM     77  C   UNL A   1      38.684  34.359  39.029  1.00  0.00     0.198 A 
ATOM     78  C   UNL A   1      40.173  35.972  38.060  1.00  0.00     0.198 A 
ATOM     79  F   UNL A   1      41.102  35.587  35.931  1.00  0.00    -0.203 F 
ATOM     80  F   UNL A   1      37.860  33.985  40.018  1.00  0.00    -0.200 F 
ATOM     81  C   UNL A   1      39.348  35.575  39.101  1.00  0.00     0.200 A 
ATOM     82  F   UNL A   1      40.825  37.141  38.133  1.00  0.00    -0.200 F 
ATOM     83  F   UNL A   1      39.181  36.367  40.168  1.00  0.00    -0.200 F 
ENDBRANCH  49  73
BRANCH  61  84
ATOM     84  C   UNL A   1      43.867  28.683  35.070  1.00  0.00     0.064 A 
ATOM     85  C   UNL A   1      43.697  27.562  35.895  1.00  0.00     0.173 A 
ATOM     86  C   UNL A   1      45.170  29.165  34.875  1.00  0.00     0.173 A 
ATOM     87  F   UNL A   1      42.468  27.074  36.124  1.00  0.00    -0.203 F 
ATOM     88  C   UNL A   1      44.787  26.962  36.519  1.00  0.00     0.198 A 
ATOM     89  C   UNL A   1      46.261  28.545  35.477  1.00  0.00     0.198 A 
ATOM     90  F   UNL A   1      45.387  30.231  34.090  1.00  0.00    -0.203 F 
ATOM     91  F   UNL A   1      44.596  25.920  37.339  1.00  0.00    -0.200 F 
ATOM     92  C   UNL A   1      46.067  27.449  36.304  1.00  0.00     0.200 A 
ATOM     93  F   UNL A   1      47.499  29.009  35.258  1.00  0.00    -0.200 F 
ATOM     94  F   UNL A   1      47.116  26.865  36.900  1.00  0.00    -0.200 F 
ENDBRANCH  61  84
ENDBRANCH  35  36
ENDBRANCH  27  30
ENDBRANCH  25  26
ENDBRANCH  24  25
ENDBRANCH   1  24
TORSDOF 15
ENDMDL
MODEL 2
REMARK VINA RESULT:     -12.4      4.831      9.888
REMARK SMILES CC(C)(C)OC(=O)c1c(F)ccc(C(=O)NCCCCNC(=O)c2ccc(-c3c4nc(c(-c5c(F)c(F)c(F)c(F)c5F)c5ccc([nH]5)c(-c5c(F)c(F)c(F)c(F)c5F)c5nc(c(-c6c(F)c(F)c(F)c(F)c6F)c6ccc3[nH]6)C=C5)C=C4)cc2)c1N
REMARK SMILES IDX 18 1 17 2 16 3 14 4 15 5 13 7 8 8 9 9 87 10 10 11 11 12
REMARK SMILES IDX 12 13 6 14 7 15 5 16 2 17 1 18 3 19 4 20 88 21 19 24 20 25
REMARK SMILES IDX 21 26 22 27 23 29 24 30 25 31 86 32 26 33 85 34 27 35 28 36
REMARK SMILES IDX 29 37 79 38 30 39 84 40 78 41 80 42 31 43 83 44 77 45 76 46
REMARK SMILES IDX 32 48 64 49 44 50 63 51 45 52 48 53 62 54 81 55 46 56 47 57
REMARK SMILES IDX 61 59 82 60 49 61 33 62 34 63 42 64 35 65 36 66 40 67 43 68
REMARK SMILES IDX 37 69 38 70 41 71 39 72 65 73 66 74 74 75 67 76 68 77 72 78
REMARK SMILES IDX 75 79 69 80 70 81 73 82 71 83 50 84 51 85 59 86 52 87 53 88
REMARK SMILES IDX 57 89 60 90 54 91 55 92 58 93 56 94
REMARK H PARENT 16 6 88 22 88 23 21 28 80 47 48 58
REMARK Flexibility Score: inf
ROOT
ATOM      1  C   UNL A   1      34.434  24.134  25.052  1.00  0.00     0.023 C 
ENDROOT
BRANCH   1   2
ATOM      2  C   UNL A   1      32.996  24.116  24.546  1.00  0.00     0.116 C 
BRANCH   2   3
ATOM      3  N   UNL A   1      31.988  23.824  25.553  1.00  0.00    -0.352 N 
ATOM      4  C   UNL A   1      31.014  24.649  26.077  1.00  0.00     0.253 C 
ATOM      5  O   UNL A   1      30.205  24.181  26.876  1.00  0.00    -0.269 OA
ATOM      6  H   UNL A   1      32.002  22.907  25.911  1.00  0.00     0.163 HD
BRANCH   4   7
ATOM      7  C   UNL A   1      30.987  26.110  25.785  1.00  0.00     0.063 A 
ATOM      8  C   UNL A   1      30.536  28.023  24.373  1.00  0.00     0.119 A 
ATOM      9  C   UNL A   1      31.400  28.783  25.175  1.00  0.00     0.139 A 
ATOM     10  C   UNL A   1      30.195  26.707  24.777  1.00  0.00     0.062 A 
ATOM     11  F   UNL A   1      31.657  30.071  24.897  1.00  0.00    -0.206 F 
ATOM     12  C   UNL A   1      32.015  28.242  26.297  1.00  0.00     0.041 A 
ATOM     13  C   UNL A   1      31.847  26.892  26.574  1.00  0.00     0.019 A 
BRANCH   8  14
ATOM     14  C   UNL A   1      30.138  28.629  23.068  1.00  0.00     0.343 C 
ATOM     15  O   UNL A   1      30.270  28.054  22.001  1.00  0.00    -0.246 OA
BRANCH  14  16
ATOM     16  O   UNL A   1      29.532  29.833  23.232  1.00  0.00    -0.456 OA
BRANCH  16  17
ATOM     17  C   UNL A   1      28.161  30.032  22.791  1.00  0.00     0.104 C 
ATOM     18  C   UNL A   1      27.654  31.227  23.613  1.00  0.00     0.056 C 
ATOM     19  C   UNL A   1      27.290  28.814  23.126  1.00  0.00     0.056 C 
ATOM     20  C   UNL A   1      28.096  30.395  21.305  1.00  0.00     0.056 C 
ENDBRANCH  16  17
ENDBRANCH  14  16
ENDBRANCH   8  14
BRANCH  10  21
ATOM     21  N   UNL A   1      29.178  25.980  24.151  1.00  0.00    -0.397 N 
ATOM     22  H   UNL A   1      28.602  25.383  24.680  1.00  0.00     0.156 HD
ATOM     23  H   UNL A   1      29.040  26.064  23.180  1.00  0.00     0.156 HD
ENDBRANCH  10  21
ENDBRANCH   4   7
ENDBRANCH   2   3
ENDBRANCH   1   2
BRANCH   1  24
ATOM     24  C   UNL A   1      35.263  22.878  24.793  1.00  0.00     0.023 C 
BRANCH  24  25
ATOM     25  C   UNL A   1      35.905  22.214  26.008  1.00  0.00     0.116 C 
BRANCH  25  26
ATOM     26  N   UNL A   1      36.967  21.276  25.679  1.00  0.00    -0.352 N 
ATOM     27  C   UNL A   1      38.333  21.388  25.804  1.00  0.00     0.251 C 
ATOM     28  H   UNL A   1      36.659  20.419  25.305  1.00  0.00     0.163 HD
ATOM     29  O   UNL A   1      39.058  20.487  25.393  1.00  0.00    -0.269 OA
BRANCH  27  30
ATOM     30  C   UNL A   1      38.944  22.606  26.386  1.00  0.00     0.039 A 
ATOM     31  C   UNL A   1      40.035  22.460  27.250  1.00  0.00     0.014 A 
ATOM     32  C   UNL A   1      38.463  23.882  26.089  1.00  0.00     0.014 A 
ATOM     33  C   UNL A   1      40.704  23.591  27.728  1.00  0.00     0.010 A 
ATOM     34  C   UNL A   1      39.179  25.006  26.497  1.00  0.00     0.010 A 
ATOM     35  C   UNL A   1      40.316  24.874  27.309  1.00  0.00    -0.014 A 
BRANCH  35  36
ATOM     36  C   UNL A   1      41.099  26.083  27.684  1.00  0.00     0.031 A 
ATOM     37  C   UNL A   1      40.445  27.207  28.441  1.00  0.00     0.074 A 
ATOM     38  C   UNL A   1      42.373  26.210  27.262  1.00  0.00     0.049 A 
ATOM     39  N   UNL A   1      40.932  28.381  28.761  1.00  0.00    -0.248 NA
ATOM     40  C   UNL A   1      39.053  27.000  28.868  1.00  0.00     0.031 C 
ATOM     41  C   UNL A   1      43.108  25.220  26.472  1.00  0.00     0.029 A 
ATOM     42  N   UNL A   1      43.275  27.235  27.423  1.00  0.00    -0.354 N 
ATOM     43  C   UNL A   1      39.898  29.059  29.396  1.00  0.00     0.074 A 
ATOM     44  C   UNL A   1      38.748  28.182  29.386  1.00  0.00     0.031 C 
ATOM     45  C   UNL A   1      44.347  25.676  26.232  1.00  0.00     0.029 A 
ATOM     46  C   UNL A   1      44.486  27.006  26.815  1.00  0.00     0.049 A 
ATOM     47  H   UNL A   1      43.071  28.056  27.928  1.00  0.00     0.167 HD
ATOM     48  C   UNL A   1      39.914  30.294  29.950  1.00  0.00     0.037 A 
ATOM     49  C   UNL A   1      45.581  27.787  26.726  1.00  0.00     0.037 A 
ATOM     50  C   UNL A   1      41.073  31.145  30.013  1.00  0.00     0.049 A 
ATOM     51  C   UNL A   1      45.574  29.144  27.378  1.00  0.00     0.074 A 
ATOM     52  C   UNL A   1      41.211  32.368  30.645  1.00  0.00     0.029 A 
ATOM     53  N   UNL A   1      42.294  30.859  29.422  1.00  0.00    -0.354 N 
ATOM     54  N   UNL A   1      44.617  29.734  28.052  1.00  0.00    -0.248 NA
ATOM     55  C   UNL A   1      46.803  29.943  27.259  1.00  0.00     0.031 C 
ATOM     56  C   UNL A   1      42.503  32.844  30.402  1.00  0.00     0.029 A 
ATOM     57  C   UNL A   1      43.183  31.896  29.656  1.00  0.00     0.049 A 
ATOM     58  H   UNL A   1      42.499  30.042  28.913  1.00  0.00     0.167 HD
ATOM     59  C   UNL A   1      45.139  30.952  28.465  1.00  0.00     0.074 A 
ATOM     60  C   UNL A   1      46.501  31.014  27.978  1.00  0.00     0.031 C 
ATOM     61  C   UNL A   1      44.542  31.933  29.185  1.00  0.00     0.037 A 
BRANCH  48  62
ATOM     62  C   UNL A   1      38.639  30.810  30.552  1.00  0.00     0.064 A 
ATOM     63  C   UNL A   1      38.403  30.754  31.934  1.00  0.00     0.173 A 
ATOM     64  C   UNL A   1      37.680  31.439  29.745  1.00  0.00     0.173 A 
ATOM     65  F   UNL A   1      39.287  30.157  32.746  1.00  0.00    -0.203 F 
ATOM     66  C   UNL A   1      37.243  31.294  32.483  1.00  0.00     0.198 A 
ATOM     67  C   UNL A   1      36.534  32.001  30.301  1.00  0.00     0.198 A 
ATOM     68  F   UNL A   1      37.862  31.525  28.419  1.00  0.00    -0.203 F 
ATOM     69  F   UNL A   1      37.022  31.202  33.801  1.00  0.00    -0.200 F 
ATOM     70  C   UNL A   1      36.314  31.925  31.667  1.00  0.00     0.200 A 
ATOM     71  F   UNL A   1      35.644  32.622  29.514  1.00  0.00    -0.200 F 
ATOM     72  F   UNL A   1      35.206  32.458  32.200  1.00  0.00    -0.200 F 
ENDBRANCH  48  62
BRANCH  49  73
ATOM     73  C   UNL A   1      46.790  27.308  26.005  1.00  0.00     0.064 A 
ATOM     74  C   UNL A   1      47.808  26.624  26.686  1.00  0.00     0.173 A 
ATOM     75  C   UNL A   1      46.974  27.556  24.638  1.00  0.00     0.173 A 
ATOM     76  F   UNL A   1      47.689  26.383  28.000  1.00  0.00    -0.203 F 
ATOM     77  C   UNL A   1      48.977  26.237  26.034  1.00  0.00     0.198 A 
ATOM     78  C   UNL A   1      48.130  27.143  23.980  1.00  0.00     0.198 A 
ATOM     79  F   UNL A   1      46.028  28.203  23.939  1.00  0.00    -0.203 F 
ATOM     80  F   UNL A   1      49.959  25.640  26.723  1.00  0.00    -0.200 F 
ATOM     81  C   UNL A   1      49.136  26.495  24.681  1.00  0.00     0.200 A 
ATOM     82  F   UNL A   1      48.276  27.382  22.669  1.00  0.00    -0.200 F 
ATOM     83  F   UNL A   1      50.263  26.129  24.057  1.00  0.00    -0.200 F 
ENDBRANCH  49  73
BRANCH  61  84
ATOM     84  C   UNL A   1      45.370  33.136  29.531  1.00  0.00     0.064 A 
ATOM     85  C   UNL A   1      46.170  33.173  30.682  1.00  0.00     0.173 A 
ATOM     86  C   UNL A   1      45.396  34.248  28.675  1.00  0.00     0.173 A 
ATOM     87  F   UNL A   1      46.167  32.140  31.539  1.00  0.00    -0.203 F 
ATOM     88  C   UNL A   1      46.947  34.290  30.978  1.00  0.00     0.198 A 
ATOM     89  C   UNL A   1      46.196  35.350  28.958  1.00  0.00     0.198 A 
ATOM     90  F   UNL A   1      44.654  34.259  27.558  1.00  0.00    -0.203 F 
ATOM     91  F   UNL A   1      47.668  34.322  32.106  1.00  0.00    -0.200 F 
ATOM     92  C   UNL A   1      46.964  35.373  30.112  1.00  0.00     0.200 A 
ATOM     93  F   UNL A   1      46.223  36.392  28.115  1.00  0.00    -0.200 F 
ATOM     94  F   UNL A   1      47.719  36.445  30.394  1.00  0.00    -0.200 F 
ENDBRANCH  61  84
ENDBRANCH  35  36
ENDBRANCH  27  30
ENDBRANCH  25  26
ENDBRANCH  24  25
ENDBRANCH   1  24
TORSDOF 15
ENDMDL
MODEL 3
REMARK VINA RESULT:     -12.4      6.902     12.049
REMARK SMILES CC(C)(C)OC(=O)c1c(F)ccc(C(=O)NCCCCNC(=O)c2ccc(-c3c4nc(c(-c5c(F)c(F)c(F)c(F)c5F)c5ccc([nH]5)c(-c5c(F)c(F)c(F)c(F)c5F)c5nc(c(-c6c(F)c(F)c(F)c(F)c6F)c6ccc3[nH]6)C=C5)C=C4)cc2)c1N
REMARK SMILES IDX 18 1 17 2 16 3 14 4 15 5 13 7 8 8 9 9 87 10 10 11 11 12
REMARK SMILES IDX 12 13 6 14 7 15 5 16 2 17 1 18 3 19 4 20 88 21 19 24 20 25
REMARK SMILES IDX 21 26 22 27 23 29 24 30 25 31 86 32 26 33 85 34 27 35 28 36
REMARK SMILES IDX 29 37 79 38 30 39 84 40 78 41 80 42 31 43 83 44 77 45 76 46
REMARK SMILES IDX 32 48 64 49 44 50 63 51 45 52 48 53 62 54 81 55 46 56 47 57
REMARK SMILES IDX 61 59 82 60 49 61 33 62 34 63 42 64 35 65 36 66 40 67 43 68
REMARK SMILES IDX 37 69 38 70 41 71 39 72 65 73 66 74 74 75 67 76 68 77 72 78
REMARK SMILES IDX 75 79 69 80 70 81 73 82 71 83 50 84 51 85 59 86 52 87 53 88
REMARK SMILES IDX 57 89 60 90 54 91 55 92 58 93 56 94
REMARK H PARENT 16 6 88 22 88 23 21 28 80 47 48 58
REMARK Flexibility Score: inf
ROOT
ATOM      1  C   UNL A   1      36.811  20.676  25.015  1.00  0.00     0.023 C 
ENDROOT
BRANCH   1   2
ATOM      2  C   UNL A   1      36.977  22.185  25.151  1.00  0.00     0.116 C 
BRANCH   2   3
ATOM      3  N   UNL A   1      36.174  22.806  26.193  1.00  0.00    -0.352 N 
ATOM      4  C   UNL A   1      34.829  22.657  26.463  1.00  0.00     0.253 C 
ATOM      5  O   UNL A   1      34.353  23.221  27.446  1.00  0.00    -0.269 OA
ATOM      6  H   UNL A   1      36.659  23.419  26.791  1.00  0.00     0.163 HD
BRANCH   4   7
ATOM      7  C   UNL A   1      33.923  21.922  25.536  1.00  0.00     0.063 A 
ATOM      8  C   UNL A   1      32.808  19.930  24.730  1.00  0.00     0.119 A 
ATOM      9  C   UNL A   1      32.593  20.579  23.506  1.00  0.00     0.139 A 
ATOM     10  C   UNL A   1      33.337  20.667  25.821  1.00  0.00     0.062 A 
ATOM     11  F   UNL A   1      31.986  19.957  22.483  1.00  0.00    -0.206 F 
ATOM     12  C   UNL A   1      32.987  21.896  23.302  1.00  0.00     0.041 A 
ATOM     13  C   UNL A   1      33.696  22.551  24.301  1.00  0.00     0.019 A 
BRANCH   8  14
ATOM     14  C   UNL A   1      32.575  18.456  24.748  1.00  0.00     0.343 C 
ATOM     15  O   UNL A   1      31.588  17.934  24.257  1.00  0.00    -0.246 OA
BRANCH  14  16
ATOM     16  O   UNL A   1      33.627  17.781  25.277  1.00  0.00    -0.456 OA
BRANCH  16  17
ATOM     17  C   UNL A   1      34.034  16.500  24.721  1.00  0.00     0.104 C 
ATOM     18  C   UNL A   1      35.424  16.236  25.321  1.00  0.00     0.056 C 
ATOM     19  C   UNL A   1      34.176  16.578  23.196  1.00  0.00     0.056 C 
ATOM     20  C   UNL A   1      33.090  15.376  25.155  1.00  0.00     0.056 C 
ENDBRANCH  16  17
ENDBRANCH  14  16
ENDBRANCH   8  14
BRANCH  10  21
ATOM     21  N   UNL A   1      33.370  20.147  27.119  1.00  0.00    -0.397 N 
ATOM     22  H   UNL A   1      33.576  19.196  27.263  1.00  0.00     0.156 HD
ATOM     23  H   UNL A   1      33.187  20.734  27.888  1.00  0.00     0.156 HD
ENDBRANCH  10  21
ENDBRANCH   4   7
ENDBRANCH   2   3
ENDBRANCH   1   2
BRANCH   1  24
ATOM     24  C   UNL A   1      38.089  19.864  24.814  1.00  0.00     0.023 C 
BRANCH  24  25
ATOM     25  C   UNL A   1      39.245  20.153  25.769  1.00  0.00     0.116 C 
BRANCH  25  26
ATOM     26  N   UNL A   1      40.239  19.092  25.833  1.00  0.00    -0.352 N 
ATOM     27  C   UNL A   1      41.583  19.140  26.124  1.00  0.00     0.251 C 
ATOM     28  H   UNL A   1      39.894  18.192  25.635  1.00  0.00     0.163 HD
ATOM     29  O   UNL A   1      42.258  18.117  26.051  1.00  0.00    -0.269 OA
BRANCH  27  30
ATOM     30  C   UNL A   1      42.238  20.420  26.479  1.00  0.00     0.039 A 
ATOM     31  C   UNL A   1      42.772  21.206  25.451  1.00  0.00     0.014 A 
ATOM     32  C   UNL A   1      42.328  20.857  27.801  1.00  0.00     0.014 A 
ATOM     33  C   UNL A   1      43.297  22.469  25.739  1.00  0.00     0.010 A 
ATOM     34  C   UNL A   1      42.775  22.148  28.077  1.00  0.00     0.010 A 
ATOM     35  C   UNL A   1      43.251  22.976  27.048  1.00  0.00    -0.014 A 
BRANCH  35  36
ATOM     36  C   UNL A   1      43.668  24.370  27.356  1.00  0.00     0.031 A 
ATOM     37  C   UNL A   1      42.659  25.378  27.834  1.00  0.00     0.074 A 
ATOM     38  C   UNL A   1      44.939  24.754  27.116  1.00  0.00     0.049 A 
ATOM     39  N   UNL A   1      42.810  26.662  28.049  1.00  0.00    -0.248 NA
ATOM     40  C   UNL A   1      41.293  24.888  28.073  1.00  0.00     0.031 C 
ATOM     41  C   UNL A   1      46.003  23.892  26.598  1.00  0.00     0.029 A 
ATOM     42  N   UNL A   1      45.549  25.978  27.259  1.00  0.00    -0.354 N 
ATOM     43  C   UNL A   1      41.556  27.134  28.416  1.00  0.00     0.074 A 
ATOM     44  C   UNL A   1      40.647  26.010  28.361  1.00  0.00     0.031 C 
ATOM     45  C   UNL A   1      47.134  24.606  26.482  1.00  0.00     0.029 A 
ATOM     46  C   UNL A   1      46.870  25.984  26.879  1.00  0.00     0.049 A 
ATOM     47  H   UNL A   1      45.082  26.775  27.602  1.00  0.00     0.167 HD
ATOM     48  C   UNL A   1      41.200  28.389  28.780  1.00  0.00     0.037 A 
ATOM     49  C   UNL A   1      47.765  26.992  26.843  1.00  0.00     0.037 A 
ATOM     50  C   UNL A   1      42.113  29.495  28.891  1.00  0.00     0.049 A 
ATOM     51  C   UNL A   1      47.342  28.369  27.281  1.00  0.00     0.074 A 
ATOM     52  C   UNL A   1      41.863  30.776  29.352  1.00  0.00     0.029 A 
ATOM     53  N   UNL A   1      43.453  29.452  28.539  1.00  0.00    -0.354 N 
ATOM     54  N   UNL A   1      46.174  28.779  27.711  1.00  0.00    -0.248 NA
ATOM     55  C   UNL A   1      48.366  29.423  27.233  1.00  0.00     0.031 C 
ATOM     56  C   UNL A   1      43.041  31.521  29.239  1.00  0.00     0.029 A 
ATOM     57  C   UNL A   1      44.036  30.690  28.749  1.00  0.00     0.049 A 
ATOM     58  H   UNL A   1      43.921  28.658  28.190  1.00  0.00     0.167 HD
ATOM     59  C   UNL A   1      46.333  30.124  28.016  1.00  0.00     0.074 A 
ATOM     60  C   UNL A   1      47.712  30.460  27.734  1.00  0.00     0.031 C 
ATOM     61  C   UNL A   1      45.415  31.004  28.486  1.00  0.00     0.037 A 
BRANCH  48  62
ATOM     62  C   UNL A   1      39.756  28.644  29.103  1.00  0.00     0.064 A 
ATOM     63  C   UNL A   1      39.248  28.461  30.397  1.00  0.00     0.173 A 
ATOM     64  C   UNL A   1      38.891  29.152  28.122  1.00  0.00     0.173 A 
ATOM     65  F   UNL A   1      40.033  27.971  31.367  1.00  0.00    -0.203 F 
ATOM     66  C   UNL A   1      37.921  28.762  30.693  1.00  0.00     0.198 A 
ATOM     67  C   UNL A   1      37.573  29.477  28.428  1.00  0.00     0.198 A 
ATOM     68  F   UNL A   1      39.331  29.352  26.870  1.00  0.00    -0.203 F 
ATOM     69  F   UNL A   1      37.448  28.550  31.928  1.00  0.00    -0.200 F 
ATOM     70  C   UNL A   1      37.088  29.279  29.711  1.00  0.00     0.200 A 
ATOM     71  F   UNL A   1      36.772  29.988  27.482  1.00  0.00    -0.200 F 
ATOM     72  F   UNL A   1      35.816  29.583  30.003  1.00  0.00    -0.200 F 
ENDBRANCH  48  62
BRANCH  49  73
ATOM     73  C   UNL A   1      49.158  26.744  26.389  1.00  0.00     0.064 A 
ATOM     74  C   UNL A   1      49.523  26.941  25.049  1.00  0.00     0.173 A 
ATOM     75  C   UNL A   1      50.141  26.267  27.269  1.00  0.00     0.173 A 
ATOM     76  F   UNL A   1      48.613  27.374  24.165  1.00  0.00    -0.203 F 
ATOM     77  C   UNL A   1      50.807  26.640  24.600  1.00  0.00     0.198 A 
ATOM     78  C   UNL A   1      51.433  25.995  26.825  1.00  0.00     0.198 A 
ATOM     79  F   UNL A   1      49.844  26.065  28.562  1.00  0.00    -0.203 F 
ATOM     80  F   UNL A   1      51.111  26.781  23.303  1.00  0.00    -0.200 F 
ATOM     81  C   UNL A   1      51.762  26.170  25.490  1.00  0.00     0.200 A 
ATOM     82  F   UNL A   1      52.357  25.551  27.689  1.00  0.00    -0.200 F 
ATOM     83  F   UNL A   1      52.994  25.873  25.056  1.00  0.00    -0.200 F 
ENDBRANCH  49  73
BRANCH  61  84
ATOM     84  C   UNL A   1      45.883  32.400  28.774  1.00  0.00     0.064 A 
ATOM     85  C   UNL A   1      45.795  33.419  27.813  1.00  0.00     0.173 A 
ATOM     86  C   UNL A   1      46.384  32.732  30.041  1.00  0.00     0.173 A 
ATOM     87  F   UNL A   1      45.337  33.147  26.582  1.00  0.00    -0.203 F 
ATOM     88  C   UNL A   1      46.217  34.713  28.104  1.00  0.00     0.198 A 
ATOM     89  C   UNL A   1      46.777  34.034  30.338  1.00  0.00     0.198 A 
ATOM     90  F   UNL A   1      46.482  31.796  30.997  1.00  0.00    -0.203 F 
ATOM     91  F   UNL A   1      46.167  35.660  27.157  1.00  0.00    -0.200 F 
ATOM     92  C   UNL A   1      46.700  35.021  29.367  1.00  0.00     0.200 A 
ATOM     93  F   UNL A   1      47.231  34.333  31.563  1.00  0.00    -0.200 F 
ATOM     94  F   UNL A   1      47.097  36.270  29.647  1.00  0.00    -0.200 F 
ENDBRANCH  61  84
ENDBRANCH  35  36
ENDBRANCH  27  30
ENDBRANCH  25  26
ENDBRANCH  24  25
ENDBRANCH   1  24
TORSDOF 15
ENDMDL
