MODEL 1
REMARK VINA RESULT:     -10.8      0.000      0.000
REMARK SMILES Cc1cc(C)cc(N2C(=O)NC(=O)/C(=C\c3ccc(OCC(=O)NCCCCNC(=O)c4ccc(-c5c6nc(c(-c7c(F)c(F)c(F)c(F)c7F)c7ccc([nH]7)c(-c7c(F)c(F)c(F)c(F)c7F)c7nc(c(-c8c(F)c(F)c(F)c(F)c8F)c8ccc5[nH]8)C=C7)C=C6)cc4)c(Br)c3)C2=O)c1
REMARK SMILES IDX 25 1 24 2 22 3 23 4 21 6 20 7 19 8 16 9 17 10 97 11 18 12
REMARK SMILES IDX 95 13 96 14 15 15 8 16 9 17 98 18 10 19 11 20 14 21 99 22
REMARK SMILES IDX 12 23 13 25 7 26 1 27 2 28 3 29 100 30 4 31 5 32 6 33 26 34
REMARK SMILES IDX 27 35 28 36 29 37 30 38 31 40 32 41 33 42 94 43 34 44 93 45
REMARK SMILES IDX 35 46 36 47 37 48 87 49 38 50 92 51 86 52 88 53 39 54 91 55
REMARK SMILES IDX 85 56 84 57 40 59 72 60 52 61 71 62 53 63 56 64 70 65 89 66
REMARK SMILES IDX 54 67 55 68 69 70 90 71 57 72 41 73 42 74 50 75 43 76 44 77
REMARK SMILES IDX 48 78 51 79 45 80 46 81 49 82 47 83 73 84 74 85 82 86 75 87
REMARK SMILES IDX 76 88 80 89 83 90 77 91 78 92 81 93 79 94 58 95 59 96 67 97
REMARK SMILES IDX 60 98 61 99 65 100 68 101 62 102 63 103 66 104 64 105
REMARK H PARENT 24 5 11 24 29 39 88 58 56 69
REMARK Flexibility Score: inf
ROOT
ATOM      1  C   UNL A   1      42.684  22.329  25.498  1.00  0.00     0.116 C 
ENDROOT
BRANCH   1   2
ATOM      2  N   UNL A   1      43.856  22.430  24.650  1.00  0.00    -0.353 N 
ATOM      3  C   UNL A   1      44.625  23.524  24.381  1.00  0.00     0.257 C 
ATOM      4  O   UNL A   1      45.659  23.358  23.734  1.00  0.00    -0.271 OA
ATOM      5  H   UNL A   1      44.134  21.596  24.208  1.00  0.00     0.163 HD
BRANCH   3   6
ATOM      6  C   UNL A   1      44.224  24.891  24.947  1.00  0.00     0.329 C 
BRANCH   6   7
ATOM      7  O   UNL A   1      44.631  25.231  26.257  1.00  0.00    -0.483 OA
BRANCH   7   8
ATOM      8  C   UNL A   1      44.731  26.529  26.664  1.00  0.00     0.134 A 
ATOM      9  C   UNL A   1      44.420  29.247  27.371  1.00  0.00    -0.023 A 
ATOM     10  C   UNL A   1      43.491  28.639  26.534  1.00  0.00     0.012 A 
ATOM     11  C   UNL A   1      45.515  28.510  27.828  1.00  0.00     0.027 A 
ATOM     12  C   UNL A   1      43.647  27.294  26.195  1.00  0.00     0.048 A 
ATOM     13  C   UNL A   1      45.665  27.149  27.503  1.00  0.00     0.060 A 
ATOM     14  Br  UNL A   1      47.089  26.289  28.417  1.00  0.00    -0.047 Br
BRANCH   9  15
ATOM     15  C   UNL A   1      44.228  30.617  27.853  1.00  0.00     0.027 C 
ATOM     16  N   UNL A   1      44.923  34.181  27.352  1.00  0.00    -0.228 N 
ATOM     17  C   UNL A   1      45.820  34.161  26.289  1.00  0.00     0.335 C 
ATOM     18  C   UNL A   1      44.386  33.033  27.941  1.00  0.00     0.272 C 
ATOM     19  O   UNL A   1      46.365  35.144  25.785  1.00  0.00    -0.247 OA
ATOM     20  N   UNL A   1      46.165  32.938  25.795  1.00  0.00    -0.273 N 
ATOM     21  C   UNL A   1      44.797  31.730  27.339  1.00  0.00     0.106 C 
ATOM     22  O   UNL A   1      43.574  33.038  28.869  1.00  0.00    -0.268 OA
ATOM     23  C   UNL A   1      45.748  31.712  26.207  1.00  0.00     0.264 C 
ATOM     24  H   UNL A   1      46.799  32.945  25.041  1.00  0.00     0.175 HD
ATOM     25  O   UNL A   1      46.169  30.709  25.650  1.00  0.00    -0.269 OA
BRANCH  16  26
ATOM     26  C   UNL A   1      44.531  35.460  27.875  1.00  0.00     0.054 A 
ATOM     27  C   UNL A   1      45.488  37.816  30.721  1.00  0.00     0.044 C 
ATOM     28  C   UNL A   1      44.789  37.238  29.526  1.00  0.00    -0.049 A 
ATOM     29  C   UNL A   1      43.773  37.963  28.893  1.00  0.00     0.007 A 
ATOM     30  C   UNL A   1      45.141  35.978  29.028  1.00  0.00     0.030 A 
ATOM     31  C   UNL A   1      43.130  37.454  27.758  1.00  0.00    -0.049 A 
ATOM     32  C   UNL A   1      42.023  38.232  27.110  1.00  0.00     0.044 C 
ATOM     33  C   UNL A   1      43.532  36.216  27.242  1.00  0.00     0.030 A 
ENDBRANCH  16  26
ENDBRANCH   9  15
ENDBRANCH   7   8
ENDBRANCH   6   7
ENDBRANCH   3   6
ENDBRANCH   1   2
BRANCH   1  34
ATOM     34  C   UNL A   1      42.590  20.978  26.201  1.00  0.00     0.023 C 
BRANCH  34  35
ATOM     35  C   UNL A   1      42.037  21.019  27.627  1.00  0.00     0.023 C 
BRANCH  35  36
ATOM     36  C   UNL A   1      41.004  22.105  27.903  1.00  0.00     0.116 C 
BRANCH  36  37
ATOM     37  N   UNL A   1      39.950  22.155  26.901  1.00  0.00    -0.352 N 
ATOM     38  C   UNL A   1      39.107  23.190  26.572  1.00  0.00     0.251 C 
ATOM     39  H   UNL A   1      39.823  21.328  26.383  1.00  0.00     0.163 HD
ATOM     40  O   UNL A   1      38.183  23.007  25.786  1.00  0.00    -0.269 OA
BRANCH  38  41
ATOM     41  C   UNL A   1      39.288  24.518  27.199  1.00  0.00     0.039 A 
ATOM     42  C   UNL A   1      38.793  24.725  28.489  1.00  0.00     0.014 A 
ATOM     43  C   UNL A   1      39.961  25.544  26.532  1.00  0.00     0.014 A 
ATOM     44  C   UNL A   1      39.054  25.931  29.145  1.00  0.00     0.010 A 
ATOM     45  C   UNL A   1      40.282  26.716  27.214  1.00  0.00     0.010 A 
ATOM     46  C   UNL A   1      39.845  26.916  28.532  1.00  0.00    -0.014 A 
BRANCH  46  47
ATOM     47  C   UNL A   1      40.265  28.139  29.266  1.00  0.00     0.031 A 
ATOM     48  C   UNL A   1      41.614  28.202  29.927  1.00  0.00     0.074 A 
ATOM     49  C   UNL A   1      39.394  29.158  29.412  1.00  0.00     0.049 A 
ATOM     50  N   UNL A   1      42.115  29.137  30.695  1.00  0.00    -0.248 NA
ATOM     51  C   UNL A   1      42.510  27.054  29.717  1.00  0.00     0.031 C 
ATOM     52  C   UNL A   1      38.042  29.200  28.851  1.00  0.00     0.029 A 
ATOM     53  N   UNL A   1      39.508  30.347  30.090  1.00  0.00    -0.354 N 
ATOM     54  C   UNL A   1      43.371  28.681  31.076  1.00  0.00     0.074 A 
ATOM     55  C   UNL A   1      43.543  27.372  30.485  1.00  0.00     0.031 C 
ATOM     56  C   UNL A   1      37.458  30.359  29.195  1.00  0.00     0.029 A 
ATOM     57  C   UNL A   1      38.371  31.119  30.044  1.00  0.00     0.049 A 
ATOM     58  H   UNL A   1      40.324  30.620  30.565  1.00  0.00     0.167 HD
ATOM     59  C   UNL A   1      44.299  29.307  31.838  1.00  0.00     0.037 A 
ATOM     60  C   UNL A   1      38.086  32.295  30.637  1.00  0.00     0.037 A 
ATOM     61  C   UNL A   1      44.135  30.624  32.396  1.00  0.00     0.049 A 
ATOM     62  C   UNL A   1      39.129  32.950  31.506  1.00  0.00     0.074 A 
ATOM     63  C   UNL A   1      45.054  31.379  33.104  1.00  0.00     0.029 A 
ATOM     64  N   UNL A   1      42.971  31.375  32.325  1.00  0.00    -0.354 N 
ATOM     65  N   UNL A   1      40.349  32.553  31.778  1.00  0.00    -0.248 NA
ATOM     66  C   UNL A   1      38.755  34.216  32.154  1.00  0.00     0.031 C 
ATOM     67  C   UNL A   1      44.427  32.556  33.520  1.00  0.00     0.029 A 
ATOM     68  C   UNL A   1      43.136  32.565  33.017  1.00  0.00     0.049 A 
ATOM     69  H   UNL A   1      42.151  31.104  31.854  1.00  0.00     0.167 HD
ATOM     70  C   UNL A   1      40.894  33.531  32.599  1.00  0.00     0.074 A 
ATOM     71  C   UNL A   1      39.881  34.550  32.768  1.00  0.00     0.031 C 
ATOM     72  C   UNL A   1      42.124  33.577  33.166  1.00  0.00     0.037 A 
BRANCH  59  73
ATOM     73  C   UNL A   1      45.580  28.582  32.129  1.00  0.00     0.064 A 
ATOM     74  C   UNL A   1      45.656  27.568  33.097  1.00  0.00     0.173 A 
ATOM     75  C   UNL A   1      46.731  28.851  31.371  1.00  0.00     0.173 A 
ATOM     76  F   UNL A   1      44.588  27.276  33.853  1.00  0.00    -0.203 F 
ATOM     77  C   UNL A   1      46.839  26.865  33.306  1.00  0.00     0.198 A 
ATOM     78  C   UNL A   1      47.903  28.124  31.561  1.00  0.00     0.198 A 
ATOM     79  F   UNL A   1      46.712  29.804  30.427  1.00  0.00    -0.203 F 
ATOM     80  F   UNL A   1      46.897  25.925  34.260  1.00  0.00    -0.200 F 
ATOM     81  C   UNL A   1      47.957  27.136  32.532  1.00  0.00     0.200 A 
ATOM     82  F   UNL A   1      48.977  28.375  30.801  1.00  0.00    -0.200 F 
ATOM     83  F   UNL A   1      49.089  26.443  32.722  1.00  0.00    -0.200 F 
ENDBRANCH  59  73
BRANCH  60  84
ATOM     84  C   UNL A   1      36.756  32.934  30.447  1.00  0.00     0.064 A 
ATOM     85  C   UNL A   1      36.441  33.604  29.255  1.00  0.00     0.173 A 
ATOM     86  C   UNL A   1      35.789  32.930  31.463  1.00  0.00     0.173 A 
ATOM     87  F   UNL A   1      37.340  33.658  28.261  1.00  0.00    -0.203 F 
ATOM     88  C   UNL A   1      35.228  34.272  29.101  1.00  0.00     0.198 A 
ATOM     89  C   UNL A   1      34.561  33.568  31.295  1.00  0.00     0.198 A 
ATOM     90  F   UNL A   1      36.035  32.302  32.623  1.00  0.00    -0.203 F 
ATOM     91  F   UNL A   1      34.983  34.960  27.977  1.00  0.00    -0.200 F 
ATOM     92  C   UNL A   1      34.287  34.250  30.119  1.00  0.00     0.200 A 
ATOM     93  F   UNL A   1      33.649  33.531  32.275  1.00  0.00    -0.200 F 
ATOM     94  F   UNL A   1      33.123  34.897  29.973  1.00  0.00    -0.200 F 
ENDBRANCH  60  84
BRANCH  72  95
ATOM     95  C   UNL A   1      42.461  34.783  33.996  1.00  0.00     0.064 A 
ATOM     96  C   UNL A   1      42.369  34.763  35.396  1.00  0.00     0.173 A 
ATOM     97  C   UNL A   1      42.940  35.953  33.387  1.00  0.00     0.173 A 
ATOM     98  F   UNL A   1      41.901  33.675  36.026  1.00  0.00    -0.203 F 
ATOM     99  C   UNL A   1      42.728  35.875  36.153  1.00  0.00     0.198 A 
ATOM    100  C   UNL A   1      43.330  37.051  34.148  1.00  0.00     0.198 A 
ATOM    101  F   UNL A   1      43.053  36.023  32.052  1.00  0.00    -0.203 F 
ATOM    102  F   UNL A   1      42.591  35.848  37.486  1.00  0.00    -0.200 F 
ATOM    103  C   UNL A   1      43.218  37.014  35.530  1.00  0.00     0.200 A 
ATOM    104  F   UNL A   1      43.820  38.143  33.546  1.00  0.00    -0.200 F 
ATOM    105  F   UNL A   1      43.578  38.076  36.262  1.00  0.00    -0.200 F 
ENDBRANCH  72  95
ENDBRANCH  46  47
ENDBRANCH  38  41
ENDBRANCH  36  37
ENDBRANCH  35  36
ENDBRANCH  34  35
ENDBRANCH   1  34
TORSDOF 15
ENDMDL
MODEL 2
REMARK VINA RESULT:     -10.4      4.435      8.111
REMARK SMILES Cc1cc(C)cc(N2C(=O)NC(=O)/C(=C\c3ccc(OCC(=O)NCCCCNC(=O)c4ccc(-c5c6nc(c(-c7c(F)c(F)c(F)c(F)c7F)c7ccc([nH]7)c(-c7c(F)c(F)c(F)c(F)c7F)c7nc(c(-c8c(F)c(F)c(F)c(F)c8F)c8ccc5[nH]8)C=C7)C=C6)cc4)c(Br)c3)C2=O)c1
REMARK SMILES IDX 25 1 24 2 22 3 23 4 21 6 20 7 19 8 16 9 17 10 97 11 18 12
REMARK SMILES IDX 95 13 96 14 15 15 8 16 9 17 98 18 10 19 11 20 14 21 99 22
REMARK SMILES IDX 12 23 13 25 7 26 1 27 2 28 3 29 100 30 4 31 5 32 6 33 26 34
REMARK SMILES IDX 27 35 28 36 29 37 30 38 31 40 32 41 33 42 94 43 34 44 93 45
REMARK SMILES IDX 35 46 36 47 37 48 87 49 38 50 92 51 86 52 88 53 39 54 91 55
REMARK SMILES IDX 85 56 84 57 40 59 72 60 52 61 71 62 53 63 56 64 70 65 89 66
REMARK SMILES IDX 54 67 55 68 69 70 90 71 57 72 41 73 42 74 50 75 43 76 44 77
REMARK SMILES IDX 48 78 51 79 45 80 46 81 49 82 47 83 73 84 74 85 82 86 75 87
REMARK SMILES IDX 76 88 80 89 83 90 77 91 78 92 81 93 79 94 58 95 59 96 67 97
REMARK SMILES IDX 60 98 61 99 65 100 68 101 62 102 63 103 66 104 64 105
REMARK H PARENT 24 5 11 24 29 39 88 58 56 69
REMARK Flexibility Score: inf
ROOT
ATOM      1  C   UNL A   1      34.493  21.749  26.674  1.00  0.00     0.116 C 
ENDROOT
BRANCH   1   2
ATOM      2  N   UNL A   1      33.791  20.689  25.978  1.00  0.00    -0.353 N 
ATOM      3  C   UNL A   1      32.518  20.685  25.488  1.00  0.00     0.257 C 
ATOM      4  O   UNL A   1      32.163  19.721  24.809  1.00  0.00    -0.271 OA
ATOM      5  H   UNL A   1      34.302  19.859  25.841  1.00  0.00     0.163 HD
BRANCH   3   6
ATOM      6  C   UNL A   1      31.609  21.896  25.729  1.00  0.00     0.329 C 
BRANCH   6   7
ATOM      7  O   UNL A   1      31.592  22.935  24.772  1.00  0.00    -0.483 OA
BRANCH   7   8
ATOM      8  C   UNL A   1      32.159  24.151  25.022  1.00  0.00     0.134 A 
ATOM      9  C   UNL A   1      33.091  26.627  26.016  1.00  0.00    -0.023 A 
ATOM     10  C   UNL A   1      32.002  26.005  26.617  1.00  0.00     0.012 A 
ATOM     11  C   UNL A   1      33.692  26.030  24.905  1.00  0.00     0.027 A 
ATOM     12  C   UNL A   1      31.553  24.778  26.125  1.00  0.00     0.048 A 
ATOM     13  C   UNL A   1      33.252  24.785  24.419  1.00  0.00     0.060 A 
ATOM     14  Br  UNL A   1      34.355  24.055  23.057  1.00  0.00    -0.047 Br
BRANCH   9  15
ATOM     15  C   UNL A   1      33.673  27.848  26.575  1.00  0.00     0.027 C 
ATOM     16  N   UNL A   1      33.288  31.443  27.183  1.00  0.00    -0.228 N 
ATOM     17  C   UNL A   1      32.111  31.734  26.501  1.00  0.00     0.335 C 
ATOM     18  C   UNL A   1      33.879  30.176  27.214  1.00  0.00     0.272 C 
ATOM     19  O   UNL A   1      31.593  32.846  26.395  1.00  0.00    -0.247 OA
ATOM     20  N   UNL A   1      31.503  30.702  25.850  1.00  0.00    -0.273 N 
ATOM     21  C   UNL A   1      33.150  29.092  26.491  1.00  0.00     0.106 C 
ATOM     22  O   UNL A   1      34.910  29.901  27.831  1.00  0.00    -0.268 OA
ATOM     23  C   UNL A   1      31.897  29.404  25.771  1.00  0.00     0.264 C 
ATOM     24  H   UNL A   1      30.670  30.927  25.376  1.00  0.00     0.175 HD
ATOM     25  O   UNL A   1      31.229  28.605  25.131  1.00  0.00    -0.269 OA
BRANCH  16  26
ATOM     26  C   UNL A   1      33.934  32.511  27.892  1.00  0.00     0.054 A 
ATOM     27  C   UNL A   1      37.471  33.719  28.666  1.00  0.00     0.044 C 
ATOM     28  C   UNL A   1      35.974  33.626  28.636  1.00  0.00    -0.049 A 
ATOM     29  C   UNL A   1      35.200  34.603  29.270  1.00  0.00     0.007 A 
ATOM     30  C   UNL A   1      35.334  32.570  27.975  1.00  0.00     0.030 A 
ATOM     31  C   UNL A   1      33.802  34.549  29.226  1.00  0.00    -0.049 A 
ATOM     32  C   UNL A   1      32.987  35.591  29.937  1.00  0.00     0.044 C 
ATOM     33  C   UNL A   1      33.179  33.517  28.515  1.00  0.00     0.030 A 
ENDBRANCH  16  26
ENDBRANCH   9  15
ENDBRANCH   7   8
ENDBRANCH   6   7
ENDBRANCH   3   6
ENDBRANCH   1   2
BRANCH   1  34
ATOM     34  C   UNL A   1      35.766  22.177  25.949  1.00  0.00     0.023 C 
BRANCH  34  35
ATOM     35  C   UNL A   1      36.510  21.057  25.216  1.00  0.00     0.023 C 
BRANCH  35  36
ATOM     36  C   UNL A   1      37.993  21.305  24.967  1.00  0.00     0.116 C 
BRANCH  36  37
ATOM     37  N   UNL A   1      38.852  20.344  25.641  1.00  0.00    -0.352 N 
ATOM     38  C   UNL A   1      39.924  20.565  26.474  1.00  0.00     0.251 C 
ATOM     39  H   UNL A   1      38.634  19.398  25.479  1.00  0.00     0.163 HD
ATOM     40  O   UNL A   1      40.618  19.625  26.848  1.00  0.00    -0.269 OA
BRANCH  38  41
ATOM     41  C   UNL A   1      40.267  21.943  26.886  1.00  0.00     0.039 A 
ATOM     42  C   UNL A   1      41.328  22.136  27.774  1.00  0.00     0.014 A 
ATOM     43  C   UNL A   1      39.564  23.042  26.385  1.00  0.00     0.014 A 
ATOM     44  C   UNL A   1      41.745  23.432  28.086  1.00  0.00     0.010 A 
ATOM     45  C   UNL A   1      40.026  24.332  26.639  1.00  0.00     0.010 A 
ATOM     46  C   UNL A   1      41.130  24.540  27.480  1.00  0.00    -0.014 A 
BRANCH  46  47
ATOM     47  C   UNL A   1      41.653  25.919  27.675  1.00  0.00     0.031 A 
ATOM     48  C   UNL A   1      43.000  26.303  27.133  1.00  0.00     0.074 A 
ATOM     49  C   UNL A   1      40.949  26.796  28.419  1.00  0.00     0.049 A 
ATOM     50  N   UNL A   1      43.667  27.420  27.290  1.00  0.00    -0.248 NA
ATOM     51  C   UNL A   1      43.704  25.293  26.327  1.00  0.00     0.031 C 
ATOM     52  C   UNL A   1      39.646  26.530  29.032  1.00  0.00     0.029 A 
ATOM     53  N   UNL A   1      41.237  28.084  28.802  1.00  0.00    -0.354 N 
ATOM     54  C   UNL A   1      44.872  27.238  26.623  1.00  0.00     0.074 A 
ATOM     55  C   UNL A   1      44.862  25.893  26.090  1.00  0.00     0.031 C 
ATOM     56  C   UNL A   1      39.242  27.622  29.700  1.00  0.00     0.029 A 
ATOM     57  C   UNL A   1      40.277  28.647  29.609  1.00  0.00     0.049 A 
ATOM     58  H   UNL A   1      42.053  28.557  28.525  1.00  0.00     0.167 HD
ATOM     59  C   UNL A   1      45.887  28.121  26.462  1.00  0.00     0.037 A 
ATOM     60  C   UNL A   1      40.245  29.845  30.226  1.00  0.00     0.037 A 
ATOM     61  C   UNL A   1      45.876  29.468  26.967  1.00  0.00     0.049 A 
ATOM     62  C   UNL A   1      41.405  30.791  30.053  1.00  0.00     0.074 A 
ATOM     63  C   UNL A   1      46.817  30.466  26.775  1.00  0.00     0.029 A 
ATOM     64  N   UNL A   1      44.886  30.003  27.778  1.00  0.00    -0.354 N 
ATOM     65  N   UNL A   1      42.495  30.643  29.339  1.00  0.00    -0.248 NA
ATOM     66  C   UNL A   1      41.333  32.070  30.773  1.00  0.00     0.031 C 
ATOM     67  C   UNL A   1      46.431  31.580  27.524  1.00  0.00     0.029 A 
ATOM     68  C   UNL A   1      45.218  31.301  28.132  1.00  0.00     0.049 A 
ATOM     69  H   UNL A   1      44.069  29.531  28.059  1.00  0.00     0.167 HD
ATOM     70  C   UNL A   1      43.219  31.817  29.500  1.00  0.00     0.074 A 
ATOM     71  C   UNL A   1      42.438  32.676  30.364  1.00  0.00     0.031 C 
ATOM     72  C   UNL A   1      44.425  32.151  28.982  1.00  0.00     0.037 A 
BRANCH  59  73
ATOM     73  C   UNL A   1      47.106  27.666  25.714  1.00  0.00     0.064 A 
ATOM     74  C   UNL A   1      47.194  27.750  24.316  1.00  0.00     0.173 A 
ATOM     75  C   UNL A   1      48.236  27.214  26.416  1.00  0.00     0.173 A 
ATOM     76  F   UNL A   1      46.141  28.169  23.598  1.00  0.00    -0.203 F 
ATOM     77  C   UNL A   1      48.358  27.382  23.648  1.00  0.00     0.198 A 
ATOM     78  C   UNL A   1      49.409  26.877  25.746  1.00  0.00     0.198 A 
ATOM     79  F   UNL A   1      48.210  27.122  27.754  1.00  0.00    -0.203 F 
ATOM     80  F   UNL A   1      48.406  27.438  22.309  1.00  0.00    -0.200 F 
ATOM     81  C   UNL A   1      49.468  26.956  24.364  1.00  0.00     0.200 A 
ATOM     82  F   UNL A   1      50.485  26.482  26.440  1.00  0.00    -0.200 F 
ATOM     83  F   UNL A   1      50.594  26.621  23.719  1.00  0.00    -0.200 F 
ENDBRANCH  59  73
BRANCH  60  84
ATOM     84  C   UNL A   1      39.085  30.224  31.078  1.00  0.00     0.064 A 
ATOM     85  C   UNL A   1      37.858  30.587  30.505  1.00  0.00     0.173 A 
ATOM     86  C   UNL A   1      39.189  30.277  32.476  1.00  0.00     0.173 A 
ATOM     87  F   UNL A   1      37.713  30.576  29.171  1.00  0.00    -0.203 F 
ATOM     88  C   UNL A   1      36.793  31.019  31.292  1.00  0.00     0.198 A 
ATOM     89  C   UNL A   1      38.112  30.675  33.266  1.00  0.00     0.198 A 
ATOM     90  F   UNL A   1      40.339  29.938  33.079  1.00  0.00    -0.203 F 
ATOM     91  F   UNL A   1      35.654  31.423  30.712  1.00  0.00    -0.200 F 
ATOM     92  C   UNL A   1      36.919  31.059  32.672  1.00  0.00     0.200 A 
ATOM     93  F   UNL A   1      38.233  30.697  34.599  1.00  0.00    -0.200 F 
ATOM     94  F   UNL A   1      35.897  31.480  33.429  1.00  0.00    -0.200 F 
ENDBRANCH  60  84
BRANCH  72  95
ATOM     95  C   UNL A   1      44.966  33.515  29.302  1.00  0.00     0.064 A 
ATOM     96  C   UNL A   1      44.641  34.637  28.525  1.00  0.00     0.173 A 
ATOM     97  C   UNL A   1      45.771  33.712  30.434  1.00  0.00     0.173 A 
ATOM     98  F   UNL A   1      43.889  34.500  27.422  1.00  0.00    -0.203 F 
ATOM     99  C   UNL A   1      45.115  35.902  28.861  1.00  0.00     0.198 A 
ATOM    100  C   UNL A   1      46.215  34.983  30.787  1.00  0.00     0.198 A 
ATOM    101  F   UNL A   1      46.107  32.674  31.215  1.00  0.00    -0.203 F 
ATOM    102  F   UNL A   1      44.827  36.953  28.081  1.00  0.00    -0.200 F 
ATOM    103  C   UNL A   1      45.892  36.076  29.998  1.00  0.00     0.200 A 
ATOM    104  F   UNL A   1      46.951  35.152  31.894  1.00  0.00    -0.200 F 
ATOM    105  F   UNL A   1      46.334  37.298  30.328  1.00  0.00    -0.200 F 
ENDBRANCH  72  95
ENDBRANCH  46  47
ENDBRANCH  38  41
ENDBRANCH  36  37
ENDBRANCH  35  36
ENDBRANCH  34  35
ENDBRANCH   1  34
TORSDOF 15
ENDMDL
MODEL 3
REMARK VINA RESULT:     -10.1      4.599      9.801
REMARK SMILES Cc1cc(C)cc(N2C(=O)NC(=O)/C(=C\c3ccc(OCC(=O)NCCCCNC(=O)c4ccc(-c5c6nc(c(-c7c(F)c(F)c(F)c(F)c7F)c7ccc([nH]7)c(-c7c(F)c(F)c(F)c(F)c7F)c7nc(c(-c8c(F)c(F)c(F)c(F)c8F)c8ccc5[nH]8)C=C7)C=C6)cc4)c(Br)c3)C2=O)c1
REMARK SMILES IDX 25 1 24 2 22 3 23 4 21 6 20 7 19 8 16 9 17 10 97 11 18 12
REMARK SMILES IDX 95 13 96 14 15 15 8 16 9 17 98 18 10 19 11 20 14 21 99 22
REMARK SMILES IDX 12 23 13 25 7 26 1 27 2 28 3 29 100 30 4 31 5 32 6 33 26 34
REMARK SMILES IDX 27 35 28 36 29 37 30 38 31 40 32 41 33 42 94 43 34 44 93 45
REMARK SMILES IDX 35 46 36 47 37 48 87 49 38 50 92 51 86 52 88 53 39 54 91 55
REMARK SMILES IDX 85 56 84 57 40 59 72 60 52 61 71 62 53 63 56 64 70 65 89 66
REMARK SMILES IDX 54 67 55 68 69 70 90 71 57 72 41 73 42 74 50 75 43 76 44 77
REMARK SMILES IDX 48 78 51 79 45 80 46 81 49 82 47 83 73 84 74 85 82 86 75 87
REMARK SMILES IDX 76 88 80 89 83 90 77 91 78 92 81 93 79 94 58 95 59 96 67 97
REMARK SMILES IDX 60 98 61 99 65 100 68 101 62 102 63 103 66 104 64 105
REMARK H PARENT 24 5 11 24 29 39 88 58 56 69
REMARK Flexibility Score: inf
ROOT
ATOM      1  C   UNL A   1      33.474  23.546  24.893  1.00  0.00     0.116 C 
ENDROOT
BRANCH   1   2
ATOM      2  N   UNL A   1      32.631  23.599  26.071  1.00  0.00    -0.353 N 
ATOM      3  C   UNL A   1      31.358  24.075  26.191  1.00  0.00     0.257 C 
ATOM      4  O   UNL A   1      30.775  23.901  27.262  1.00  0.00    -0.271 OA
ATOM      5  H   UNL A   1      33.031  23.242  26.897  1.00  0.00     0.163 HD
BRANCH   3   6
ATOM      6  C   UNL A   1      30.678  24.734  24.986  1.00  0.00     0.329 C 
BRANCH   6   7
ATOM      7  O   UNL A   1      30.411  26.121  25.030  1.00  0.00    -0.483 OA
BRANCH   7   8
ATOM      8  C   UNL A   1      31.348  27.020  25.446  1.00  0.00     0.134 A 
ATOM      9  C   UNL A   1      33.132  28.742  26.803  1.00  0.00    -0.023 A 
ATOM     10  C   UNL A   1      32.031  28.219  27.472  1.00  0.00     0.012 A 
ATOM     11  C   UNL A   1      33.325  28.431  25.454  1.00  0.00     0.027 A 
ATOM     12  C   UNL A   1      31.158  27.363  26.797  1.00  0.00     0.048 A 
ATOM     13  C   UNL A   1      32.457  27.554  24.778  1.00  0.00     0.060 A 
ATOM     14  Br  UNL A   1      33.036  27.090  23.031  1.00  0.00    -0.047 Br
BRANCH   9  15
ATOM     15  C   UNL A   1      34.140  29.540  27.504  1.00  0.00     0.027 C 
ATOM     16  N   UNL A   1      35.096  32.828  28.815  1.00  0.00    -0.228 N 
ATOM     17  C   UNL A   1      34.068  33.641  28.351  1.00  0.00     0.335 C 
ATOM     18  C   UNL A   1      35.196  31.461  28.536  1.00  0.00     0.272 C 
ATOM     19  O   UNL A   1      33.977  34.858  28.519  1.00  0.00    -0.247 OA
ATOM     20  N   UNL A   1      33.099  33.045  27.599  1.00  0.00    -0.273 N 
ATOM     21  C   UNL A   1      34.092  30.874  27.719  1.00  0.00     0.106 C 
ATOM     22  O   UNL A   1      36.090  30.725  28.959  1.00  0.00    -0.268 OA
ATOM     23  C   UNL A   1      32.999  31.741  27.230  1.00  0.00     0.264 C 
ATOM     24  H   UNL A   1      32.379  33.637  27.282  1.00  0.00     0.175 HD
ATOM     25  O   UNL A   1      32.059  31.376  26.540  1.00  0.00    -0.269 OA
BRANCH  16  26
ATOM     26  C   UNL A   1      36.115  33.431  29.626  1.00  0.00     0.054 A 
ATOM     27  C   UNL A   1      39.736  34.592  29.295  1.00  0.00     0.044 C 
ATOM     28  C   UNL A   1      38.388  34.285  29.877  1.00  0.00    -0.049 A 
ATOM     29  C   UNL A   1      38.107  34.620  31.206  1.00  0.00     0.007 A 
ATOM     30  C   UNL A   1      37.397  33.666  29.105  1.00  0.00     0.030 A 
ATOM     31  C   UNL A   1      36.845  34.369  31.757  1.00  0.00    -0.049 A 
ATOM     32  C   UNL A   1      36.571  34.710  33.192  1.00  0.00     0.044 C 
ATOM     33  C   UNL A   1      35.849  33.800  30.954  1.00  0.00     0.030 A 
ENDBRANCH  16  26
ENDBRANCH   9  15
ENDBRANCH   7   8
ENDBRANCH   6   7
ENDBRANCH   3   6
ENDBRANCH   1   2
BRANCH   1  34
ATOM     34  C   UNL A   1      34.701  24.445  25.016  1.00  0.00     0.023 C 
BRANCH  34  35
ATOM     35  C   UNL A   1      36.050  23.726  24.928  1.00  0.00     0.023 C 
BRANCH  35  36
ATOM     36  C   UNL A   1      36.434  22.895  26.147  1.00  0.00     0.116 C 
BRANCH  36  37
ATOM     37  N   UNL A   1      37.352  21.811  25.830  1.00  0.00    -0.352 N 
ATOM     38  C   UNL A   1      38.721  21.763  25.950  1.00  0.00     0.251 C 
ATOM     39  H   UNL A   1      36.931  20.993  25.480  1.00  0.00     0.163 HD
ATOM     40  O   UNL A   1      39.345  20.805  25.506  1.00  0.00    -0.269 OA
BRANCH  38  41
ATOM     41  C   UNL A   1      39.447  22.888  26.579  1.00  0.00     0.039 A 
ATOM     42  C   UNL A   1      40.400  22.608  27.561  1.00  0.00     0.014 A 
ATOM     43  C   UNL A   1      39.209  24.208  26.188  1.00  0.00     0.014 A 
ATOM     44  C   UNL A   1      41.180  23.643  28.085  1.00  0.00     0.010 A 
ATOM     45  C   UNL A   1      40.036  25.227  26.657  1.00  0.00     0.010 A 
ATOM     46  C   UNL A   1      41.039  24.953  27.599  1.00  0.00    -0.014 A 
BRANCH  46  47
ATOM     47  C   UNL A   1      41.960  26.040  28.026  1.00  0.00     0.031 A 
ATOM     48  C   UNL A   1      41.534  27.025  29.078  1.00  0.00     0.074 A 
ATOM     49  C   UNL A   1      43.144  26.191  27.401  1.00  0.00     0.049 A 
ATOM     50  N   UNL A   1      42.153  28.097  29.507  1.00  0.00    -0.248 NA
ATOM     51  C   UNL A   1      40.230  26.790  29.719  1.00  0.00     0.031 C 
ATOM     52  C   UNL A   1      43.656  25.323  26.338  1.00  0.00     0.029 A 
ATOM     53  N   UNL A   1      44.128  27.138  27.555  1.00  0.00    -0.354 N 
ATOM     54  C   UNL A   1      41.307  28.673  30.447  1.00  0.00     0.074 A 
ATOM     55  C   UNL A   1      40.116  27.854  30.502  1.00  0.00     0.031 C 
ATOM     56  C   UNL A   1      44.860  25.768  25.946  1.00  0.00     0.029 A 
ATOM     57  C   UNL A   1      45.185  26.981  26.690  1.00  0.00     0.049 A 
ATOM     58  H   UNL A   1      44.080  27.861  28.220  1.00  0.00     0.167 HD
ATOM     59  C   UNL A   1      41.515  29.777  31.202  1.00  0.00     0.037 A 
ATOM     60  C   UNL A   1      46.281  27.742  26.500  1.00  0.00     0.037 A 
ATOM     61  C   UNL A   1      42.717  30.569  31.166  1.00  0.00     0.049 A 
ATOM     62  C   UNL A   1      46.467  28.982  27.335  1.00  0.00     0.074 A 
ATOM     63  C   UNL A   1      43.058  31.651  31.960  1.00  0.00     0.029 A 
ATOM     64  N   UNL A   1      43.766  30.377  30.279  1.00  0.00    -0.354 N 
ATOM     65  N   UNL A   1      45.705  29.461  28.289  1.00  0.00    -0.248 NA
ATOM     66  C   UNL A   1      47.664  29.792  27.065  1.00  0.00     0.031 C 
ATOM     67  C   UNL A   1      44.280  32.156  31.509  1.00  0.00     0.029 A 
ATOM     68  C   UNL A   1      44.732  31.351  30.477  1.00  0.00     0.049 A 
ATOM     69  H   UNL A   1      43.816  29.658  29.610  1.00  0.00     0.167 HD
ATOM     70  C   UNL A   1      46.344  30.604  28.750  1.00  0.00     0.074 A 
ATOM     71  C   UNL A   1      47.565  30.740  27.986  1.00  0.00     0.031 C 
ATOM     72  C   UNL A   1      45.951  31.467  29.718  1.00  0.00     0.037 A 
BRANCH  59  73
ATOM     73  C   UNL A   1      40.422  30.212  32.135  1.00  0.00     0.064 A 
ATOM     74  C   UNL A   1      39.200  30.714  31.662  1.00  0.00     0.173 A 
ATOM     75  C   UNL A   1      40.570  30.046  33.521  1.00  0.00     0.173 A 
ATOM     76  F   UNL A   1      39.009  30.898  30.347  1.00  0.00    -0.203 F 
ATOM     77  C   UNL A   1      38.176  31.052  32.543  1.00  0.00     0.198 A 
ATOM     78  C   UNL A   1      39.532  30.355  34.396  1.00  0.00     0.198 A 
ATOM     79  F   UNL A   1      41.715  29.561  34.026  1.00  0.00    -0.203 F 
ATOM     80  F   UNL A   1      37.030  31.563  32.070  1.00  0.00    -0.200 F 
ATOM     81  C   UNL A   1      38.339  30.862  33.907  1.00  0.00     0.200 A 
ATOM     82  F   UNL A   1      39.685  30.155  35.712  1.00  0.00    -0.200 F 
ATOM     83  F   UNL A   1      37.344  31.170  34.751  1.00  0.00    -0.200 F 
ENDBRANCH  59  73
BRANCH  60  84
ATOM     84  C   UNL A   1      47.291  27.368  25.472  1.00  0.00     0.064 A 
ATOM     85  C   UNL A   1      48.428  26.622  25.815  1.00  0.00     0.173 A 
ATOM     86  C   UNL A   1      47.166  27.784  24.138  1.00  0.00     0.173 A 
ATOM     87  F   UNL A   1      48.607  26.220  27.082  1.00  0.00    -0.203 F 
ATOM     88  C   UNL A   1      49.415  26.337  24.875  1.00  0.00     0.198 A 
ATOM     89  C   UNL A   1      48.136  27.468  23.189  1.00  0.00     0.198 A 
ATOM     90  F   UNL A   1      46.097  28.498  23.753  1.00  0.00    -0.203 F 
ATOM     91  F   UNL A   1      50.522  25.680  25.247  1.00  0.00    -0.200 F 
ATOM     92  C   UNL A   1      49.267  26.756  23.561  1.00  0.00     0.200 A 
ATOM     93  F   UNL A   1      47.981  27.861  21.918  1.00  0.00    -0.200 F 
ATOM     94  F   UNL A   1      50.219  26.487  22.658  1.00  0.00    -0.200 F 
ENDBRANCH  60  84
BRANCH  72  95
ATOM     95  C   UNL A   1      46.862  32.618  30.036  1.00  0.00     0.064 A 
ATOM     96  C   UNL A   1      46.727  33.861  29.399  1.00  0.00     0.173 A 
ATOM     97  C   UNL A   1      47.842  32.494  31.031  1.00  0.00     0.173 A 
ATOM     98  F   UNL A   1      45.817  34.027  28.428  1.00  0.00    -0.203 F 
ATOM     99  C   UNL A   1      47.552  34.931  29.736  1.00  0.00     0.198 A 
ATOM    100  C   UNL A   1      48.642  33.575  31.390  1.00  0.00     0.198 A 
ATOM    101  F   UNL A   1      48.009  31.328  31.675  1.00  0.00    -0.203 F 
ATOM    102  F   UNL A   1      47.434  36.096  29.085  1.00  0.00    -0.200 F 
ATOM    103  C   UNL A   1      48.501  34.790  30.739  1.00  0.00     0.200 A 
ATOM    104  F   UNL A   1      49.546  33.442  32.371  1.00  0.00    -0.200 F 
ATOM    105  F   UNL A   1      49.282  35.827  31.072  1.00  0.00    -0.200 F 
ENDBRANCH  72  95
ENDBRANCH  46  47
ENDBRANCH  38  41
ENDBRANCH  36  37
ENDBRANCH  35  36
ENDBRANCH  34  35
ENDBRANCH   1  34
TORSDOF 15
ENDMDL
