MODEL 1
REMARK VINA RESULT:     -12.7      0.000      0.000
REMARK SMILES C[C@H]1[NH2+]CC[C@H]1C(=O)N1CCC(C(=O)NCCCCNC(=O)c2ccc(-c3c4nc(c(-c5c(F)c(F)c(F)c(F)c5F)c5ccc([nH]5)c(-c5c(F)c(F)c(F)c(F)c5F)c5nc(c(-c6c(F)c(F)c(F)c(F)c6F)c6ccc3[nH]6)C=C5)C=C4)cc2)CC1
REMARK SMILES IDX 18 1 17 2 16 3 15 4 13 5 14 6 12 8 7 9 8 10 9 11 10 12 87 13
REMARK SMILES IDX 11 14 86 15 6 16 1 17 2 18 3 19 4 20 5 23 19 24 20 25 21 26
REMARK SMILES IDX 22 28 23 29 24 30 85 31 25 32 84 33 26 34 27 35 28 36 78 37
REMARK SMILES IDX 29 38 83 39 77 40 79 41 30 42 82 43 76 44 75 45 31 47 63 48
REMARK SMILES IDX 43 49 62 50 44 51 47 52 61 53 80 54 45 55 46 56 60 58 81 59
REMARK SMILES IDX 48 60 32 61 33 62 41 63 34 64 35 65 39 66 42 67 36 68 37 69
REMARK SMILES IDX 40 70 38 71 64 72 65 73 73 74 66 75 67 76 71 77 74 78 68 79
REMARK SMILES IDX 69 80 72 81 70 82 49 83 50 84 58 85 51 86 52 87 56 88 59 89
REMARK SMILES IDX 53 90 54 91 57 92 55 93
REMARK H PARENT 15 7 3 21 3 22 20 27 79 46 47 57
REMARK Flexibility Score: inf
ROOT
ATOM      1  C   UNL A   1      31.668  31.918  26.534  1.00  0.00     0.023 C 
ENDROOT
BRANCH   1   2
ATOM      2  C   UNL A   1      31.745  30.392  26.556  1.00  0.00     0.023 C 
BRANCH   2   3
ATOM      3  C   UNL A   1      33.167  29.837  26.520  1.00  0.00     0.116 C 
BRANCH   3   4
ATOM      4  N   UNL A   1      33.628  29.652  25.154  1.00  0.00    -0.356 N 
ATOM      5  C   UNL A   1      33.655  28.542  24.369  1.00  0.00     0.223 C 
ATOM      6  O   UNL A   1      34.160  28.644  23.247  1.00  0.00    -0.275 OA
ATOM      7  H   UNL A   1      33.980  30.466  24.726  1.00  0.00     0.163 HD
BRANCH   5   8
ATOM      8  C   UNL A   1      33.030  27.227  24.813  1.00  0.00     0.082 C 
ATOM      9  C   UNL A   1      33.879  23.554  23.879  1.00  0.00     0.231 C 
ATOM     10  O   UNL A   1      34.552  24.039  22.969  1.00  0.00    -0.274 OA
ATOM     11  N   UNL A   1      33.045  24.338  24.662  1.00  0.00    -0.342 N 
ATOM     12  C   UNL A   1      31.939  25.044  24.028  1.00  0.00     0.120 C 
ATOM     13  C   UNL A   1      33.562  24.988  25.850  1.00  0.00     0.120 C 
ATOM     14  C   UNL A   1      32.272  26.498  23.694  1.00  0.00     0.035 C 
ATOM     15  C   UNL A   1      34.078  26.381  25.544  1.00  0.00     0.035 C 
BRANCH   9  16
ATOM     16  C   UNL A   1      33.845  22.044  24.129  1.00  0.00     0.142 C 
ATOM     17  C   UNL A   1      35.795  22.035  25.884  1.00  0.00     0.076 C 
ATOM     18  C   UNL A   1      35.063  21.346  24.741  1.00  0.00     0.192 C 
ATOM     19  N   UNL A   1      34.540  20.050  25.223  1.00  0.00    -0.343 N 
ATOM     20  C   UNL A   1      33.089  20.151  25.383  1.00  0.00     0.261 C 
ATOM     21  H   UNL A   1      34.967  19.821  26.121  1.00  0.00     0.346 HD
ATOM     22  H   UNL A   1      34.762  19.316  24.550  1.00  0.00     0.346 HD
ATOM     23  C   UNL A   1      32.680  21.551  24.971  1.00  0.00     0.081 C 
ENDBRANCH   9  16
ENDBRANCH   5   8
ENDBRANCH   3   4
ENDBRANCH   2   3
ENDBRANCH   1   2
BRANCH   1  24
ATOM     24  C   UNL A   1      32.749  32.622  27.344  1.00  0.00     0.116 C 
BRANCH  24  25
ATOM     25  N   UNL A   1      32.428  34.012  27.631  1.00  0.00    -0.352 N 
ATOM     26  C   UNL A   1      32.997  34.854  28.558  1.00  0.00     0.251 C 
ATOM     27  H   UNL A   1      31.707  34.403  27.088  1.00  0.00     0.163 HD
ATOM     28  O   UNL A   1      32.527  35.960  28.772  1.00  0.00    -0.269 OA
BRANCH  26  29
ATOM     29  C   UNL A   1      34.171  34.388  29.324  1.00  0.00     0.039 A 
ATOM     30  C   UNL A   1      33.969  33.786  30.567  1.00  0.00     0.014 A 
ATOM     31  C   UNL A   1      35.460  34.508  28.796  1.00  0.00     0.014 A 
ATOM     32  C   UNL A   1      35.054  33.238  31.251  1.00  0.00     0.010 A 
ATOM     33  C   UNL A   1      36.527  33.894  29.441  1.00  0.00     0.010 A 
ATOM     34  C   UNL A   1      36.336  33.253  30.674  1.00  0.00    -0.014 A 
BRANCH  34  35
ATOM     35  C   UNL A   1      37.489  32.606  31.348  1.00  0.00     0.031 A 
ATOM     36  C   UNL A   1      38.208  31.469  30.679  1.00  0.00     0.074 A 
ATOM     37  C   UNL A   1      37.851  33.003  32.583  1.00  0.00     0.049 A 
ATOM     38  N   UNL A   1      39.185  30.725  31.131  1.00  0.00    -0.248 NA
ATOM     39  C   UNL A   1      37.750  31.102  29.328  1.00  0.00     0.031 C 
ATOM     40  C   UNL A   1      37.206  34.069  33.354  1.00  0.00     0.029 A 
ATOM     41  N   UNL A   1      38.846  32.551  33.414  1.00  0.00    -0.354 N 
ATOM     42  C   UNL A   1      39.453  29.804  30.128  1.00  0.00     0.074 A 
ATOM     43  C   UNL A   1      38.495  30.038  29.069  1.00  0.00     0.031 C 
ATOM     44  C   UNL A   1      37.839  34.206  34.530  1.00  0.00     0.029 A 
ATOM     45  C   UNL A   1      38.906  33.213  34.616  1.00  0.00     0.049 A 
ATOM     46  H   UNL A   1      39.459  31.820  33.170  1.00  0.00     0.167 HD
ATOM     47  C   UNL A   1      40.428  28.865  30.079  1.00  0.00     0.037 A 
ATOM     48  C   UNL A   1      39.726  33.033  35.669  1.00  0.00     0.037 A 
ATOM     49  C   UNL A   1      41.391  28.645  31.126  1.00  0.00     0.049 A 
ATOM     50  C   UNL A   1      40.782  31.962  35.600  1.00  0.00     0.074 A 
ATOM     51  C   UNL A   1      42.437  27.740  31.161  1.00  0.00     0.029 A 
ATOM     52  N   UNL A   1      41.424  29.343  32.325  1.00  0.00    -0.354 N 
ATOM     53  N   UNL A   1      41.060  31.133  34.624  1.00  0.00    -0.248 NA
ATOM     54  C   UNL A   1      41.641  31.805  36.781  1.00  0.00     0.031 C 
ATOM     55  C   UNL A   1      43.081  27.863  32.397  1.00  0.00     0.029 A 
ATOM     56  C   UNL A   1      42.466  28.878  33.112  1.00  0.00     0.049 A 
ATOM     57  H   UNL A   1      40.801  30.061  32.579  1.00  0.00     0.167 HD
ATOM     58  C   UNL A   1      42.144  30.384  35.056  1.00  0.00     0.074 A 
ATOM     59  C   UNL A   1      42.484  30.866  36.379  1.00  0.00     0.031 C 
ATOM     60  C   UNL A   1      42.802  29.384  34.418  1.00  0.00     0.037 A 
BRANCH  47  61
ATOM     61  C   UNL A   1      40.513  28.016  28.845  1.00  0.00     0.064 A 
ATOM     62  C   UNL A   1      39.809  26.806  28.741  1.00  0.00     0.173 A 
ATOM     63  C   UNL A   1      41.270  28.431  27.740  1.00  0.00     0.173 A 
ATOM     64  F   UNL A   1      39.079  26.358  29.775  1.00  0.00    -0.203 F 
ATOM     65  C   UNL A   1      39.882  26.031  27.587  1.00  0.00     0.198 A 
ATOM     66  C   UNL A   1      41.317  27.668  26.577  1.00  0.00     0.198 A 
ATOM     67  F   UNL A   1      41.959  29.582  27.785  1.00  0.00    -0.203 F 
ATOM     68  F   UNL A   1      39.238  24.857  27.529  1.00  0.00    -0.200 F 
ATOM     69  C   UNL A   1      40.629  26.466  26.504  1.00  0.00     0.200 A 
ATOM     70  F   UNL A   1      42.029  28.096  25.524  1.00  0.00    -0.200 F 
ATOM     71  F   UNL A   1      40.690  25.723  25.389  1.00  0.00    -0.200 F 
ENDBRANCH  47  61
BRANCH  48  72
ATOM     72  C   UNL A   1      39.604  33.898  36.872  1.00  0.00     0.064 A 
ATOM     73  C   UNL A   1      38.836  33.491  37.973  1.00  0.00     0.173 A 
ATOM     74  C   UNL A   1      40.219  35.155  36.937  1.00  0.00     0.173 A 
ATOM     75  F   UNL A   1      38.209  32.305  37.949  1.00  0.00    -0.203 F 
ATOM     76  C   UNL A   1      38.664  34.321  39.078  1.00  0.00     0.198 A 
ATOM     77  C   UNL A   1      40.072  35.973  38.056  1.00  0.00     0.198 A 
ATOM     78  F   UNL A   1      40.968  35.592  35.913  1.00  0.00    -0.203 F 
ATOM     79  F   UNL A   1      37.875  33.931  40.090  1.00  0.00    -0.200 F 
ATOM     80  C   UNL A   1      39.285  35.560  39.121  1.00  0.00     0.200 A 
ATOM     81  F   UNL A   1      40.684  37.164  38.100  1.00  0.00    -0.200 F 
ATOM     82  F   UNL A   1      39.115  36.360  40.182  1.00  0.00    -0.200 F 
ENDBRANCH  48  72
BRANCH  60  83
ATOM     83  C   UNL A   1      43.983  28.779  35.119  1.00  0.00     0.064 A 
ATOM     84  C   UNL A   1      43.849  27.669  35.965  1.00  0.00     0.173 A 
ATOM     85  C   UNL A   1      45.270  29.297  34.911  1.00  0.00     0.173 A 
ATOM     86  F   UNL A   1      42.637  27.148  36.208  1.00  0.00    -0.203 F 
ATOM     87  C   UNL A   1      44.958  27.116  36.599  1.00  0.00     0.198 A 
ATOM     88  C   UNL A   1      46.381  28.722  35.521  1.00  0.00     0.198 A 
ATOM     89  F   UNL A   1      45.452  30.354  34.104  1.00  0.00    -0.203 F 
ATOM     90  F   UNL A   1      44.801  26.087  37.442  1.00  0.00    -0.200 F 
ATOM     91  C   UNL A   1      46.223  27.637  36.370  1.00  0.00     0.200 A 
ATOM     92  F   UNL A   1      47.604  29.219  35.288  1.00  0.00    -0.200 F 
ATOM     93  F   UNL A   1      47.290  27.098  36.976  1.00  0.00    -0.200 F 
ENDBRANCH  60  83
ENDBRANCH  34  35
ENDBRANCH  26  29
ENDBRANCH  24  25
ENDBRANCH   1  24
TORSDOF 12
ENDMDL
MODEL 2
REMARK VINA RESULT:     -12.7      0.097      1.614
REMARK SMILES C[C@H]1[NH2+]CC[C@H]1C(=O)N1CCC(C(=O)NCCCCNC(=O)c2ccc(-c3c4nc(c(-c5c(F)c(F)c(F)c(F)c5F)c5ccc([nH]5)c(-c5c(F)c(F)c(F)c(F)c5F)c5nc(c(-c6c(F)c(F)c(F)c(F)c6F)c6ccc3[nH]6)C=C5)C=C4)cc2)CC1
REMARK SMILES IDX 18 1 17 2 16 3 15 4 13 5 14 6 12 8 7 9 8 10 9 11 10 12 87 13
REMARK SMILES IDX 11 14 86 15 6 16 1 17 2 18 3 19 4 20 5 23 19 24 20 25 21 26
REMARK SMILES IDX 22 28 23 29 24 30 85 31 25 32 84 33 26 34 27 35 28 36 78 37
REMARK SMILES IDX 29 38 83 39 77 40 79 41 30 42 82 43 76 44 75 45 31 47 63 48
REMARK SMILES IDX 43 49 62 50 44 51 47 52 61 53 80 54 45 55 46 56 60 58 81 59
REMARK SMILES IDX 48 60 32 61 33 62 41 63 34 64 35 65 39 66 42 67 36 68 37 69
REMARK SMILES IDX 40 70 38 71 64 72 65 73 73 74 66 75 67 76 71 77 74 78 68 79
REMARK SMILES IDX 69 80 72 81 70 82 49 83 50 84 58 85 51 86 52 87 56 88 59 89
REMARK SMILES IDX 53 90 54 91 57 92 55 93
REMARK H PARENT 15 7 3 21 3 22 20 27 79 46 47 57
REMARK Flexibility Score: inf
ROOT
ATOM      1  C   UNL A   1      31.549  31.870  26.592  1.00  0.00     0.023 C 
ENDROOT
BRANCH   1   2
ATOM      2  C   UNL A   1      31.733  30.359  26.463  1.00  0.00     0.023 C 
BRANCH   2   3
ATOM      3  C   UNL A   1      33.191  29.906  26.440  1.00  0.00     0.116 C 
BRANCH   3   4
ATOM      4  N   UNL A   1      33.656  29.692  25.080  1.00  0.00    -0.356 N 
ATOM      5  C   UNL A   1      33.684  28.567  24.318  1.00  0.00     0.223 C 
ATOM      6  O   UNL A   1      34.193  28.645  23.197  1.00  0.00    -0.275 OA
ATOM      7  H   UNL A   1      34.011  30.497  24.637  1.00  0.00     0.163 HD
BRANCH   5   8
ATOM      8  C   UNL A   1      33.055  27.262  24.787  1.00  0.00     0.082 C 
ATOM      9  C   UNL A   1      33.852  23.572  23.873  1.00  0.00     0.231 C 
ATOM     10  O   UNL A   1      34.513  24.042  22.946  1.00  0.00    -0.274 OA
ATOM     11  N   UNL A   1      33.040  24.372  24.664  1.00  0.00    -0.342 N 
ATOM     12  C   UNL A   1      31.930  25.082  24.043  1.00  0.00     0.120 C 
ATOM     13  C   UNL A   1      33.585  25.028  25.835  1.00  0.00     0.120 C 
ATOM     14  C   UNL A   1      32.270  26.529  23.689  1.00  0.00     0.035 C 
ATOM     15  C   UNL A   1      34.108  26.414  25.506  1.00  0.00     0.035 C 
BRANCH   9  16
ATOM     16  C   UNL A   1      33.809  22.065  24.138  1.00  0.00     0.142 C 
ATOM     17  C   UNL A   1      35.766  22.060  25.885  1.00  0.00     0.076 C 
ATOM     18  C   UNL A   1      35.024  21.365  24.752  1.00  0.00     0.192 C 
ATOM     19  N   UNL A   1      34.494  20.077  25.249  1.00  0.00    -0.343 N 
ATOM     20  C   UNL A   1      33.045  20.190  25.415  1.00  0.00     0.261 C 
ATOM     21  H   UNL A   1      34.923  19.855  26.147  1.00  0.00     0.346 HD
ATOM     22  H   UNL A   1      34.708  19.335  24.582  1.00  0.00     0.346 HD
ATOM     23  C   UNL A   1      32.644  21.589  24.990  1.00  0.00     0.081 C 
ENDBRANCH   9  16
ENDBRANCH   5   8
ENDBRANCH   3   4
ENDBRANCH   2   3
ENDBRANCH   1   2
BRANCH   1  24
ATOM     24  C   UNL A   1      32.668  32.588  27.334  1.00  0.00     0.116 C 
BRANCH  24  25
ATOM     25  N   UNL A   1      32.367  33.987  27.600  1.00  0.00    -0.352 N 
ATOM     26  C   UNL A   1      32.958  34.838  28.505  1.00  0.00     0.251 C 
ATOM     27  H   UNL A   1      31.644  34.376  27.059  1.00  0.00     0.163 HD
ATOM     28  O   UNL A   1      32.503  35.954  28.704  1.00  0.00    -0.269 OA
BRANCH  26  29
ATOM     29  C   UNL A   1      34.136  34.371  29.264  1.00  0.00     0.039 A 
ATOM     30  C   UNL A   1      33.938  33.748  30.497  1.00  0.00     0.014 A 
ATOM     31  C   UNL A   1      35.423  34.512  28.740  1.00  0.00     0.014 A 
ATOM     32  C   UNL A   1      35.028  33.200  31.174  1.00  0.00     0.010 A 
ATOM     33  C   UNL A   1      36.496  33.899  29.376  1.00  0.00     0.010 A 
ATOM     34  C   UNL A   1      36.310  33.237  30.599  1.00  0.00    -0.014 A 
BRANCH  34  35
ATOM     35  C   UNL A   1      37.469  32.591  31.263  1.00  0.00     0.031 A 
ATOM     36  C   UNL A   1      38.188  31.459  30.586  1.00  0.00     0.074 A 
ATOM     37  C   UNL A   1      37.836  32.984  32.499  1.00  0.00     0.049 A 
ATOM     38  N   UNL A   1      39.170  30.717  31.029  1.00  0.00    -0.248 NA
ATOM     39  C   UNL A   1      37.725  31.097  29.236  1.00  0.00     0.031 C 
ATOM     40  C   UNL A   1      37.192  34.044  33.278  1.00  0.00     0.029 A 
ATOM     41  N   UNL A   1      38.837  32.531  33.322  1.00  0.00    -0.354 N 
ATOM     42  C   UNL A   1      39.435  29.801  30.021  1.00  0.00     0.074 A 
ATOM     43  C   UNL A   1      38.472  30.037  28.968  1.00  0.00     0.031 C 
ATOM     44  C   UNL A   1      37.830  34.177  34.452  1.00  0.00     0.029 A 
ATOM     45  C   UNL A   1      38.901  33.188  34.527  1.00  0.00     0.049 A 
ATOM     46  H   UNL A   1      39.451  31.803  33.072  1.00  0.00     0.167 HD
ATOM     47  C   UNL A   1      40.414  28.866  29.963  1.00  0.00     0.037 A 
ATOM     48  C   UNL A   1      39.727  33.006  35.575  1.00  0.00     0.037 A 
ATOM     49  C   UNL A   1      41.383  28.644  31.004  1.00  0.00     0.049 A 
ATOM     50  C   UNL A   1      40.786  31.938  35.495  1.00  0.00     0.074 A 
ATOM     51  C   UNL A   1      42.432  27.742  31.029  1.00  0.00     0.029 A 
ATOM     52  N   UNL A   1      41.420  29.336  32.205  1.00  0.00    -0.354 N 
ATOM     53  N   UNL A   1      41.061  31.115  34.514  1.00  0.00    -0.248 NA
ATOM     54  C   UNL A   1      41.652  31.779  36.672  1.00  0.00     0.031 C 
ATOM     55  C   UNL A   1      43.082  27.862  32.262  1.00  0.00     0.029 A 
ATOM     56  C   UNL A   1      42.467  28.872  32.985  1.00  0.00     0.049 A 
ATOM     57  H   UNL A   1      40.796  30.051  32.466  1.00  0.00     0.167 HD
ATOM     58  C   UNL A   1      42.151  30.367  34.938  1.00  0.00     0.074 A 
ATOM     59  C   UNL A   1      42.496  30.845  36.261  1.00  0.00     0.031 C 
ATOM     60  C   UNL A   1      42.808  29.373  34.291  1.00  0.00     0.037 A 
BRANCH  47  61
ATOM     61  C   UNL A   1      40.495  28.023  28.724  1.00  0.00     0.064 A 
ATOM     62  C   UNL A   1      41.269  28.417  27.621  1.00  0.00     0.173 A 
ATOM     63  C   UNL A   1      39.827  26.793  28.649  1.00  0.00     0.173 A 
ATOM     64  F   UNL A   1      41.918  29.592  27.637  1.00  0.00    -0.203 F 
ATOM     65  C   UNL A   1      41.350  27.624  26.481  1.00  0.00     0.198 A 
ATOM     66  C   UNL A   1      39.934  25.987  27.519  1.00  0.00     0.198 A 
ATOM     67  F   UNL A   1      39.076  26.366  29.677  1.00  0.00    -0.203 F 
ATOM     68  F   UNL A   1      42.058  28.043  25.423  1.00  0.00    -0.200 F 
ATOM     69  C   UNL A   1      40.689  26.406  26.434  1.00  0.00     0.200 A 
ATOM     70  F   UNL A   1      39.305  24.803  27.479  1.00  0.00    -0.200 F 
ATOM     71  F   UNL A   1      40.776  25.638  25.338  1.00  0.00    -0.200 F 
ENDBRANCH  47  61
BRANCH  48  72
ATOM     72  C   UNL A   1      39.608  33.865  36.783  1.00  0.00     0.064 A 
ATOM     73  C   UNL A   1      38.821  33.465  37.872  1.00  0.00     0.173 A 
ATOM     74  C   UNL A   1      40.246  35.110  36.863  1.00  0.00     0.173 A 
ATOM     75  F   UNL A   1      38.172  32.291  37.834  1.00  0.00    -0.203 F 
ATOM     76  C   UNL A   1      38.652  34.291  38.982  1.00  0.00     0.198 A 
ATOM     77  C   UNL A   1      40.102  35.923  37.986  1.00  0.00     0.198 A 
ATOM     78  F   UNL A   1      41.014  35.539  35.850  1.00  0.00    -0.203 F 
ATOM     79  F   UNL A   1      37.846  33.908  39.982  1.00  0.00    -0.200 F 
ATOM     80  C   UNL A   1      39.296  35.517  39.039  1.00  0.00     0.200 A 
ATOM     81  F   UNL A   1      40.736  37.102  38.044  1.00  0.00    -0.200 F 
ATOM     82  F   UNL A   1      39.130  36.313  40.105  1.00  0.00    -0.200 F 
ENDBRANCH  48  72
BRANCH  60  83
ATOM     83  C   UNL A   1      43.995  28.769  34.983  1.00  0.00     0.064 A 
ATOM     84  C   UNL A   1      45.284  29.302  34.838  1.00  0.00     0.173 A 
ATOM     85  C   UNL A   1      43.832  27.663  35.831  1.00  0.00     0.173 A 
ATOM     86  F   UNL A   1      45.494  30.349  34.026  1.00  0.00    -0.203 F 
ATOM     87  C   UNL A   1      46.371  28.733  35.495  1.00  0.00     0.198 A 
ATOM     88  C   UNL A   1      44.915  27.117  36.512  1.00  0.00     0.198 A 
ATOM     89  F   UNL A   1      42.618  27.121  36.010  1.00  0.00    -0.203 F 
ATOM     90  F   UNL A   1      47.601  29.227  35.303  1.00  0.00    -0.200 F 
ATOM     91  C   UNL A   1      46.185  27.646  36.338  1.00  0.00     0.200 A 
ATOM     92  F   UNL A   1      44.731  26.075  37.336  1.00  0.00    -0.200 F 
ATOM     93  F   UNL A   1      47.232  27.105  36.975  1.00  0.00    -0.200 F 
ENDBRANCH  60  83
ENDBRANCH  34  35
ENDBRANCH  26  29
ENDBRANCH  24  25
ENDBRANCH   1  24
TORSDOF 12
ENDMDL
MODEL 3
REMARK VINA RESULT:     -12.7      0.596      7.592
REMARK SMILES C[C@H]1[NH2+]CC[C@H]1C(=O)N1CCC(C(=O)NCCCCNC(=O)c2ccc(-c3c4nc(c(-c5c(F)c(F)c(F)c(F)c5F)c5ccc([nH]5)c(-c5c(F)c(F)c(F)c(F)c5F)c5nc(c(-c6c(F)c(F)c(F)c(F)c6F)c6ccc3[nH]6)C=C5)C=C4)cc2)CC1
REMARK SMILES IDX 18 1 17 2 16 3 15 4 13 5 14 6 12 8 7 9 8 10 9 11 10 12 87 13
REMARK SMILES IDX 11 14 86 15 6 16 1 17 2 18 3 19 4 20 5 23 19 24 20 25 21 26
REMARK SMILES IDX 22 28 23 29 24 30 85 31 25 32 84 33 26 34 27 35 28 36 78 37
REMARK SMILES IDX 29 38 83 39 77 40 79 41 30 42 82 43 76 44 75 45 31 47 63 48
REMARK SMILES IDX 43 49 62 50 44 51 47 52 61 53 80 54 45 55 46 56 60 58 81 59
REMARK SMILES IDX 48 60 32 61 33 62 41 63 34 64 35 65 39 66 42 67 36 68 37 69
REMARK SMILES IDX 40 70 38 71 64 72 65 73 73 74 66 75 67 76 71 77 74 78 68 79
REMARK SMILES IDX 69 80 72 81 70 82 49 83 50 84 58 85 51 86 52 87 56 88 59 89
REMARK SMILES IDX 53 90 54 91 57 92 55 93
REMARK H PARENT 15 7 3 21 3 22 20 27 79 46 47 57
REMARK Flexibility Score: inf
ROOT
ATOM      1  C   UNL A   1      31.430  31.945  26.500  1.00  0.00     0.023 C 
ENDROOT
BRANCH   1   2
ATOM      2  C   UNL A   1      31.534  30.437  26.278  1.00  0.00     0.023 C 
BRANCH   2   3
ATOM      3  C   UNL A   1      32.965  29.920  26.153  1.00  0.00     0.116 C 
BRANCH   3   4
ATOM      4  N   UNL A   1      33.331  29.709  24.762  1.00  0.00    -0.356 N 
ATOM      5  C   UNL A   1      33.356  28.574  24.013  1.00  0.00     0.223 C 
ATOM      6  O   UNL A   1      33.769  28.661  22.854  1.00  0.00    -0.275 OA
ATOM      7  H   UNL A   1      33.606  30.524  24.282  1.00  0.00     0.163 HD
BRANCH   5   8
ATOM      8  C   UNL A   1      32.836  27.247  24.547  1.00  0.00     0.082 C 
ATOM      9  C   UNL A   1      33.850  23.590  23.718  1.00  0.00     0.231 C 
ATOM     10  O   UNL A   1      34.442  24.072  22.752  1.00  0.00    -0.274 OA
ATOM     11  N   UNL A   1      33.014  24.359  24.515  1.00  0.00    -0.342 N 
ATOM     12  C   UNL A   1      31.836  24.973  23.916  1.00  0.00     0.120 C 
ATOM     13  C   UNL A   1      33.556  25.090  25.643  1.00  0.00     0.120 C 
ATOM     14  C   UNL A   1      32.063  26.426  23.504  1.00  0.00     0.035 C 
ATOM     15  C   UNL A   1      33.971  26.496  25.251  1.00  0.00     0.035 C 
BRANCH   9  16
ATOM     16  C   UNL A   1      33.920  22.093  24.032  1.00  0.00     0.142 C 
ATOM     17  C   UNL A   1      35.905  22.285  25.737  1.00  0.00     0.076 C 
ATOM     18  C   UNL A   1      35.194  21.502  24.642  1.00  0.00     0.192 C 
ATOM     19  N   UNL A   1      34.766  20.197  25.190  1.00  0.00    -0.343 N 
ATOM     20  C   UNL A   1      33.316  20.212  25.383  1.00  0.00     0.261 C 
ATOM     21  H   UNL A   1      35.228  20.036  26.086  1.00  0.00     0.346 HD
ATOM     22  H   UNL A   1      35.021  19.451  24.543  1.00  0.00     0.346 HD
ATOM     23  C   UNL A   1      32.808  21.565  24.923  1.00  0.00     0.081 C 
ENDBRANCH   9  16
ENDBRANCH   5   8
ENDBRANCH   3   4
ENDBRANCH   2   3
ENDBRANCH   1   2
BRANCH   1  24
ATOM     24  C   UNL A   1      32.603  32.562  27.250  1.00  0.00     0.116 C 
BRANCH  24  25
ATOM     25  N   UNL A   1      32.395  33.965  27.575  1.00  0.00    -0.352 N 
ATOM     26  C   UNL A   1      33.052  34.742  28.500  1.00  0.00     0.251 C 
ATOM     27  H   UNL A   1      31.689  34.420  27.062  1.00  0.00     0.163 HD
ATOM     28  O   UNL A   1      32.671  35.875  28.751  1.00  0.00    -0.269 OA
BRANCH  26  29
ATOM     29  C   UNL A   1      34.211  34.173  29.219  1.00  0.00     0.039 A 
ATOM     30  C   UNL A   1      33.983  33.413  30.367  1.00  0.00     0.014 A 
ATOM     31  C   UNL A   1      35.509  34.357  28.737  1.00  0.00     0.014 A 
ATOM     32  C   UNL A   1      35.054  32.774  30.993  1.00  0.00     0.010 A 
ATOM     33  C   UNL A   1      36.563  33.659  29.314  1.00  0.00     0.010 A 
ATOM     34  C   UNL A   1      36.347  32.861  30.448  1.00  0.00    -0.014 A 
BRANCH  34  35
ATOM     35  C   UNL A   1      37.486  32.126  31.051  1.00  0.00     0.031 A 
ATOM     36  C   UNL A   1      37.986  32.506  32.416  1.00  0.00     0.074 A 
ATOM     37  C   UNL A   1      38.106  31.159  30.348  1.00  0.00     0.049 A 
ATOM     38  N   UNL A   1      39.011  32.041  33.083  1.00  0.00    -0.248 NA
ATOM     39  C   UNL A   1      37.248  33.571  33.117  1.00  0.00     0.031 C 
ATOM     40  C   UNL A   1      37.740  30.726  28.997  1.00  0.00     0.029 A 
ATOM     41  N   UNL A   1      39.182  30.369  30.668  1.00  0.00    -0.354 N 
ATOM     42  C   UNL A   1      39.045  32.757  34.272  1.00  0.00     0.074 A 
ATOM     43  C   UNL A   1      37.977  33.731  34.211  1.00  0.00     0.031 C 
ATOM     44  C   UNL A   1      38.559  29.732  28.617  1.00  0.00     0.029 A 
ATOM     45  C   UNL A   1      39.532  29.484  29.676  1.00  0.00     0.049 A 
ATOM     46  H   UNL A   1      39.659  30.430  31.527  1.00  0.00     0.167 HD
ATOM     47  C   UNL A   1      39.871  32.597  35.333  1.00  0.00     0.037 A 
ATOM     48  C   UNL A   1      40.530  28.581  29.629  1.00  0.00     0.037 A 
ATOM     49  C   UNL A   1      40.921  31.614  35.399  1.00  0.00     0.049 A 
ATOM     50  C   UNL A   1      41.452  28.445  30.811  1.00  0.00     0.074 A 
ATOM     51  C   UNL A   1      41.793  31.352  36.441  1.00  0.00     0.029 A 
ATOM     52  N   UNL A   1      41.238  30.731  34.378  1.00  0.00    -0.354 N 
ATOM     53  N   UNL A   1      41.440  29.091  31.951  1.00  0.00    -0.248 NA
ATOM     54  C   UNL A   1      42.527  27.450  30.697  1.00  0.00     0.031 C 
ATOM     55  C   UNL A   1      42.663  30.334  36.036  1.00  0.00     0.029 A 
ATOM     56  C   UNL A   1      42.302  29.930  34.761  1.00  0.00     0.049 A 
ATOM     57  H   UNL A   1      40.776  30.679  33.511  1.00  0.00     0.167 HD
ATOM     58  C   UNL A   1      42.477  28.557  32.703  1.00  0.00     0.074 A 
ATOM     59  C   UNL A   1      43.090  27.524  31.895  1.00  0.00     0.031 C 
ATOM     60  C   UNL A   1      42.887  28.892  33.951  1.00  0.00     0.037 A 
BRANCH  47  61
ATOM     61  C   UNL A   1      39.661  33.495  36.517  1.00  0.00     0.064 A 
ATOM     62  C   UNL A   1      40.261  34.761  36.589  1.00  0.00     0.173 A 
ATOM     63  C   UNL A   1      38.822  33.106  37.572  1.00  0.00     0.173 A 
ATOM     64  F   UNL A   1      41.083  35.176  35.612  1.00  0.00    -0.203 F 
ATOM     65  C   UNL A   1      40.050  35.593  37.684  1.00  0.00     0.198 A 
ATOM     66  C   UNL A   1      38.590  33.953  38.651  1.00  0.00     0.198 A 
ATOM     67  F   UNL A   1      38.219  31.907  37.551  1.00  0.00    -0.203 F 
ATOM     68  F   UNL A   1      40.672  36.780  37.752  1.00  0.00    -0.200 F 
ATOM     69  C   UNL A   1      39.209  35.193  38.710  1.00  0.00     0.200 A 
ATOM     70  F   UNL A   1      37.765  33.570  39.637  1.00  0.00    -0.200 F 
ATOM     71  F   UNL A   1      38.999  36.000  39.760  1.00  0.00    -0.200 F 
ENDBRANCH  47  61
BRANCH  48  72
ATOM     72  C   UNL A   1      40.700  27.713  28.433  1.00  0.00     0.064 A 
ATOM     73  C   UNL A   1      41.472  28.139  27.342  1.00  0.00     0.173 A 
ATOM     74  C   UNL A   1      40.074  26.463  28.339  1.00  0.00     0.173 A 
ATOM     75  F   UNL A   1      42.074  29.338  27.376  1.00  0.00    -0.203 F 
ATOM     76  C   UNL A   1      41.586  27.361  26.192  1.00  0.00     0.198 A 
ATOM     77  C   UNL A   1      40.213  25.671  27.200  1.00  0.00     0.198 A 
ATOM     78  F   UNL A   1      39.327  26.006  29.355  1.00  0.00    -0.203 F 
ATOM     79  F   UNL A   1      42.282  27.820  25.142  1.00  0.00    -0.200 F 
ATOM     80  C   UNL A   1      40.960  26.126  26.123  1.00  0.00     0.200 A 
ATOM     81  F   UNL A   1      39.617  24.473  27.141  1.00  0.00    -0.200 F 
ATOM     82  F   UNL A   1      41.066  25.381  25.015  1.00  0.00    -0.200 F 
ENDBRANCH  48  72
BRANCH  60  83
ATOM     83  C   UNL A   1      44.020  28.103  34.538  1.00  0.00     0.064 A 
ATOM     84  C   UNL A   1      45.352  28.528  34.423  1.00  0.00     0.173 A 
ATOM     85  C   UNL A   1      43.765  26.925  35.256  1.00  0.00     0.173 A 
ATOM     86  F   UNL A   1      45.648  29.639  33.733  1.00  0.00    -0.203 F 
ATOM     87  C   UNL A   1      46.389  27.787  34.983  1.00  0.00     0.198 A 
ATOM     88  C   UNL A   1      44.801  26.205  35.842  1.00  0.00     0.198 A 
ATOM     89  F   UNL A   1      42.508  26.480  35.401  1.00  0.00    -0.203 F 
ATOM     90  F   UNL A   1      47.658  28.185  34.819  1.00  0.00    -0.200 F 
ATOM     91  C   UNL A   1      46.112  26.631  35.698  1.00  0.00     0.200 A 
ATOM     92  F   UNL A   1      44.530  25.095  36.544  1.00  0.00    -0.200 F 
ATOM     93  F   UNL A   1      47.112  25.924  36.242  1.00  0.00    -0.200 F 
ENDBRANCH  60  83
ENDBRANCH  34  35
ENDBRANCH  26  29
ENDBRANCH  24  25
ENDBRANCH   1  24
TORSDOF 12
ENDMDL
