MODEL 1
REMARK VINA RESULT:     -12.6      0.000      0.000
REMARK SMILES COc1ccc(NC(=O)[C@H](CC(=O)NCCCCNC(=O)c2ccc(-c3c4nc(c(-c5c(F)c(F)c(F)c(F)c5F)c5ccc([nH]5)c(-c5c(F)c(F)c(F)c(F)c5F)c5nc(c(-c6c(F)c(F)c(F)c(F)c6F)c6ccc3[nH]6)C=C5)C=C4)cc2)Cc2ccccc2)cc1
REMARK SMILES IDX 15 1 14 2 12 3 13 4 11 6 10 7 8 8 7 9 9 11 6 12 3 13 4 14
REMARK SMILES IDX 93 15 5 16 92 17 2 18 1 19 85 20 86 21 87 22 91 23 88 24
REMARK SMILES IDX 90 25 89 26 16 27 17 28 18 29 19 30 20 31 21 33 22 34 23 35
REMARK SMILES IDX 84 36 24 37 83 38 25 39 26 40 27 41 77 42 28 43 82 44 76 45
REMARK SMILES IDX 78 46 29 47 81 48 75 49 74 50 30 52 62 53 42 54 61 55 43 56
REMARK SMILES IDX 46 57 60 58 79 59 44 60 45 61 59 63 80 64 47 65 31 66 32 67
REMARK SMILES IDX 40 68 33 69 34 70 38 71 41 72 35 73 36 74 39 75 37 76 63 77
REMARK SMILES IDX 64 78 72 79 65 80 66 81 70 82 73 83 67 84 68 85 71 86 69 87
REMARK SMILES IDX 48 88 49 89 57 90 50 91 51 92 55 93 58 94 52 95 53 96 56 97
REMARK SMILES IDX 54 98
REMARK H PARENT 14 5 7 10 19 32 78 51 46 62
REMARK Flexibility Score: inf
ROOT
ATOM      1  C   UNL A   1      33.029  30.270  26.276  1.00  0.00     0.116 C 
ENDROOT
BRANCH   1   2
ATOM      2  N   UNL A   1      33.350  29.499  25.099  1.00  0.00    -0.356 N 
ATOM      3  C   UNL A   1      33.766  28.217  24.982  1.00  0.00     0.220 C 
ATOM      4  O   UNL A   1      34.073  27.820  23.857  1.00  0.00    -0.275 OA
ATOM      5  H   UNL A   1      33.250  29.982  24.246  1.00  0.00     0.163 HD
BRANCH   3   6
ATOM      6  C   UNL A   1      33.673  27.269  26.155  1.00  0.00     0.113 C 
BRANCH   6   7
ATOM      7  C   UNL A   1      33.373  25.780  25.925  1.00  0.00     0.092 C 
BRANCH   7   8
ATOM      8  C   UNL A   1      31.978  25.322  26.374  1.00  0.00     0.228 C 
ATOM      9  N   UNL A   1      31.551  24.028  26.468  1.00  0.00    -0.326 N 
ATOM     10  H   UNL A   1      30.617  23.941  26.766  1.00  0.00     0.169 HD
ATOM     11  O   UNL A   1      31.140  26.192  26.651  1.00  0.00    -0.274 OA
BRANCH   9  12
ATOM     12  C   UNL A   1      32.183  22.800  26.225  1.00  0.00     0.041 A 
ATOM     13  C   UNL A   1      33.719  20.642  25.309  1.00  0.00     0.119 A 
ATOM     14  C   UNL A   1      33.983  21.222  26.548  1.00  0.00     0.048 A 
ATOM     15  C   UNL A   1      32.588  21.042  24.602  1.00  0.00     0.048 A 
ATOM     16  C   UNL A   1      33.193  22.275  27.021  1.00  0.00     0.030 A 
ATOM     17  C   UNL A   1      31.811  22.110  25.067  1.00  0.00     0.030 A 
BRANCH  13  18
ATOM     18  O   UNL A   1      34.625  19.703  24.902  1.00  0.00    -0.497 OA
ATOM     19  C   UNL A   1      34.081  18.473  24.430  1.00  0.00     0.278 C 
ENDBRANCH  13  18
ENDBRANCH   9  12
ENDBRANCH   7   8
BRANCH   7  20
ATOM     20  C   UNL A   1      33.631  25.222  24.514  1.00  0.00     0.049 C 
BRANCH  20  21
ATOM     21  C   UNL A   1      34.878  24.382  24.441  1.00  0.00    -0.047 A 
ATOM     22  C   UNL A   1      35.114  23.539  23.346  1.00  0.00     0.004 A 
ATOM     23  C   UNL A   1      35.761  24.358  25.528  1.00  0.00     0.004 A 
ATOM     24  C   UNL A   1      36.190  22.652  23.365  1.00  0.00     0.000 A 
ATOM     25  C   UNL A   1      36.830  23.466  25.545  1.00  0.00     0.000 A 
ATOM     26  C   UNL A   1      37.038  22.606  24.470  1.00  0.00     0.000 A 
ENDBRANCH  20  21
ENDBRANCH   7  20
ENDBRANCH   6   7
ENDBRANCH   3   6
ENDBRANCH   1   2
BRANCH   1  27
ATOM     27  C   UNL A   1      31.580  30.750  26.204  1.00  0.00     0.023 C 
BRANCH  27  28
ATOM     28  C   UNL A   1      31.391  32.223  26.588  1.00  0.00     0.023 C 
BRANCH  28  29
ATOM     29  C   UNL A   1      32.590  32.862  27.277  1.00  0.00     0.116 C 
BRANCH  29  30
ATOM     30  N   UNL A   1      32.346  34.245  27.650  1.00  0.00    -0.352 N 
ATOM     31  C   UNL A   1      32.981  34.999  28.602  1.00  0.00     0.251 C 
ATOM     32  H   UNL A   1      31.629  34.700  27.153  1.00  0.00     0.163 HD
ATOM     33  O   UNL A   1      32.565  36.115  28.897  1.00  0.00    -0.269 OA
BRANCH  31  34
ATOM     34  C   UNL A   1      34.154  34.437  29.296  1.00  0.00     0.039 A 
ATOM     35  C   UNL A   1      33.951  33.707  30.469  1.00  0.00     0.014 A 
ATOM     36  C   UNL A   1      35.439  34.597  28.769  1.00  0.00     0.014 A 
ATOM     37  C   UNL A   1      35.037  33.086  31.084  1.00  0.00     0.010 A 
ATOM     38  C   UNL A   1      36.508  33.917  29.345  1.00  0.00     0.010 A 
ATOM     39  C   UNL A   1      36.316  33.156  30.508  1.00  0.00    -0.014 A 
BRANCH  39  40
ATOM     40  C   UNL A   1      37.459  32.426  31.109  1.00  0.00     0.031 A 
ATOM     41  C   UNL A   1      37.960  32.795  32.476  1.00  0.00     0.074 A 
ATOM     42  C   UNL A   1      38.076  31.463  30.398  1.00  0.00     0.049 A 
ATOM     43  N   UNL A   1      38.961  32.293  33.154  1.00  0.00    -0.248 NA
ATOM     44  C   UNL A   1      37.261  33.894  33.163  1.00  0.00     0.031 C 
ATOM     45  C   UNL A   1      37.714  31.055  29.038  1.00  0.00     0.029 A 
ATOM     46  N   UNL A   1      39.138  30.656  30.715  1.00  0.00    -0.354 N 
ATOM     47  C   UNL A   1      39.015  33.016  34.338  1.00  0.00     0.074 A 
ATOM     48  C   UNL A   1      37.986  34.030  34.262  1.00  0.00     0.031 C 
ATOM     49  C   UNL A   1      38.522  30.056  28.650  1.00  0.00     0.029 A 
ATOM     50  C   UNL A   1      39.480  29.778  29.715  1.00  0.00     0.049 A 
ATOM     51  H   UNL A   1      39.611  30.701  31.578  1.00  0.00     0.167 HD
ATOM     52  C   UNL A   1      39.832  32.832  35.402  1.00  0.00     0.037 A 
ATOM     53  C   UNL A   1      40.460  28.856  29.664  1.00  0.00     0.037 A 
ATOM     54  C   UNL A   1      40.842  31.809  35.478  1.00  0.00     0.049 A 
ATOM     55  C   UNL A   1      41.358  28.677  30.859  1.00  0.00     0.074 A 
ATOM     56  C   UNL A   1      41.680  31.500  36.534  1.00  0.00     0.029 A 
ATOM     57  N   UNL A   1      41.155  30.932  34.449  1.00  0.00    -0.354 N 
ATOM     58  N   UNL A   1      41.348  29.312  32.005  1.00  0.00    -0.248 NA
ATOM     59  C   UNL A   1      42.401  27.647  30.752  1.00  0.00     0.031 C 
ATOM     60  C   UNL A   1      42.536  30.471  36.127  1.00  0.00     0.029 A 
ATOM     61  C   UNL A   1      42.193  30.099  34.837  1.00  0.00     0.049 A 
ATOM     62  H   UNL A   1      40.707  30.904  33.573  1.00  0.00     0.167 HD
ATOM     63  C   UNL A   1      42.362  28.744  32.765  1.00  0.00     0.074 A 
ATOM     64  C   UNL A   1      42.952  27.698  31.956  1.00  0.00     0.031 C 
ATOM     65  C   UNL A   1      42.770  29.062  34.019  1.00  0.00     0.037 A 
BRANCH  52  66
ATOM     66  C   UNL A   1      39.665  33.757  36.574  1.00  0.00     0.064 A 
ATOM     67  C   UNL A   1      38.853  33.420  37.668  1.00  0.00     0.173 A 
ATOM     68  C   UNL A   1      40.353  34.979  36.620  1.00  0.00     0.173 A 
ATOM     69  F   UNL A   1      38.165  32.269  37.669  1.00  0.00    -0.203 F 
ATOM     70  C   UNL A   1      38.713  34.285  38.751  1.00  0.00     0.198 A 
ATOM     71  C   UNL A   1      40.236  35.827  37.719  1.00  0.00     0.198 A 
ATOM     72  F   UNL A   1      41.147  35.349  35.604  1.00  0.00    -0.203 F 
ATOM     73  F   UNL A   1      37.891  33.964  39.759  1.00  0.00    -0.200 F 
ATOM     74  C   UNL A   1      39.410  35.484  38.779  1.00  0.00     0.200 A 
ATOM     75  F   UNL A   1      40.919  36.978  37.751  1.00  0.00    -0.200 F 
ATOM     76  F   UNL A   1      39.280  36.311  39.824  1.00  0.00    -0.200 F 
ENDBRANCH  52  66
BRANCH  53  77
ATOM     77  C   UNL A   1      40.626  28.013  28.452  1.00  0.00     0.064 A 
ATOM     78  C   UNL A   1      40.000  26.763  28.352  1.00  0.00     0.173 A 
ATOM     79  C   UNL A   1      41.415  28.434  27.371  1.00  0.00     0.173 A 
ATOM     80  F   UNL A   1      39.250  26.306  29.366  1.00  0.00    -0.203 F 
ATOM     81  C   UNL A   1      40.176  25.956  27.230  1.00  0.00     0.198 A 
ATOM     82  C   UNL A   1      41.566  27.641  26.237  1.00  0.00     0.198 A 
ATOM     83  F   UNL A   1      42.031  29.625  27.414  1.00  0.00    -0.203 F 
ATOM     84  F   UNL A   1      39.606  24.744  27.182  1.00  0.00    -0.200 F 
ATOM     85  C   UNL A   1      40.955  26.398  26.170  1.00  0.00     0.200 A 
ATOM     86  F   UNL A   1      42.306  28.079  25.209  1.00  0.00    -0.200 F 
ATOM     87  F   UNL A   1      41.121  25.624  25.090  1.00  0.00    -0.200 F 
ENDBRANCH  53  77
BRANCH  65  88
ATOM     88  C   UNL A   1      43.889  28.249  34.602  1.00  0.00     0.064 A 
ATOM     89  C   UNL A   1      43.649  27.048  35.286  1.00  0.00     0.173 A 
ATOM     90  C   UNL A   1      45.222  28.662  34.449  1.00  0.00     0.173 A 
ATOM     91  F   UNL A   1      42.392  26.617  35.472  1.00  0.00    -0.203 F 
ATOM     92  C   UNL A   1      44.699  26.308  35.823  1.00  0.00     0.198 A 
ATOM     93  C   UNL A   1      46.271  27.902  34.958  1.00  0.00     0.198 A 
ATOM     94  F   UNL A   1      45.508  29.799  33.797  1.00  0.00    -0.203 F 
ATOM     95  F   UNL A   1      44.441  25.193  36.521  1.00  0.00    -0.200 F 
ATOM     96  C   UNL A   1      46.008  26.732  35.653  1.00  0.00     0.200 A 
ATOM     97  F   UNL A   1      47.536  28.305  34.779  1.00  0.00    -0.200 F 
ATOM     98  F   UNL A   1      47.018  26.015  36.166  1.00  0.00    -0.200 F 
ENDBRANCH  65  88
ENDBRANCH  39  40
ENDBRANCH  31  34
ENDBRANCH  29  30
ENDBRANCH  28  29
ENDBRANCH  27  28
ENDBRANCH   1  27
TORSDOF 17
ENDMDL
MODEL 2
REMARK VINA RESULT:     -12.5      1.068      7.436
REMARK SMILES COc1ccc(NC(=O)[C@H](CC(=O)NCCCCNC(=O)c2ccc(-c3c4nc(c(-c5c(F)c(F)c(F)c(F)c5F)c5ccc([nH]5)c(-c5c(F)c(F)c(F)c(F)c5F)c5nc(c(-c6c(F)c(F)c(F)c(F)c6F)c6ccc3[nH]6)C=C5)C=C4)cc2)Cc2ccccc2)cc1
REMARK SMILES IDX 15 1 14 2 12 3 13 4 11 6 10 7 8 8 7 9 9 11 6 12 3 13 4 14
REMARK SMILES IDX 93 15 5 16 92 17 2 18 1 19 85 20 86 21 87 22 91 23 88 24
REMARK SMILES IDX 90 25 89 26 16 27 17 28 18 29 19 30 20 31 21 33 22 34 23 35
REMARK SMILES IDX 84 36 24 37 83 38 25 39 26 40 27 41 77 42 28 43 82 44 76 45
REMARK SMILES IDX 78 46 29 47 81 48 75 49 74 50 30 52 62 53 42 54 61 55 43 56
REMARK SMILES IDX 46 57 60 58 79 59 44 60 45 61 59 63 80 64 47 65 31 66 32 67
REMARK SMILES IDX 40 68 33 69 34 70 38 71 41 72 35 73 36 74 39 75 37 76 63 77
REMARK SMILES IDX 64 78 72 79 65 80 66 81 70 82 73 83 67 84 68 85 71 86 69 87
REMARK SMILES IDX 48 88 49 89 57 90 50 91 51 92 55 93 58 94 52 95 53 96 56 97
REMARK SMILES IDX 54 98
REMARK H PARENT 14 5 7 10 19 32 78 51 46 62
REMARK Flexibility Score: inf
ROOT
ATOM      1  C   UNL A   1      33.111  30.034  26.388  1.00  0.00     0.116 C 
ENDROOT
BRANCH   1   2
ATOM      2  N   UNL A   1      33.267  29.899  24.959  1.00  0.00    -0.356 N 
ATOM      3  C   UNL A   1      33.017  28.844  24.150  1.00  0.00     0.220 C 
ATOM      4  O   UNL A   1      33.333  28.951  22.964  1.00  0.00    -0.275 OA
ATOM      5  H   UNL A   1      33.609  30.701  24.501  1.00  0.00     0.163 HD
BRANCH   3   6
ATOM      6  C   UNL A   1      32.214  27.665  24.650  1.00  0.00     0.113 C 
BRANCH   6   7
ATOM      7  C   UNL A   1      32.486  26.256  24.102  1.00  0.00     0.092 C 
BRANCH   7   8
ATOM      8  C   UNL A   1      31.546  25.805  22.975  1.00  0.00     0.228 C 
ATOM      9  N   UNL A   1      31.088  24.534  22.773  1.00  0.00    -0.326 N 
ATOM     10  H   UNL A   1      30.502  24.446  21.987  1.00  0.00     0.169 HD
ATOM     11  O   UNL A   1      31.185  26.652  22.144  1.00  0.00    -0.274 OA
BRANCH   9  12
ATOM     12  C   UNL A   1      31.289  23.332  23.466  1.00  0.00     0.041 A 
ATOM     13  C   UNL A   1      32.259  21.075  24.815  1.00  0.00     0.119 A 
ATOM     14  C   UNL A   1      31.546  22.056  25.500  1.00  0.00     0.048 A 
ATOM     15  C   UNL A   1      32.349  21.150  23.427  1.00  0.00     0.048 A 
ATOM     16  C   UNL A   1      31.030  23.164  24.821  1.00  0.00     0.030 A 
ATOM     17  C   UNL A   1      31.851  22.270  22.751  1.00  0.00     0.030 A 
BRANCH  13  18
ATOM     18  O   UNL A   1      32.811  20.102  25.599  1.00  0.00    -0.497 OA
ATOM     19  C   UNL A   1      33.810  19.294  24.984  1.00  0.00     0.278 C 
ENDBRANCH  13  18
ENDBRANCH   9  12
ENDBRANCH   7   8
BRANCH   7  20
ATOM     20  C   UNL A   1      33.931  25.933  23.682  1.00  0.00     0.049 C 
BRANCH  20  21
ATOM     21  C   UNL A   1      34.450  24.669  24.312  1.00  0.00    -0.047 A 
ATOM     22  C   UNL A   1      34.377  24.473  25.698  1.00  0.00     0.004 A 
ATOM     23  C   UNL A   1      35.112  23.722  23.520  1.00  0.00     0.004 A 
ATOM     24  C   UNL A   1      35.002  23.372  26.284  1.00  0.00     0.000 A 
ATOM     25  C   UNL A   1      35.740  22.627  24.110  1.00  0.00     0.000 A 
ATOM     26  C   UNL A   1      35.694  22.458  25.492  1.00  0.00     0.000 A 
ENDBRANCH  20  21
ENDBRANCH   7  20
ENDBRANCH   6   7
ENDBRANCH   3   6
ENDBRANCH   1   2
BRANCH   1  27
ATOM     27  C   UNL A   1      31.700  30.523  26.713  1.00  0.00     0.023 C 
BRANCH  27  28
ATOM     28  C   UNL A   1      31.556  32.050  26.720  1.00  0.00     0.023 C 
BRANCH  28  29
ATOM     29  C   UNL A   1      32.758  32.803  27.276  1.00  0.00     0.116 C 
BRANCH  29  30
ATOM     30  N   UNL A   1      32.445  34.181  27.612  1.00  0.00    -0.352 N 
ATOM     31  C   UNL A   1      33.001  34.973  28.583  1.00  0.00     0.251 C 
ATOM     32  H   UNL A   1      31.739  34.602  27.070  1.00  0.00     0.163 HD
ATOM     33  O   UNL A   1      32.529  36.076  28.837  1.00  0.00    -0.269 OA
BRANCH  31  34
ATOM     34  C   UNL A   1      34.155  34.464  29.347  1.00  0.00     0.039 A 
ATOM     35  C   UNL A   1      33.921  33.832  30.570  1.00  0.00     0.014 A 
ATOM     36  C   UNL A   1      35.453  34.578  28.839  1.00  0.00     0.014 A 
ATOM     37  C   UNL A   1      34.989  33.258  31.258  1.00  0.00     0.010 A 
ATOM     38  C   UNL A   1      36.504  33.944  29.493  1.00  0.00     0.010 A 
ATOM     39  C   UNL A   1      36.282  33.279  30.709  1.00  0.00    -0.014 A 
BRANCH  39  40
ATOM     40  C   UNL A   1      37.408  32.596  31.392  1.00  0.00     0.031 A 
ATOM     41  C   UNL A   1      38.104  31.440  30.734  1.00  0.00     0.074 A 
ATOM     42  C   UNL A   1      37.767  32.991  32.628  1.00  0.00     0.049 A 
ATOM     43  N   UNL A   1      39.087  30.701  31.184  1.00  0.00    -0.248 NA
ATOM     44  C   UNL A   1      37.614  31.041  29.404  1.00  0.00     0.031 C 
ATOM     45  C   UNL A   1      37.129  34.066  33.391  1.00  0.00     0.029 A 
ATOM     46  N   UNL A   1      38.754  32.532  33.464  1.00  0.00    -0.354 N 
ATOM     47  C   UNL A   1      39.326  29.751  30.200  1.00  0.00     0.074 A 
ATOM     48  C   UNL A   1      38.348  29.967  29.156  1.00  0.00     0.031 C 
ATOM     49  C   UNL A   1      37.757  34.202  34.570  1.00  0.00     0.029 A 
ATOM     50  C   UNL A   1      38.817  33.202  34.661  1.00  0.00     0.049 A 
ATOM     51  H   UNL A   1      39.359  31.792  33.227  1.00  0.00     0.167 HD
ATOM     52  C   UNL A   1      40.291  28.802  30.160  1.00  0.00     0.037 A 
ATOM     53  C   UNL A   1      39.636  33.026  35.715  1.00  0.00     0.037 A 
ATOM     54  C   UNL A   1      41.272  28.603  31.195  1.00  0.00     0.049 A 
ATOM     55  C   UNL A   1      40.695  31.959  35.647  1.00  0.00     0.074 A 
ATOM     56  C   UNL A   1      42.328  27.711  31.224  1.00  0.00     0.029 A 
ATOM     57  N   UNL A   1      41.311  29.307  32.391  1.00  0.00    -0.354 N 
ATOM     58  N   UNL A   1      40.965  31.119  34.678  1.00  0.00    -0.248 NA
ATOM     59  C   UNL A   1      41.569  31.821  36.821  1.00  0.00     0.031 C 
ATOM     60  C   UNL A   1      42.975  27.837  32.457  1.00  0.00     0.029 A 
ATOM     61  C   UNL A   1      42.358  28.849  33.175  1.00  0.00     0.049 A 
ATOM     62  H   UNL A   1      40.688  30.025  32.644  1.00  0.00     0.167 HD
ATOM     63  C   UNL A   1      42.051  30.371  35.110  1.00  0.00     0.074 A 
ATOM     64  C   UNL A   1      42.405  30.873  36.422  1.00  0.00     0.031 C 
ATOM     65  C   UNL A   1      42.696  29.359  34.480  1.00  0.00     0.037 A 
BRANCH  52  66
ATOM     66  C   UNL A   1      40.334  27.905  28.956  1.00  0.00     0.064 A 
ATOM     67  C   UNL A   1      41.089  28.235  27.820  1.00  0.00     0.173 A 
ATOM     68  C   UNL A   1      39.641  26.685  28.951  1.00  0.00     0.173 A 
ATOM     69  F   UNL A   1      41.761  29.394  27.768  1.00  0.00    -0.203 F 
ATOM     70  C   UNL A   1      41.125  27.390  26.712  1.00  0.00     0.198 A 
ATOM     71  C   UNL A   1      39.705  25.829  27.854  1.00  0.00     0.198 A 
ATOM     72  F   UNL A   1      38.907  26.318  30.013  1.00  0.00    -0.203 F 
ATOM     73  F   UNL A   1      41.811  27.752  25.620  1.00  0.00    -0.200 F 
ATOM     74  C   UNL A   1      40.440  26.185  26.734  1.00  0.00     0.200 A 
ATOM     75  F   UNL A   1      39.053  24.659  27.881  1.00  0.00    -0.200 F 
ATOM     76  F   UNL A   1      40.481  25.371  25.671  1.00  0.00    -0.200 F 
ENDBRANCH  52  66
BRANCH  53  77
ATOM     77  C   UNL A   1      39.505  33.896  36.912  1.00  0.00     0.064 A 
ATOM     78  C   UNL A   1      40.137  35.146  36.968  1.00  0.00     0.173 A 
ATOM     79  C   UNL A   1      38.752  33.498  38.027  1.00  0.00     0.173 A 
ATOM     80  F   UNL A   1      40.885  35.565  35.935  1.00  0.00    -0.203 F 
ATOM     81  C   UNL A   1      40.042  35.953  38.100  1.00  0.00     0.198 A 
ATOM     82  C   UNL A   1      38.632  34.318  39.146  1.00  0.00     0.198 A 
ATOM     83  F   UNL A   1      38.122  32.314  38.022  1.00  0.00    -0.203 F 
ATOM     84  F   UNL A   1      40.697  37.121  38.145  1.00  0.00    -0.200 F 
ATOM     85  C   UNL A   1      39.284  35.540  39.186  1.00  0.00     0.200 A 
ATOM     86  F   UNL A   1      37.886  33.923  40.186  1.00  0.00    -0.200 F 
ATOM     87  F   UNL A   1      39.190  36.318  40.273  1.00  0.00    -0.200 F 
ENDBRANCH  53  77
BRANCH  65  88
ATOM     88  C   UNL A   1      43.868  28.746  35.190  1.00  0.00     0.064 A 
ATOM     89  C   UNL A   1      45.170  29.247  35.033  1.00  0.00     0.173 A 
ATOM     90  C   UNL A   1      43.684  27.662  36.063  1.00  0.00     0.173 A 
ATOM     91  F   UNL A   1      45.402  30.273  34.199  1.00  0.00    -0.203 F 
ATOM     92  C   UNL A   1      46.246  28.665  35.697  1.00  0.00     0.198 A 
ATOM     93  C   UNL A   1      44.757  27.104  36.751  1.00  0.00     0.198 A 
ATOM     94  F   UNL A   1      42.459  27.149  36.255  1.00  0.00    -0.203 F 
ATOM     95  F   UNL A   1      47.487  29.125  35.488  1.00  0.00    -0.200 F 
ATOM     96  C   UNL A   1      46.038  27.599  36.560  1.00  0.00     0.200 A 
ATOM     97  F   UNL A   1      44.553  26.085  37.596  1.00  0.00    -0.200 F 
ATOM     98  F   UNL A   1      47.075  27.044  37.202  1.00  0.00    -0.200 F 
ENDBRANCH  65  88
ENDBRANCH  39  40
ENDBRANCH  31  34
ENDBRANCH  29  30
ENDBRANCH  28  29
ENDBRANCH  27  28
ENDBRANCH   1  27
TORSDOF 17
ENDMDL
MODEL 3
REMARK VINA RESULT:     -12.4      5.296      9.820
REMARK SMILES COc1ccc(NC(=O)[C@H](CC(=O)NCCCCNC(=O)c2ccc(-c3c4nc(c(-c5c(F)c(F)c(F)c(F)c5F)c5ccc([nH]5)c(-c5c(F)c(F)c(F)c(F)c5F)c5nc(c(-c6c(F)c(F)c(F)c(F)c6F)c6ccc3[nH]6)C=C5)C=C4)cc2)Cc2ccccc2)cc1
REMARK SMILES IDX 15 1 14 2 12 3 13 4 11 6 10 7 8 8 7 9 9 11 6 12 3 13 4 14
REMARK SMILES IDX 93 15 5 16 92 17 2 18 1 19 85 20 86 21 87 22 91 23 88 24
REMARK SMILES IDX 90 25 89 26 16 27 17 28 18 29 19 30 20 31 21 33 22 34 23 35
REMARK SMILES IDX 84 36 24 37 83 38 25 39 26 40 27 41 77 42 28 43 82 44 76 45
REMARK SMILES IDX 78 46 29 47 81 48 75 49 74 50 30 52 62 53 42 54 61 55 43 56
REMARK SMILES IDX 46 57 60 58 79 59 44 60 45 61 59 63 80 64 47 65 31 66 32 67
REMARK SMILES IDX 40 68 33 69 34 70 38 71 41 72 35 73 36 74 39 75 37 76 63 77
REMARK SMILES IDX 64 78 72 79 65 80 66 81 70 82 73 83 67 84 68 85 71 86 69 87
REMARK SMILES IDX 48 88 49 89 57 90 50 91 51 92 55 93 58 94 52 95 53 96 56 97
REMARK SMILES IDX 54 98
REMARK H PARENT 14 5 7 10 19 32 78 51 46 62
REMARK Flexibility Score: inf
ROOT
ATOM      1  C   UNL A   1      37.210  22.203  24.885  1.00  0.00     0.116 C 
ENDROOT
BRANCH   1   2
ATOM      2  N   UNL A   1      36.472  22.743  23.768  1.00  0.00    -0.356 N 
ATOM      3  C   UNL A   1      35.145  22.954  23.619  1.00  0.00     0.220 C 
ATOM      4  O   UNL A   1      34.751  23.337  22.517  1.00  0.00    -0.275 OA
ATOM      5  H   UNL A   1      37.022  22.998  22.991  1.00  0.00     0.163 HD
BRANCH   3   6
ATOM      6  C   UNL A   1      34.220  22.901  24.813  1.00  0.00     0.113 C 
BRANCH   6   7
ATOM      7  C   UNL A   1      33.085  23.927  24.959  1.00  0.00     0.092 C 
BRANCH   7   8
ATOM      8  C   UNL A   1      31.669  23.358  24.787  1.00  0.00     0.228 C 
ATOM      9  N   UNL A   1      30.629  23.977  24.154  1.00  0.00    -0.326 N 
ATOM     10  H   UNL A   1      29.796  23.451  24.158  1.00  0.00     0.169 HD
ATOM     11  O   UNL A   1      31.421  22.252  25.288  1.00  0.00    -0.274 OA
BRANCH   9  12
ATOM     12  C   UNL A   1      30.514  25.211  23.500  1.00  0.00     0.041 A 
ATOM     13  C   UNL A   1      30.552  27.889  22.674  1.00  0.00     0.119 A 
ATOM     14  C   UNL A   1      31.359  26.944  22.045  1.00  0.00     0.048 A 
ATOM     15  C   UNL A   1      29.613  27.461  23.610  1.00  0.00     0.048 A 
ATOM     16  C   UNL A   1      31.313  25.602  22.433  1.00  0.00     0.030 A 
ATOM     17  C   UNL A   1      29.584  26.120  24.012  1.00  0.00     0.030 A 
BRANCH  13  18
ATOM     18  O   UNL A   1      30.765  29.184  22.292  1.00  0.00    -0.497 OA
ATOM     19  C   UNL A   1      29.605  29.930  21.934  1.00  0.00     0.278 C 
ENDBRANCH  13  18
ENDBRANCH   9  12
ENDBRANCH   7   8
BRANCH   7  20
ATOM     20  C   UNL A   1      33.098  24.812  26.218  1.00  0.00     0.049 C 
BRANCH  20  21
ATOM     21  C   UNL A   1      32.892  26.270  25.905  1.00  0.00    -0.047 A 
ATOM     22  C   UNL A   1      33.710  26.929  24.978  1.00  0.00     0.004 A 
ATOM     23  C   UNL A   1      31.942  27.005  26.627  1.00  0.00     0.004 A 
ATOM     24  C   UNL A   1      33.611  28.311  24.814  1.00  0.00     0.000 A 
ATOM     25  C   UNL A   1      31.851  28.385  26.465  1.00  0.00     0.000 A 
ATOM     26  C   UNL A   1      32.692  29.039  25.567  1.00  0.00     0.000 A 
ENDBRANCH  20  21
ENDBRANCH   7  20
ENDBRANCH   6   7
ENDBRANCH   3   6
ENDBRANCH   1   2
BRANCH   1  27
ATOM     27  C   UNL A   1      36.869  20.724  25.067  1.00  0.00     0.023 C 
BRANCH  27  28
ATOM     28  C   UNL A   1      38.073  19.785  24.926  1.00  0.00     0.023 C 
BRANCH  28  29
ATOM     29  C   UNL A   1      39.294  20.184  25.746  1.00  0.00     0.116 C 
BRANCH  29  30
ATOM     30  N   UNL A   1      40.253  19.100  25.879  1.00  0.00    -0.352 N 
ATOM     31  C   UNL A   1      41.600  19.175  26.121  1.00  0.00     0.251 C 
ATOM     32  H   UNL A   1      39.886  18.192  25.782  1.00  0.00     0.163 HD
ATOM     33  O   UNL A   1      42.302  18.171  26.067  1.00  0.00    -0.269 OA
BRANCH  31  34
ATOM     34  C   UNL A   1      42.203  20.488  26.413  1.00  0.00     0.039 A 
ATOM     35  C   UNL A   1      42.631  21.280  25.346  1.00  0.00     0.014 A 
ATOM     36  C   UNL A   1      42.308  20.948  27.730  1.00  0.00     0.014 A 
ATOM     37  C   UNL A   1      43.111  22.564  25.597  1.00  0.00     0.010 A 
ATOM     38  C   UNL A   1      42.722  22.255  27.970  1.00  0.00     0.010 A 
ATOM     39  C   UNL A   1      43.128  23.074  26.906  1.00  0.00    -0.014 A 
BRANCH  39  40
ATOM     40  C   UNL A   1      43.557  24.469  27.171  1.00  0.00     0.031 A 
ATOM     41  C   UNL A   1      42.574  25.477  27.694  1.00  0.00     0.074 A 
ATOM     42  C   UNL A   1      44.822  24.836  26.893  1.00  0.00     0.049 A 
ATOM     43  N   UNL A   1      42.753  26.746  27.961  1.00  0.00    -0.248 NA
ATOM     44  C   UNL A   1      41.198  25.004  27.923  1.00  0.00     0.031 C 
ATOM     45  C   UNL A   1      45.851  23.959  26.331  1.00  0.00     0.029 A 
ATOM     46  N   UNL A   1      45.458  26.043  27.041  1.00  0.00    -0.354 N 
ATOM     47  C   UNL A   1      41.518  27.222  28.380  1.00  0.00     0.074 A 
ATOM     48  C   UNL A   1      40.583  26.122  28.276  1.00  0.00     0.031 C 
ATOM     49  C   UNL A   1      46.996  24.649  26.207  1.00  0.00     0.029 A 
ATOM     50  C   UNL A   1      46.773  26.023  26.645  1.00  0.00     0.049 A 
ATOM     51  H   UNL A   1      45.013  26.846  27.396  1.00  0.00     0.167 HD
ATOM     52  C   UNL A   1      41.200  28.457  28.835  1.00  0.00     0.037 A 
ATOM     53  C   UNL A   1      47.694  27.005  26.635  1.00  0.00     0.037 A 
ATOM     54  C   UNL A   1      42.139  29.541  28.953  1.00  0.00     0.049 A 
ATOM     55  C   UNL A   1      47.311  28.371  27.140  1.00  0.00     0.074 A 
ATOM     56  C   UNL A   1      41.932  30.812  29.459  1.00  0.00     0.029 A 
ATOM     57  N   UNL A   1      43.466  29.483  28.551  1.00  0.00    -0.354 N 
ATOM     58  N   UNL A   1      46.161  28.788  27.610  1.00  0.00    -0.248 NA
ATOM     59  C   UNL A   1      48.360  29.400  27.119  1.00  0.00     0.031 C 
ATOM     60  C   UNL A   1      43.117  31.539  29.316  1.00  0.00     0.029 A 
ATOM     61  C   UNL A   1      44.082  30.705  28.773  1.00  0.00     0.049 A 
ATOM     62  H   UNL A   1      43.905  28.691  28.165  1.00  0.00     0.167 HD
ATOM     63  C   UNL A   1      46.352  30.117  27.963  1.00  0.00     0.074 A 
ATOM     64  C   UNL A   1      47.735  30.429  27.673  1.00  0.00     0.031 C 
ATOM     65  C   UNL A   1      45.461  31.000  28.478  1.00  0.00     0.037 A 
BRANCH  52  66
ATOM     66  C   UNL A   1      39.774  28.701  29.242  1.00  0.00     0.064 A 
ATOM     67  C   UNL A   1      39.332  28.461  30.552  1.00  0.00     0.173 A 
ATOM     68  C   UNL A   1      38.848  29.215  28.322  1.00  0.00     0.173 A 
ATOM     69  F   UNL A   1      40.174  27.960  31.469  1.00  0.00    -0.203 F 
ATOM     70  C   UNL A   1      38.008  28.698  30.918  1.00  0.00     0.198 A 
ATOM     71  C   UNL A   1      37.534  29.480  28.699  1.00  0.00     0.198 A 
ATOM     72  F   UNL A   1      39.218  29.467  27.057  1.00  0.00    -0.203 F 
ATOM     73  F   UNL A   1      37.598  28.412  32.161  1.00  0.00    -0.200 F 
ATOM     74  C   UNL A   1      37.113  29.214  29.993  1.00  0.00     0.200 A 
ATOM     75  F   UNL A   1      36.674  29.991  27.809  1.00  0.00    -0.200 F 
ATOM     76  F   UNL A   1      35.844  29.449  30.348  1.00  0.00    -0.200 F 
ENDBRANCH  52  66
BRANCH  53  77
ATOM     77  C   UNL A   1      49.073  26.728  26.156  1.00  0.00     0.064 A 
ATOM     78  C   UNL A   1      49.442  26.990  24.830  1.00  0.00     0.173 A 
ATOM     79  C   UNL A   1      50.049  26.191  27.010  1.00  0.00     0.173 A 
ATOM     80  F   UNL A   1      48.539  27.485  23.969  1.00  0.00    -0.203 F 
ATOM     81  C   UNL A   1      50.725  26.704  24.368  1.00  0.00     0.198 A 
ATOM     82  C   UNL A   1      51.340  25.934  26.556  1.00  0.00     0.198 A 
ATOM     83  F   UNL A   1      49.749  25.928  28.290  1.00  0.00    -0.203 F 
ATOM     84  F   UNL A   1      51.036  26.919  23.083  1.00  0.00    -0.200 F 
ATOM     85  C   UNL A   1      51.675  26.182  25.233  1.00  0.00     0.200 A 
ATOM     86  F   UNL A   1      52.259  25.444  27.399  1.00  0.00    -0.200 F 
ATOM     87  F   UNL A   1      52.910  25.910  24.791  1.00  0.00    -0.200 F 
ENDBRANCH  53  77
BRANCH  65  88
ATOM     88  C   UNL A   1      45.965  32.380  28.787  1.00  0.00     0.064 A 
ATOM     89  C   UNL A   1      45.881  33.422  27.851  1.00  0.00     0.173 A 
ATOM     90  C   UNL A   1      46.513  32.671  30.046  1.00  0.00     0.173 A 
ATOM     91  F   UNL A   1      45.379  33.192  26.628  1.00  0.00    -0.203 F 
ATOM     92  C   UNL A   1      46.356  34.695  28.154  1.00  0.00     0.198 A 
ATOM     93  C   UNL A   1      46.957  33.954  30.356  1.00  0.00     0.198 A 
ATOM     94  F   UNL A   1      46.611  31.713  30.980  1.00  0.00    -0.203 F 
ATOM     95  F   UNL A   1      46.315  35.660  27.224  1.00  0.00    -0.200 F 
ATOM     96  C   UNL A   1      46.887  34.962  29.407  1.00  0.00     0.200 A 
ATOM     97  F   UNL A   1      47.455  34.213  31.572  1.00  0.00    -0.200 F 
ATOM     98  F   UNL A   1      47.338  36.190  29.697  1.00  0.00    -0.200 F 
ENDBRANCH  65  88
ENDBRANCH  39  40
ENDBRANCH  31  34
ENDBRANCH  29  30
ENDBRANCH  28  29
ENDBRANCH  27  28
ENDBRANCH   1  27
TORSDOF 17
ENDMDL
