MODEL 1
REMARK VINA RESULT:     -13.7      0.000      0.000
REMARK SMILES O=C(Cn1nc(-c2ccccc2)ccc1=O)N[C@@H](C(=O)NCCCCNC(=O)c1ccc(-c2c3nc(c(-c4c(F)c(F)c(F)c(F)c4F)c4ccc([nH]4)c(-c4c(F)c(F)c(F)c(F)c4F)c4nc(c(-c5c(F)c(F)c(F)c(F)c5F)c5ccc2[nH]5)C=C4)C=C3)cc1)c1ccccc1
REMARK SMILES IDX 22 1 21 2 19 3 20 4 18 6 17 7 1 8 2 9 3 11 4 12 5 13 15 14
REMARK SMILES IDX 6 15 14 16 16 17 13 18 7 19 8 20 12 21 9 22 11 23 10 24
REMARK SMILES IDX 92 25 93 26 97 27 94 28 96 29 95 30 23 31 24 32 25 33 26 34
REMARK SMILES IDX 27 35 28 37 29 38 30 39 91 40 31 41 90 42 32 43 33 44 34 45
REMARK SMILES IDX 84 46 35 47 89 48 83 49 85 50 36 51 88 52 82 53 81 54 37 56
REMARK SMILES IDX 69 57 49 58 68 59 50 60 53 61 67 62 86 63 51 64 52 65 66 67
REMARK SMILES IDX 87 68 54 69 38 70 39 71 47 72 40 73 41 74 45 75 48 76 42 77
REMARK SMILES IDX 43 78 46 79 44 80 70 81 71 82 79 83 72 84 73 85 77 86 80 87
REMARK SMILES IDX 74 88 75 89 78 90 76 91 55 92 56 93 64 94 57 95 58 96 62 97
REMARK SMILES IDX 65 98 59 99 60 100 63 101 61 102
REMARK H PARENT 21 5 17 10 26 36 85 55 53 66
REMARK Flexibility Score: inf
ROOT
ATOM      1  C   UNL A   1      36.520  22.500  25.183  1.00  0.00     0.116 C 
ENDROOT
BRANCH   1   2
ATOM      2  N   UNL A   1      35.791  21.835  26.246  1.00  0.00    -0.354 N 
ATOM      3  C   UNL A   1      34.496  21.384  26.230  1.00  0.00     0.247 C 
ATOM      4  O   UNL A   1      33.964  21.208  27.330  1.00  0.00    -0.272 OA
ATOM      5  H   UNL A   1      36.288  21.690  27.083  1.00  0.00     0.163 HD
BRANCH   3   6
ATOM      6  C   UNL A   1      33.752  21.214  24.874  1.00  0.00     0.202 C 
BRANCH   6   7
ATOM      7  N   UNL A   1      32.450  21.853  25.052  1.00  0.00    -0.339 N 
ATOM      8  O   UNL A   1      32.589  23.222  23.222  1.00  0.00    -0.273 OA
ATOM      9  C   UNL A   1      31.971  22.832  24.211  1.00  0.00     0.242 C 
ATOM     10  H   UNL A   1      31.889  21.569  25.809  1.00  0.00     0.164 HD
BRANCH   9  11
ATOM     11  C   UNL A   1      30.673  23.497  24.666  1.00  0.00     0.248 C 
BRANCH  11  12
ATOM     12  N   UNL A   1      30.757  24.912  24.989  1.00  0.00    -0.220 N 
ATOM     13  N   UNL A   1      30.166  25.810  24.133  1.00  0.00    -0.169 NA
ATOM     14  C   UNL A   1      31.404  25.274  26.164  1.00  0.00     0.267 A 
ATOM     15  C   UNL A   1      30.317  27.070  24.391  1.00  0.00     0.091 A 
ATOM     16  C   UNL A   1      31.530  26.724  26.417  1.00  0.00     0.075 A 
ATOM     17  O   UNL A   1      31.870  24.482  26.979  1.00  0.00    -0.268 OA
ATOM     18  C   UNL A   1      31.027  27.616  25.563  1.00  0.00     0.036 A 
BRANCH  15  19
ATOM     19  C   UNL A   1      29.746  28.064  23.464  1.00  0.00     0.002 A 
ATOM     20  C   UNL A   1      30.606  28.895  22.743  1.00  0.00     0.010 A 
ATOM     21  C   UNL A   1      28.359  28.209  23.367  1.00  0.00     0.010 A 
ATOM     22  C   UNL A   1      30.071  29.864  21.897  1.00  0.00     0.001 A 
ATOM     23  C   UNL A   1      27.831  29.188  22.526  1.00  0.00     0.001 A 
ATOM     24  C   UNL A   1      28.686  30.011  21.789  1.00  0.00     0.000 A 
ENDBRANCH  15  19
ENDBRANCH  11  12
ENDBRANCH   9  11
ENDBRANCH   6   7
BRANCH   6  25
ATOM     25  C   UNL A   1      33.609  19.771  24.387  1.00  0.00    -0.016 A 
ATOM     26  C   UNL A   1      34.566  18.782  24.673  1.00  0.00     0.006 A 
ATOM     27  C   UNL A   1      32.552  19.421  23.528  1.00  0.00     0.006 A 
ATOM     28  C   UNL A   1      34.435  17.481  24.177  1.00  0.00     0.000 A 
ATOM     29  C   UNL A   1      32.427  18.126  23.023  1.00  0.00     0.000 A 
ATOM     30  C   UNL A   1      33.361  17.151  23.357  1.00  0.00     0.000 A 
ENDBRANCH   6  25
ENDBRANCH   3   6
ENDBRANCH   1   2
BRANCH   1  31
ATOM     31  C   UNL A   1      37.248  21.477  24.308  1.00  0.00     0.023 C 
BRANCH  31  32
ATOM     32  C   UNL A   1      37.825  20.282  25.073  1.00  0.00     0.023 C 
BRANCH  32  33
ATOM     33  C   UNL A   1      39.138  20.555  25.792  1.00  0.00     0.116 C 
BRANCH  33  34
ATOM     34  N   UNL A   1      40.027  19.404  25.837  1.00  0.00    -0.352 N 
ATOM     35  C   UNL A   1      41.381  19.388  26.090  1.00  0.00     0.251 C 
ATOM     36  H   UNL A   1      39.609  18.529  25.665  1.00  0.00     0.163 HD
ATOM     37  O   UNL A   1      42.028  18.356  25.995  1.00  0.00    -0.269 OA
BRANCH  35  38
ATOM     38  C   UNL A   1      42.052  20.661  26.427  1.00  0.00     0.039 A 
ATOM     39  C   UNL A   1      42.277  21.009  27.760  1.00  0.00     0.014 A 
ATOM     40  C   UNL A   1      42.390  21.542  25.397  1.00  0.00     0.014 A 
ATOM     41  C   UNL A   1      42.681  22.301  28.070  1.00  0.00     0.010 A 
ATOM     42  C   UNL A   1      42.873  22.815  25.711  1.00  0.00     0.010 A 
ATOM     43  C   UNL A   1      42.971  23.222  27.050  1.00  0.00    -0.014 A 
BRANCH  43  44
ATOM     44  C   UNL A   1      43.353  24.610  27.411  1.00  0.00     0.031 A 
ATOM     45  C   UNL A   1      44.740  25.122  27.133  1.00  0.00     0.074 A 
ATOM     46  C   UNL A   1      42.422  25.433  27.931  1.00  0.00     0.049 A 
ATOM     47  N   UNL A   1      45.243  26.310  27.362  1.00  0.00    -0.248 NA
ATOM     48  C   UNL A   1      45.690  24.180  26.520  1.00  0.00     0.031 C 
ATOM     49  C   UNL A   1      41.040  25.054  28.227  1.00  0.00     0.029 A 
ATOM     50  N   UNL A   1      42.486  26.758  28.275  1.00  0.00    -0.354 N 
ATOM     51  C   UNL A   1      46.565  26.252  26.940  1.00  0.00     0.074 A 
ATOM     52  C   UNL A   1      46.798  24.906  26.464  1.00  0.00     0.031 C 
ATOM     53  C   UNL A   1      40.371  26.136  28.653  1.00  0.00     0.029 A 
ATOM     54  C   UNL A   1      41.292  27.267  28.720  1.00  0.00     0.049 A 
ATOM     55  H   UNL A   1      43.310  27.294  28.209  1.00  0.00     0.167 HD
ATOM     56  C   UNL A   1      47.493  27.239  26.937  1.00  0.00     0.037 A 
ATOM     57  C   UNL A   1      40.973  28.504  29.145  1.00  0.00     0.037 A 
ATOM     58  C   UNL A   1      47.250  28.585  27.384  1.00  0.00     0.049 A 
ATOM     59  C   UNL A   1      42.034  29.566  29.169  1.00  0.00     0.074 A 
ATOM     60  C   UNL A   1      48.123  29.659  27.401  1.00  0.00     0.029 A 
ATOM     61  N   UNL A   1      46.043  29.043  27.890  1.00  0.00    -0.354 N 
ATOM     62  N   UNL A   1      43.280  29.496  28.773  1.00  0.00    -0.248 NA
ATOM     63  C   UNL A   1      41.648  30.874  29.716  1.00  0.00     0.031 C 
ATOM     64  C   UNL A   1      47.457  30.757  27.951  1.00  0.00     0.029 A 
ATOM     65  C   UNL A   1      46.154  30.380  28.239  1.00  0.00     0.049 A 
ATOM     66  H   UNL A   1      45.227  28.501  27.987  1.00  0.00     0.167 HD
ATOM     67  C   UNL A   1      43.826  30.748  29.013  1.00  0.00     0.074 A 
ATOM     68  C   UNL A   1      42.769  31.567  29.570  1.00  0.00     0.031 C 
ATOM     69  C   UNL A   1      45.093  31.178  28.798  1.00  0.00     0.037 A 
BRANCH  56  70
ATOM     70  C   UNL A   1      48.868  26.905  26.437  1.00  0.00     0.064 A 
ATOM     71  C   UNL A   1      49.845  26.362  27.282  1.00  0.00     0.173 A 
ATOM     72  C   UNL A   1      49.189  27.065  25.079  1.00  0.00     0.173 A 
ATOM     73  F   UNL A   1      49.592  26.201  28.591  1.00  0.00    -0.203 F 
ATOM     74  C   UNL A   1      51.098  26.002  26.792  1.00  0.00     0.198 A 
ATOM     75  C   UNL A   1      50.434  26.681  24.587  1.00  0.00     0.198 A 
ATOM     76  F   UNL A   1      48.287  27.574  24.228  1.00  0.00    -0.203 F 
ATOM     77  F   UNL A   1      52.026  25.511  27.624  1.00  0.00    -0.200 F 
ATOM     78  C   UNL A   1      51.387  26.153  25.444  1.00  0.00     0.200 A 
ATOM     79  F   UNL A   1      50.707  26.816  23.282  1.00  0.00    -0.200 F 
ATOM     80  F   UNL A   1      52.588  25.791  24.970  1.00  0.00    -0.200 F 
ENDBRANCH  56  70
BRANCH  57  81
ATOM     81  C   UNL A   1      39.582  28.793  29.571  1.00  0.00     0.064 A 
ATOM     82  C   UNL A   1      39.170  28.553  30.888  1.00  0.00     0.173 A 
ATOM     83  C   UNL A   1      38.648  29.348  28.684  1.00  0.00     0.173 A 
ATOM     84  F   UNL A   1      40.022  28.004  31.767  1.00  0.00    -0.203 F 
ATOM     85  C   UNL A   1      37.875  28.859  31.303  1.00  0.00     0.198 A 
ATOM     86  C   UNL A   1      37.363  29.678  29.106  1.00  0.00     0.198 A 
ATOM     87  F   UNL A   1      38.997  29.598  27.413  1.00  0.00    -0.203 F 
ATOM     88  F   UNL A   1      37.498  28.598  32.561  1.00  0.00    -0.200 F 
ATOM     89  C   UNL A   1      36.976  29.429  30.414  1.00  0.00     0.200 A 
ATOM     90  F   UNL A   1      36.503  30.244  28.248  1.00  0.00    -0.200 F 
ATOM     91  F   UNL A   1      35.736  29.738  30.818  1.00  0.00    -0.200 F 
ENDBRANCH  57  81
BRANCH  69  92
ATOM     92  C   UNL A   1      45.411  32.597  29.161  1.00  0.00     0.064 A 
ATOM     93  C   UNL A   1      45.945  32.925  30.416  1.00  0.00     0.173 A 
ATOM     94  C   UNL A   1      45.240  33.629  28.226  1.00  0.00     0.173 A 
ATOM     95  F   UNL A   1      46.112  31.974  31.347  1.00  0.00    -0.203 F 
ATOM     96  C   UNL A   1      46.285  34.238  30.725  1.00  0.00     0.198 A 
ATOM     97  C   UNL A   1      45.604  34.937  28.531  1.00  0.00     0.198 A 
ATOM     98  F   UNL A   1      44.738  33.364  27.011  1.00  0.00    -0.203 F 
ATOM     99  F   UNL A   1      46.765  34.535  31.942  1.00  0.00    -0.200 F 
ATOM    100  C   UNL A   1      46.122  35.242  29.782  1.00  0.00     0.200 A 
ATOM    101  F   UNL A   1      45.458  35.903  27.614  1.00  0.00    -0.200 F 
ATOM    102  F   UNL A   1      46.463  36.503  30.078  1.00  0.00    -0.200 F 
ENDBRANCH  69  92
ENDBRANCH  43  44
ENDBRANCH  35  38
ENDBRANCH  33  34
ENDBRANCH  32  33
ENDBRANCH  31  32
ENDBRANCH   1  31
TORSDOF 16
ENDMDL
MODEL 2
REMARK VINA RESULT:     -13.6      0.483      7.095
REMARK SMILES O=C(Cn1nc(-c2ccccc2)ccc1=O)N[C@@H](C(=O)NCCCCNC(=O)c1ccc(-c2c3nc(c(-c4c(F)c(F)c(F)c(F)c4F)c4ccc([nH]4)c(-c4c(F)c(F)c(F)c(F)c4F)c4nc(c(-c5c(F)c(F)c(F)c(F)c5F)c5ccc2[nH]5)C=C4)C=C3)cc1)c1ccccc1
REMARK SMILES IDX 22 1 21 2 19 3 20 4 18 6 17 7 1 8 2 9 3 11 4 12 5 13 15 14
REMARK SMILES IDX 6 15 14 16 16 17 13 18 7 19 8 20 12 21 9 22 11 23 10 24
REMARK SMILES IDX 92 25 93 26 97 27 94 28 96 29 95 30 23 31 24 32 25 33 26 34
REMARK SMILES IDX 27 35 28 37 29 38 30 39 91 40 31 41 90 42 32 43 33 44 34 45
REMARK SMILES IDX 84 46 35 47 89 48 83 49 85 50 36 51 88 52 82 53 81 54 37 56
REMARK SMILES IDX 69 57 49 58 68 59 50 60 53 61 67 62 86 63 51 64 52 65 66 67
REMARK SMILES IDX 87 68 54 69 38 70 39 71 47 72 40 73 41 74 45 75 48 76 42 77
REMARK SMILES IDX 43 78 46 79 44 80 70 81 71 82 79 83 72 84 73 85 77 86 80 87
REMARK SMILES IDX 74 88 75 89 78 90 76 91 55 92 56 93 64 94 57 95 58 96 62 97
REMARK SMILES IDX 65 98 59 99 60 100 63 101 61 102
REMARK H PARENT 21 5 17 10 26 36 85 55 53 66
REMARK Flexibility Score: inf
ROOT
ATOM      1  C   UNL A   1      36.539  22.464  25.337  1.00  0.00     0.116 C 
ENDROOT
BRANCH   1   2
ATOM      2  N   UNL A   1      35.736  21.775  26.329  1.00  0.00    -0.354 N 
ATOM      3  C   UNL A   1      34.462  21.285  26.194  1.00  0.00     0.247 C 
ATOM      4  O   UNL A   1      33.837  21.090  27.240  1.00  0.00    -0.272 OA
ATOM      5  H   UNL A   1      36.158  21.642  27.208  1.00  0.00     0.163 HD
BRANCH   3   6
ATOM      6  C   UNL A   1      33.851  21.096  24.775  1.00  0.00     0.202 C 
BRANCH   6   7
ATOM      7  N   UNL A   1      32.559  21.779  24.805  1.00  0.00    -0.339 N 
ATOM      8  O   UNL A   1      33.057  23.331  23.197  1.00  0.00    -0.273 OA
ATOM      9  C   UNL A   1      32.265  22.867  24.016  1.00  0.00     0.242 C 
ATOM     10  H   UNL A   1      31.866  21.443  25.418  1.00  0.00     0.164 HD
BRANCH   9  11
ATOM     11  C   UNL A   1      30.930  23.545  24.319  1.00  0.00     0.248 C 
BRANCH  11  12
ATOM     12  N   UNL A   1      30.992  24.951  24.682  1.00  0.00    -0.220 N 
ATOM     13  N   UNL A   1      30.308  25.854  23.904  1.00  0.00    -0.169 NA
ATOM     14  C   UNL A   1      31.716  25.300  25.816  1.00  0.00     0.267 A 
ATOM     15  C   UNL A   1      30.438  27.110  24.190  1.00  0.00     0.091 A 
ATOM     16  C   UNL A   1      31.814  26.745  26.106  1.00  0.00     0.075 A 
ATOM     17  O   UNL A   1      32.269  24.500  26.566  1.00  0.00    -0.268 OA
ATOM     18  C   UNL A   1      31.218  27.644  25.322  1.00  0.00     0.036 A 
BRANCH  15  19
ATOM     19  C   UNL A   1      29.765  28.111  23.344  1.00  0.00     0.002 A 
ATOM     20  C   UNL A   1      30.538  29.013  22.611  1.00  0.00     0.010 A 
ATOM     21  C   UNL A   1      28.369  28.190  23.334  1.00  0.00     0.010 A 
ATOM     22  C   UNL A   1      29.906  29.988  21.841  1.00  0.00     0.001 A 
ATOM     23  C   UNL A   1      27.744  29.174  22.569  1.00  0.00     0.001 A 
ATOM     24  C   UNL A   1      28.512  30.069  21.820  1.00  0.00     0.000 A 
ENDBRANCH  15  19
ENDBRANCH  11  12
ENDBRANCH   9  11
ENDBRANCH   6   7
BRANCH   6  25
ATOM     25  C   UNL A   1      33.711  19.645  24.315  1.00  0.00    -0.016 A 
ATOM     26  C   UNL A   1      34.682  18.668  24.599  1.00  0.00     0.006 A 
ATOM     27  C   UNL A   1      32.640  19.272  23.483  1.00  0.00     0.006 A 
ATOM     28  C   UNL A   1      34.552  17.359  24.127  1.00  0.00     0.000 A 
ATOM     29  C   UNL A   1      32.516  17.967  23.002  1.00  0.00     0.000 A 
ATOM     30  C   UNL A   1      33.464  17.006  23.335  1.00  0.00     0.000 A 
ENDBRANCH   6  25
ENDBRANCH   3   6
ENDBRANCH   1   2
BRANCH   1  31
ATOM     31  C   UNL A   1      37.206  21.460  24.392  1.00  0.00     0.023 C 
BRANCH  31  32
ATOM     32  C   UNL A   1      37.855  20.263  25.092  1.00  0.00     0.023 C 
BRANCH  32  33
ATOM     33  C   UNL A   1      39.194  20.555  25.753  1.00  0.00     0.116 C 
BRANCH  33  34
ATOM     34  N   UNL A   1      40.056  19.387  25.862  1.00  0.00    -0.352 N 
ATOM     35  C   UNL A   1      41.412  19.354  26.100  1.00  0.00     0.251 C 
ATOM     36  H   UNL A   1      39.615  18.514  25.750  1.00  0.00     0.163 HD
ATOM     37  O   UNL A   1      42.033  18.302  26.065  1.00  0.00    -0.269 OA
BRANCH  35  38
ATOM     38  C   UNL A   1      42.117  20.630  26.348  1.00  0.00     0.039 A 
ATOM     39  C   UNL A   1      42.281  21.104  27.650  1.00  0.00     0.014 A 
ATOM     40  C   UNL A   1      42.551  21.387  25.257  1.00  0.00     0.014 A 
ATOM     41  C   UNL A   1      42.723  22.405  27.854  1.00  0.00     0.010 A 
ATOM     42  C   UNL A   1      43.070  22.666  25.470  1.00  0.00     0.010 A 
ATOM     43  C   UNL A   1      43.110  23.205  26.766  1.00  0.00    -0.014 A 
BRANCH  43  44
ATOM     44  C   UNL A   1      43.530  24.607  27.008  1.00  0.00     0.031 A 
ATOM     45  C   UNL A   1      42.578  25.600  27.615  1.00  0.00     0.074 A 
ATOM     46  C   UNL A   1      44.800  24.967  26.741  1.00  0.00     0.049 A 
ATOM     47  N   UNL A   1      42.779  26.860  27.916  1.00  0.00    -0.248 NA
ATOM     48  C   UNL A   1      41.221  25.123  27.925  1.00  0.00     0.031 C 
ATOM     49  C   UNL A   1      45.819  24.085  26.168  1.00  0.00     0.029 A 
ATOM     50  N   UNL A   1      45.458  26.153  26.938  1.00  0.00    -0.354 N 
ATOM     51  C   UNL A   1      41.576  27.326  28.431  1.00  0.00     0.074 A 
ATOM     52  C   UNL A   1      40.639  26.225  28.379  1.00  0.00     0.031 C 
ATOM     53  C   UNL A   1      46.987  24.743  26.115  1.00  0.00     0.029 A 
ATOM     54  C   UNL A   1      46.785  26.108  26.590  1.00  0.00     0.049 A 
ATOM     55  H   UNL A   1      45.022  26.960  27.297  1.00  0.00     0.167 HD
ATOM     56  C   UNL A   1      41.287  28.557  28.915  1.00  0.00     0.037 A 
ATOM     57  C   UNL A   1      47.734  27.062  26.637  1.00  0.00     0.037 A 
ATOM     58  C   UNL A   1      42.229  29.643  28.992  1.00  0.00     0.049 A 
ATOM     59  C   UNL A   1      47.372  28.430  27.140  1.00  0.00     0.074 A 
ATOM     60  C   UNL A   1      42.033  30.921  29.486  1.00  0.00     0.029 A 
ATOM     61  N   UNL A   1      43.547  29.576  28.566  1.00  0.00    -0.354 N 
ATOM     62  N   UNL A   1      46.230  28.858  27.618  1.00  0.00    -0.248 NA
ATOM     63  C   UNL A   1      48.427  29.451  27.095  1.00  0.00     0.031 C 
ATOM     64  C   UNL A   1      43.221  31.640  29.325  1.00  0.00     0.029 A 
ATOM     65  C   UNL A   1      44.171  30.796  28.770  1.00  0.00     0.049 A 
ATOM     66  H   UNL A   1      43.977  28.780  28.179  1.00  0.00     0.167 HD
ATOM     67  C   UNL A   1      46.429  30.193  27.938  1.00  0.00     0.074 A 
ATOM     68  C   UNL A   1      47.809  30.500  27.620  1.00  0.00     0.031 C 
ATOM     69  C   UNL A   1      45.544  31.087  28.442  1.00  0.00     0.037 A 
BRANCH  56  70
ATOM     70  C   UNL A   1      39.889  28.808  29.402  1.00  0.00     0.064 A 
ATOM     71  C   UNL A   1      38.885  29.270  28.541  1.00  0.00     0.173 A 
ATOM     72  C   UNL A   1      39.535  28.514  30.728  1.00  0.00     0.173 A 
ATOM     73  F   UNL A   1      39.175  29.577  27.267  1.00  0.00    -0.203 F 
ATOM     74  C   UNL A   1      37.578  29.442  28.992  1.00  0.00     0.198 A 
ATOM     75  C   UNL A   1      38.223  28.664  31.170  1.00  0.00     0.198 A 
ATOM     76  F   UNL A   1      40.458  28.063  31.590  1.00  0.00    -0.203 F 
ATOM     77  F   UNL A   1      36.639  29.912  28.159  1.00  0.00    -0.200 F 
ATOM     78  C   UNL A   1      37.247  29.130  30.302  1.00  0.00     0.200 A 
ATOM     79  F   UNL A   1      37.903  28.349  32.432  1.00  0.00    -0.200 F 
ATOM     80  F   UNL A   1      35.985  29.280  30.730  1.00  0.00    -0.200 F 
ENDBRANCH  56  70
BRANCH  57  81
ATOM     81  C   UNL A   1      49.114  26.741  26.199  1.00  0.00     0.064 A 
ATOM     82  C   UNL A   1      49.523  26.981  24.881  1.00  0.00     0.173 A 
ATOM     83  C   UNL A   1      50.061  26.224  27.095  1.00  0.00     0.173 A 
ATOM     84  F   UNL A   1      48.648  27.455  23.983  1.00  0.00    -0.203 F 
ATOM     85  C   UNL A   1      50.830  26.716  24.476  1.00  0.00     0.198 A 
ATOM     86  C   UNL A   1      51.374  25.985  26.696  1.00  0.00     0.198 A 
ATOM     87  F   UNL A   1      49.716  25.980  28.369  1.00  0.00    -0.203 F 
ATOM     88  F   UNL A   1      51.191  26.931  23.204  1.00  0.00    -0.200 F 
ATOM     89  C   UNL A   1      51.756  26.227  25.386  1.00  0.00     0.200 A 
ATOM     90  F   UNL A   1      52.268  25.528  27.583  1.00  0.00    -0.200 F 
ATOM     91  F   UNL A   1      53.017  25.988  24.999  1.00  0.00    -0.200 F 
ENDBRANCH  57  81
BRANCH  69  92
ATOM     92  C   UNL A   1      46.036  32.481  28.687  1.00  0.00     0.064 A 
ATOM     93  C   UNL A   1      46.704  32.819  29.873  1.00  0.00     0.173 A 
ATOM     94  C   UNL A   1      45.895  33.471  27.703  1.00  0.00     0.173 A 
ATOM     95  F   UNL A   1      46.849  31.909  30.848  1.00  0.00    -0.203 F 
ATOM     96  C   UNL A   1      47.202  34.103  30.069  1.00  0.00     0.198 A 
ATOM     97  C   UNL A   1      46.416  34.747  27.893  1.00  0.00     0.198 A 
ATOM     98  F   UNL A   1      45.269  33.194  26.550  1.00  0.00    -0.203 F 
ATOM     99  F   UNL A   1      47.810  34.414  31.223  1.00  0.00    -0.200 F 
ATOM    100  C   UNL A   1      47.066  35.063  29.078  1.00  0.00     0.200 A 
ATOM    101  F   UNL A   1      46.295  35.670  26.929  1.00  0.00    -0.200 F 
ATOM    102  F   UNL A   1      47.559  36.295  29.264  1.00  0.00    -0.200 F 
ENDBRANCH  69  92
ENDBRANCH  43  44
ENDBRANCH  35  38
ENDBRANCH  33  34
ENDBRANCH  32  33
ENDBRANCH  31  32
ENDBRANCH   1  31
TORSDOF 16
ENDMDL
MODEL 3
REMARK VINA RESULT:     -13.6      0.312      2.016
REMARK SMILES O=C(Cn1nc(-c2ccccc2)ccc1=O)N[C@@H](C(=O)NCCCCNC(=O)c1ccc(-c2c3nc(c(-c4c(F)c(F)c(F)c(F)c4F)c4ccc([nH]4)c(-c4c(F)c(F)c(F)c(F)c4F)c4nc(c(-c5c(F)c(F)c(F)c(F)c5F)c5ccc2[nH]5)C=C4)C=C3)cc1)c1ccccc1
REMARK SMILES IDX 22 1 21 2 19 3 20 4 18 6 17 7 1 8 2 9 3 11 4 12 5 13 15 14
REMARK SMILES IDX 6 15 14 16 16 17 13 18 7 19 8 20 12 21 9 22 11 23 10 24
REMARK SMILES IDX 92 25 93 26 97 27 94 28 96 29 95 30 23 31 24 32 25 33 26 34
REMARK SMILES IDX 27 35 28 37 29 38 30 39 91 40 31 41 90 42 32 43 33 44 34 45
REMARK SMILES IDX 84 46 35 47 89 48 83 49 85 50 36 51 88 52 82 53 81 54 37 56
REMARK SMILES IDX 69 57 49 58 68 59 50 60 53 61 67 62 86 63 51 64 52 65 66 67
REMARK SMILES IDX 87 68 54 69 38 70 39 71 47 72 40 73 41 74 45 75 48 76 42 77
REMARK SMILES IDX 43 78 46 79 44 80 70 81 71 82 79 83 72 84 73 85 77 86 80 87
REMARK SMILES IDX 74 88 75 89 78 90 76 91 55 92 56 93 64 94 57 95 58 96 62 97
REMARK SMILES IDX 65 98 59 99 60 100 63 101 61 102
REMARK H PARENT 21 5 17 10 26 36 85 55 53 66
REMARK Flexibility Score: inf
ROOT
ATOM      1  C   UNL A   1      36.677  22.414  25.203  1.00  0.00     0.116 C 
ENDROOT
BRANCH   1   2
ATOM      2  N   UNL A   1      35.867  21.766  26.217  1.00  0.00    -0.354 N 
ATOM      3  C   UNL A   1      34.556  21.371  26.127  1.00  0.00     0.247 C 
ATOM      4  O   UNL A   1      33.961  21.202  27.196  1.00  0.00    -0.272 OA
ATOM      5  H   UNL A   1      36.313  21.586  27.075  1.00  0.00     0.163 HD
BRANCH   3   6
ATOM      6  C   UNL A   1      33.875  21.255  24.733  1.00  0.00     0.202 C 
BRANCH   6   7
ATOM      7  N   UNL A   1      32.588  21.934  24.861  1.00  0.00    -0.339 N 
ATOM      8  O   UNL A   1      32.839  23.295  23.037  1.00  0.00    -0.273 OA
ATOM      9  C   UNL A   1      32.172  22.926  24.002  1.00  0.00     0.242 C 
ATOM     10  H   UNL A   1      31.989  21.669  25.596  1.00  0.00     0.164 HD
BRANCH   9  11
ATOM     11  C   UNL A   1      30.879  23.633  24.406  1.00  0.00     0.248 C 
BRANCH  11  12
ATOM     12  N   UNL A   1      30.994  25.045  24.730  1.00  0.00    -0.220 N 
ATOM     13  N   UNL A   1      30.246  25.941  24.003  1.00  0.00    -0.169 NA
ATOM     14  C   UNL A   1      31.831  25.406  25.779  1.00  0.00     0.267 A 
ATOM     15  C   UNL A   1      30.419  27.200  24.249  1.00  0.00     0.091 A 
ATOM     16  C   UNL A   1      31.974  26.856  26.026  1.00  0.00     0.075 A 
ATOM     17  O   UNL A   1      32.446  24.615  26.488  1.00  0.00    -0.268 OA
ATOM     18  C   UNL A   1      31.314  27.747  25.286  1.00  0.00     0.036 A 
BRANCH  15  19
ATOM     19  C   UNL A   1      29.678  28.193  23.451  1.00  0.00     0.002 A 
ATOM     20  C   UNL A   1      28.289  28.089  23.354  1.00  0.00     0.010 A 
ATOM     21  C   UNL A   1      30.373  29.183  22.749  1.00  0.00     0.010 A 
ATOM     22  C   UNL A   1      27.587  29.000  22.567  1.00  0.00     0.001 A 
ATOM     23  C   UNL A   1      29.665  30.085  21.956  1.00  0.00     0.001 A 
ATOM     24  C   UNL A   1      28.273  29.996  21.869  1.00  0.00     0.000 A 
ENDBRANCH  15  19
ENDBRANCH  11  12
ENDBRANCH   9  11
ENDBRANCH   6   7
BRANCH   6  25
ATOM     25  C   UNL A   1      33.709  19.828  24.208  1.00  0.00    -0.016 A 
ATOM     26  C   UNL A   1      32.599  19.431  23.443  1.00  0.00     0.006 A 
ATOM     27  C   UNL A   1      34.628  18.831  24.582  1.00  0.00     0.006 A 
ATOM     28  C   UNL A   1      32.449  18.109  23.013  1.00  0.00     0.000 A 
ATOM     29  C   UNL A   1      34.474  17.509  24.163  1.00  0.00     0.000 A 
ATOM     30  C   UNL A   1      33.391  17.149  23.367  1.00  0.00     0.000 A 
ENDBRANCH   6  25
ENDBRANCH   3   6
ENDBRANCH   1   2
BRANCH   1  31
ATOM     31  C   UNL A   1      37.415  21.373  24.358  1.00  0.00     0.023 C 
BRANCH  31  32
ATOM     32  C   UNL A   1      37.957  20.179  25.149  1.00  0.00     0.023 C 
BRANCH  32  33
ATOM     33  C   UNL A   1      39.267  20.435  25.880  1.00  0.00     0.116 C 
BRANCH  33  34
ATOM     34  N   UNL A   1      40.157  19.284  25.897  1.00  0.00    -0.352 N 
ATOM     35  C   UNL A   1      41.517  19.269  26.114  1.00  0.00     0.251 C 
ATOM     36  H   UNL A   1      39.735  18.410  25.733  1.00  0.00     0.163 HD
ATOM     37  O   UNL A   1      42.163  18.238  25.998  1.00  0.00    -0.269 OA
BRANCH  35  38
ATOM     38  C   UNL A   1      42.196  20.542  26.437  1.00  0.00     0.039 A 
ATOM     39  C   UNL A   1      42.323  20.956  27.764  1.00  0.00     0.014 A 
ATOM     40  C   UNL A   1      42.641  21.357  25.393  1.00  0.00     0.014 A 
ATOM     41  C   UNL A   1      42.739  22.253  28.038  1.00  0.00     0.010 A 
ATOM     42  C   UNL A   1      43.134  22.632  25.678  1.00  0.00     0.010 A 
ATOM     43  C   UNL A   1      43.137  23.109  26.998  1.00  0.00    -0.014 A 
BRANCH  43  44
ATOM     44  C   UNL A   1      43.529  24.505  27.315  1.00  0.00     0.031 A 
ATOM     45  C   UNL A   1      44.909  25.008  26.990  1.00  0.00     0.074 A 
ATOM     46  C   UNL A   1      42.612  25.341  27.838  1.00  0.00     0.049 A 
ATOM     47  N   UNL A   1      45.419  26.200  27.178  1.00  0.00    -0.248 NA
ATOM     48  C   UNL A   1      45.842  24.049  26.377  1.00  0.00     0.031 C 
ATOM     49  C   UNL A   1      41.237  24.972  28.177  1.00  0.00     0.029 A 
ATOM     50  N   UNL A   1      42.686  26.674  28.148  1.00  0.00    -0.354 N 
ATOM     51  C   UNL A   1      46.729  26.130  26.724  1.00  0.00     0.074 A 
ATOM     52  C   UNL A   1      46.950  24.772  26.276  1.00  0.00     0.031 C 
ATOM     53  C   UNL A   1      40.580  26.065  28.594  1.00  0.00     0.029 A 
ATOM     54  C   UNL A   1      41.504  27.196  28.610  1.00  0.00     0.049 A 
ATOM     55  H   UNL A   1      43.508  27.208  28.048  1.00  0.00     0.167 HD
ATOM     56  C   UNL A   1      47.658  27.114  26.674  1.00  0.00     0.037 A 
ATOM     57  C   UNL A   1      41.196  28.443  29.012  1.00  0.00     0.037 A 
ATOM     58  C   UNL A   1      47.428  28.472  27.094  1.00  0.00     0.049 A 
ATOM     59  C   UNL A   1      42.259  29.504  28.985  1.00  0.00     0.074 A 
ATOM     60  C   UNL A   1      48.302  29.545  27.063  1.00  0.00     0.029 A 
ATOM     61  N   UNL A   1      46.234  28.944  27.619  1.00  0.00    -0.354 N 
ATOM     62  N   UNL A   1      43.495  29.423  28.559  1.00  0.00    -0.248 NA
ATOM     63  C   UNL A   1      41.888  30.825  29.508  1.00  0.00     0.031 C 
ATOM     64  C   UNL A   1      47.651  30.657  27.603  1.00  0.00     0.029 A 
ATOM     65  C   UNL A   1      46.356  30.288  27.932  1.00  0.00     0.049 A 
ATOM     66  H   UNL A   1      45.421  28.406  27.749  1.00  0.00     0.167 HD
ATOM     67  C   UNL A   1      44.048  30.679  28.755  1.00  0.00     0.074 A 
ATOM     68  C   UNL A   1      43.005  31.513  29.318  1.00  0.00     0.031 C 
ATOM     69  C   UNL A   1      45.309  31.102  28.498  1.00  0.00     0.037 A 
BRANCH  56  70
ATOM     70  C   UNL A   1      49.020  26.767  26.148  1.00  0.00     0.064 A 
ATOM     71  C   UNL A   1      49.388  27.042  24.824  1.00  0.00     0.173 A 
ATOM     72  C   UNL A   1      49.992  26.218  27.001  1.00  0.00     0.173 A 
ATOM     73  F   UNL A   1      48.492  27.556  23.967  1.00  0.00    -0.203 F 
ATOM     74  C   UNL A   1      50.675  26.769  24.366  1.00  0.00     0.198 A 
ATOM     75  C   UNL A   1      51.285  25.969  26.546  1.00  0.00     0.198 A 
ATOM     76  F   UNL A   1      49.692  25.942  28.277  1.00  0.00    -0.203 F 
ATOM     77  F   UNL A   1      50.996  27.014  23.089  1.00  0.00    -0.200 F 
ATOM     78  C   UNL A   1      51.624  26.242  25.230  1.00  0.00     0.200 A 
ATOM     79  F   UNL A   1      52.203  25.472  27.385  1.00  0.00    -0.200 F 
ATOM     80  F   UNL A   1      52.867  25.995  24.792  1.00  0.00    -0.200 F 
ENDBRANCH  56  70
BRANCH  57  81
ATOM     81  C   UNL A   1      39.817  28.745  29.466  1.00  0.00     0.064 A 
ATOM     82  C   UNL A   1      38.863  29.253  28.575  1.00  0.00     0.173 A 
ATOM     83  C   UNL A   1      39.413  28.497  30.786  1.00  0.00     0.173 A 
ATOM     84  F   UNL A   1      39.208  29.526  27.308  1.00  0.00    -0.203 F 
ATOM     85  C   UNL A   1      37.556  29.503  28.988  1.00  0.00     0.198 A 
ATOM     86  C   UNL A   1      38.100  28.721  31.191  1.00  0.00     0.198 A 
ATOM     87  F   UNL A   1      40.291  28.008  31.675  1.00  0.00    -0.203 F 
ATOM     88  F   UNL A   1      36.669  30.012  28.123  1.00  0.00    -0.200 F 
ATOM     89  C   UNL A   1      37.173  29.228  30.293  1.00  0.00     0.200 A 
ATOM     90  F   UNL A   1      37.731  28.439  32.448  1.00  0.00    -0.200 F 
ATOM     91  F   UNL A   1      35.911  29.452  30.684  1.00  0.00    -0.200 F 
ENDBRANCH  57  81
BRANCH  69  92
ATOM     92  C   UNL A   1      45.637  32.529  28.818  1.00  0.00     0.064 A 
ATOM     93  C   UNL A   1      45.401  33.555  27.892  1.00  0.00     0.173 A 
ATOM     94  C   UNL A   1      46.131  32.882  30.083  1.00  0.00     0.173 A 
ATOM     95  F   UNL A   1      44.943  33.264  26.666  1.00  0.00    -0.203 F 
ATOM     96  C   UNL A   1      45.660  34.883  28.218  1.00  0.00     0.198 A 
ATOM     97  C   UNL A   1      46.366  34.213  30.413  1.00  0.00     0.198 A 
ATOM     98  F   UNL A   1      46.367  31.936  31.005  1.00  0.00    -0.203 F 
ATOM     99  F   UNL A   1      45.457  35.846  27.307  1.00  0.00    -0.200 F 
ATOM    100  C   UNL A   1      46.134  35.212  29.479  1.00  0.00     0.200 A 
ATOM    101  F   UNL A   1      46.812  34.530  31.637  1.00  0.00    -0.200 F 
ATOM    102  F   UNL A   1      46.370  36.493  29.794  1.00  0.00    -0.200 F 
ENDBRANCH  69  92
ENDBRANCH  43  44
ENDBRANCH  35  38
ENDBRANCH  33  34
ENDBRANCH  32  33
ENDBRANCH  31  32
ENDBRANCH   1  31
TORSDOF 16
ENDMDL
