MODEL 1
REMARK VINA RESULT:     -11.5      0.000      0.000
REMARK SMILES O=C(NCCCCNC(=O)c1nn(Cc2ccc(O)cc2)c2ccccc12)c1ccc(-c2c3nc(c(-c4c(F)c(F)c(F)c(F)c4F)c4ccc([nH]4)c(-c4c(F)c(F)c(F)c(F)c4F)c4nc(c(-c5c(F)c(F)c(F)c(F)c5F)c5ccc2[nH]5)C=C4)C=C3)cc1
REMARK SMILES IDX 6 1 5 2 4 3 3 4 1 5 2 6 28 8 29 9 90 10 30 11 89 12 31 13
REMARK SMILES IDX 32 14 33 15 83 16 34 17 88 18 82 19 84 20 35 21 87 22 81 23
REMARK SMILES IDX 80 24 36 26 68 27 48 28 67 29 49 30 52 31 66 32 85 33 50 34
REMARK SMILES IDX 51 35 65 37 86 38 53 39 37 40 38 41 46 42 39 43 40 44 44 45
REMARK SMILES IDX 47 46 41 47 42 48 45 49 43 50 69 51 70 52 78 53 71 54 72 55
REMARK SMILES IDX 76 56 79 57 73 58 74 59 77 60 75 61 54 62 55 63 63 64 56 65
REMARK SMILES IDX 57 66 61 67 64 68 58 69 59 70 62 71 60 72 7 73 8 74 9 75
REMARK SMILES IDX 10 77 11 78 12 79 27 80 13 81 22 82 26 83 23 84 25 85 24 86
REMARK SMILES IDX 14 87 15 88 16 89 21 90 17 91 20 92 18 93 19 94
REMARK H PARENT 3 7 84 25 52 36 8 76 19 95
REMARK Flexibility Score: inf
ROOT
ATOM      1  C   UNL A   1      45.256  25.070  25.002  1.00  0.00     0.023 C 
ENDROOT
BRANCH   1   2
ATOM      2  C   UNL A   1      44.587  23.738  25.362  1.00  0.00     0.023 C 
BRANCH   2   3
ATOM      3  C   UNL A   1      43.189  23.559  24.794  1.00  0.00     0.116 C 
BRANCH   3   4
ATOM      4  N   UNL A   1      42.321  22.676  25.589  1.00  0.00    -0.352 N 
ATOM      5  O   UNL A   1      41.262  22.099  27.531  1.00  0.00    -0.269 OA
ATOM      6  C   UNL A   1      41.631  22.972  26.765  1.00  0.00     0.251 C 
ATOM      7  H   UNL A   1      42.213  21.759  25.246  1.00  0.00     0.163 HD
BRANCH   6   8
ATOM      8  C   UNL A   1      41.322  24.387  27.043  1.00  0.00     0.039 A 
ATOM      9  C   UNL A   1      40.224  25.083  26.532  1.00  0.00     0.014 A 
ATOM     10  C   UNL A   1      42.179  25.002  27.933  1.00  0.00     0.014 A 
ATOM     11  C   UNL A   1      40.051  26.407  26.941  1.00  0.00     0.010 A 
ATOM     12  C   UNL A   1      41.699  26.041  28.655  1.00  0.00     0.010 A 
ATOM     13  C   UNL A   1      40.843  26.883  27.994  1.00  0.00    -0.014 A 
BRANCH  13  14
ATOM     14  C   UNL A   1      40.813  28.236  28.520  1.00  0.00     0.031 A 
ATOM     15  C   UNL A   1      41.906  29.070  27.999  1.00  0.00     0.074 A 
ATOM     16  C   UNL A   1      39.759  28.725  29.221  1.00  0.00     0.049 A 
ATOM     17  N   UNL A   1      42.964  29.435  28.636  1.00  0.00    -0.248 NA
ATOM     18  C   UNL A   1      41.935  29.361  26.558  1.00  0.00     0.031 C 
ATOM     19  C   UNL A   1      38.469  28.082  29.530  1.00  0.00     0.029 A 
ATOM     20  N   UNL A   1      39.596  29.962  29.766  1.00  0.00    -0.354 N 
ATOM     21  C   UNL A   1      43.688  30.203  27.736  1.00  0.00     0.074 A 
ATOM     22  C   UNL A   1      43.136  29.931  26.436  1.00  0.00     0.031 C 
ATOM     23  C   UNL A   1      37.598  28.995  30.021  1.00  0.00     0.029 A 
ATOM     24  C   UNL A   1      38.309  30.241  30.228  1.00  0.00     0.049 A 
ATOM     25  H   UNL A   1      40.332  30.613  29.829  1.00  0.00     0.167 HD
ATOM     26  C   UNL A   1      44.474  31.216  28.188  1.00  0.00     0.037 A 
ATOM     27  C   UNL A   1      37.880  31.417  30.754  1.00  0.00     0.037 A 
ATOM     28  C   UNL A   1      44.675  31.101  29.614  1.00  0.00     0.049 A 
ATOM     29  C   UNL A   1      39.094  32.139  31.202  1.00  0.00     0.074 A 
ATOM     30  C   UNL A   1      45.288  30.187  30.446  1.00  0.00     0.029 A 
ATOM     31  N   UNL A   1      43.808  31.821  30.399  1.00  0.00    -0.354 N 
ATOM     32  N   UNL A   1      39.850  31.738  32.186  1.00  0.00    -0.248 NA
ATOM     33  C   UNL A   1      39.712  33.069  30.273  1.00  0.00     0.031 C 
ATOM     34  C   UNL A   1      44.475  30.136  31.618  1.00  0.00     0.029 A 
ATOM     35  C   UNL A   1      43.446  31.070  31.487  1.00  0.00     0.049 A 
ATOM     36  H   UNL A   1      43.495  32.734  30.210  1.00  0.00     0.167 HD
ATOM     37  C   UNL A   1      41.143  32.010  31.764  1.00  0.00     0.074 A 
ATOM     38  C   UNL A   1      40.988  32.937  30.646  1.00  0.00     0.031 C 
ATOM     39  C   UNL A   1      42.180  31.224  32.175  1.00  0.00     0.037 A 
BRANCH  26  40
ATOM     40  C   UNL A   1      44.687  32.519  27.455  1.00  0.00     0.064 A 
ATOM     41  C   UNL A   1      45.891  32.713  26.752  1.00  0.00     0.173 A 
ATOM     42  C   UNL A   1      43.904  33.680  27.649  1.00  0.00     0.173 A 
ATOM     43  F   UNL A   1      46.729  31.688  26.539  1.00  0.00    -0.203 F 
ATOM     44  C   UNL A   1      46.306  33.980  26.331  1.00  0.00     0.198 A 
ATOM     45  C   UNL A   1      44.295  34.932  27.179  1.00  0.00     0.198 A 
ATOM     46  F   UNL A   1      42.796  33.683  28.396  1.00  0.00    -0.203 F 
ATOM     47  F   UNL A   1      47.515  34.133  25.774  1.00  0.00    -0.200 F 
ATOM     48  C   UNL A   1      45.508  35.089  26.546  1.00  0.00     0.200 A 
ATOM     49  F   UNL A   1      43.518  35.997  27.423  1.00  0.00    -0.200 F 
ATOM     50  F   UNL A   1      45.926  36.310  26.193  1.00  0.00    -0.200 F 
ENDBRANCH  26  40
BRANCH  27  51
ATOM     51  C   UNL A   1      36.572  32.107  30.617  1.00  0.00     0.064 A 
ATOM     52  C   UNL A   1      35.724  32.269  31.729  1.00  0.00     0.173 A 
ATOM     53  C   UNL A   1      36.286  32.905  29.494  1.00  0.00     0.173 A 
ATOM     54  F   UNL A   1      35.943  31.569  32.852  1.00  0.00    -0.203 F 
ATOM     55  C   UNL A   1      34.692  33.216  31.738  1.00  0.00     0.198 A 
ATOM     56  C   UNL A   1      35.255  33.849  29.505  1.00  0.00     0.198 A 
ATOM     57  F   UNL A   1      37.068  32.861  28.407  1.00  0.00    -0.203 F 
ATOM     58  F   UNL A   1      33.960  33.398  32.847  1.00  0.00    -0.200 F 
ATOM     59  C   UNL A   1      34.471  34.019  30.633  1.00  0.00     0.200 A 
ATOM     60  F   UNL A   1      35.072  34.646  28.443  1.00  0.00    -0.200 F 
ATOM     61  F   UNL A   1      33.538  34.981  30.670  1.00  0.00    -0.200 F 
ENDBRANCH  27  51
BRANCH  39  62
ATOM     62  C   UNL A   1      41.925  30.299  33.338  1.00  0.00     0.064 A 
ATOM     63  C   UNL A   1      41.592  28.937  33.220  1.00  0.00     0.173 A 
ATOM     64  C   UNL A   1      42.154  30.792  34.629  1.00  0.00     0.173 A 
ATOM     65  F   UNL A   1      41.430  28.367  32.021  1.00  0.00    -0.203 F 
ATOM     66  C   UNL A   1      41.471  28.120  34.345  1.00  0.00     0.198 A 
ATOM     67  C   UNL A   1      42.069  29.967  35.746  1.00  0.00     0.198 A 
ATOM     68  F   UNL A   1      42.516  32.073  34.801  1.00  0.00    -0.203 F 
ATOM     69  F   UNL A   1      41.147  26.826  34.204  1.00  0.00    -0.200 F 
ATOM     70  C   UNL A   1      41.721  28.634  35.606  1.00  0.00     0.200 A 
ATOM     71  F   UNL A   1      42.354  30.459  36.960  1.00  0.00    -0.200 F 
ATOM     72  F   UNL A   1      41.649  27.839  36.683  1.00  0.00    -0.200 F 
ENDBRANCH  39  62
ENDBRANCH  13  14
ENDBRANCH   6   8
ENDBRANCH   3   4
ENDBRANCH   2   3
ENDBRANCH   1   2
BRANCH   1  73
ATOM     73  C   UNL A   1      44.447  26.339  25.273  1.00  0.00     0.116 C 
BRANCH  73  74
ATOM     74  N   UNL A   1      45.047  27.533  24.701  1.00  0.00    -0.351 N 
ATOM     75  C   UNL A   1      46.135  28.249  25.170  1.00  0.00     0.272 C 
ATOM     76  H   UNL A   1      44.628  27.875  23.877  1.00  0.00     0.163 HD
ATOM     77  O   UNL A   1      46.424  29.308  24.623  1.00  0.00    -0.267 OA
BRANCH  75  78
ATOM     78  C   UNL A   1      46.906  27.676  26.280  1.00  0.00     0.158 A 
ATOM     79  N   UNL A   1      46.436  27.649  27.541  1.00  0.00    -0.166 NA
ATOM     80  C   UNL A   1      48.174  27.032  26.184  1.00  0.00     0.033 A 
ATOM     81  N   UNL A   1      47.363  26.941  28.228  1.00  0.00    -0.260 N 
ATOM     82  C   UNL A   1      48.473  26.614  27.477  1.00  0.00     0.069 A 
ATOM     83  C   UNL A   1      49.071  26.731  25.137  1.00  0.00     0.013 A 
ATOM     84  C   UNL A   1      49.675  25.958  27.778  1.00  0.00     0.028 A 
ATOM     85  C   UNL A   1      50.203  25.960  25.409  1.00  0.00     0.001 A 
ATOM     86  C   UNL A   1      50.502  25.587  26.714  1.00  0.00     0.002 A 
BRANCH  81  87
ATOM     87  C   UNL A   1      47.103  26.599  29.628  1.00  0.00     0.180 C 
BRANCH  87  88
ATOM     88  C   UNL A   1      46.033  25.536  29.804  1.00  0.00    -0.026 A 
ATOM     89  C   UNL A   1      45.865  24.502  28.870  1.00  0.00     0.009 A 
ATOM     90  C   UNL A   1      45.201  25.531  30.936  1.00  0.00     0.009 A 
ATOM     91  C   UNL A   1      44.882  23.525  29.026  1.00  0.00     0.046 A 
ATOM     92  C   UNL A   1      44.225  24.538  31.109  1.00  0.00     0.046 A 
ATOM     93  C   UNL A   1      44.067  23.551  30.143  1.00  0.00     0.115 A 
BRANCH  93  94
ATOM     94  O   UNL A   1      43.120  22.578  30.251  1.00  0.00    -0.508 OA
ATOM     95  H   UNL A   1      43.211  21.780  29.768  1.00  0.00     0.293 HD
ENDBRANCH  93  94
ENDBRANCH  87  88
ENDBRANCH  81  87
ENDBRANCH  75  78
ENDBRANCH  73  74
ENDBRANCH   1  73
TORSDOF 14
ENDMDL
MODEL 2
REMARK VINA RESULT:     -11.4      3.917      7.139
REMARK SMILES O=C(NCCCCNC(=O)c1nn(Cc2ccc(O)cc2)c2ccccc12)c1ccc(-c2c3nc(c(-c4c(F)c(F)c(F)c(F)c4F)c4ccc([nH]4)c(-c4c(F)c(F)c(F)c(F)c4F)c4nc(c(-c5c(F)c(F)c(F)c(F)c5F)c5ccc2[nH]5)C=C4)C=C3)cc1
REMARK SMILES IDX 6 1 5 2 4 3 3 4 1 5 2 6 28 8 29 9 90 10 30 11 89 12 31 13
REMARK SMILES IDX 32 14 33 15 83 16 34 17 88 18 82 19 84 20 35 21 87 22 81 23
REMARK SMILES IDX 80 24 36 26 68 27 48 28 67 29 49 30 52 31 66 32 85 33 50 34
REMARK SMILES IDX 51 35 65 37 86 38 53 39 37 40 38 41 46 42 39 43 40 44 44 45
REMARK SMILES IDX 47 46 41 47 42 48 45 49 43 50 69 51 70 52 78 53 71 54 72 55
REMARK SMILES IDX 76 56 79 57 73 58 74 59 77 60 75 61 54 62 55 63 63 64 56 65
REMARK SMILES IDX 57 66 61 67 64 68 58 69 59 70 62 71 60 72 7 73 8 74 9 75
REMARK SMILES IDX 10 77 11 78 12 79 27 80 13 81 22 82 26 83 23 84 25 85 24 86
REMARK SMILES IDX 14 87 15 88 16 89 21 90 17 91 20 92 18 93 19 94
REMARK H PARENT 3 7 84 25 52 36 8 76 19 95
REMARK Flexibility Score: inf
ROOT
ATOM      1  C   UNL A   1      38.878  22.859  26.372  1.00  0.00     0.023 C 
ENDROOT
BRANCH   1   2
ATOM      2  C   UNL A   1      39.916  21.789  26.728  1.00  0.00     0.023 C 
BRANCH   2   3
ATOM      3  C   UNL A   1      40.939  22.222  27.765  1.00  0.00     0.116 C 
BRANCH   3   4
ATOM      4  N   UNL A   1      42.329  22.223  27.280  1.00  0.00    -0.352 N 
ATOM      5  O   UNL A   1      44.020  23.068  25.995  1.00  0.00    -0.269 OA
ATOM      6  C   UNL A   1      43.038  23.269  26.688  1.00  0.00     0.251 C 
ATOM      7  H   UNL A   1      42.821  21.377  27.389  1.00  0.00     0.163 HD
BRANCH   6   8
ATOM      8  C   UNL A   1      42.583  24.646  26.957  1.00  0.00     0.039 A 
ATOM      9  C   UNL A   1      41.588  25.316  26.241  1.00  0.00     0.014 A 
ATOM     10  C   UNL A   1      43.172  25.246  28.051  1.00  0.00     0.014 A 
ATOM     11  C   UNL A   1      41.240  26.600  26.665  1.00  0.00     0.010 A 
ATOM     12  C   UNL A   1      42.474  26.210  28.694  1.00  0.00     0.010 A 
ATOM     13  C   UNL A   1      41.739  27.048  27.896  1.00  0.00    -0.014 A 
BRANCH  13  14
ATOM     14  C   UNL A   1      41.502  28.361  28.467  1.00  0.00     0.031 A 
ATOM     15  C   UNL A   1      42.527  29.341  28.079  1.00  0.00     0.074 A 
ATOM     16  C   UNL A   1      40.341  28.690  29.089  1.00  0.00     0.049 A 
ATOM     17  N   UNL A   1      43.476  29.795  28.822  1.00  0.00    -0.248 NA
ATOM     18  C   UNL A   1      42.644  29.703  26.659  1.00  0.00     0.031 C 
ATOM     19  C   UNL A   1      39.116  27.887  29.255  1.00  0.00     0.029 A 
ATOM     20  N   UNL A   1      39.985  29.872  29.663  1.00  0.00    -0.354 N 
ATOM     21  C   UNL A   1      44.176  30.685  28.020  1.00  0.00     0.074 A 
ATOM     22  C   UNL A   1      43.774  30.413  26.667  1.00  0.00     0.031 C 
ATOM     23  C   UNL A   1      38.103  28.669  29.700  1.00  0.00     0.029 A 
ATOM     24  C   UNL A   1      38.640  29.977  30.017  1.00  0.00     0.049 A 
ATOM     25  H   UNL A   1      40.630  30.600  29.817  1.00  0.00     0.167 HD
ATOM     26  C   UNL A   1      44.794  31.759  28.580  1.00  0.00     0.037 A 
ATOM     27  C   UNL A   1      38.029  31.068  30.547  1.00  0.00     0.037 A 
ATOM     28  C   UNL A   1      44.885  31.600  30.012  1.00  0.00     0.049 A 
ATOM     29  C   UNL A   1      39.105  31.904  31.130  1.00  0.00     0.074 A 
ATOM     30  C   UNL A   1      45.531  30.725  30.861  1.00  0.00     0.029 A 
ATOM     31  N   UNL A   1      43.875  32.175  30.743  1.00  0.00    -0.354 N 
ATOM     32  N   UNL A   1      39.817  31.547  32.162  1.00  0.00    -0.248 NA
ATOM     33  C   UNL A   1      39.684  32.943  30.296  1.00  0.00     0.031 C 
ATOM     34  C   UNL A   1      44.633  30.523  31.953  1.00  0.00     0.029 A 
ATOM     35  C   UNL A   1      43.514  31.336  31.765  1.00  0.00     0.049 A 
ATOM     36  H   UNL A   1      43.471  33.054  30.561  1.00  0.00     0.167 HD
ATOM     37  C   UNL A   1      41.100  31.987  31.869  1.00  0.00     0.074 A 
ATOM     38  C   UNL A   1      40.930  32.943  30.777  1.00  0.00     0.031 C 
ATOM     39  C   UNL A   1      42.185  31.308  32.341  1.00  0.00     0.037 A 
BRANCH  26  40
ATOM     40  C   UNL A   1      44.910  33.112  27.919  1.00  0.00     0.064 A 
ATOM     41  C   UNL A   1      46.184  33.572  27.534  1.00  0.00     0.173 A 
ATOM     42  C   UNL A   1      43.886  34.086  27.911  1.00  0.00     0.173 A 
ATOM     43  F   UNL A   1      47.238  32.743  27.537  1.00  0.00    -0.203 F 
ATOM     44  C   UNL A   1      46.424  34.915  27.225  1.00  0.00     0.198 A 
ATOM     45  C   UNL A   1      44.117  35.411  27.548  1.00  0.00     0.198 A 
ATOM     46  F   UNL A   1      42.653  33.836  28.360  1.00  0.00    -0.203 F 
ATOM     47  F   UNL A   1      47.675  35.328  26.983  1.00  0.00    -0.200 F 
ATOM     48  C   UNL A   1      45.391  35.833  27.234  1.00  0.00     0.200 A 
ATOM     49  F   UNL A   1      43.106  36.290  27.590  1.00  0.00    -0.200 F 
ATOM     50  F   UNL A   1      45.626  37.128  26.992  1.00  0.00    -0.200 F 
ENDBRANCH  26  40
BRANCH  27  51
ATOM     51  C   UNL A   1      36.664  31.608  30.319  1.00  0.00     0.064 A 
ATOM     52  C   UNL A   1      35.843  31.969  31.404  1.00  0.00     0.173 A 
ATOM     53  C   UNL A   1      36.275  32.089  29.055  1.00  0.00     0.173 A 
ATOM     54  F   UNL A   1      36.157  31.577  32.647  1.00  0.00    -0.203 F 
ATOM     55  C   UNL A   1      34.736  32.812  31.242  1.00  0.00     0.198 A 
ATOM     56  C   UNL A   1      35.169  32.930  28.896  1.00  0.00     0.198 A 
ATOM     57  F   UNL A   1      37.021  31.842  27.970  1.00  0.00    -0.203 F 
ATOM     58  F   UNL A   1      34.029  33.200  32.313  1.00  0.00    -0.200 F 
ATOM     59  C   UNL A   1      34.413  33.307  29.991  1.00  0.00     0.200 A 
ATOM     60  F   UNL A   1      34.886  33.433  27.687  1.00  0.00    -0.200 F 
ATOM     61  F   UNL A   1      33.404  34.179  29.848  1.00  0.00    -0.200 F 
ENDBRANCH  27  51
BRANCH  39  62
ATOM     62  C   UNL A   1      41.945  30.305  33.441  1.00  0.00     0.064 A 
ATOM     63  C   UNL A   1      41.681  28.939  33.234  1.00  0.00     0.173 A 
ATOM     64  C   UNL A   1      42.117  30.730  34.764  1.00  0.00     0.173 A 
ATOM     65  F   UNL A   1      41.578  28.434  31.999  1.00  0.00    -0.203 F 
ATOM     66  C   UNL A   1      41.571  28.051  34.306  1.00  0.00     0.198 A 
ATOM     67  C   UNL A   1      42.042  29.837  35.828  1.00  0.00     0.198 A 
ATOM     68  F   UNL A   1      42.412  32.015  35.021  1.00  0.00    -0.203 F 
ATOM     69  F   UNL A   1      41.314  26.754  34.081  1.00  0.00    -0.200 F 
ATOM     70  C   UNL A   1      41.763  28.500  35.601  1.00  0.00     0.200 A 
ATOM     71  F   UNL A   1      42.272  30.270  37.076  1.00  0.00    -0.200 F 
ATOM     72  F   UNL A   1      41.702  27.641  36.628  1.00  0.00    -0.200 F 
ENDBRANCH  39  62
ENDBRANCH  13  14
ENDBRANCH   6   8
ENDBRANCH   3   4
ENDBRANCH   2   3
ENDBRANCH   1   2
BRANCH   1  73
ATOM     73  C   UNL A   1      37.538  22.360  25.827  1.00  0.00     0.116 C 
BRANCH  73  74
ATOM     74  N   UNL A   1      37.402  22.540  24.390  1.00  0.00    -0.351 N 
ATOM     75  C   UNL A   1      36.299  22.997  23.690  1.00  0.00     0.272 C 
ATOM     76  H   UNL A   1      38.193  22.309  23.850  1.00  0.00     0.163 HD
ATOM     77  O   UNL A   1      36.326  22.965  22.464  1.00  0.00    -0.267 OA
BRANCH  75  78
ATOM     78  C   UNL A   1      35.170  23.530  24.460  1.00  0.00     0.158 A 
ATOM     79  N   UNL A   1      35.153  24.792  24.929  1.00  0.00    -0.166 NA
ATOM     80  C   UNL A   1      33.952  22.850  24.755  1.00  0.00     0.033 A 
ATOM     81  N   UNL A   1      33.915  24.934  25.461  1.00  0.00    -0.260 N 
ATOM     82  C   UNL A   1      33.178  23.768  25.457  1.00  0.00     0.069 A 
ATOM     83  C   UNL A   1      33.420  21.574  24.469  1.00  0.00     0.013 A 
ATOM     84  C   UNL A   1      31.905  23.437  25.944  1.00  0.00     0.028 A 
ATOM     85  C   UNL A   1      32.103  21.288  24.834  1.00  0.00     0.001 A 
ATOM     86  C   UNL A   1      31.361  22.206  25.567  1.00  0.00     0.002 A 
BRANCH  81  87
ATOM     87  C   UNL A   1      33.500  26.249  25.952  1.00  0.00     0.180 C 
BRANCH  87  88
ATOM     88  C   UNL A   1      32.955  27.159  24.864  1.00  0.00    -0.026 A 
ATOM     89  C   UNL A   1      31.594  27.158  24.520  1.00  0.00     0.009 A 
ATOM     90  C   UNL A   1      33.794  28.065  24.195  1.00  0.00     0.009 A 
ATOM     91  C   UNL A   1      31.090  27.990  23.521  1.00  0.00     0.046 A 
ATOM     92  C   UNL A   1      33.288  28.919  23.204  1.00  0.00     0.046 A 
ATOM     93  C   UNL A   1      31.941  28.863  22.867  1.00  0.00     0.115 A 
BRANCH  93  94
ATOM     94  O   UNL A   1      31.403  29.653  21.897  1.00  0.00    -0.508 OA
ATOM     95  H   UNL A   1      30.738  30.276  22.115  1.00  0.00     0.293 HD
ENDBRANCH  93  94
ENDBRANCH  87  88
ENDBRANCH  81  87
ENDBRANCH  75  78
ENDBRANCH  73  74
ENDBRANCH   1  73
TORSDOF 14
ENDMDL
MODEL 3
REMARK VINA RESULT:     -11.4      5.932     12.179
REMARK SMILES O=C(NCCCCNC(=O)c1nn(Cc2ccc(O)cc2)c2ccccc12)c1ccc(-c2c3nc(c(-c4c(F)c(F)c(F)c(F)c4F)c4ccc([nH]4)c(-c4c(F)c(F)c(F)c(F)c4F)c4nc(c(-c5c(F)c(F)c(F)c(F)c5F)c5ccc2[nH]5)C=C4)C=C3)cc1
REMARK SMILES IDX 6 1 5 2 4 3 3 4 1 5 2 6 28 8 29 9 90 10 30 11 89 12 31 13
REMARK SMILES IDX 32 14 33 15 83 16 34 17 88 18 82 19 84 20 35 21 87 22 81 23
REMARK SMILES IDX 80 24 36 26 68 27 48 28 67 29 49 30 52 31 66 32 85 33 50 34
REMARK SMILES IDX 51 35 65 37 86 38 53 39 37 40 38 41 46 42 39 43 40 44 44 45
REMARK SMILES IDX 47 46 41 47 42 48 45 49 43 50 69 51 70 52 78 53 71 54 72 55
REMARK SMILES IDX 76 56 79 57 73 58 74 59 77 60 75 61 54 62 55 63 63 64 56 65
REMARK SMILES IDX 57 66 61 67 64 68 58 69 59 70 62 71 60 72 7 73 8 74 9 75
REMARK SMILES IDX 10 77 11 78 12 79 27 80 13 81 22 82 26 83 23 84 25 85 24 86
REMARK SMILES IDX 14 87 15 88 16 89 21 90 17 91 20 92 18 93 19 94
REMARK H PARENT 3 7 84 25 52 36 8 76 19 95
REMARK Flexibility Score: inf
ROOT
ATOM      1  C   UNL A   1      34.163  29.618  27.247  1.00  0.00     0.023 C 
ENDROOT
BRANCH   1   2
ATOM      2  C   UNL A   1      33.977  31.084  27.654  1.00  0.00     0.023 C 
BRANCH   2   3
ATOM      3  C   UNL A   1      35.257  31.903  27.672  1.00  0.00     0.116 C 
BRANCH   3   4
ATOM      4  N   UNL A   1      35.383  32.805  28.829  1.00  0.00    -0.352 N 
ATOM      5  O   UNL A   1      35.661  33.198  31.063  1.00  0.00    -0.269 OA
ATOM      6  C   UNL A   1      35.939  32.535  30.080  1.00  0.00     0.251 C 
ATOM      7  H   UNL A   1      35.030  33.715  28.703  1.00  0.00     0.163 HD
BRANCH   6   8
ATOM      8  C   UNL A   1      36.916  31.434  30.174  1.00  0.00     0.039 A 
ATOM      9  C   UNL A   1      36.593  30.075  30.198  1.00  0.00     0.014 A 
ATOM     10  C   UNL A   1      38.238  31.831  30.167  1.00  0.00     0.014 A 
ATOM     11  C   UNL A   1      37.648  29.160  30.234  1.00  0.00     0.010 A 
ATOM     12  C   UNL A   1      39.158  30.956  29.700  1.00  0.00     0.010 A 
ATOM     13  C   UNL A   1      38.947  29.640  30.021  1.00  0.00    -0.014 A 
BRANCH  13  14
ATOM     14  C   UNL A   1      40.153  28.833  30.056  1.00  0.00     0.031 A 
ATOM     15  C   UNL A   1      40.675  28.653  31.419  1.00  0.00     0.074 A 
ATOM     16  C   UNL A   1      40.600  28.138  28.980  1.00  0.00     0.049 A 
ATOM     17  N   UNL A   1      41.706  29.231  31.930  1.00  0.00    -0.248 NA
ATOM     18  C   UNL A   1      39.851  27.916  32.389  1.00  0.00     0.031 C 
ATOM     19  C   UNL A   1      39.983  27.986  27.650  1.00  0.00     0.029 A 
ATOM     20  N   UNL A   1      41.703  27.347  28.872  1.00  0.00    -0.354 N 
ATOM     21  C   UNL A   1      41.794  28.745  33.226  1.00  0.00     0.074 A 
ATOM     22  C   UNL A   1      40.523  28.140  33.520  1.00  0.00     0.031 C 
ATOM     23  C   UNL A   1      40.609  27.007  26.954  1.00  0.00     0.029 A 
ATOM     24  C   UNL A   1      41.772  26.582  27.707  1.00  0.00     0.049 A 
ATOM     25  H   UNL A   1      42.401  27.317  29.566  1.00  0.00     0.167 HD
ATOM     26  C   UNL A   1      43.010  28.626  33.823  1.00  0.00     0.037 A 
ATOM     27  C   UNL A   1      42.735  25.677  27.394  1.00  0.00     0.037 A 
ATOM     28  C   UNL A   1      44.010  29.361  33.084  1.00  0.00     0.049 A 
ATOM     29  C   UNL A   1      43.909  26.013  28.233  1.00  0.00     0.074 A 
ATOM     30  C   UNL A   1      44.229  30.691  32.791  1.00  0.00     0.029 A 
ATOM     31  N   UNL A   1      44.723  28.636  32.161  1.00  0.00    -0.354 N 
ATOM     32  N   UNL A   1      44.605  27.107  28.097  1.00  0.00    -0.248 NA
ATOM     33  C   UNL A   1      44.043  25.338  29.513  1.00  0.00     0.031 C 
ATOM     34  C   UNL A   1      44.752  30.704  31.461  1.00  0.00     0.029 A 
ATOM     35  C   UNL A   1      44.899  29.386  31.027  1.00  0.00     0.049 A 
ATOM     36  H   UNL A   1      45.056  27.720  32.293  1.00  0.00     0.167 HD
ATOM     37  C   UNL A   1      44.911  27.489  29.395  1.00  0.00     0.074 A 
ATOM     38  C   UNL A   1      44.651  26.303  30.209  1.00  0.00     0.031 C 
ATOM     39  C   UNL A   1      45.056  28.810  29.707  1.00  0.00     0.037 A 
BRANCH  26  40
ATOM     40  C   UNL A   1      43.380  27.521  34.784  1.00  0.00     0.064 A 
ATOM     41  C   UNL A   1      43.702  27.858  36.113  1.00  0.00     0.173 A 
ATOM     42  C   UNL A   1      43.712  26.204  34.395  1.00  0.00     0.173 A 
ATOM     43  F   UNL A   1      43.462  29.091  36.582  1.00  0.00    -0.203 F 
ATOM     44  C   UNL A   1      44.359  26.964  36.964  1.00  0.00     0.198 A 
ATOM     45  C   UNL A   1      44.317  25.298  35.263  1.00  0.00     0.198 A 
ATOM     46  F   UNL A   1      43.579  25.771  33.137  1.00  0.00    -0.203 F 
ATOM     47  F   UNL A   1      44.753  27.369  38.178  1.00  0.00    -0.200 F 
ATOM     48  C   UNL A   1      44.668  25.686  36.538  1.00  0.00     0.200 A 
ATOM     49  F   UNL A   1      44.631  24.072  34.819  1.00  0.00    -0.200 F 
ATOM     50  F   UNL A   1      45.345  24.846  37.330  1.00  0.00    -0.200 F 
ENDBRANCH  26  40
BRANCH  27  51
ATOM     51  C   UNL A   1      42.632  24.375  26.687  1.00  0.00     0.064 A 
ATOM     52  C   UNL A   1      43.309  24.161  25.471  1.00  0.00     0.173 A 
ATOM     53  C   UNL A   1      42.157  23.226  27.347  1.00  0.00     0.173 A 
ATOM     54  F   UNL A   1      43.820  25.199  24.792  1.00  0.00    -0.203 F 
ATOM     55  C   UNL A   1      43.549  22.873  24.978  1.00  0.00     0.198 A 
ATOM     56  C   UNL A   1      42.397  21.941  26.852  1.00  0.00     0.198 A 
ATOM     57  F   UNL A   1      41.547  23.324  28.536  1.00  0.00    -0.203 F 
ATOM     58  F   UNL A   1      44.270  22.708  23.859  1.00  0.00    -0.200 F 
ATOM     59  C   UNL A   1      43.110  21.763  25.679  1.00  0.00     0.200 A 
ATOM     60  F   UNL A   1      42.000  20.873  27.557  1.00  0.00    -0.200 F 
ATOM     61  F   UNL A   1      43.411  20.528  25.251  1.00  0.00    -0.200 F 
ENDBRANCH  27  51
BRANCH  39  62
ATOM     62  C   UNL A   1      45.211  29.775  28.561  1.00  0.00     0.064 A 
ATOM     63  C   UNL A   1      44.150  30.461  27.943  1.00  0.00     0.173 A 
ATOM     64  C   UNL A   1      46.510  30.112  28.160  1.00  0.00     0.173 A 
ATOM     65  F   UNL A   1      42.883  30.256  28.319  1.00  0.00    -0.203 F 
ATOM     66  C   UNL A   1      44.383  31.419  26.954  1.00  0.00     0.198 A 
ATOM     67  C   UNL A   1      46.742  31.092  27.200  1.00  0.00     0.198 A 
ATOM     68  F   UNL A   1      47.565  29.521  28.744  1.00  0.00    -0.203 F 
ATOM     69  F   UNL A   1      43.353  32.054  26.376  1.00  0.00    -0.200 F 
ATOM     70  C   UNL A   1      45.680  31.740  26.592  1.00  0.00     0.200 A 
ATOM     71  F   UNL A   1      48.001  31.430  26.885  1.00  0.00    -0.200 F 
ATOM     72  F   UNL A   1      45.908  32.691  25.675  1.00  0.00    -0.200 F 
ENDBRANCH  39  62
ENDBRANCH  13  14
ENDBRANCH   6   8
ENDBRANCH   3   4
ENDBRANCH   2   3
ENDBRANCH   1   2
BRANCH   1  73
ATOM     73  C   UNL A   1      33.254  29.095  26.134  1.00  0.00     0.116 C 
BRANCH  73  74
ATOM     74  N   UNL A   1      33.771  29.360  24.801  1.00  0.00    -0.351 N 
ATOM     75  C   UNL A   1      33.284  28.897  23.591  1.00  0.00     0.272 C 
ATOM     76  H   UNL A   1      34.565  29.941  24.754  1.00  0.00     0.163 HD
ATOM     77  O   UNL A   1      33.927  29.124  22.571  1.00  0.00    -0.267 OA
BRANCH  75  78
ATOM     78  C   UNL A   1      31.999  28.187  23.595  1.00  0.00     0.158 A 
ATOM     79  N   UNL A   1      30.821  28.837  23.568  1.00  0.00    -0.166 NA
ATOM     80  C   UNL A   1      31.815  26.774  23.560  1.00  0.00     0.033 A 
ATOM     81  N   UNL A   1      29.899  27.851  23.454  1.00  0.00    -0.260 N 
ATOM     82  C   UNL A   1      30.437  26.583  23.527  1.00  0.00     0.069 A 
ATOM     83  C   UNL A   1      32.668  25.651  23.517  1.00  0.00     0.013 A 
ATOM     84  C   UNL A   1      29.872  25.300  23.517  1.00  0.00     0.028 A 
ATOM     85  C   UNL A   1      32.113  24.378  23.369  1.00  0.00     0.001 A 
ATOM     86  C   UNL A   1      30.733  24.208  23.376  1.00  0.00     0.002 A 
BRANCH  81  87
ATOM     87  C   UNL A   1      28.493  28.212  23.261  1.00  0.00     0.180 C 
BRANCH  87  88
ATOM     88  C   UNL A   1      28.294  29.632  22.758  1.00  0.00    -0.026 A 
ATOM     89  C   UNL A   1      27.862  30.659  23.613  1.00  0.00     0.009 A 
ATOM     90  C   UNL A   1      28.578  29.971  21.426  1.00  0.00     0.009 A 
ATOM     91  C   UNL A   1      27.676  31.963  23.156  1.00  0.00     0.046 A 
ATOM     92  C   UNL A   1      28.413  31.286  20.966  1.00  0.00     0.046 A 
ATOM     93  C   UNL A   1      27.950  32.267  21.835  1.00  0.00     0.115 A 
BRANCH  93  94
ATOM     94  O   UNL A   1      27.751  33.554  21.434  1.00  0.00    -0.508 OA
ATOM     95  H   UNL A   1      28.389  34.211  21.631  1.00  0.00     0.293 HD
ENDBRANCH  93  94
ENDBRANCH  87  88
ENDBRANCH  81  87
ENDBRANCH  75  78
ENDBRANCH  73  74
ENDBRANCH   1  73
TORSDOF 14
ENDMDL
