MODEL 1
REMARK VINA RESULT:     -13.5      0.000      0.000
REMARK SMILES Cc1ccn2c([C@@H]3C[C@H]3C(=O)NCCCCNC(=O)c3ccc(-c4c5nc(c(-c6c(F)c(F)c(F)c(F)c6F)c6ccc([nH]6)c(-c6c(F)c(F)c(F)c(F)c6F)c6nc(c(-c7c(F)c(F)c(F)c(F)c7F)c7ccc4[nH]7)C=C6)C=C5)cc3)nnc2c1
REMARK SMILES IDX 15 1 14 2 13 3 12 4 10 5 11 6 9 8 7 9 8 10 6 11 1 12 2 13
REMARK SMILES IDX 3 14 86 15 4 16 85 17 5 18 84 19 83 20 16 21 17 22 18 23
REMARK SMILES IDX 19 25 20 26 21 27 82 28 22 29 81 30 23 31 24 32 25 33 75 34
REMARK SMILES IDX 26 35 80 36 74 37 76 38 27 39 79 40 73 41 72 42 28 44 60 45
REMARK SMILES IDX 40 46 59 47 41 48 44 49 58 50 77 51 42 52 43 53 57 55 78 56
REMARK SMILES IDX 45 57 29 58 30 59 38 60 31 61 32 62 36 63 39 64 33 65 34 66
REMARK SMILES IDX 37 67 35 68 61 69 62 70 70 71 63 72 64 73 68 74 71 75 65 76
REMARK SMILES IDX 66 77 69 78 67 79 46 80 47 81 55 82 48 83 49 84 53 85 56 86
REMARK SMILES IDX 50 87 51 88 54 89 52 90
REMARK H PARENT 12 7 17 24 76 43 44 54
REMARK Flexibility Score: inf
ROOT
ATOM      1  C   UNL A   1      37.833  21.878  24.855  1.00  0.00     0.023 C 
ENDROOT
BRANCH   1   2
ATOM      2  C   UNL A   1      36.377  22.364  24.889  1.00  0.00     0.023 C 
BRANCH   2   3
ATOM      3  C   UNL A   1      35.516  21.749  25.989  1.00  0.00     0.116 C 
BRANCH   3   4
ATOM      4  N   UNL A   1      34.729  20.651  25.476  1.00  0.00    -0.356 N 
ATOM      5  C   UNL A   1      33.621  20.561  24.688  1.00  0.00     0.223 C 
ATOM      6  O   UNL A   1      33.173  19.444  24.484  1.00  0.00    -0.275 OA
ATOM      7  H   UNL A   1      35.071  19.771  25.758  1.00  0.00     0.163 HD
BRANCH   5   8
ATOM      8  C   UNL A   1      32.938  21.703  24.041  1.00  0.00     0.090 C 
ATOM      9  C   UNL A   1      33.469  22.467  22.854  1.00  0.00     0.071 C 
ATOM     10  C   UNL A   1      32.175  21.682  22.757  1.00  0.00     0.026 C 
BRANCH   9  11
ATOM     11  C   UNL A   1      33.448  23.993  22.781  1.00  0.00     0.141 A 
ATOM     12  C   UNL A   1      33.940  28.563  25.980  1.00  0.00     0.044 C 
ATOM     13  C   UNL A   1      33.735  27.339  25.141  1.00  0.00    -0.046 A 
ATOM     14  C   UNL A   1      33.591  26.074  25.852  1.00  0.00     0.022 A 
ATOM     15  C   UNL A   1      33.691  27.374  23.791  1.00  0.00     0.053 A 
ATOM     16  C   UNL A   1      33.443  24.935  25.155  1.00  0.00     0.095 A 
ATOM     17  C   UNL A   1      33.554  26.166  23.054  1.00  0.00     0.161 A 
ATOM     18  N   UNL A   1      33.454  24.969  23.760  1.00  0.00    -0.286 N 
ATOM     19  N   UNL A   1      33.535  25.926  21.763  1.00  0.00    -0.130 NA
ATOM     20  N   UNL A   1      33.491  24.568  21.593  1.00  0.00    -0.134 NA
ENDBRANCH   9  11
ENDBRANCH   5   8
ENDBRANCH   3   4
ENDBRANCH   2   3
ENDBRANCH   1   2
BRANCH   1  21
ATOM     21  C   UNL A   1      38.587  21.984  26.184  1.00  0.00     0.116 C 
BRANCH  21  22
ATOM     22  N   UNL A   1      40.028  21.972  26.043  1.00  0.00    -0.352 N 
ATOM     23  C   UNL A   1      41.040  22.821  26.394  1.00  0.00     0.251 C 
ATOM     24  H   UNL A   1      40.356  21.163  25.587  1.00  0.00     0.163 HD
ATOM     25  O   UNL A   1      42.185  22.410  26.189  1.00  0.00    -0.269 OA
BRANCH  23  26
ATOM     26  C   UNL A   1      40.860  24.191  26.947  1.00  0.00     0.039 A 
ATOM     27  C   UNL A   1      39.983  25.154  26.454  1.00  0.00     0.014 A 
ATOM     28  C   UNL A   1      41.695  24.536  28.028  1.00  0.00     0.014 A 
ATOM     29  C   UNL A   1      40.005  26.449  26.957  1.00  0.00     0.010 A 
ATOM     30  C   UNL A   1      41.703  25.825  28.553  1.00  0.00     0.010 A 
ATOM     31  C   UNL A   1      40.888  26.795  27.983  1.00  0.00    -0.014 A 
BRANCH  31  32
ATOM     32  C   UNL A   1      40.851  28.177  28.450  1.00  0.00     0.031 A 
ATOM     33  C   UNL A   1      41.971  29.036  27.980  1.00  0.00     0.074 A 
ATOM     34  C   UNL A   1      39.869  28.687  29.220  1.00  0.00     0.049 A 
ATOM     35  N   UNL A   1      42.879  29.622  28.694  1.00  0.00    -0.248 NA
ATOM     36  C   UNL A   1      42.154  29.196  26.531  1.00  0.00     0.031 C 
ATOM     37  C   UNL A   1      38.575  28.078  29.536  1.00  0.00     0.029 A 
ATOM     38  N   UNL A   1      39.794  29.914  29.821  1.00  0.00    -0.354 N 
ATOM     39  C   UNL A   1      43.659  30.352  27.801  1.00  0.00     0.074 A 
ATOM     40  C   UNL A   1      43.239  29.971  26.478  1.00  0.00     0.031 C 
ATOM     41  C   UNL A   1      37.766  29.013  30.081  1.00  0.00     0.029 A 
ATOM     42  C   UNL A   1      38.531  30.230  30.294  1.00  0.00     0.049 A 
ATOM     43  H   UNL A   1      40.567  30.517  29.909  1.00  0.00     0.167 HD
ATOM     44  C   UNL A   1      44.451  31.375  28.225  1.00  0.00     0.037 A 
ATOM     45  C   UNL A   1      38.125  31.421  30.791  1.00  0.00     0.037 A 
ATOM     46  C   UNL A   1      44.644  31.347  29.647  1.00  0.00     0.049 A 
ATOM     47  C   UNL A   1      39.311  32.153  31.286  1.00  0.00     0.074 A 
ATOM     48  C   UNL A   1      45.455  30.683  30.540  1.00  0.00     0.029 A 
ATOM     49  N   UNL A   1      43.637  31.931  30.364  1.00  0.00    -0.354 N 
ATOM     50  N   UNL A   1      40.015  31.783  32.318  1.00  0.00    -0.248 NA
ATOM     51  C   UNL A   1      39.910  33.200  30.464  1.00  0.00     0.031 C 
ATOM     52  C   UNL A   1      44.791  30.740  31.802  1.00  0.00     0.029 A 
ATOM     53  C   UNL A   1      43.600  31.443  31.643  1.00  0.00     0.049 A 
ATOM     54  H   UNL A   1      43.021  32.611  30.008  1.00  0.00     0.167 HD
ATOM     55  C   UNL A   1      41.290  32.229  32.037  1.00  0.00     0.074 A 
ATOM     56  C   UNL A   1      41.128  33.245  31.008  1.00  0.00     0.031 C 
ATOM     57  C   UNL A   1      42.379  31.504  32.412  1.00  0.00     0.037 A 
BRANCH  44  58
ATOM     58  C   UNL A   1      44.703  32.643  27.445  1.00  0.00     0.064 A 
ATOM     59  C   UNL A   1      45.908  32.793  26.729  1.00  0.00     0.173 A 
ATOM     60  C   UNL A   1      43.962  33.827  27.646  1.00  0.00     0.173 A 
ATOM     61  F   UNL A   1      46.709  31.739  26.509  1.00  0.00    -0.203 F 
ATOM     62  C   UNL A   1      46.359  34.044  26.293  1.00  0.00     0.198 A 
ATOM     63  C   UNL A   1      44.390  35.065  27.167  1.00  0.00     0.198 A 
ATOM     64  F   UNL A   1      42.863  33.850  28.411  1.00  0.00    -0.203 F 
ATOM     65  F   UNL A   1      47.562  34.156  25.712  1.00  0.00    -0.200 F 
ATOM     66  C   UNL A   1      45.600  35.178  26.514  1.00  0.00     0.200 A 
ATOM     67  F   UNL A   1      43.654  36.158  27.415  1.00  0.00    -0.200 F 
ATOM     68  F   UNL A   1      46.052  36.384  26.145  1.00  0.00    -0.200 F 
ENDBRANCH  44  58
BRANCH  45  69
ATOM     69  C   UNL A   1      36.801  32.068  30.658  1.00  0.00     0.064 A 
ATOM     70  C   UNL A   1      35.892  32.079  31.728  1.00  0.00     0.173 A 
ATOM     71  C   UNL A   1      36.526  32.941  29.588  1.00  0.00     0.173 A 
ATOM     72  F   UNL A   1      36.101  31.301  32.800  1.00  0.00    -0.203 F 
ATOM     73  C   UNL A   1      34.800  32.950  31.751  1.00  0.00     0.198 A 
ATOM     74  C   UNL A   1      35.429  33.803  29.608  1.00  0.00     0.198 A 
ATOM     75  F   UNL A   1      37.370  33.047  28.552  1.00  0.00    -0.203 F 
ATOM     76  F   UNL A   1      34.000  32.991  32.825  1.00  0.00    -0.200 F 
ATOM     77  C   UNL A   1      34.579  33.822  30.697  1.00  0.00     0.200 A 
ATOM     78  F   UNL A   1      35.245  34.664  28.597  1.00  0.00    -0.200 F 
ATOM     79  F   UNL A   1      33.576  34.709  30.751  1.00  0.00    -0.200 F 
ENDBRANCH  45  69
BRANCH  57  80
ATOM     80  C   UNL A   1      42.216  30.569  33.567  1.00  0.00     0.064 A 
ATOM     81  C   UNL A   1      42.373  30.942  34.911  1.00  0.00     0.173 A 
ATOM     82  C   UNL A   1      41.824  29.252  33.298  1.00  0.00     0.173 A 
ATOM     83  F   UNL A   1      42.666  32.206  35.247  1.00  0.00    -0.203 F 
ATOM     84  C   UNL A   1      42.190  30.017  35.937  1.00  0.00     0.198 A 
ATOM     85  C   UNL A   1      41.606  28.341  34.324  1.00  0.00     0.198 A 
ATOM     86  F   UNL A   1      41.620  28.857  32.030  1.00  0.00    -0.203 F 
ATOM     87  F   UNL A   1      42.366  30.384  37.214  1.00  0.00    -0.200 F 
ATOM     88  C   UNL A   1      41.800  28.719  35.642  1.00  0.00     0.200 A 
ATOM     89  F   UNL A   1      41.188  27.100  34.036  1.00  0.00    -0.200 F 
ATOM     90  F   UNL A   1      41.592  27.838  36.631  1.00  0.00    -0.200 F 
ENDBRANCH  57  80
ENDBRANCH  31  32
ENDBRANCH  23  26
ENDBRANCH  21  22
ENDBRANCH   1  21
TORSDOF 12
ENDMDL
MODEL 2
REMARK VINA RESULT:     -13.5      3.659      9.080
REMARK SMILES Cc1ccn2c([C@@H]3C[C@H]3C(=O)NCCCCNC(=O)c3ccc(-c4c5nc(c(-c6c(F)c(F)c(F)c(F)c6F)c6ccc([nH]6)c(-c6c(F)c(F)c(F)c(F)c6F)c6nc(c(-c7c(F)c(F)c(F)c(F)c7F)c7ccc4[nH]7)C=C6)C=C5)cc3)nnc2c1
REMARK SMILES IDX 15 1 14 2 13 3 12 4 10 5 11 6 9 8 7 9 8 10 6 11 1 12 2 13
REMARK SMILES IDX 3 14 86 15 4 16 85 17 5 18 84 19 83 20 16 21 17 22 18 23
REMARK SMILES IDX 19 25 20 26 21 27 82 28 22 29 81 30 23 31 24 32 25 33 75 34
REMARK SMILES IDX 26 35 80 36 74 37 76 38 27 39 79 40 73 41 72 42 28 44 60 45
REMARK SMILES IDX 40 46 59 47 41 48 44 49 58 50 77 51 42 52 43 53 57 55 78 56
REMARK SMILES IDX 45 57 29 58 30 59 38 60 31 61 32 62 36 63 39 64 33 65 34 66
REMARK SMILES IDX 37 67 35 68 61 69 62 70 70 71 63 72 64 73 68 74 71 75 65 76
REMARK SMILES IDX 66 77 69 78 67 79 46 80 47 81 55 82 48 83 49 84 53 85 56 86
REMARK SMILES IDX 50 87 51 88 54 89 52 90
REMARK H PARENT 12 7 17 24 76 43 44 54
REMARK Flexibility Score: inf
ROOT
ATOM      1  C   UNL A   1      33.610  29.388  26.175  1.00  0.00     0.023 C 
ENDROOT
BRANCH   1   2
ATOM      2  C   UNL A   1      32.447  29.644  25.206  1.00  0.00     0.023 C 
BRANCH   2   3
ATOM      3  C   UNL A   1      32.689  29.183  23.771  1.00  0.00     0.116 C 
BRANCH   3   4
ATOM      4  N   UNL A   1      31.472  29.249  22.995  1.00  0.00    -0.356 N 
ATOM      5  C   UNL A   1      30.453  28.379  22.746  1.00  0.00     0.223 C 
ATOM      6  O   UNL A   1      29.578  28.751  21.981  1.00  0.00    -0.275 OA
ATOM      7  H   UNL A   1      31.352  30.117  22.546  1.00  0.00     0.163 HD
BRANCH   5   8
ATOM      8  C   UNL A   1      30.310  27.036  23.352  1.00  0.00     0.090 C 
ATOM      9  C   UNL A   1      30.162  26.765  24.828  1.00  0.00     0.071 C 
ATOM     10  C   UNL A   1      29.052  26.410  23.857  1.00  0.00     0.026 C 
BRANCH   9  11
ATOM     11  C   UNL A   1      30.938  25.662  25.545  1.00  0.00     0.141 A 
ATOM     12  C   UNL A   1      36.062  23.438  25.958  1.00  0.00     0.044 C 
ATOM     13  C   UNL A   1      34.678  23.987  25.789  1.00  0.00    -0.046 A 
ATOM     14  C   UNL A   1      34.476  24.927  24.692  1.00  0.00     0.022 A 
ATOM     15  C   UNL A   1      33.652  23.655  26.602  1.00  0.00     0.053 A 
ATOM     16  C   UNL A   1      33.267  25.484  24.511  1.00  0.00     0.095 A 
ATOM     17  C   UNL A   1      32.378  24.261  26.422  1.00  0.00     0.161 A 
ATOM     18  N   UNL A   1      32.225  25.180  25.387  1.00  0.00    -0.286 N 
ATOM     19  N   UNL A   1      31.254  24.150  27.093  1.00  0.00    -0.130 NA
ATOM     20  N   UNL A   1      30.362  25.041  26.558  1.00  0.00    -0.134 NA
ENDBRANCH   9  11
ENDBRANCH   5   8
ENDBRANCH   3   4
ENDBRANCH   2   3
ENDBRANCH   1   2
BRANCH   1  21
ATOM     21  C   UNL A   1      33.483  30.071  27.540  1.00  0.00     0.116 C 
BRANCH  21  22
ATOM     22  N   UNL A   1      34.028  31.413  27.577  1.00  0.00    -0.352 N 
ATOM     23  C   UNL A   1      35.265  31.947  27.799  1.00  0.00     0.251 C 
ATOM     24  H   UNL A   1      33.346  32.101  27.401  1.00  0.00     0.163 HD
ATOM     25  O   UNL A   1      35.363  33.167  27.645  1.00  0.00    -0.269 OA
BRANCH  23  26
ATOM     26  C   UNL A   1      36.463  31.185  28.249  1.00  0.00     0.039 A 
ATOM     27  C   UNL A   1      37.566  31.727  28.905  1.00  0.00     0.014 A 
ATOM     28  C   UNL A   1      36.481  29.813  27.929  1.00  0.00     0.014 A 
ATOM     29  C   UNL A   1      38.692  30.949  29.146  1.00  0.00     0.010 A 
ATOM     30  C   UNL A   1      37.596  29.023  28.192  1.00  0.00     0.010 A 
ATOM     31  C   UNL A   1      38.721  29.606  28.760  1.00  0.00    -0.014 A 
BRANCH  31  32
ATOM     32  C   UNL A   1      39.944  28.862  29.046  1.00  0.00     0.031 A 
ATOM     33  C   UNL A   1      40.273  28.711  30.489  1.00  0.00     0.074 A 
ATOM     34  C   UNL A   1      40.723  28.301  28.100  1.00  0.00     0.049 A 
ATOM     35  N   UNL A   1      41.308  29.163  31.120  1.00  0.00    -0.248 NA
ATOM     36  C   UNL A   1      39.287  28.047  31.353  1.00  0.00     0.031 C 
ATOM     37  C   UNL A   1      40.410  28.111  26.682  1.00  0.00     0.029 A 
ATOM     38  N   UNL A   1      41.945  27.701  28.235  1.00  0.00    -0.354 N 
ATOM     39  C   UNL A   1      41.188  28.712  32.432  1.00  0.00     0.074 A 
ATOM     40  C   UNL A   1      39.879  28.123  32.547  1.00  0.00     0.031 C 
ATOM     41  C   UNL A   1      41.308  27.260  26.139  1.00  0.00     0.029 A 
ATOM     42  C   UNL A   1      42.338  26.974  27.123  1.00  0.00     0.049 A 
ATOM     43  H   UNL A   1      42.495  27.778  29.048  1.00  0.00     0.167 HD
ATOM     44  C   UNL A   1      42.262  28.669  33.267  1.00  0.00     0.037 A 
ATOM     45  C   UNL A   1      43.414  26.159  27.024  1.00  0.00     0.037 A 
ATOM     46  C   UNL A   1      43.359  29.448  32.768  1.00  0.00     0.049 A 
ATOM     47  C   UNL A   1      44.412  26.573  28.035  1.00  0.00     0.074 A 
ATOM     48  C   UNL A   1      43.733  30.773  32.764  1.00  0.00     0.029 A 
ATOM     49  N   UNL A   1      44.141  28.799  31.855  1.00  0.00    -0.354 N 
ATOM     50  N   UNL A   1      45.063  27.701  27.994  1.00  0.00    -0.248 NA
ATOM     51  C   UNL A   1      44.521  25.834  29.289  1.00  0.00     0.031 C 
ATOM     52  C   UNL A   1      44.647  30.927  31.679  1.00  0.00     0.029 A 
ATOM     53  C   UNL A   1      44.809  29.691  31.060  1.00  0.00     0.049 A 
ATOM     54  H   UNL A   1      44.215  27.820  31.778  1.00  0.00     0.167 HD
ATOM     55  C   UNL A   1      45.298  28.005  29.318  1.00  0.00     0.074 A 
ATOM     56  C   UNL A   1      45.127  26.755  30.041  1.00  0.00     0.031 C 
ATOM     57  C   UNL A   1      45.274  29.296  29.750  1.00  0.00     0.037 A 
BRANCH  44  58
ATOM     58  C   UNL A   1      42.496  27.599  34.307  1.00  0.00     0.064 A 
ATOM     59  C   UNL A   1      43.073  26.371  33.926  1.00  0.00     0.173 A 
ATOM     60  C   UNL A   1      41.877  27.614  35.576  1.00  0.00     0.173 A 
ATOM     61  F   UNL A   1      43.658  26.233  32.727  1.00  0.00    -0.203 F 
ATOM     62  C   UNL A   1      42.992  25.233  34.735  1.00  0.00     0.198 A 
ATOM     63  C   UNL A   1      41.841  26.491  36.401  1.00  0.00     0.198 A 
ATOM     64  F   UNL A   1      41.186  28.676  36.011  1.00  0.00    -0.203 F 
ATOM     65  F   UNL A   1      43.459  24.058  34.286  1.00  0.00    -0.200 F 
ATOM     66  C   UNL A   1      42.374  25.293  35.971  1.00  0.00     0.200 A 
ATOM     67  F   UNL A   1      41.213  26.562  37.584  1.00  0.00    -0.200 F 
ATOM     68  F   UNL A   1      42.248  24.193  36.725  1.00  0.00    -0.200 F 
ENDBRANCH  44  58
BRANCH  45  69
ATOM     69  C   UNL A   1      43.543  24.896  26.264  1.00  0.00     0.064 A 
ATOM     70  C   UNL A   1      44.517  24.753  25.263  1.00  0.00     0.173 A 
ATOM     71  C   UNL A   1      42.917  23.716  26.709  1.00  0.00     0.173 A 
ATOM     72  F   UNL A   1      45.183  25.825  24.809  1.00  0.00    -0.203 F 
ATOM     73  C   UNL A   1      44.881  23.496  24.773  1.00  0.00     0.198 A 
ATOM     74  C   UNL A   1      43.275  22.463  26.211  1.00  0.00     0.198 A 
ATOM     75  F   UNL A   1      42.022  23.746  27.706  1.00  0.00    -0.203 F 
ATOM     76  F   UNL A   1      45.873  23.390  23.877  1.00  0.00    -0.200 F 
ATOM     77  C   UNL A   1      44.271  22.352  25.258  1.00  0.00     0.200 A 
ATOM     78  F   UNL A   1      42.700  21.361  26.712  1.00  0.00    -0.200 F 
ATOM     79  F   UNL A   1      44.671  21.142  24.843  1.00  0.00    -0.200 F 
ENDBRANCH  45  69
BRANCH  57  80
ATOM     80  C   UNL A   1      45.549  30.362  28.739  1.00  0.00     0.064 A 
ATOM     81  C   UNL A   1      44.564  30.966  27.942  1.00  0.00     0.173 A 
ATOM     82  C   UNL A   1      46.862  30.833  28.618  1.00  0.00     0.173 A 
ATOM     83  F   UNL A   1      43.274  30.623  28.063  1.00  0.00    -0.203 F 
ATOM     84  C   UNL A   1      44.894  31.966  27.030  1.00  0.00     0.198 A 
ATOM     85  C   UNL A   1      47.183  31.857  27.734  1.00  0.00     0.198 A 
ATOM     86  F   UNL A   1      47.834  30.318  29.389  1.00  0.00    -0.203 F 
ATOM     87  F   UNL A   1      43.943  32.515  26.260  1.00  0.00    -0.200 F 
ATOM     88  C   UNL A   1      46.202  32.414  26.931  1.00  0.00     0.200 A 
ATOM     89  F   UNL A   1      48.441  32.316  27.674  1.00  0.00    -0.200 F 
ATOM     90  F   UNL A   1      46.513  33.399  26.077  1.00  0.00    -0.200 F 
ENDBRANCH  57  80
ENDBRANCH  31  32
ENDBRANCH  23  26
ENDBRANCH  21  22
ENDBRANCH   1  21
TORSDOF 12
ENDMDL
MODEL 3
REMARK VINA RESULT:     -13.4      3.769      9.100
REMARK SMILES Cc1ccn2c([C@@H]3C[C@H]3C(=O)NCCCCNC(=O)c3ccc(-c4c5nc(c(-c6c(F)c(F)c(F)c(F)c6F)c6ccc([nH]6)c(-c6c(F)c(F)c(F)c(F)c6F)c6nc(c(-c7c(F)c(F)c(F)c(F)c7F)c7ccc4[nH]7)C=C6)C=C5)cc3)nnc2c1
REMARK SMILES IDX 15 1 14 2 13 3 12 4 10 5 11 6 9 8 7 9 8 10 6 11 1 12 2 13
REMARK SMILES IDX 3 14 86 15 4 16 85 17 5 18 84 19 83 20 16 21 17 22 18 23
REMARK SMILES IDX 19 25 20 26 21 27 82 28 22 29 81 30 23 31 24 32 25 33 75 34
REMARK SMILES IDX 26 35 80 36 74 37 76 38 27 39 79 40 73 41 72 42 28 44 60 45
REMARK SMILES IDX 40 46 59 47 41 48 44 49 58 50 77 51 42 52 43 53 57 55 78 56
REMARK SMILES IDX 45 57 29 58 30 59 38 60 31 61 32 62 36 63 39 64 33 65 34 66
REMARK SMILES IDX 37 67 35 68 61 69 62 70 70 71 63 72 64 73 68 74 71 75 65 76
REMARK SMILES IDX 66 77 69 78 67 79 46 80 47 81 55 82 48 83 49 84 53 85 56 86
REMARK SMILES IDX 50 87 51 88 54 89 52 90
REMARK H PARENT 12 7 17 24 76 43 44 54
REMARK Flexibility Score: inf
ROOT
ATOM      1  C   UNL A   1      33.733  29.472  27.534  1.00  0.00     0.023 C 
ENDROOT
BRANCH   1   2
ATOM      2  C   UNL A   1      32.572  29.132  26.588  1.00  0.00     0.023 C 
BRANCH   2   3
ATOM      3  C   UNL A   1      32.818  29.463  25.118  1.00  0.00     0.116 C 
BRANCH   3   4
ATOM      4  N   UNL A   1      31.570  29.663  24.417  1.00  0.00    -0.356 N 
ATOM      5  C   UNL A   1      30.616  28.829  23.917  1.00  0.00     0.223 C 
ATOM      6  O   UNL A   1      29.685  29.344  23.319  1.00  0.00    -0.275 OA
ATOM      7  H   UNL A   1      31.363  30.614  24.269  1.00  0.00     0.163 HD
BRANCH   5   8
ATOM      8  C   UNL A   1      30.605  27.356  24.066  1.00  0.00     0.090 C 
ATOM      9  C   UNL A   1      30.230  26.618  25.327  1.00  0.00     0.071 C 
ATOM     10  C   UNL A   1      29.408  26.463  24.062  1.00  0.00     0.026 C 
BRANCH   9  11
ATOM     11  C   UNL A   1      31.042  25.442  25.865  1.00  0.00     0.141 A 
ATOM     12  C   UNL A   1      36.246  23.375  25.998  1.00  0.00     0.044 C 
ATOM     13  C   UNL A   1      34.844  23.892  25.897  1.00  0.00    -0.046 A 
ATOM     14  C   UNL A   1      34.617  24.994  24.968  1.00  0.00     0.022 A 
ATOM     15  C   UNL A   1      33.822  23.391  26.624  1.00  0.00     0.053 A 
ATOM     16  C   UNL A   1      33.388  25.527  24.859  1.00  0.00     0.095 A 
ATOM     17  C   UNL A   1      32.527  23.969  26.524  1.00  0.00     0.161 A 
ATOM     18  N   UNL A   1      32.349  25.042  25.653  1.00  0.00    -0.286 N 
ATOM     19  N   UNL A   1      31.401  23.705  27.146  1.00  0.00    -0.130 NA
ATOM     20  N   UNL A   1      30.480  24.638  26.750  1.00  0.00    -0.134 NA
ENDBRANCH   9  11
ENDBRANCH   5   8
ENDBRANCH   3   4
ENDBRANCH   2   3
ENDBRANCH   1   2
BRANCH   1  21
ATOM     21  C   UNL A   1      34.324  30.875  27.363  1.00  0.00     0.116 C 
BRANCH  21  22
ATOM     22  N   UNL A   1      34.310  31.668  28.575  1.00  0.00    -0.352 N 
ATOM     23  C   UNL A   1      35.184  31.876  29.603  1.00  0.00     0.251 C 
ATOM     24  H   UNL A   1      33.473  32.177  28.682  1.00  0.00     0.163 HD
ATOM     25  O   UNL A   1      34.851  32.726  30.432  1.00  0.00    -0.269 OA
BRANCH  23  26
ATOM     26  C   UNL A   1      36.457  31.133  29.813  1.00  0.00     0.039 A 
ATOM     27  C   UNL A   1      37.736  31.641  29.595  1.00  0.00     0.014 A 
ATOM     28  C   UNL A   1      36.330  29.790  30.218  1.00  0.00     0.014 A 
ATOM     29  C   UNL A   1      38.847  30.811  29.682  1.00  0.00     0.010 A 
ATOM     30  C   UNL A   1      37.442  28.960  30.333  1.00  0.00     0.010 A 
ATOM     31  C   UNL A   1      38.698  29.463  30.018  1.00  0.00    -0.014 A 
BRANCH  31  32
ATOM     32  C   UNL A   1      39.915  28.658  30.083  1.00  0.00     0.031 A 
ATOM     33  C   UNL A   1      40.533  28.550  31.432  1.00  0.00     0.074 A 
ATOM     34  C   UNL A   1      40.448  28.012  29.027  1.00  0.00     0.049 A 
ATOM     35  N   UNL A   1      41.699  28.965  31.808  1.00  0.00    -0.248 NA
ATOM     36  C   UNL A   1      39.719  27.983  32.517  1.00  0.00     0.031 C 
ATOM     37  C   UNL A   1      39.834  27.782  27.717  1.00  0.00     0.029 A 
ATOM     38  N   UNL A   1      41.640  27.346  28.937  1.00  0.00    -0.354 N 
ATOM     39  C   UNL A   1      41.835  28.578  33.139  1.00  0.00     0.074 A 
ATOM     40  C   UNL A   1      40.552  28.075  33.555  1.00  0.00     0.031 C 
ATOM     41  C   UNL A   1      40.554  26.856  27.046  1.00  0.00     0.029 A 
ATOM     42  C   UNL A   1      41.753  26.550  27.809  1.00  0.00     0.049 A 
ATOM     43  H   UNL A   1      42.352  27.424  29.613  1.00  0.00     0.167 HD
ATOM     44  C   UNL A   1      43.057  28.506  33.734  1.00  0.00     0.037 A 
ATOM     45  C   UNL A   1      42.742  25.669  27.532  1.00  0.00     0.037 A 
ATOM     46  C   UNL A   1      44.062  29.196  32.976  1.00  0.00     0.049 A 
ATOM     47  C   UNL A   1      43.950  26.064  28.290  1.00  0.00     0.074 A 
ATOM     48  C   UNL A   1      44.492  30.495  32.823  1.00  0.00     0.029 A 
ATOM     49  N   UNL A   1      44.601  28.463  31.957  1.00  0.00    -0.354 N 
ATOM     50  N   UNL A   1      44.633  27.149  28.054  1.00  0.00    -0.248 NA
ATOM     51  C   UNL A   1      44.283  25.375  29.532  1.00  0.00     0.031 C 
ATOM     52  C   UNL A   1      45.164  30.548  31.565  1.00  0.00     0.029 A 
ATOM     53  C   UNL A   1      45.130  29.278  30.993  1.00  0.00     0.049 A 
ATOM     54  H   UNL A   1      44.608  27.479  31.920  1.00  0.00     0.167 HD
ATOM     55  C   UNL A   1      45.156  27.494  29.282  1.00  0.00     0.074 A 
ATOM     56  C   UNL A   1      45.080  26.288  30.091  1.00  0.00     0.031 C 
ATOM     57  C   UNL A   1      45.289  28.802  29.638  1.00  0.00     0.037 A 
BRANCH  44  58
ATOM     58  C   UNL A   1      43.451  27.469  34.759  1.00  0.00     0.064 A 
ATOM     59  C   UNL A   1      43.799  27.875  36.063  1.00  0.00     0.173 A 
ATOM     60  C   UNL A   1      43.814  26.150  34.415  1.00  0.00     0.173 A 
ATOM     61  F   UNL A   1      43.533  29.121  36.485  1.00  0.00    -0.203 F 
ATOM     62  C   UNL A   1      44.501  27.038  36.936  1.00  0.00     0.198 A 
ATOM     63  C   UNL A   1      44.470  25.301  35.305  1.00  0.00     0.198 A 
ATOM     64  F   UNL A   1      43.654  25.675  33.172  1.00  0.00    -0.203 F 
ATOM     65  F   UNL A   1      44.907  27.503  38.127  1.00  0.00    -0.200 F 
ATOM     66  C   UNL A   1      44.838  25.752  36.555  1.00  0.00     0.200 A 
ATOM     67  F   UNL A   1      44.813  24.066  34.907  1.00  0.00    -0.200 F 
ATOM     68  F   UNL A   1      45.556  24.966  37.368  1.00  0.00    -0.200 F 
ENDBRANCH  44  58
BRANCH  45  69
ATOM     69  C   UNL A   1      42.645  24.369  26.832  1.00  0.00     0.064 A 
ATOM     70  C   UNL A   1      43.171  24.205  25.541  1.00  0.00     0.173 A 
ATOM     71  C   UNL A   1      42.305  23.194  27.529  1.00  0.00     0.173 A 
ATOM     72  F   UNL A   1      43.551  25.273  24.824  1.00  0.00    -0.203 F 
ATOM     73  C   UNL A   1      43.393  22.936  24.998  1.00  0.00     0.198 A 
ATOM     74  C   UNL A   1      42.518  21.929  26.982  1.00  0.00     0.198 A 
ATOM     75  F   UNL A   1      41.856  23.248  28.791  1.00  0.00    -0.203 F 
ATOM     76  F   UNL A   1      43.973  22.816  23.796  1.00  0.00    -0.200 F 
ATOM     77  C   UNL A   1      43.081  21.800  25.725  1.00  0.00     0.200 A 
ATOM     78  F   UNL A   1      42.242  20.837  27.709  1.00  0.00    -0.200 F 
ATOM     79  F   UNL A   1      43.362  20.584  25.237  1.00  0.00    -0.200 F 
ENDBRANCH  45  69
BRANCH  57  80
ATOM     80  C   UNL A   1      45.397  29.805  28.536  1.00  0.00     0.064 A 
ATOM     81  C   UNL A   1      44.297  30.423  27.921  1.00  0.00     0.173 A 
ATOM     82  C   UNL A   1      46.677  30.201  28.129  1.00  0.00     0.173 A 
ATOM     83  F   UNL A   1      43.045  30.153  28.317  1.00  0.00    -0.203 F 
ATOM     84  C   UNL A   1      44.476  31.362  26.908  1.00  0.00     0.198 A 
ATOM     85  C   UNL A   1      46.854  31.166  27.144  1.00  0.00     0.198 A 
ATOM     86  F   UNL A   1      47.763  29.671  28.716  1.00  0.00    -0.203 F 
ATOM     87  F   UNL A   1      43.413  31.925  26.316  1.00  0.00    -0.200 F 
ATOM     88  C   UNL A   1      45.755  31.737  26.525  1.00  0.00     0.200 A 
ATOM     89  F   UNL A   1      48.092  31.555  26.808  1.00  0.00    -0.200 F 
ATOM     90  F   UNL A   1      45.928  32.665  25.573  1.00  0.00    -0.200 F 
ENDBRANCH  57  80
ENDBRANCH  31  32
ENDBRANCH  23  26
ENDBRANCH  21  22
ENDBRANCH   1  21
TORSDOF 12
ENDMDL
