MODEL 1
REMARK VINA RESULT:     -12.6      0.000      0.000
REMARK SMILES C[C@@H](Sc1nc2ccccc2c(=O)n1N)C(=O)NCCCCNC(=O)c1ccc(-c2c3nc(c(-c4c(F)c(F)c(F)c(F)c4F)c4ccc([nH]4)c(-c4c(F)c(F)c(F)c(F)c4F)c4nc(c(-c5c(F)c(F)c(F)c(F)c5F)c5ccc2[nH]5)C=C4)C=C3)cc1
REMARK SMILES IDX 20 1 19 2 18 3 16 4 17 5 2 7 1 8 3 9 4 10 5 11 14 12 6 13
REMARK SMILES IDX 12 14 7 15 11 16 13 17 8 18 10 19 9 20 15 21 21 24 22 25
REMARK SMILES IDX 23 26 24 27 25 29 26 30 27 31 88 32 28 33 87 34 29 35 30 36
REMARK SMILES IDX 31 37 81 38 32 39 86 40 80 41 82 42 33 43 85 44 79 45 78 46
REMARK SMILES IDX 34 48 66 49 46 50 65 51 47 52 50 53 64 54 83 55 48 56 49 57
REMARK SMILES IDX 63 59 84 60 51 61 35 62 36 63 44 64 37 65 38 66 42 67 45 68
REMARK SMILES IDX 39 69 40 70 43 71 41 72 67 73 68 74 76 75 69 76 70 77 74 78
REMARK SMILES IDX 77 79 71 80 72 81 75 82 73 83 52 84 53 85 61 86 54 87 55 88
REMARK SMILES IDX 59 89 62 90 56 91 57 92 60 93 58 94
REMARK H PARENT 18 6 15 22 15 23 23 28 82 47 50 58
REMARK Flexibility Score: inf
ROOT
ATOM      1  C   UNL A   1      32.064  30.495  26.895  1.00  0.00     0.023 C 
ENDROOT
BRANCH   1   2
ATOM      2  C   UNL A   1      32.133  29.961  25.469  1.00  0.00     0.116 C 
BRANCH   2   3
ATOM      3  N   UNL A   1      30.929  30.286  24.725  1.00  0.00    -0.355 N 
ATOM      4  C   UNL A   1      30.159  29.514  23.905  1.00  0.00     0.233 C 
ATOM      5  O   UNL A   1      29.166  30.049  23.401  1.00  0.00    -0.274 OA
ATOM      6  H   UNL A   1      30.618  31.214  24.830  1.00  0.00     0.163 HD
BRANCH   4   7
ATOM      7  C   UNL A   1      30.494  28.049  23.610  1.00  0.00     0.141 C 
ATOM      8  C   UNL A   1      29.249  27.170  23.549  1.00  0.00     0.030 C 
BRANCH   7   9
ATOM      9  S   UNL A   1      31.610  28.000  22.161  1.00  0.00    -0.073 SA
BRANCH   9  10
ATOM     10  C   UNL A   1      32.588  26.597  22.506  1.00  0.00     0.191 A 
ATOM     11  N   UNL A   1      33.147  26.545  23.673  1.00  0.00    -0.222 NA
ATOM     12  N   UNL A   1      32.658  25.578  21.564  1.00  0.00    -0.202 N 
ATOM     13  C   UNL A   1      33.842  25.377  24.019  1.00  0.00     0.079 A 
ATOM     14  C   UNL A   1      33.322  24.381  21.831  1.00  0.00     0.280 A 
ATOM     15  C   UNL A   1      34.412  25.288  25.291  1.00  0.00     0.029 A 
ATOM     16  C   UNL A   1      33.951  24.281  23.160  1.00  0.00     0.068 A 
ATOM     17  O   UNL A   1      33.373  23.441  21.038  1.00  0.00    -0.267 OA
ATOM     18  C   UNL A   1      35.072  24.124  25.697  1.00  0.00     0.002 A 
ATOM     19  C   UNL A   1      34.614  23.113  23.554  1.00  0.00     0.016 A 
ATOM     20  C   UNL A   1      35.172  23.037  24.829  1.00  0.00     0.001 A 
BRANCH  12  21
ATOM     21  N   UNL A   1      32.040  25.697  20.275  1.00  0.00    -0.334 N 
ATOM     22  H   UNL A   1      31.220  26.232  20.170  1.00  0.00     0.178 HD
ATOM     23  H   UNL A   1      32.435  25.243  19.496  1.00  0.00     0.178 HD
ENDBRANCH  12  21
ENDBRANCH   9  10
ENDBRANCH   7   9
ENDBRANCH   4   7
ENDBRANCH   2   3
ENDBRANCH   1   2
BRANCH   1  24
ATOM     24  C   UNL A   1      31.720  31.982  26.996  1.00  0.00     0.023 C 
BRANCH  24  25
ATOM     25  C   UNL A   1      32.911  32.907  27.230  1.00  0.00     0.116 C 
BRANCH  25  26
ATOM     26  N   UNL A   1      32.521  34.244  27.650  1.00  0.00    -0.352 N 
ATOM     27  C   UNL A   1      33.024  35.008  28.674  1.00  0.00     0.251 C 
ATOM     28  H   UNL A   1      31.796  34.659  27.128  1.00  0.00     0.163 HD
ATOM     29  O   UNL A   1      32.492  36.072  28.976  1.00  0.00    -0.269 OA
BRANCH  27  30
ATOM     30  C   UNL A   1      34.191  34.523  29.438  1.00  0.00     0.039 A 
ATOM     31  C   UNL A   1      33.979  33.906  30.674  1.00  0.00     0.014 A 
ATOM     32  C   UNL A   1      35.484  34.653  28.926  1.00  0.00     0.014 A 
ATOM     33  C   UNL A   1      35.060  33.354  31.363  1.00  0.00     0.010 A 
ATOM     34  C   UNL A   1      36.549  34.038  29.577  1.00  0.00     0.010 A 
ATOM     35  C   UNL A   1      36.347  33.382  30.801  1.00  0.00    -0.014 A 
BRANCH  35  36
ATOM     36  C   UNL A   1      37.494  32.722  31.474  1.00  0.00     0.031 A 
ATOM     37  C   UNL A   1      38.194  31.568  30.816  1.00  0.00     0.074 A 
ATOM     38  C   UNL A   1      37.857  33.118  32.710  1.00  0.00     0.049 A 
ATOM     39  N   UNL A   1      39.165  30.818  31.271  1.00  0.00    -0.248 NA
ATOM     40  C   UNL A   1      37.722  31.188  29.474  1.00  0.00     0.031 C 
ATOM     41  C   UNL A   1      37.224  34.193  33.475  1.00  0.00     0.029 A 
ATOM     42  N   UNL A   1      38.843  32.654  33.545  1.00  0.00    -0.354 N 
ATOM     43  C   UNL A   1      39.405  29.870  30.286  1.00  0.00     0.074 A 
ATOM     44  C   UNL A   1      38.447  30.106  29.228  1.00  0.00     0.031 C 
ATOM     45  C   UNL A   1      37.850  34.321  34.656  1.00  0.00     0.029 A 
ATOM     46  C   UNL A   1      38.904  33.314  34.748  1.00  0.00     0.049 A 
ATOM     47  H   UNL A   1      39.450  31.916  33.305  1.00  0.00     0.167 HD
ATOM     48  C   UNL A   1      40.355  28.905  30.255  1.00  0.00     0.037 A 
ATOM     49  C   UNL A   1      39.713  33.124  35.807  1.00  0.00     0.037 A 
ATOM     50  C   UNL A   1      41.326  28.693  31.297  1.00  0.00     0.049 A 
ATOM     51  C   UNL A   1      40.758  32.043  35.747  1.00  0.00     0.074 A 
ATOM     52  C   UNL A   1      42.373  27.788  31.328  1.00  0.00     0.029 A 
ATOM     53  N   UNL A   1      41.368  29.394  32.492  1.00  0.00    -0.354 N 
ATOM     54  N   UNL A   1      41.025  31.202  34.778  1.00  0.00    -0.248 NA
ATOM     55  C   UNL A   1      41.617  31.888  36.929  1.00  0.00     0.031 C 
ATOM     56  C   UNL A   1      43.018  27.910  32.563  1.00  0.00     0.029 A 
ATOM     57  C   UNL A   1      42.408  28.926  33.280  1.00  0.00     0.049 A 
ATOM     58  H   UNL A   1      40.749  30.118  32.744  1.00  0.00     0.167 HD
ATOM     59  C   UNL A   1      42.100  30.442  35.219  1.00  0.00     0.074 A 
ATOM     60  C   UNL A   1      42.445  30.929  36.537  1.00  0.00     0.031 C 
ATOM     61  C   UNL A   1      42.744  29.430  34.586  1.00  0.00     0.037 A 
BRANCH  48  62
ATOM     62  C   UNL A   1      40.393  28.004  29.056  1.00  0.00     0.064 A 
ATOM     63  C   UNL A   1      39.648  26.816  29.002  1.00  0.00     0.173 A 
ATOM     64  C   UNL A   1      41.153  28.352  27.929  1.00  0.00     0.173 A 
ATOM     65  F   UNL A   1      38.913  26.432  30.057  1.00  0.00    -0.203 F 
ATOM     66  C   UNL A   1      39.686  25.996  27.878  1.00  0.00     0.198 A 
ATOM     67  C   UNL A   1      41.165  27.545  26.794  1.00  0.00     0.198 A 
ATOM     68  F   UNL A   1      41.880  29.480  27.925  1.00  0.00    -0.203 F 
ATOM     69  F   UNL A   1      39.005  24.842  27.869  1.00  0.00    -0.200 F 
ATOM     70  C   UNL A   1      40.438  26.364  26.773  1.00  0.00     0.200 A 
ATOM     71  F   UNL A   1      41.881  27.910  25.721  1.00  0.00    -0.200 F 
ATOM     72  F   UNL A   1      40.467  25.578  25.687  1.00  0.00    -0.200 F 
ENDBRANCH  48  62
BRANCH  49  73
ATOM     73  C   UNL A   1      39.588  33.995  37.005  1.00  0.00     0.064 A 
ATOM     74  C   UNL A   1      38.817  33.595  38.106  1.00  0.00     0.173 A 
ATOM     75  C   UNL A   1      40.222  35.243  37.073  1.00  0.00     0.173 A 
ATOM     76  F   UNL A   1      38.174  32.418  38.079  1.00  0.00    -0.203 F 
ATOM     77  C   UNL A   1      38.667  34.419  39.218  1.00  0.00     0.198 A 
ATOM     78  C   UNL A   1      40.095  36.055  38.198  1.00  0.00     0.198 A 
ATOM     79  F   UNL A   1      40.975  35.672  36.048  1.00  0.00    -0.203 F 
ATOM     80  F   UNL A   1      37.886  34.032  40.235  1.00  0.00    -0.200 F 
ATOM     81  C   UNL A   1      39.311  35.646  39.266  1.00  0.00     0.200 A 
ATOM     82  F   UNL A   1      40.729  37.235  38.247  1.00  0.00    -0.200 F 
ATOM     83  F   UNL A   1      39.168  36.438  40.337  1.00  0.00    -0.200 F 
ENDBRANCH  49  73
BRANCH  61  84
ATOM     84  C   UNL A   1      43.912  28.809  35.295  1.00  0.00     0.064 A 
ATOM     85  C   UNL A   1      45.220  29.279  35.112  1.00  0.00     0.173 A 
ATOM     86  C   UNL A   1      43.712  27.756  36.202  1.00  0.00     0.173 A 
ATOM     87  F   UNL A   1      45.466  30.273  34.245  1.00  0.00    -0.203 F 
ATOM     88  C   UNL A   1      46.289  28.700  35.792  1.00  0.00     0.198 A 
ATOM     89  C   UNL A   1      44.778  27.201  36.902  1.00  0.00     0.198 A 
ATOM     90  F   UNL A   1      42.479  27.275  36.417  1.00  0.00    -0.203 F 
ATOM     91  F   UNL A   1      47.538  29.133  35.565  1.00  0.00    -0.200 F 
ATOM     92  C   UNL A   1      46.067  27.668  36.690  1.00  0.00     0.200 A 
ATOM     93  F   UNL A   1      44.560  26.213  37.781  1.00  0.00    -0.200 F 
ATOM     94  F   UNL A   1      47.096  27.119  37.349  1.00  0.00    -0.200 F 
ENDBRANCH  61  84
ENDBRANCH  35  36
ENDBRANCH  27  30
ENDBRANCH  25  26
ENDBRANCH  24  25
ENDBRANCH   1  24
TORSDOF 14
ENDMDL
MODEL 2
REMARK VINA RESULT:     -12.5      6.109     11.275
REMARK SMILES C[C@@H](Sc1nc2ccccc2c(=O)n1N)C(=O)NCCCCNC(=O)c1ccc(-c2c3nc(c(-c4c(F)c(F)c(F)c(F)c4F)c4ccc([nH]4)c(-c4c(F)c(F)c(F)c(F)c4F)c4nc(c(-c5c(F)c(F)c(F)c(F)c5F)c5ccc2[nH]5)C=C4)C=C3)cc1
REMARK SMILES IDX 20 1 19 2 18 3 16 4 17 5 2 7 1 8 3 9 4 10 5 11 14 12 6 13
REMARK SMILES IDX 12 14 7 15 11 16 13 17 8 18 10 19 9 20 15 21 21 24 22 25
REMARK SMILES IDX 23 26 24 27 25 29 26 30 27 31 88 32 28 33 87 34 29 35 30 36
REMARK SMILES IDX 31 37 81 38 32 39 86 40 80 41 82 42 33 43 85 44 79 45 78 46
REMARK SMILES IDX 34 48 66 49 46 50 65 51 47 52 50 53 64 54 83 55 48 56 49 57
REMARK SMILES IDX 63 59 84 60 51 61 35 62 36 63 44 64 37 65 38 66 42 67 45 68
REMARK SMILES IDX 39 69 40 70 43 71 41 72 67 73 68 74 76 75 69 76 70 77 74 78
REMARK SMILES IDX 77 79 71 80 72 81 75 82 73 83 52 84 53 85 61 86 54 87 55 88
REMARK SMILES IDX 59 89 62 90 56 91 57 92 60 93 58 94
REMARK H PARENT 18 6 15 22 15 23 23 28 82 47 50 58
REMARK Flexibility Score: inf
ROOT
ATOM      1  C   UNL A   1      36.527  20.760  25.023  1.00  0.00     0.023 C 
ENDROOT
BRANCH   1   2
ATOM      2  C   UNL A   1      36.599  22.256  24.736  1.00  0.00     0.116 C 
BRANCH   2   3
ATOM      3  N   UNL A   1      35.792  22.611  23.583  1.00  0.00    -0.355 N 
ATOM      4  C   UNL A   1      34.485  22.995  23.501  1.00  0.00     0.233 C 
ATOM      5  O   UNL A   1      34.046  23.254  22.375  1.00  0.00    -0.274 OA
ATOM      6  H   UNL A   1      36.264  22.567  22.721  1.00  0.00     0.163 HD
BRANCH   4   7
ATOM      7  C   UNL A   1      33.586  23.107  24.736  1.00  0.00     0.141 C 
ATOM      8  C   UNL A   1      33.600  24.507  25.340  1.00  0.00     0.030 C 
BRANCH   7   9
ATOM      9  S   UNL A   1      31.950  22.404  24.317  1.00  0.00    -0.073 SA
BRANCH   9  10
ATOM     10  C   UNL A   1      32.344  20.735  24.001  1.00  0.00     0.191 A 
ATOM     11  N   UNL A   1      32.716  20.018  25.012  1.00  0.00    -0.222 NA
ATOM     12  N   UNL A   1      32.168  20.235  22.716  1.00  0.00    -0.202 N 
ATOM     13  C   UNL A   1      32.927  18.647  24.807  1.00  0.00     0.079 A 
ATOM     14  C   UNL A   1      32.349  18.882  22.428  1.00  0.00     0.280 A 
ATOM     15  C   UNL A   1      33.284  17.853  25.899  1.00  0.00     0.029 A 
ATOM     16  C   UNL A   1      32.752  18.035  23.565  1.00  0.00     0.068 A 
ATOM     17  O   UNL A   1      32.165  18.395  21.313  1.00  0.00    -0.267 OA
ATOM     18  C   UNL A   1      33.457  16.473  25.751  1.00  0.00     0.002 A 
ATOM     19  C   UNL A   1      32.927  16.655  23.404  1.00  0.00     0.016 A 
ATOM     20  C   UNL A   1      33.278  15.875  24.504  1.00  0.00     0.001 A 
BRANCH  12  21
ATOM     21  N   UNL A   1      31.778  21.078  21.623  1.00  0.00    -0.334 N 
ATOM     22  H   UNL A   1      32.107  22.005  21.576  1.00  0.00     0.178 HD
ATOM     23  H   UNL A   1      31.182  20.730  20.921  1.00  0.00     0.178 HD
ENDBRANCH  12  21
ENDBRANCH   9  10
ENDBRANCH   7   9
ENDBRANCH   4   7
ENDBRANCH   2   3
ENDBRANCH   1   2
BRANCH   1  24
ATOM     24  C   UNL A   1      37.831  20.005  24.763  1.00  0.00     0.023 C 
BRANCH  24  25
ATOM     25  C   UNL A   1      38.956  20.296  25.751  1.00  0.00     0.116 C 
BRANCH  25  26
ATOM     26  N   UNL A   1      39.900  19.196  25.883  1.00  0.00    -0.352 N 
ATOM     27  C   UNL A   1      41.250  19.242  26.126  1.00  0.00     0.251 C 
ATOM     28  H   UNL A   1      39.517  18.294  25.783  1.00  0.00     0.163 HD
ATOM     29  O   UNL A   1      41.926  18.218  26.080  1.00  0.00    -0.269 OA
BRANCH  27  30
ATOM     30  C   UNL A   1      41.895  20.540  26.407  1.00  0.00     0.039 A 
ATOM     31  C   UNL A   1      42.256  21.361  25.336  1.00  0.00     0.014 A 
ATOM     32  C   UNL A   1      42.118  20.957  27.723  1.00  0.00     0.014 A 
ATOM     33  C   UNL A   1      42.775  22.632  25.585  1.00  0.00     0.010 A 
ATOM     34  C   UNL A   1      42.565  22.251  27.969  1.00  0.00     0.010 A 
ATOM     35  C   UNL A   1      42.897  23.101  26.903  1.00  0.00    -0.014 A 
BRANCH  35  36
ATOM     36  C   UNL A   1      43.362  24.482  27.188  1.00  0.00     0.031 A 
ATOM     37  C   UNL A   1      42.406  25.503  27.736  1.00  0.00     0.074 A 
ATOM     38  C   UNL A   1      44.626  24.834  26.884  1.00  0.00     0.049 A 
ATOM     39  N   UNL A   1      42.601  26.773  27.982  1.00  0.00    -0.248 NA
ATOM     40  C   UNL A   1      41.039  25.040  28.022  1.00  0.00     0.031 C 
ATOM     41  C   UNL A   1      45.635  23.947  26.302  1.00  0.00     0.029 A 
ATOM     42  N   UNL A   1      45.278  26.036  27.015  1.00  0.00    -0.354 N 
ATOM     43  C   UNL A   1      41.382  27.263  28.431  1.00  0.00     0.074 A 
ATOM     44  C   UNL A   1      40.439  26.167  28.377  1.00  0.00     0.031 C 
ATOM     45  C   UNL A   1      46.782  24.629  26.146  1.00  0.00     0.029 A 
ATOM     46  C   UNL A   1      46.581  26.007  26.582  1.00  0.00     0.049 A 
ATOM     47  H   UNL A   1      44.850  26.843  27.383  1.00  0.00     0.167 HD
ATOM     48  C   UNL A   1      41.082  28.509  28.870  1.00  0.00     0.037 A 
ATOM     49  C   UNL A   1      47.506  26.985  26.536  1.00  0.00     0.037 A 
ATOM     50  C   UNL A   1      42.031  29.588  28.951  1.00  0.00     0.049 A 
ATOM     51  C   UNL A   1      47.145  28.360  27.028  1.00  0.00     0.074 A 
ATOM     52  C   UNL A   1      41.843  30.866  29.448  1.00  0.00     0.029 A 
ATOM     53  N   UNL A   1      43.347  29.516  28.520  1.00  0.00    -0.354 N 
ATOM     54  N   UNL A   1      46.010  28.791  27.522  1.00  0.00    -0.248 NA
ATOM     55  C   UNL A   1      48.197  29.383  26.961  1.00  0.00     0.031 C 
ATOM     56  C   UNL A   1      43.032  31.581  29.273  1.00  0.00     0.029 A 
ATOM     57  C   UNL A   1      43.977  30.735  28.718  1.00  0.00     0.049 A 
ATOM     58  H   UNL A   1      43.772  28.717  28.132  1.00  0.00     0.167 HD
ATOM     59  C   UNL A   1      46.220  30.124  27.852  1.00  0.00     0.074 A 
ATOM     60  C   UNL A   1      47.595  30.426  27.516  1.00  0.00     0.031 C 
ATOM     61  C   UNL A   1      45.350  31.016  28.387  1.00  0.00     0.037 A 
BRANCH  48  62
ATOM     62  C   UNL A   1      39.669  28.772  29.301  1.00  0.00     0.064 A 
ATOM     63  C   UNL A   1      39.254  28.573  30.626  1.00  0.00     0.173 A 
ATOM     64  C   UNL A   1      38.726  29.267  28.387  1.00  0.00     0.173 A 
ATOM     65  F   UNL A   1      40.113  28.090  31.538  1.00  0.00    -0.203 F 
ATOM     66  C   UNL A   1      37.942  28.832  31.014  1.00  0.00     0.198 A 
ATOM     67  C   UNL A   1      37.423  29.554  28.785  1.00  0.00     0.198 A 
ATOM     68  F   UNL A   1      39.072  29.481  27.108  1.00  0.00    -0.203 F 
ATOM     69  F   UNL A   1      37.556  28.587  32.274  1.00  0.00    -0.200 F 
ATOM     70  C   UNL A   1      37.030  29.329  30.095  1.00  0.00     0.200 A 
ATOM     71  F   UNL A   1      36.547  30.048  27.899  1.00  0.00    -0.200 F 
ATOM     72  F   UNL A   1      35.769  29.586  30.471  1.00  0.00    -0.200 F 
ENDBRANCH  48  62
BRANCH  49  73
ATOM     73  C   UNL A   1      48.873  26.693  26.030  1.00  0.00     0.064 A 
ATOM     74  C   UNL A   1      49.844  26.131  26.871  1.00  0.00     0.173 A 
ATOM     75  C   UNL A   1      49.240  26.976  24.707  1.00  0.00     0.173 A 
ATOM     76  F   UNL A   1      49.546  25.862  28.151  1.00  0.00    -0.203 F 
ATOM     77  C   UNL A   1      51.137  25.885  26.415  1.00  0.00     0.198 A 
ATOM     78  C   UNL A   1      50.526  26.703  24.244  1.00  0.00     0.198 A 
ATOM     79  F   UNL A   1      48.347  27.510  23.860  1.00  0.00    -0.203 F 
ATOM     80  F   UNL A   1      52.058  25.393  27.253  1.00  0.00    -0.200 F 
ATOM     81  C   UNL A   1      51.475  26.166  25.100  1.00  0.00     0.200 A 
ATOM     82  F   UNL A   1      50.846  26.964  22.969  1.00  0.00    -0.200 F 
ATOM     83  F   UNL A   1      52.718  25.928  24.660  1.00  0.00    -0.200 F 
ENDBRANCH  49  73
BRANCH  61  84
ATOM     84  C   UNL A   1      45.871  32.393  28.679  1.00  0.00     0.064 A 
ATOM     85  C   UNL A   1      46.500  32.701  29.894  1.00  0.00     0.173 A 
ATOM     86  C   UNL A   1      45.776  33.406  27.712  1.00  0.00     0.173 A 
ATOM     87  F   UNL A   1      46.603  31.772  30.856  1.00  0.00    -0.203 F 
ATOM     88  C   UNL A   1      46.992  33.980  30.140  1.00  0.00     0.198 A 
ATOM     89  C   UNL A   1      46.296  34.675  27.950  1.00  0.00     0.198 A 
ATOM     90  F   UNL A   1      45.190  33.161  26.531  1.00  0.00    -0.203 F 
ATOM     91  F   UNL A   1      47.546  34.267  31.326  1.00  0.00    -0.200 F 
ATOM     92  C   UNL A   1      46.896  34.963  29.166  1.00  0.00     0.200 A 
ATOM     93  F   UNL A   1      46.216  35.618  27.002  1.00  0.00    -0.200 F 
ATOM     94  F   UNL A   1      47.378  36.191  29.402  1.00  0.00    -0.200 F 
ENDBRANCH  61  84
ENDBRANCH  35  36
ENDBRANCH  27  30
ENDBRANCH  25  26
ENDBRANCH  24  25
ENDBRANCH   1  24
TORSDOF 14
ENDMDL
MODEL 3
REMARK VINA RESULT:     -12.5      2.267      8.129
REMARK SMILES C[C@@H](Sc1nc2ccccc2c(=O)n1N)C(=O)NCCCCNC(=O)c1ccc(-c2c3nc(c(-c4c(F)c(F)c(F)c(F)c4F)c4ccc([nH]4)c(-c4c(F)c(F)c(F)c(F)c4F)c4nc(c(-c5c(F)c(F)c(F)c(F)c5F)c5ccc2[nH]5)C=C4)C=C3)cc1
REMARK SMILES IDX 20 1 19 2 18 3 16 4 17 5 2 7 1 8 3 9 4 10 5 11 14 12 6 13
REMARK SMILES IDX 12 14 7 15 11 16 13 17 8 18 10 19 9 20 15 21 21 24 22 25
REMARK SMILES IDX 23 26 24 27 25 29 26 30 27 31 88 32 28 33 87 34 29 35 30 36
REMARK SMILES IDX 31 37 81 38 32 39 86 40 80 41 82 42 33 43 85 44 79 45 78 46
REMARK SMILES IDX 34 48 66 49 46 50 65 51 47 52 50 53 64 54 83 55 48 56 49 57
REMARK SMILES IDX 63 59 84 60 51 61 35 62 36 63 44 64 37 65 38 66 42 67 45 68
REMARK SMILES IDX 39 69 40 70 43 71 41 72 67 73 68 74 76 75 69 76 70 77 74 78
REMARK SMILES IDX 77 79 71 80 72 81 75 82 73 83 52 84 53 85 61 86 54 87 55 88
REMARK SMILES IDX 59 89 62 90 56 91 57 92 60 93 58 94
REMARK H PARENT 18 6 15 22 15 23 23 28 82 47 50 58
REMARK Flexibility Score: inf
ROOT
ATOM      1  C   UNL A   1      31.804  27.782  26.947  1.00  0.00     0.023 C 
ENDROOT
BRANCH   1   2
ATOM      2  C   UNL A   1      32.170  26.411  26.386  1.00  0.00     0.116 C 
BRANCH   2   3
ATOM      3  N   UNL A   1      31.285  25.380  26.898  1.00  0.00    -0.355 N 
ATOM      4  C   UNL A   1      31.267  24.035  26.668  1.00  0.00     0.233 C 
ATOM      5  O   UNL A   1      30.399  23.378  27.251  1.00  0.00    -0.274 OA
ATOM      6  H   UNL A   1      30.586  25.703  27.510  1.00  0.00     0.163 HD
BRANCH   4   7
ATOM      7  C   UNL A   1      32.270  23.352  25.733  1.00  0.00     0.141 C 
ATOM      8  C   UNL A   1      32.955  22.158  26.389  1.00  0.00     0.030 C 
BRANCH   7   9
ATOM      9  S   UNL A   1      31.440  23.049  24.130  1.00  0.00    -0.073 SA
BRANCH   9  10
ATOM     10  C   UNL A   1      31.380  24.654  23.447  1.00  0.00     0.191 A 
ATOM     11  N   UNL A   1      30.309  25.345  23.668  1.00  0.00    -0.222 NA
ATOM     12  N   UNL A   1      32.497  25.140  22.776  1.00  0.00    -0.202 N 
ATOM     13  C   UNL A   1      30.282  26.678  23.230  1.00  0.00     0.079 A 
ATOM     14  C   UNL A   1      32.555  26.455  22.316  1.00  0.00     0.280 A 
ATOM     15  C   UNL A   1      29.151  27.450  23.501  1.00  0.00     0.029 A 
ATOM     16  C   UNL A   1      31.358  27.276  22.571  1.00  0.00     0.068 A 
ATOM     17  O   UNL A   1      33.539  26.934  21.753  1.00  0.00    -0.267 OA
ATOM     18  C   UNL A   1      29.100  28.796  23.126  1.00  0.00     0.002 A 
ATOM     19  C   UNL A   1      31.316  28.622  22.188  1.00  0.00     0.016 A 
ATOM     20  C   UNL A   1      30.182  29.382  22.470  1.00  0.00     0.001 A 
BRANCH  12  21
ATOM     21  N   UNL A   1      33.651  24.323  22.536  1.00  0.00    -0.334 N 
ATOM     22  H   UNL A   1      34.039  24.274  21.633  1.00  0.00     0.178 HD
ATOM     23  H   UNL A   1      34.053  23.811  23.275  1.00  0.00     0.178 HD
ENDBRANCH  12  21
ENDBRANCH   9  10
ENDBRANCH   7   9
ENDBRANCH   4   7
ENDBRANCH   2   3
ENDBRANCH   1   2
BRANCH   1  24
ATOM     24  C   UNL A   1      31.727  28.892  25.898  1.00  0.00     0.023 C 
BRANCH  24  25
ATOM     25  C   UNL A   1      32.946  29.808  25.834  1.00  0.00     0.116 C 
BRANCH  25  26
ATOM     26  N   UNL A   1      32.673  31.157  26.306  1.00  0.00    -0.352 N 
ATOM     27  C   UNL A   1      33.343  31.893  27.251  1.00  0.00     0.251 C 
ATOM     28  H   UNL A   1      31.900  31.603  25.891  1.00  0.00     0.163 HD
ATOM     29  O   UNL A   1      32.901  32.975  27.626  1.00  0.00    -0.269 OA
BRANCH  27  30
ATOM     30  C   UNL A   1      34.584  31.357  27.845  1.00  0.00     0.039 A 
ATOM     31  C   UNL A   1      35.677  32.212  28.012  1.00  0.00     0.014 A 
ATOM     32  C   UNL A   1      34.661  30.024  28.259  1.00  0.00     0.014 A 
ATOM     33  C   UNL A   1      36.822  31.749  28.661  1.00  0.00     0.010 A 
ATOM     34  C   UNL A   1      35.773  29.586  28.971  1.00  0.00     0.010 A 
ATOM     35  C   UNL A   1      36.864  30.445  29.180  1.00  0.00    -0.014 A 
BRANCH  35  36
ATOM     36  C   UNL A   1      38.037  29.961  29.951  1.00  0.00     0.031 A 
ATOM     37  C   UNL A   1      38.266  30.440  31.356  1.00  0.00     0.074 A 
ATOM     38  C   UNL A   1      38.932  29.147  29.360  1.00  0.00     0.049 A 
ATOM     39  N   UNL A   1      39.264  30.192  32.165  1.00  0.00    -0.248 NA
ATOM     40  C   UNL A   1      37.249  31.343  31.920  1.00  0.00     0.031 C 
ATOM     41  C   UNL A   1      38.847  28.651  27.985  1.00  0.00     0.029 A 
ATOM     42  N   UNL A   1      40.097  28.599  29.838  1.00  0.00    -0.354 N 
ATOM     43  C   UNL A   1      39.007  30.919  33.319  1.00  0.00     0.074 A 
ATOM     44  C   UNL A   1      37.785  31.658  33.090  1.00  0.00     0.031 C 
ATOM     45  C   UNL A   1      39.901  27.857  27.738  1.00  0.00     0.029 A 
ATOM     46  C   UNL A   1      40.755  27.816  28.922  1.00  0.00     0.049 A 
ATOM     47  H   UNL A   1      40.431  28.755  30.751  1.00  0.00     0.167 HD
ATOM     48  C   UNL A   1      39.713  30.949  34.474  1.00  0.00     0.037 A 
ATOM     49  C   UNL A   1      41.918  27.145  29.023  1.00  0.00     0.037 A 
ATOM     50  C   UNL A   1      40.913  30.187  34.708  1.00  0.00     0.049 A 
ATOM     51  C   UNL A   1      42.684  27.198  30.318  1.00  0.00     0.074 A 
ATOM     52  C   UNL A   1      41.663  30.095  35.868  1.00  0.00     0.029 A 
ATOM     53  N   UNL A   1      41.539  29.390  33.762  1.00  0.00    -0.354 N 
ATOM     54  N   UNL A   1      42.391  27.828  31.428  1.00  0.00    -0.248 NA
ATOM     55  C   UNL A   1      43.942  26.440  30.372  1.00  0.00     0.031 C 
ATOM     56  C   UNL A   1      42.768  29.279  35.608  1.00  0.00     0.029 A 
ATOM     57  C   UNL A   1      42.680  28.820  34.304  1.00  0.00     0.049 A 
ATOM     58  H   UNL A   1      41.220  29.249  32.841  1.00  0.00     0.167 HD
ATOM     59  C   UNL A   1      43.408  27.519  32.322  1.00  0.00     0.074 A 
ATOM     60  C   UNL A   1      44.319  26.634  31.628  1.00  0.00     0.031 C 
ATOM     61  C   UNL A   1      43.571  27.932  33.603  1.00  0.00     0.037 A 
BRANCH  48  62
ATOM     62  C   UNL A   1      39.207  31.831  35.577  1.00  0.00     0.064 A 
ATOM     63  C   UNL A   1      38.342  31.347  36.570  1.00  0.00     0.173 A 
ATOM     64  C   UNL A   1      39.620  33.169  35.664  1.00  0.00     0.173 A 
ATOM     65  F   UNL A   1      37.907  30.078  36.526  1.00  0.00    -0.203 F 
ATOM     66  C   UNL A   1      37.889  32.176  37.592  1.00  0.00     0.198 A 
ATOM     67  C   UNL A   1      39.189  33.987  36.705  1.00  0.00     0.198 A 
ATOM     68  F   UNL A   1      40.451  33.682  34.743  1.00  0.00    -0.203 F 
ATOM     69  F   UNL A   1      37.025  31.704  38.502  1.00  0.00    -0.200 F 
ATOM     70  C   UNL A   1      38.318  33.492  37.664  1.00  0.00     0.200 A 
ATOM     71  F   UNL A   1      39.616  35.255  36.781  1.00  0.00    -0.200 F 
ATOM     72  F   UNL A   1      37.887  34.287  38.654  1.00  0.00    -0.200 F 
ENDBRANCH  48  62
BRANCH  49  73
ATOM     73  C   UNL A   1      42.418  26.343  27.876  1.00  0.00     0.064 A 
ATOM     74  C   UNL A   1      43.344  26.883  26.972  1.00  0.00     0.173 A 
ATOM     75  C   UNL A   1      41.977  25.031  27.652  1.00  0.00     0.173 A 
ATOM     76  F   UNL A   1      43.779  28.141  27.133  1.00  0.00    -0.203 F 
ATOM     77  C   UNL A   1      43.792  26.150  25.876  1.00  0.00     0.198 A 
ATOM     78  C   UNL A   1      42.447  24.289  26.571  1.00  0.00     0.198 A 
ATOM     79  F   UNL A   1      41.094  24.466  28.490  1.00  0.00    -0.203 F 
ATOM     80  F   UNL A   1      44.640  26.708  25.001  1.00  0.00    -0.200 F 
ATOM     81  C   UNL A   1      43.347  24.852  25.679  1.00  0.00     0.200 A 
ATOM     82  F   UNL A   1      42.026  23.030  26.391  1.00  0.00    -0.200 F 
ATOM     83  F   UNL A   1      43.780  24.146  24.625  1.00  0.00    -0.200 F 
ENDBRANCH  49  73
BRANCH  61  84
ATOM     84  C   UNL A   1      44.758  27.399  34.351  1.00  0.00     0.064 A 
ATOM     85  C   UNL A   1      44.711  26.175  35.033  1.00  0.00     0.173 A 
ATOM     86  C   UNL A   1      45.971  28.105  34.350  1.00  0.00     0.173 A 
ATOM     87  F   UNL A   1      43.571  25.469  35.076  1.00  0.00    -0.203 F 
ATOM     88  C   UNL A   1      45.829  25.689  35.707  1.00  0.00     0.198 A 
ATOM     89  C   UNL A   1      47.094  27.603  35.000  1.00  0.00     0.198 A 
ATOM     90  F   UNL A   1      46.070  29.279  33.708  1.00  0.00    -0.203 F 
ATOM     91  F   UNL A   1      45.748  24.540  36.393  1.00  0.00    -0.200 F 
ATOM     92  C   UNL A   1      47.020  26.399  35.684  1.00  0.00     0.200 A 
ATOM     93  F   UNL A   1      48.248  28.283  34.964  1.00  0.00    -0.200 F 
ATOM     94  F   UNL A   1      48.096  25.925  36.327  1.00  0.00    -0.200 F 
ENDBRANCH  61  84
ENDBRANCH  35  36
ENDBRANCH  27  30
ENDBRANCH  25  26
ENDBRANCH  24  25
ENDBRANCH   1  24
TORSDOF 14
ENDMDL
