MODEL 1
REMARK VINA RESULT:     -14.6      0.000      0.000
REMARK SMILES COc1cc2ccccc2cc1C(=O)Nc1cc(C(=O)NCCCCNC(=O)c2ccc(-c3c4nc(c(-c5c(F)c(F)c(F)c(F)c5F)c5ccc([nH]5)c(-c5c(F)c(F)c(F)c(F)c5F)c5nc(c(-c6c(F)c(F)c(F)c(F)c6F)c6ccc3[nH]6)C=C5)C=C4)cc2)ccc1C
REMARK SMILES IDX 23 1 22 2 21 3 19 4 20 5 18 7 16 8 17 9 94 10 93 11 95 12
REMARK SMILES IDX 92 13 15 14 13 15 14 16 12 18 3 19 4 20 5 21 11 22 6 23
REMARK SMILES IDX 10 24 7 25 9 26 8 27 2 28 1 29 24 30 25 31 26 32 27 33 28 35
REMARK SMILES IDX 29 36 30 37 91 38 31 39 90 40 32 41 33 42 34 43 84 44 35 45
REMARK SMILES IDX 89 46 83 47 85 48 36 49 88 50 82 51 81 52 37 54 69 55 49 56
REMARK SMILES IDX 68 57 50 58 53 59 67 60 86 61 51 62 52 63 66 65 87 66 54 67
REMARK SMILES IDX 38 68 39 69 47 70 40 71 41 72 45 73 48 74 42 75 43 76 46 77
REMARK SMILES IDX 44 78 70 79 71 80 79 81 72 82 73 83 77 84 80 85 74 86 75 87
REMARK SMILES IDX 78 88 76 89 55 90 56 91 64 92 57 93 58 94 62 95 65 96 59 97
REMARK SMILES IDX 60 98 63 99 61 100
REMARK H PARENT 21 6 15 17 26 34 85 53 53 64
REMARK Flexibility Score: inf
ROOT
ATOM      1  C   UNL A   1      36.299  21.748  24.638  1.00  0.00     0.023 C 
ENDROOT
BRANCH   1   2
ATOM      2  C   UNL A   1      35.418  20.793  25.456  1.00  0.00     0.116 C 
BRANCH   2   3
ATOM      3  N   UNL A   1      34.980  21.373  26.710  1.00  0.00    -0.352 N 
ATOM      4  C   UNL A   1      34.017  22.289  27.055  1.00  0.00     0.251 C 
ATOM      5  O   UNL A   1      33.897  22.522  28.261  1.00  0.00    -0.269 OA
ATOM      6  H   UNL A   1      35.485  21.036  27.486  1.00  0.00     0.163 HD
BRANCH   4   7
ATOM      7  C   UNL A   1      33.095  22.976  26.098  1.00  0.00     0.041 A 
ATOM      8  C   UNL A   1      32.626  24.331  24.132  1.00  0.00     0.045 A 
ATOM      9  C   UNL A   1      33.485  23.922  25.160  1.00  0.00     0.040 A 
ATOM     10  C   UNL A   1      31.262  24.027  24.181  1.00  0.00    -0.027 A 
ATOM     11  C   UNL A   1      30.839  23.128  25.172  1.00  0.00     0.006 A 
ATOM     12  C   UNL A   1      30.279  24.443  23.126  1.00  0.00     0.046 C 
ATOM     13  C   UNL A   1      31.750  22.578  26.085  1.00  0.00     0.014 A 
BRANCH   8  14
ATOM     14  N   UNL A   1      33.201  24.901  22.981  1.00  0.00    -0.322 N 
ATOM     15  C   UNL A   1      33.183  26.249  22.639  1.00  0.00     0.259 C 
ATOM     16  O   UNL A   1      33.539  26.605  21.517  1.00  0.00    -0.269 OA
ATOM     17  H   UNL A   1      33.660  24.289  22.362  1.00  0.00     0.170 HD
BRANCH  15  18
ATOM     18  C   UNL A   1      32.789  27.299  23.633  1.00  0.00     0.082 A 
ATOM     19  C   UNL A   1      31.587  28.018  23.574  1.00  0.00     0.132 A 
ATOM     20  C   UNL A   1      31.358  29.108  24.417  1.00  0.00     0.056 A 
ATOM     21  C   UNL A   1      32.279  29.448  25.405  1.00  0.00    -0.015 A 
ATOM     22  C   UNL A   1      33.691  27.592  24.667  1.00  0.00     0.026 A 
ATOM     23  C   UNL A   1      32.040  30.536  26.258  1.00  0.00     0.009 A 
ATOM     24  C   UNL A   1      33.452  28.674  25.542  1.00  0.00    -0.017 A 
ATOM     25  C   UNL A   1      32.953  30.869  27.249  1.00  0.00     0.001 A 
ATOM     26  C   UNL A   1      34.368  29.042  26.531  1.00  0.00     0.009 A 
ATOM     27  C   UNL A   1      34.119  30.131  27.372  1.00  0.00     0.001 A 
BRANCH  19  28
ATOM     28  O   UNL A   1      30.580  27.767  22.682  1.00  0.00    -0.496 OA
ATOM     29  C   UNL A   1      29.923  28.972  22.305  1.00  0.00     0.278 C 
ENDBRANCH  19  28
ENDBRANCH  15  18
ENDBRANCH   8  14
ENDBRANCH   4   7
ENDBRANCH   2   3
ENDBRANCH   1   2
BRANCH   1  30
ATOM     30  C   UNL A   1      37.784  21.659  25.006  1.00  0.00     0.023 C 
BRANCH  30  31
ATOM     31  C   UNL A   1      38.217  22.785  25.935  1.00  0.00     0.116 C 
BRANCH  31  32
ATOM     32  N   UNL A   1      39.488  22.582  26.610  1.00  0.00    -0.352 N 
ATOM     33  C   UNL A   1      40.376  23.503  27.144  1.00  0.00     0.251 C 
ATOM     34  H   UNL A   1      39.760  21.641  26.703  1.00  0.00     0.163 HD
ATOM     35  O   UNL A   1      41.472  23.120  27.518  1.00  0.00    -0.269 OA
BRANCH  33  36
ATOM     36  C   UNL A   1      39.971  24.917  27.399  1.00  0.00     0.039 A 
ATOM     37  C   UNL A   1      40.412  25.906  26.501  1.00  0.00     0.014 A 
ATOM     38  C   UNL A   1      39.319  25.307  28.560  1.00  0.00     0.014 A 
ATOM     39  C   UNL A   1      40.397  27.252  26.873  1.00  0.00     0.010 A 
ATOM     40  C   UNL A   1      39.427  26.609  28.989  1.00  0.00     0.010 A 
ATOM     41  C   UNL A   1      40.000  27.577  28.164  1.00  0.00    -0.014 A 
BRANCH  41  42
ATOM     42  C   UNL A   1      40.209  28.864  28.806  1.00  0.00     0.031 A 
ATOM     43  C   UNL A   1      39.081  29.803  28.969  1.00  0.00     0.074 A 
ATOM     44  C   UNL A   1      41.352  29.043  29.505  1.00  0.00     0.049 A 
ATOM     45  N   UNL A   1      39.211  30.997  29.426  1.00  0.00    -0.248 NA
ATOM     46  C   UNL A   1      37.697  29.466  28.648  1.00  0.00     0.031 C 
ATOM     47  C   UNL A   1      41.592  29.972  30.610  1.00  0.00     0.029 A 
ATOM     48  N   UNL A   1      42.567  28.398  29.367  1.00  0.00    -0.354 N 
ATOM     49  C   UNL A   1      37.962  31.481  29.721  1.00  0.00     0.074 A 
ATOM     50  C   UNL A   1      37.044  30.503  29.185  1.00  0.00     0.031 C 
ATOM     51  C   UNL A   1      42.896  29.967  30.931  1.00  0.00     0.029 A 
ATOM     52  C   UNL A   1      43.577  29.198  29.908  1.00  0.00     0.049 A 
ATOM     53  H   UNL A   1      42.700  27.516  28.950  1.00  0.00     0.167 HD
ATOM     54  C   UNL A   1      37.859  32.603  30.485  1.00  0.00     0.037 A 
ATOM     55  C   UNL A   1      44.524  29.737  29.083  1.00  0.00     0.037 A 
ATOM     56  C   UNL A   1      39.182  33.107  30.859  1.00  0.00     0.049 A 
ATOM     57  C   UNL A   1      44.353  31.240  28.971  1.00  0.00     0.074 A 
ATOM     58  C   UNL A   1      39.934  33.012  32.020  1.00  0.00     0.029 A 
ATOM     59  N   UNL A   1      40.068  33.508  29.857  1.00  0.00    -0.354 N 
ATOM     60  N   UNL A   1      43.206  31.859  29.108  1.00  0.00    -0.248 NA
ATOM     61  C   UNL A   1      45.474  32.164  28.841  1.00  0.00     0.031 C 
ATOM     62  C   UNL A   1      41.286  33.308  31.698  1.00  0.00     0.029 A 
ATOM     63  C   UNL A   1      41.357  33.606  30.346  1.00  0.00     0.049 A 
ATOM     64  H   UNL A   1      39.810  33.697  28.925  1.00  0.00     0.167 HD
ATOM     65  C   UNL A   1      43.427  33.207  29.201  1.00  0.00     0.074 A 
ATOM     66  C   UNL A   1      44.857  33.351  28.983  1.00  0.00     0.031 C 
ATOM     67  C   UNL A   1      42.453  34.111  29.527  1.00  0.00     0.037 A 
BRANCH  54  68
ATOM     68  C   UNL A   1      36.554  33.078  31.077  1.00  0.00     0.064 A 
ATOM     69  C   UNL A   1      35.586  33.745  30.297  1.00  0.00     0.173 A 
ATOM     70  C   UNL A   1      36.211  32.909  32.433  1.00  0.00     0.173 A 
ATOM     71  F   UNL A   1      35.746  33.919  28.980  1.00  0.00    -0.203 F 
ATOM     72  C   UNL A   1      34.413  34.273  30.849  1.00  0.00     0.198 A 
ATOM     73  C   UNL A   1      35.068  33.486  32.996  1.00  0.00     0.198 A 
ATOM     74  F   UNL A   1      36.957  32.147  33.245  1.00  0.00    -0.203 F 
ATOM     75  F   UNL A   1      33.527  34.893  30.058  1.00  0.00    -0.200 F 
ATOM     76  C   UNL A   1      34.170  34.172  32.203  1.00  0.00     0.200 A 
ATOM     77  F   UNL A   1      34.845  33.374  34.313  1.00  0.00    -0.200 F 
ATOM     78  F   UNL A   1      33.067  34.714  32.738  1.00  0.00    -0.200 F 
ENDBRANCH  54  68
BRANCH  55  79
ATOM     79  C   UNL A   1      44.936  28.760  28.032  1.00  0.00     0.064 A 
ATOM     80  C   UNL A   1      45.682  27.652  28.496  1.00  0.00     0.173 A 
ATOM     81  C   UNL A   1      44.194  28.585  26.856  1.00  0.00     0.173 A 
ATOM     82  F   UNL A   1      46.414  27.766  29.616  1.00  0.00    -0.203 F 
ATOM     83  C   UNL A   1      45.523  26.384  27.940  1.00  0.00     0.198 A 
ATOM     84  C   UNL A   1      44.065  27.314  26.280  1.00  0.00     0.198 A 
ATOM     85  F   UNL A   1      43.458  29.590  26.362  1.00  0.00    -0.203 F 
ATOM     86  F   UNL A   1      46.083  25.320  28.530  1.00  0.00    -0.200 F 
ATOM     87  C   UNL A   1      44.681  26.211  26.856  1.00  0.00     0.200 A 
ATOM     88  F   UNL A   1      43.239  27.133  25.238  1.00  0.00    -0.200 F 
ATOM     89  F   UNL A   1      44.411  24.975  26.409  1.00  0.00    -0.200 F 
ENDBRANCH  55  79
BRANCH  67  90
ATOM     90  C   UNL A   1      42.496  35.597  29.238  1.00  0.00     0.064 A 
ATOM     91  C   UNL A   1      43.283  36.507  29.962  1.00  0.00     0.173 A 
ATOM     92  C   UNL A   1      41.882  36.128  28.072  1.00  0.00     0.173 A 
ATOM     93  F   UNL A   1      44.008  36.122  31.021  1.00  0.00    -0.203 F 
ATOM     94  C   UNL A   1      43.410  37.846  29.581  1.00  0.00     0.198 A 
ATOM     95  C   UNL A   1      42.066  37.446  27.660  1.00  0.00     0.198 A 
ATOM     96  F   UNL A   1      41.118  35.378  27.265  1.00  0.00    -0.203 F 
ATOM     97  F   UNL A   1      44.146  38.678  30.331  1.00  0.00    -0.200 F 
ATOM     98  C   UNL A   1      42.820  38.309  28.422  1.00  0.00     0.200 A 
ATOM     99  F   UNL A   1      41.531  37.860  26.502  1.00  0.00    -0.200 F 
ATOM    100  F   UNL A   1      42.998  39.578  28.029  1.00  0.00    -0.200 F 
ENDBRANCH  67  90
ENDBRANCH  41  42
ENDBRANCH  33  36
ENDBRANCH  31  32
ENDBRANCH  30  31
ENDBRANCH   1  30
TORSDOF 14
ENDMDL
MODEL 2
REMARK VINA RESULT:     -14.5      3.576     10.048
REMARK SMILES COc1cc2ccccc2cc1C(=O)Nc1cc(C(=O)NCCCCNC(=O)c2ccc(-c3c4nc(c(-c5c(F)c(F)c(F)c(F)c5F)c5ccc([nH]5)c(-c5c(F)c(F)c(F)c(F)c5F)c5nc(c(-c6c(F)c(F)c(F)c(F)c6F)c6ccc3[nH]6)C=C5)C=C4)cc2)ccc1C
REMARK SMILES IDX 23 1 22 2 21 3 19 4 20 5 18 7 16 8 17 9 94 10 93 11 95 12
REMARK SMILES IDX 92 13 15 14 13 15 14 16 12 18 3 19 4 20 5 21 11 22 6 23
REMARK SMILES IDX 10 24 7 25 9 26 8 27 2 28 1 29 24 30 25 31 26 32 27 33 28 35
REMARK SMILES IDX 29 36 30 37 91 38 31 39 90 40 32 41 33 42 34 43 84 44 35 45
REMARK SMILES IDX 89 46 83 47 85 48 36 49 88 50 82 51 81 52 37 54 69 55 49 56
REMARK SMILES IDX 68 57 50 58 53 59 67 60 86 61 51 62 52 63 66 65 87 66 54 67
REMARK SMILES IDX 38 68 39 69 47 70 40 71 41 72 45 73 48 74 42 75 43 76 46 77
REMARK SMILES IDX 44 78 70 79 71 80 79 81 72 82 73 83 77 84 80 85 74 86 75 87
REMARK SMILES IDX 78 88 76 89 55 90 56 91 64 92 57 93 58 94 62 95 65 96 59 97
REMARK SMILES IDX 60 98 63 99 61 100
REMARK H PARENT 21 6 15 17 26 34 85 53 53 64
REMARK Flexibility Score: inf
ROOT
ATOM      1  C   UNL A   1      32.101  29.566  26.543  1.00  0.00     0.023 C 
ENDROOT
BRANCH   1   2
ATOM      2  C   UNL A   1      31.821  29.888  25.068  1.00  0.00     0.116 C 
BRANCH   2   3
ATOM      3  N   UNL A   1      32.978  29.675  24.221  1.00  0.00    -0.352 N 
ATOM      4  C   UNL A   1      33.492  28.586  23.561  1.00  0.00     0.251 C 
ATOM      5  O   UNL A   1      34.503  28.791  22.882  1.00  0.00    -0.269 OA
ATOM      6  H   UNL A   1      33.513  30.492  24.091  1.00  0.00     0.163 HD
BRANCH   4   7
ATOM      7  C   UNL A   1      32.903  27.211  23.571  1.00  0.00     0.041 A 
ATOM      8  C   UNL A   1      32.056  25.223  24.688  1.00  0.00     0.045 A 
ATOM      9  C   UNL A   1      32.843  26.381  24.681  1.00  0.00     0.040 A 
ATOM     10  C   UNL A   1      31.537  24.708  23.496  1.00  0.00    -0.027 A 
ATOM     11  C   UNL A   1      31.655  25.504  22.347  1.00  0.00     0.006 A 
ATOM     12  C   UNL A   1      30.699  23.465  23.423  1.00  0.00     0.046 C 
ATOM     13  C   UNL A   1      32.288  26.755  22.396  1.00  0.00     0.014 A 
BRANCH   8  14
ATOM     14  N   UNL A   1      31.667  24.699  25.935  1.00  0.00    -0.322 N 
ATOM     15  C   UNL A   1      32.164  23.542  26.527  1.00  0.00     0.259 C 
ATOM     16  O   UNL A   1      31.611  23.071  27.520  1.00  0.00    -0.269 OA
ATOM     17  H   UNL A   1      30.982  25.197  26.435  1.00  0.00     0.170 HD
BRANCH  15  18
ATOM     18  C   UNL A   1      33.405  22.876  26.015  1.00  0.00     0.082 A 
ATOM     19  C   UNL A   1      33.409  21.651  25.334  1.00  0.00     0.132 A 
ATOM     20  C   UNL A   1      34.606  20.992  25.045  1.00  0.00     0.056 A 
ATOM     21  C   UNL A   1      35.832  21.583  25.339  1.00  0.00    -0.015 A 
ATOM     22  C   UNL A   1      34.633  23.509  26.254  1.00  0.00     0.026 A 
ATOM     23  C   UNL A   1      37.032  20.924  25.035  1.00  0.00     0.009 A 
ATOM     24  C   UNL A   1      35.848  22.863  25.937  1.00  0.00    -0.017 A 
ATOM     25  C   UNL A   1      38.255  21.519  25.319  1.00  0.00     0.001 A 
ATOM     26  C   UNL A   1      37.089  23.432  26.236  1.00  0.00     0.009 A 
ATOM     27  C   UNL A   1      38.278  22.761  25.932  1.00  0.00     0.001 A 
BRANCH  19  28
ATOM     28  O   UNL A   1      32.281  20.977  24.950  1.00  0.00    -0.496 OA
ATOM     29  C   UNL A   1      32.557  19.596  24.750  1.00  0.00     0.278 C 
ENDBRANCH  19  28
ENDBRANCH  15  18
ENDBRANCH   8  14
ENDBRANCH   4   7
ENDBRANCH   2   3
ENDBRANCH   1   2
BRANCH   1  30
ATOM     30  C   UNL A   1      32.818  30.702  27.281  1.00  0.00     0.023 C 
BRANCH  30  31
ATOM     31  C   UNL A   1      34.280  30.376  27.560  1.00  0.00     0.116 C 
BRANCH  31  32
ATOM     32  N   UNL A   1      35.082  31.483  28.051  1.00  0.00    -0.352 N 
ATOM     33  C   UNL A   1      36.314  31.486  28.688  1.00  0.00     0.251 C 
ATOM     34  H   UNL A   1      34.689  32.374  27.907  1.00  0.00     0.163 HD
ATOM     35  O   UNL A   1      36.729  32.526  29.170  1.00  0.00    -0.269 OA
BRANCH  33  36
ATOM     36  C   UNL A   1      37.197  30.282  28.675  1.00  0.00     0.039 A 
ATOM     37  C   UNL A   1      37.162  29.420  29.787  1.00  0.00     0.014 A 
ATOM     38  C   UNL A   1      38.155  30.072  27.694  1.00  0.00     0.014 A 
ATOM     39  C   UNL A   1      38.203  28.517  30.011  1.00  0.00     0.010 A 
ATOM     40  C   UNL A   1      39.249  29.288  27.975  1.00  0.00     0.010 A 
ATOM     41  C   UNL A   1      39.293  28.538  29.151  1.00  0.00    -0.014 A 
BRANCH  41  42
ATOM     42  C   UNL A   1      40.573  27.897  29.405  1.00  0.00     0.031 A 
ATOM     43  C   UNL A   1      40.888  26.598  28.778  1.00  0.00     0.074 A 
ATOM     44  C   UNL A   1      41.554  28.643  29.959  1.00  0.00     0.049 A 
ATOM     45  N   UNL A   1      41.950  25.922  29.039  1.00  0.00    -0.248 NA
ATOM     46  C   UNL A   1      40.039  25.956  27.778  1.00  0.00     0.031 C 
ATOM     47  C   UNL A   1      43.000  28.440  29.861  1.00  0.00     0.029 A 
ATOM     48  N   UNL A   1      41.448  29.778  30.742  1.00  0.00    -0.354 N 
ATOM     49  C   UNL A   1      42.076  24.940  28.090  1.00  0.00     0.074 A 
ATOM     50  C   UNL A   1      40.841  24.978  27.343  1.00  0.00     0.031 C 
ATOM     51  C   UNL A   1      43.634  29.294  30.682  1.00  0.00     0.029 A 
ATOM     52  C   UNL A   1      42.616  29.929  31.495  1.00  0.00     0.049 A 
ATOM     53  H   UNL A   1      40.672  30.383  30.767  1.00  0.00     0.167 HD
ATOM     54  C   UNL A   1      43.265  24.284  27.982  1.00  0.00     0.037 A 
ATOM     55  C   UNL A   1      42.562  29.795  32.854  1.00  0.00     0.037 A 
ATOM     56  C   UNL A   1      44.230  24.782  28.964  1.00  0.00     0.049 A 
ATOM     57  C   UNL A   1      43.267  28.529  33.302  1.00  0.00     0.074 A 
ATOM     58  C   UNL A   1      45.299  25.662  28.873  1.00  0.00     0.029 A 
ATOM     59  N   UNL A   1      43.945  24.660  30.325  1.00  0.00    -0.354 N 
ATOM     60  N   UNL A   1      43.377  27.452  32.564  1.00  0.00    -0.248 NA
ATOM     61  C   UNL A   1      44.018  28.431  34.548  1.00  0.00     0.031 C 
ATOM     62  C   UNL A   1      45.618  26.106  30.184  1.00  0.00     0.029 A 
ATOM     63  C   UNL A   1      44.762  25.482  31.078  1.00  0.00     0.049 A 
ATOM     64  H   UNL A   1      43.253  24.067  30.700  1.00  0.00     0.167 HD
ATOM     65  C   UNL A   1      44.271  26.593  33.147  1.00  0.00     0.074 A 
ATOM     66  C   UNL A   1      44.609  27.231  34.408  1.00  0.00     0.031 C 
ATOM     67  C   UNL A   1      44.738  25.461  32.536  1.00  0.00     0.037 A 
BRANCH  54  68
ATOM     68  C   UNL A   1      43.599  23.374  26.825  1.00  0.00     0.064 A 
ATOM     69  C   UNL A   1      43.165  22.032  26.789  1.00  0.00     0.173 A 
ATOM     70  C   UNL A   1      44.368  23.779  25.717  1.00  0.00     0.173 A 
ATOM     71  F   UNL A   1      42.373  21.526  27.741  1.00  0.00    -0.203 F 
ATOM     72  C   UNL A   1      43.543  21.148  25.772  1.00  0.00     0.198 A 
ATOM     73  C   UNL A   1      44.794  22.883  24.731  1.00  0.00     0.198 A 
ATOM     74  F   UNL A   1      44.699  25.065  25.538  1.00  0.00    -0.203 F 
ATOM     75  F   UNL A   1      43.097  19.885  25.787  1.00  0.00    -0.200 F 
ATOM     76  C   UNL A   1      44.384  21.566  24.760  1.00  0.00     0.200 A 
ATOM     77  F   UNL A   1      45.606  23.307  23.752  1.00  0.00    -0.200 F 
ATOM     78  F   UNL A   1      44.780  20.709  23.808  1.00  0.00    -0.200 F 
ENDBRANCH  54  68
BRANCH  55  79
ATOM     79  C   UNL A   1      41.325  30.425  33.405  1.00  0.00     0.064 A 
ATOM     80  C   UNL A   1      41.282  31.836  33.332  1.00  0.00     0.173 A 
ATOM     81  C   UNL A   1      40.099  29.746  33.426  1.00  0.00     0.173 A 
ATOM     82  F   UNL A   1      42.428  32.536  33.313  1.00  0.00    -0.203 F 
ATOM     83  C   UNL A   1      40.092  32.514  33.076  1.00  0.00     0.198 A 
ATOM     84  C   UNL A   1      38.902  30.438  33.203  1.00  0.00     0.198 A 
ATOM     85  F   UNL A   1      40.065  28.408  33.487  1.00  0.00    -0.203 F 
ATOM     86  F   UNL A   1      40.114  33.827  32.808  1.00  0.00    -0.200 F 
ATOM     87  C   UNL A   1      38.908  31.807  32.971  1.00  0.00     0.200 A 
ATOM     88  F   UNL A   1      37.750  29.759  33.084  1.00  0.00    -0.200 F 
ATOM     89  F   UNL A   1      37.786  32.432  32.582  1.00  0.00    -0.200 F 
ENDBRANCH  55  79
BRANCH  67  90
ATOM     90  C   UNL A   1      45.360  24.272  33.238  1.00  0.00     0.064 A 
ATOM     91  C   UNL A   1      46.652  24.284  33.790  1.00  0.00     0.173 A 
ATOM     92  C   UNL A   1      44.582  23.127  33.554  1.00  0.00     0.173 A 
ATOM     93  F   UNL A   1      47.458  25.346  33.668  1.00  0.00    -0.203 F 
ATOM     94  C   UNL A   1      47.141  23.221  34.555  1.00  0.00     0.198 A 
ATOM     95  C   UNL A   1      45.051  22.101  34.371  1.00  0.00     0.198 A 
ATOM     96  F   UNL A   1      43.321  22.980  33.119  1.00  0.00    -0.203 F 
ATOM     97  F   UNL A   1      48.395  23.272  35.026  1.00  0.00    -0.200 F 
ATOM     98  C   UNL A   1      46.337  22.142  34.861  1.00  0.00     0.200 A 
ATOM     99  F   UNL A   1      44.235  21.091  34.704  1.00  0.00    -0.200 F 
ATOM    100  F   UNL A   1      46.791  21.157  35.647  1.00  0.00    -0.200 F 
ENDBRANCH  67  90
ENDBRANCH  41  42
ENDBRANCH  33  36
ENDBRANCH  31  32
ENDBRANCH  30  31
ENDBRANCH   1  30
TORSDOF 14
ENDMDL
MODEL 3
REMARK VINA RESULT:     -14.0      0.927      2.039
REMARK SMILES COc1cc2ccccc2cc1C(=O)Nc1cc(C(=O)NCCCCNC(=O)c2ccc(-c3c4nc(c(-c5c(F)c(F)c(F)c(F)c5F)c5ccc([nH]5)c(-c5c(F)c(F)c(F)c(F)c5F)c5nc(c(-c6c(F)c(F)c(F)c(F)c6F)c6ccc3[nH]6)C=C5)C=C4)cc2)ccc1C
REMARK SMILES IDX 23 1 22 2 21 3 19 4 20 5 18 7 16 8 17 9 94 10 93 11 95 12
REMARK SMILES IDX 92 13 15 14 13 15 14 16 12 18 3 19 4 20 5 21 11 22 6 23
REMARK SMILES IDX 10 24 7 25 9 26 8 27 2 28 1 29 24 30 25 31 26 32 27 33 28 35
REMARK SMILES IDX 29 36 30 37 91 38 31 39 90 40 32 41 33 42 34 43 84 44 35 45
REMARK SMILES IDX 89 46 83 47 85 48 36 49 88 50 82 51 81 52 37 54 69 55 49 56
REMARK SMILES IDX 68 57 50 58 53 59 67 60 86 61 51 62 52 63 66 65 87 66 54 67
REMARK SMILES IDX 38 68 39 69 47 70 40 71 41 72 45 73 48 74 42 75 43 76 46 77
REMARK SMILES IDX 44 78 70 79 71 80 79 81 72 82 73 83 77 84 80 85 74 86 75 87
REMARK SMILES IDX 78 88 76 89 55 90 56 91 64 92 57 93 58 94 62 95 65 96 59 97
REMARK SMILES IDX 60 98 63 99 61 100
REMARK H PARENT 21 6 15 17 26 34 85 53 53 64
REMARK Flexibility Score: inf
ROOT
ATOM      1  C   UNL A   1      36.447  20.741  25.286  1.00  0.00     0.023 C 
ENDROOT
BRANCH   1   2
ATOM      2  C   UNL A   1      34.975  21.035  24.963  1.00  0.00     0.116 C 
BRANCH   2   3
ATOM      3  N   UNL A   1      34.340  21.868  25.966  1.00  0.00    -0.352 N 
ATOM      4  C   UNL A   1      33.499  22.952  25.915  1.00  0.00     0.251 C 
ATOM      5  O   UNL A   1      33.116  23.393  27.002  1.00  0.00    -0.269 OA
ATOM      6  H   UNL A   1      34.560  21.594  26.886  1.00  0.00     0.163 HD
BRANCH   4   7
ATOM      7  C   UNL A   1      32.992  23.595  24.663  1.00  0.00     0.041 A 
ATOM      8  C   UNL A   1      31.232  24.514  23.255  1.00  0.00     0.045 A 
ATOM      9  C   UNL A   1      31.655  23.681  24.300  1.00  0.00     0.040 A 
ATOM     10  C   UNL A   1      32.158  25.058  22.361  1.00  0.00    -0.027 A 
ATOM     11  C   UNL A   1      33.517  24.915  22.675  1.00  0.00     0.006 A 
ATOM     12  C   UNL A   1      31.779  25.945  21.210  1.00  0.00     0.046 C 
ATOM     13  C   UNL A   1      33.923  24.233  23.832  1.00  0.00     0.014 A 
BRANCH   8  14
ATOM     14  N   UNL A   1      29.884  24.917  23.240  1.00  0.00    -0.322 N 
ATOM     15  C   UNL A   1      29.368  26.070  23.822  1.00  0.00     0.259 C 
ATOM     16  O   UNL A   1      28.151  26.220  23.921  1.00  0.00    -0.269 OA
ATOM     17  H   UNL A   1      29.247  24.329  22.773  1.00  0.00     0.170 HD
BRANCH  15  18
ATOM     18  C   UNL A   1      30.266  27.176  24.288  1.00  0.00     0.082 A 
ATOM     19  C   UNL A   1      30.534  28.331  23.541  1.00  0.00     0.132 A 
ATOM     20  C   UNL A   1      31.519  29.236  23.943  1.00  0.00     0.056 A 
ATOM     21  C   UNL A   1      32.192  29.064  25.150  1.00  0.00    -0.015 A 
ATOM     22  C   UNL A   1      30.890  27.029  25.536  1.00  0.00     0.026 A 
ATOM     23  C   UNL A   1      33.172  29.981  25.558  1.00  0.00     0.009 A 
ATOM     24  C   UNL A   1      31.865  27.956  25.964  1.00  0.00    -0.017 A 
ATOM     25  C   UNL A   1      33.835  29.815  26.766  1.00  0.00     0.001 A 
ATOM     26  C   UNL A   1      32.562  27.795  27.164  1.00  0.00     0.009 A 
ATOM     27  C   UNL A   1      33.540  28.716  27.556  1.00  0.00     0.001 A 
BRANCH  19  28
ATOM     28  O   UNL A   1      29.921  28.646  22.359  1.00  0.00    -0.496 OA
ATOM     29  C   UNL A   1      28.781  29.468  22.581  1.00  0.00     0.278 C 
ENDBRANCH  19  28
ENDBRANCH  15  18
ENDBRANCH   8  14
ENDBRANCH   4   7
ENDBRANCH   2   3
ENDBRANCH   1   2
BRANCH   1  30
ATOM     30  C   UNL A   1      37.403  21.823  24.772  1.00  0.00     0.023 C 
BRANCH  30  31
ATOM     31  C   UNL A   1      37.807  22.803  25.866  1.00  0.00     0.116 C 
BRANCH  31  32
ATOM     32  N   UNL A   1      39.061  22.507  26.537  1.00  0.00    -0.352 N 
ATOM     33  C   UNL A   1      40.028  23.359  27.047  1.00  0.00     0.251 C 
ATOM     34  H   UNL A   1      39.254  21.549  26.647  1.00  0.00     0.163 HD
ATOM     35  O   UNL A   1      41.091  22.893  27.420  1.00  0.00    -0.269 OA
BRANCH  33  36
ATOM     36  C   UNL A   1      39.745  24.808  27.276  1.00  0.00     0.039 A 
ATOM     37  C   UNL A   1      40.317  25.743  26.394  1.00  0.00     0.014 A 
ATOM     38  C   UNL A   1      39.082  25.267  28.404  1.00  0.00     0.014 A 
ATOM     39  C   UNL A   1      40.411  27.088  26.759  1.00  0.00     0.010 A 
ATOM     40  C   UNL A   1      39.291  26.557  28.832  1.00  0.00     0.010 A 
ATOM     41  C   UNL A   1      39.988  27.460  28.028  1.00  0.00    -0.014 A 
BRANCH  41  42
ATOM     42  C   UNL A   1      40.287  28.728  28.673  1.00  0.00     0.031 A 
ATOM     43  C   UNL A   1      39.220  29.729  28.872  1.00  0.00     0.074 A 
ATOM     44  C   UNL A   1      41.456  28.835  29.342  1.00  0.00     0.049 A 
ATOM     45  N   UNL A   1      39.430  30.910  29.334  1.00  0.00    -0.248 NA
ATOM     46  C   UNL A   1      37.810  29.474  28.586  1.00  0.00     0.031 C 
ATOM     47  C   UNL A   1      41.778  29.740  30.447  1.00  0.00     0.029 A 
ATOM     48  N   UNL A   1      42.629  28.124  29.167  1.00  0.00    -0.354 N 
ATOM     49  C   UNL A   1      38.219  31.461  29.664  1.00  0.00     0.074 A 
ATOM     50  C   UNL A   1      37.233  30.542  29.147  1.00  0.00     0.031 C 
ATOM     51  C   UNL A   1      43.088  29.659  30.733  1.00  0.00     0.029 A 
ATOM     52  C   UNL A   1      43.697  28.861  29.687  1.00  0.00     0.049 A 
ATOM     53  H   UNL A   1      42.701  27.239  28.742  1.00  0.00     0.167 HD
ATOM     54  C   UNL A   1      38.200  32.582  30.439  1.00  0.00     0.037 A 
ATOM     55  C   UNL A   1      44.651  29.352  28.840  1.00  0.00     0.037 A 
ATOM     56  C   UNL A   1      39.559  33.006  30.780  1.00  0.00     0.049 A 
ATOM     57  C   UNL A   1      44.563  30.863  28.742  1.00  0.00     0.074 A 
ATOM     58  C   UNL A   1      40.334  32.859  31.920  1.00  0.00     0.029 A 
ATOM     59  N   UNL A   1      40.440  33.364  29.758  1.00  0.00    -0.354 N 
ATOM     60  N   UNL A   1      43.457  31.544  28.914  1.00  0.00    -0.248 NA
ATOM     61  C   UNL A   1      45.731  31.722  28.589  1.00  0.00     0.031 C 
ATOM     62  C   UNL A   1      41.692  33.080  31.564  1.00  0.00     0.029 A 
ATOM     63  C   UNL A   1      41.745  33.384  30.213  1.00  0.00     0.049 A 
ATOM     64  H   UNL A   1      40.168  33.575  28.834  1.00  0.00     0.167 HD
ATOM     65  C   UNL A   1      43.758  32.877  29.010  1.00  0.00     0.074 A 
ATOM     66  C   UNL A   1      45.187  32.941  28.755  1.00  0.00     0.031 C 
ATOM     67  C   UNL A   1      42.846  33.833  29.368  1.00  0.00     0.037 A 
BRANCH  54  68
ATOM     68  C   UNL A   1      36.940  33.125  31.069  1.00  0.00     0.064 A 
ATOM     69  C   UNL A   1      36.655  32.935  32.438  1.00  0.00     0.173 A 
ATOM     70  C   UNL A   1      35.960  33.837  30.352  1.00  0.00     0.173 A 
ATOM     71  F   UNL A   1      37.525  32.332  33.257  1.00  0.00    -0.203 F 
ATOM     72  C   UNL A   1      35.451  33.350  33.017  1.00  0.00     0.198 A 
ATOM     73  C   UNL A   1      34.733  34.201  30.916  1.00  0.00     0.198 A 
ATOM     74  F   UNL A   1      36.179  34.237  29.091  1.00  0.00    -0.203 F 
ATOM     75  F   UNL A   1      35.237  33.147  34.324  1.00  0.00    -0.200 F 
ATOM     76  C   UNL A   1      34.477  33.954  32.249  1.00  0.00     0.200 A 
ATOM     77  F   UNL A   1      33.800  34.792  30.156  1.00  0.00    -0.200 F 
ATOM     78  F   UNL A   1      33.307  34.314  32.795  1.00  0.00    -0.200 F 
ENDBRANCH  54  68
BRANCH  55  79
ATOM     79  C   UNL A   1      44.979  28.360  27.772  1.00  0.00     0.064 A 
ATOM     80  C   UNL A   1      45.671  27.207  28.209  1.00  0.00     0.173 A 
ATOM     81  C   UNL A   1      44.198  28.239  26.614  1.00  0.00     0.173 A 
ATOM     82  F   UNL A   1      46.436  27.270  29.311  1.00  0.00    -0.203 F 
ATOM     83  C   UNL A   1      45.424  25.956  27.649  1.00  0.00     0.198 A 
ATOM     84  C   UNL A   1      43.981  26.982  26.034  1.00  0.00     0.198 A 
ATOM     85  F   UNL A   1      43.509  29.289  26.147  1.00  0.00    -0.203 F 
ATOM     86  F   UNL A   1      45.937  24.856  28.217  1.00  0.00    -0.200 F 
ATOM     87  C   UNL A   1      44.546  25.840  26.586  1.00  0.00     0.200 A 
ATOM     88  F   UNL A   1      43.120  26.858  25.012  1.00  0.00    -0.200 F 
ATOM     89  F   UNL A   1      44.194  24.627  26.137  1.00  0.00    -0.200 F 
ENDBRANCH  55  79
BRANCH  67  90
ATOM     90  C   UNL A   1      42.966  35.316  29.088  1.00  0.00     0.064 A 
ATOM     91  C   UNL A   1      42.312  35.962  28.026  1.00  0.00     0.173 A 
ATOM     92  C   UNL A   1      43.600  36.182  30.019  1.00  0.00     0.173 A 
ATOM     93  F   UNL A   1      41.581  35.282  27.133  1.00  0.00    -0.203 F 
ATOM     94  C   UNL A   1      42.328  37.352  27.879  1.00  0.00     0.198 A 
ATOM     95  C   UNL A   1      43.557  37.569  29.904  1.00  0.00     0.198 A 
ATOM     96  F   UNL A   1      44.247  35.717  31.098  1.00  0.00    -0.203 F 
ATOM     97  F   UNL A   1      41.717  37.910  26.825  1.00  0.00    -0.200 F 
ATOM     98  C   UNL A   1      42.932  38.155  28.826  1.00  0.00     0.200 A 
ATOM     99  F   UNL A   1      44.100  38.332  30.864  1.00  0.00    -0.200 F 
ATOM    100  F   UNL A   1      42.890  39.489  28.713  1.00  0.00    -0.200 F 
ENDBRANCH  67  90
ENDBRANCH  41  42
ENDBRANCH  33  36
ENDBRANCH  31  32
ENDBRANCH  30  31
ENDBRANCH   1  30
TORSDOF 14
ENDMDL
