MODEL 1
REMARK VINA RESULT:     -14.3      0.000      0.000
REMARK SMILES Cc1c(C(=O)NCCCCNC(=O)c2ccc(-c3c4nc(c(-c5c(F)c(F)c(F)c(F)c5F)c5ccc([nH]5)c(-c5c(F)c(F)c(F)c(F)c5F)c5nc(c(-c6c(F)c(F)c(F)c(F)c6F)c6ccc3[nH]6)C=C5)C=C4)cc2)oc2c1/C(=N/NC(=O)C(c1ccccc1)c1ccccc1)CCC2
REMARK SMILES IDX 8 1 7 2 6 3 4 4 5 5 3 7 1 8 2 9 79 10 77 11 78 12 80 13
REMARK SMILES IDX 100 14 81 15 98 16 99 17 82 18 83 19 84 21 85 22 86 23 87 24
REMARK SMILES IDX 91 25 88 26 90 27 89 28 92 29 93 30 97 31 94 32 96 33 95 34
REMARK SMILES IDX 9 35 10 36 11 37 12 38 13 40 14 41 15 42 76 43 16 44 75 45
REMARK SMILES IDX 17 46 18 47 19 48 69 49 20 50 74 51 68 52 70 53 21 54 73 55
REMARK SMILES IDX 67 56 66 57 22 59 54 60 34 61 53 62 35 63 38 64 52 65 71 66
REMARK SMILES IDX 36 67 37 68 51 70 72 71 39 72 23 73 24 74 32 75 25 76 26 77
REMARK SMILES IDX 30 78 33 79 27 80 28 81 31 82 29 83 55 84 56 85 64 86 57 87
REMARK SMILES IDX 58 88 62 89 65 90 59 91 60 92 63 93 61 94 40 95 41 96 49 97
REMARK SMILES IDX 42 98 43 99 47 100 50 101 44 102 45 103 48 104 46 105
REMARK H PARENT 6 6 82 20 11 39 70 58 38 69
REMARK Flexibility Score: inf
ROOT
ATOM      1  C   UNL A   1      36.547  19.621  25.175  1.00  0.00     0.023 C 
ENDROOT
BRANCH   1   2
ATOM      2  C   UNL A   1      35.556  18.907  24.237  1.00  0.00     0.116 C 
BRANCH   2   3
ATOM      3  N   UNL A   1      34.412  18.291  24.930  1.00  0.00    -0.349 N 
ATOM      4  C   UNL A   1      33.184  18.824  25.336  1.00  0.00     0.287 C 
ATOM      5  O   UNL A   1      32.336  18.040  25.764  1.00  0.00    -0.266 OA
ATOM      6  H   UNL A   1      34.533  17.338  25.146  1.00  0.00     0.163 HD
BRANCH   4   7
ATOM      7  C   UNL A   1      32.956  20.247  25.182  1.00  0.00     0.195 A 
ATOM      8  C   UNL A   1      31.904  20.734  22.861  1.00  0.00     0.049 C 
ATOM      9  C   UNL A   1      32.481  21.110  24.177  1.00  0.00     0.010 A 
ATOM     10  C   UNL A   1      32.834  22.436  24.619  1.00  0.00     0.043 A 
ATOM     11  O   UNL A   1      33.353  20.981  26.242  1.00  0.00    -0.455 OA
ATOM     12  C   UNL A   1      33.465  22.226  25.830  1.00  0.00     0.114 A 
ATOM     13  C   UNL A   1      32.834  23.809  24.097  1.00  0.00     0.072 C 
ATOM     14  C   UNL A   1      34.321  23.091  26.654  1.00  0.00     0.076 C 
ATOM     15  N   UNL A   1      32.034  24.166  23.138  1.00  0.00    -0.177 NA
ATOM     16  C   UNL A   1      33.893  24.613  24.784  1.00  0.00     0.059 C 
ATOM     17  C   UNL A   1      33.951  24.498  26.300  1.00  0.00     0.014 C 
BRANCH  15  18
ATOM     18  N   UNL A   1      31.828  25.378  22.487  1.00  0.00    -0.246 N 
ATOM     19  C   UNL A   1      31.253  26.633  22.619  1.00  0.00     0.252 C 
ATOM     20  H   UNL A   1      32.250  25.325  21.599  1.00  0.00     0.193 HD
ATOM     21  O   UNL A   1      31.308  27.348  21.601  1.00  0.00    -0.272 OA
BRANCH  19  22
ATOM     22  C   UNL A   1      30.566  27.241  23.886  1.00  0.00     0.140 C 
BRANCH  22  23
ATOM     23  C   UNL A   1      31.692  27.487  24.969  1.00  0.00    -0.031 A 
ATOM     24  C   UNL A   1      31.516  27.341  26.355  1.00  0.00     0.005 A 
ATOM     25  C   UNL A   1      32.964  27.972  24.562  1.00  0.00     0.005 A 
ATOM     26  C   UNL A   1      32.473  27.839  27.265  1.00  0.00     0.000 A 
ATOM     27  C   UNL A   1      33.903  28.488  25.459  1.00  0.00     0.000 A 
ATOM     28  C   UNL A   1      33.643  28.452  26.817  1.00  0.00     0.000 A 
ENDBRANCH  22  23
BRANCH  22  29
ATOM     29  C   UNL A   1      29.550  28.348  23.374  1.00  0.00    -0.031 A 
ATOM     30  C   UNL A   1      29.948  29.710  23.430  1.00  0.00     0.005 A 
ATOM     31  C   UNL A   1      28.203  28.117  23.043  1.00  0.00     0.005 A 
ATOM     32  C   UNL A   1      29.024  30.758  23.448  1.00  0.00     0.000 A 
ATOM     33  C   UNL A   1      27.272  29.177  23.033  1.00  0.00     0.000 A 
ATOM     34  C   UNL A   1      27.675  30.487  23.291  1.00  0.00     0.000 A 
ENDBRANCH  22  29
ENDBRANCH  19  22
ENDBRANCH  15  18
ENDBRANCH   4   7
ENDBRANCH   2   3
ENDBRANCH   1   2
BRANCH   1  35
ATOM     35  C   UNL A   1      37.990  19.688  24.652  1.00  0.00     0.023 C 
BRANCH  35  36
ATOM     36  C   UNL A   1      39.036  20.050  25.704  1.00  0.00     0.116 C 
BRANCH  36  37
ATOM     37  N   UNL A   1      40.122  19.077  25.817  1.00  0.00    -0.352 N 
ATOM     38  C   UNL A   1      41.479  19.340  25.954  1.00  0.00     0.251 C 
ATOM     39  H   UNL A   1      39.862  18.127  25.795  1.00  0.00     0.163 HD
ATOM     40  O   UNL A   1      42.325  18.533  25.627  1.00  0.00    -0.269 OA
BRANCH  38  41
ATOM     41  C   UNL A   1      41.873  20.634  26.543  1.00  0.00     0.039 A 
ATOM     42  C   UNL A   1      42.427  21.664  25.774  1.00  0.00     0.014 A 
ATOM     43  C   UNL A   1      41.630  20.803  27.902  1.00  0.00     0.014 A 
ATOM     44  C   UNL A   1      42.657  22.902  26.375  1.00  0.00     0.010 A 
ATOM     45  C   UNL A   1      41.705  22.056  28.446  1.00  0.00     0.010 A 
ATOM     46  C   UNL A   1      42.277  23.092  27.711  1.00  0.00    -0.014 A 
BRANCH  46  47
ATOM     47  C   UNL A   1      42.341  24.403  28.352  1.00  0.00     0.031 A 
ATOM     48  C   UNL A   1      41.128  25.250  28.150  1.00  0.00     0.074 A 
ATOM     49  C   UNL A   1      43.278  24.665  29.293  1.00  0.00     0.049 A 
ATOM     50  N   UNL A   1      41.056  26.439  27.649  1.00  0.00    -0.248 NA
ATOM     51  C   UNL A   1      39.810  24.651  28.435  1.00  0.00     0.031 C 
ATOM     52  C   UNL A   1      44.316  23.756  29.800  1.00  0.00     0.029 A 
ATOM     53  N   UNL A   1      43.419  25.746  30.107  1.00  0.00    -0.354 N 
ATOM     54  C   UNL A   1      39.716  26.818  27.744  1.00  0.00     0.074 A 
ATOM     55  C   UNL A   1      38.982  25.618  28.038  1.00  0.00     0.031 C 
ATOM     56  C   UNL A   1      44.787  24.214  30.979  1.00  0.00     0.029 A 
ATOM     57  C   UNL A   1      44.218  25.524  31.227  1.00  0.00     0.049 A 
ATOM     58  H   UNL A   1      42.991  26.613  29.922  1.00  0.00     0.167 HD
ATOM     59  C   UNL A   1      39.368  28.132  27.854  1.00  0.00     0.037 A 
ATOM     60  C   UNL A   1      44.360  26.339  32.301  1.00  0.00     0.037 A 
ATOM     61  C   UNL A   1      40.446  28.978  27.398  1.00  0.00     0.049 A 
ATOM     62  C   UNL A   1      43.870  27.682  31.899  1.00  0.00     0.074 A 
ATOM     63  C   UNL A   1      41.141  29.114  26.212  1.00  0.00     0.029 A 
ATOM     64  N   UNL A   1      41.218  29.603  28.347  1.00  0.00    -0.354 N 
ATOM     65  N   UNL A   1      44.460  28.431  31.009  1.00  0.00    -0.248 NA
ATOM     66  C   UNL A   1      42.466  27.978  32.137  1.00  0.00     0.031 C 
ATOM     67  C   UNL A   1      42.493  29.353  26.603  1.00  0.00     0.029 A 
ATOM     68  C   UNL A   1      42.529  29.434  27.995  1.00  0.00     0.049 A 
ATOM     69  H   UNL A   1      40.886  30.086  29.139  1.00  0.00     0.167 HD
ATOM     70  C   UNL A   1      43.421  28.977  30.270  1.00  0.00     0.074 A 
ATOM     71  C   UNL A   1      42.217  28.727  31.060  1.00  0.00     0.031 C 
ATOM     72  C   UNL A   1      43.597  29.309  28.957  1.00  0.00     0.037 A 
BRANCH  59  73
ATOM     73  C   UNL A   1      38.266  28.658  28.760  1.00  0.00     0.064 A 
ATOM     74  C   UNL A   1      37.408  29.664  28.261  1.00  0.00     0.173 A 
ATOM     75  C   UNL A   1      38.216  28.476  30.161  1.00  0.00     0.173 A 
ATOM     76  F   UNL A   1      37.349  29.922  26.946  1.00  0.00    -0.203 F 
ATOM     77  C   UNL A   1      36.679  30.507  29.105  1.00  0.00     0.198 A 
ATOM     78  C   UNL A   1      37.447  29.286  30.995  1.00  0.00     0.198 A 
ATOM     79  F   UNL A   1      38.974  27.584  30.804  1.00  0.00    -0.203 F 
ATOM     80  F   UNL A   1      36.008  31.545  28.588  1.00  0.00    -0.200 F 
ATOM     81  C   UNL A   1      36.714  30.329  30.474  1.00  0.00     0.200 A 
ATOM     82  F   UNL A   1      37.498  29.098  32.321  1.00  0.00    -0.200 F 
ATOM     83  F   UNL A   1      36.082  31.181  31.290  1.00  0.00    -0.200 F 
ENDBRANCH  59  73
BRANCH  60  84
ATOM     84  C   UNL A   1      44.578  25.972  33.723  1.00  0.00     0.064 A 
ATOM     85  C   UNL A   1      45.860  26.020  34.295  1.00  0.00     0.173 A 
ATOM     86  C   UNL A   1      43.500  25.840  34.621  1.00  0.00     0.173 A 
ATOM     87  F   UNL A   1      46.939  26.191  33.518  1.00  0.00    -0.203 F 
ATOM     88  C   UNL A   1      46.050  25.967  35.682  1.00  0.00     0.198 A 
ATOM     89  C   UNL A   1      43.690  25.779  36.002  1.00  0.00     0.198 A 
ATOM     90  F   UNL A   1      42.233  25.862  34.182  1.00  0.00    -0.203 F 
ATOM     91  F   UNL A   1      47.284  26.081  36.193  1.00  0.00    -0.200 F 
ATOM     92  C   UNL A   1      44.965  25.857  36.534  1.00  0.00     0.200 A 
ATOM     93  F   UNL A   1      42.629  25.708  36.818  1.00  0.00    -0.200 F 
ATOM     94  F   UNL A   1      45.140  25.870  37.863  1.00  0.00    -0.200 F 
ENDBRANCH  60  84
BRANCH  72  95
ATOM     95  C   UNL A   1      44.999  29.327  28.415  1.00  0.00     0.064 A 
ATOM     96  C   UNL A   1      45.637  28.223  27.821  1.00  0.00     0.173 A 
ATOM     97  C   UNL A   1      45.668  30.557  28.364  1.00  0.00     0.173 A 
ATOM     98  F   UNL A   1      45.027  27.035  27.737  1.00  0.00    -0.203 F 
ATOM     99  C   UNL A   1      46.900  28.340  27.243  1.00  0.00     0.198 A 
ATOM    100  C   UNL A   1      46.912  30.680  27.752  1.00  0.00     0.198 A 
ATOM    101  F   UNL A   1      45.086  31.657  28.867  1.00  0.00    -0.203 F 
ATOM    102  F   UNL A   1      47.490  27.268  26.693  1.00  0.00    -0.200 F 
ATOM    103  C   UNL A   1      47.533  29.571  27.202  1.00  0.00     0.200 A 
ATOM    104  F   UNL A   1      47.496  31.884  27.673  1.00  0.00    -0.200 F 
ATOM    105  F   UNL A   1      48.729  29.695  26.610  1.00  0.00    -0.200 F 
ENDBRANCH  72  95
ENDBRANCH  46  47
ENDBRANCH  38  41
ENDBRANCH  36  37
ENDBRANCH  35  36
ENDBRANCH   1  35
TORSDOF 15
ENDMDL
MODEL 2
REMARK VINA RESULT:     -13.9      2.687      8.401
REMARK SMILES Cc1c(C(=O)NCCCCNC(=O)c2ccc(-c3c4nc(c(-c5c(F)c(F)c(F)c(F)c5F)c5ccc([nH]5)c(-c5c(F)c(F)c(F)c(F)c5F)c5nc(c(-c6c(F)c(F)c(F)c(F)c6F)c6ccc3[nH]6)C=C5)C=C4)cc2)oc2c1/C(=N/NC(=O)C(c1ccccc1)c1ccccc1)CCC2
REMARK SMILES IDX 8 1 7 2 6 3 4 4 5 5 3 7 1 8 2 9 79 10 77 11 78 12 80 13
REMARK SMILES IDX 100 14 81 15 98 16 99 17 82 18 83 19 84 21 85 22 86 23 87 24
REMARK SMILES IDX 91 25 88 26 90 27 89 28 92 29 93 30 97 31 94 32 96 33 95 34
REMARK SMILES IDX 9 35 10 36 11 37 12 38 13 40 14 41 15 42 76 43 16 44 75 45
REMARK SMILES IDX 17 46 18 47 19 48 69 49 20 50 74 51 68 52 70 53 21 54 73 55
REMARK SMILES IDX 67 56 66 57 22 59 54 60 34 61 53 62 35 63 38 64 52 65 71 66
REMARK SMILES IDX 36 67 37 68 51 70 72 71 39 72 23 73 24 74 32 75 25 76 26 77
REMARK SMILES IDX 30 78 33 79 27 80 28 81 31 82 29 83 55 84 56 85 64 86 57 87
REMARK SMILES IDX 58 88 62 89 65 90 59 91 60 92 63 93 61 94 40 95 41 96 49 97
REMARK SMILES IDX 42 98 43 99 47 100 50 101 44 102 45 103 48 104 46 105
REMARK H PARENT 6 6 82 20 11 39 70 58 38 69
REMARK Flexibility Score: inf
ROOT
ATOM      1  C   UNL A   1      31.859  30.554  26.204  1.00  0.00     0.023 C 
ENDROOT
BRANCH   1   2
ATOM      2  C   UNL A   1      32.040  29.813  24.867  1.00  0.00     0.116 C 
BRANCH   2   3
ATOM      3  N   UNL A   1      30.836  29.803  24.019  1.00  0.00    -0.349 N 
ATOM      4  C   UNL A   1      30.102  28.745  23.472  1.00  0.00     0.287 C 
ATOM      5  O   UNL A   1      29.035  29.016  22.921  1.00  0.00    -0.266 OA
ATOM      6  H   UNL A   1      30.485  30.697  23.799  1.00  0.00     0.163 HD
BRANCH   4   7
ATOM      7  C   UNL A   1      30.606  27.394  23.627  1.00  0.00     0.195 A 
ATOM      8  C   UNL A   1      30.643  26.742  26.138  1.00  0.00     0.049 C 
ATOM      9  C   UNL A   1      30.903  26.523  24.692  1.00  0.00     0.010 A 
ATOM     10  C   UNL A   1      31.668  25.454  24.103  1.00  0.00     0.043 A 
ATOM     11  O   UNL A   1      30.953  26.804  22.465  1.00  0.00    -0.455 OA
ATOM     12  C   UNL A   1      31.738  25.791  22.766  1.00  0.00     0.114 A 
ATOM     13  C   UNL A   1      32.450  24.289  24.538  1.00  0.00     0.072 C 
ATOM     14  C   UNL A   1      32.602  25.314  21.676  1.00  0.00     0.076 C 
ATOM     15  N   UNL A   1      32.231  23.719  25.684  1.00  0.00    -0.177 NA
ATOM     16  C   UNL A   1      33.498  23.970  23.517  1.00  0.00     0.059 C 
ATOM     17  C   UNL A   1      33.038  23.936  22.067  1.00  0.00     0.014 C 
BRANCH  15  18
ATOM     18  N   UNL A   1      32.806  22.619  26.313  1.00  0.00    -0.246 N 
ATOM     19  C   UNL A   1      33.599  21.501  26.103  1.00  0.00     0.252 C 
ATOM     20  H   UNL A   1      32.558  22.645  27.266  1.00  0.00     0.193 HD
ATOM     21  O   UNL A   1      33.736  20.758  27.093  1.00  0.00    -0.272 OA
BRANCH  19  22
ATOM     22  C   UNL A   1      34.334  21.084  24.786  1.00  0.00     0.140 C 
BRANCH  22  23
ATOM     23  C   UNL A   1      35.869  21.417  24.969  1.00  0.00    -0.031 A 
ATOM     24  C   UNL A   1      36.909  20.478  24.880  1.00  0.00     0.005 A 
ATOM     25  C   UNL A   1      36.263  22.734  25.332  1.00  0.00     0.005 A 
ATOM     26  C   UNL A   1      38.212  20.794  25.323  1.00  0.00     0.000 A 
ATOM     27  C   UNL A   1      37.545  23.043  25.794  1.00  0.00     0.000 A 
ATOM     28  C   UNL A   1      38.517  22.060  25.821  1.00  0.00     0.000 A 
ENDBRANCH  22  23
BRANCH  22  29
ATOM     29  C   UNL A   1      33.764  19.663  24.368  1.00  0.00    -0.031 A 
ATOM     30  C   UNL A   1      34.572  18.516  24.592  1.00  0.00     0.005 A 
ATOM     31  C   UNL A   1      32.596  19.451  23.613  1.00  0.00     0.005 A 
ATOM     32  C   UNL A   1      34.393  17.327  23.882  1.00  0.00     0.000 A 
ATOM     33  C   UNL A   1      32.400  18.240  22.917  1.00  0.00     0.000 A 
ATOM     34  C   UNL A   1      33.326  17.202  23.008  1.00  0.00     0.000 A 
ENDBRANCH  22  29
ENDBRANCH  19  22
ENDBRANCH  15  18
ENDBRANCH   4   7
ENDBRANCH   2   3
ENDBRANCH   1   2
BRANCH   1  35
ATOM     35  C   UNL A   1      32.907  30.214  27.274  1.00  0.00     0.023 C 
BRANCH  35  36
ATOM     36  C   UNL A   1      34.042  31.225  27.404  1.00  0.00     0.116 C 
BRANCH  36  37
ATOM     37  N   UNL A   1      33.932  32.091  28.577  1.00  0.00    -0.352 N 
ATOM     38  C   UNL A   1      34.748  32.095  29.703  1.00  0.00     0.251 C 
ATOM     39  H   UNL A   1      33.197  32.746  28.570  1.00  0.00     0.163 HD
ATOM     40  O   UNL A   1      34.362  32.521  30.772  1.00  0.00    -0.269 OA
BRANCH  38  41
ATOM     41  C   UNL A   1      36.124  31.586  29.556  1.00  0.00     0.039 A 
ATOM     42  C   UNL A   1      37.225  32.441  29.429  1.00  0.00     0.014 A 
ATOM     43  C   UNL A   1      36.287  30.205  29.588  1.00  0.00     0.014 A 
ATOM     44  C   UNL A   1      38.506  31.889  29.420  1.00  0.00     0.010 A 
ATOM     45  C   UNL A   1      37.542  29.681  29.742  1.00  0.00     0.010 A 
ATOM     46  C   UNL A   1      38.655  30.506  29.593  1.00  0.00    -0.014 A 
BRANCH  46  47
ATOM     47  C   UNL A   1      39.967  29.886  29.755  1.00  0.00     0.031 A 
ATOM     48  C   UNL A   1      40.424  29.765  31.171  1.00  0.00     0.074 A 
ATOM     49  C   UNL A   1      40.539  29.208  28.733  1.00  0.00     0.049 A 
ATOM     50  N   UNL A   1      41.512  30.216  31.703  1.00  0.00    -0.248 NA
ATOM     51  C   UNL A   1      39.497  29.164  32.149  1.00  0.00     0.031 C 
ATOM     52  C   UNL A   1      39.992  28.991  27.386  1.00  0.00     0.029 A 
ATOM     53  N   UNL A   1      41.663  28.442  28.714  1.00  0.00    -0.354 N 
ATOM     54  C   UNL A   1      41.503  29.781  33.029  1.00  0.00     0.074 A 
ATOM     55  C   UNL A   1      40.165  29.327  33.292  1.00  0.00     0.031 C 
ATOM     56  C   UNL A   1      40.635  27.963  26.792  1.00  0.00     0.029 A 
ATOM     57  C   UNL A   1      41.743  27.563  27.635  1.00  0.00     0.049 A 
ATOM     58  H   UNL A   1      42.362  28.502  29.405  1.00  0.00     0.167 HD
ATOM     59  C   UNL A   1      42.670  29.571  33.703  1.00  0.00     0.037 A 
ATOM     60  C   UNL A   1      42.630  26.549  27.476  1.00  0.00     0.037 A 
ATOM     61  C   UNL A   1      43.756  30.272  33.060  1.00  0.00     0.049 A 
ATOM     62  C   UNL A   1      43.753  26.797  28.414  1.00  0.00     0.074 A 
ATOM     63  C   UNL A   1      44.010  31.594  32.746  1.00  0.00     0.029 A 
ATOM     64  N   UNL A   1      44.630  29.541  32.293  1.00  0.00    -0.354 N 
ATOM     65  N   UNL A   1      44.583  27.797  28.302  1.00  0.00    -0.248 NA
ATOM     66  C   UNL A   1      43.655  26.209  29.741  1.00  0.00     0.031 C 
ATOM     67  C   UNL A   1      44.644  31.553  31.467  1.00  0.00     0.029 A 
ATOM     68  C   UNL A   1      44.815  30.214  31.117  1.00  0.00     0.049 A 
ATOM     69  H   UNL A   1      45.047  28.685  32.545  1.00  0.00     0.167 HD
ATOM     70  C   UNL A   1      44.767  28.244  29.602  1.00  0.00     0.074 A 
ATOM     71  C   UNL A   1      44.237  27.179  30.451  1.00  0.00     0.031 C 
ATOM     72  C   UNL A   1      45.055  29.554  29.856  1.00  0.00     0.037 A 
BRANCH  59  73
ATOM     73  C   UNL A   1      42.918  28.409  34.653  1.00  0.00     0.064 A 
ATOM     74  C   UNL A   1      43.429  28.691  35.939  1.00  0.00     0.173 A 
ATOM     75  C   UNL A   1      42.997  27.052  34.266  1.00  0.00     0.173 A 
ATOM     76  F   UNL A   1      43.395  29.939  36.431  1.00  0.00    -0.203 F 
ATOM     77  C   UNL A   1      44.091  27.727  36.706  1.00  0.00     0.198 A 
ATOM     78  C   UNL A   1      43.613  26.082  35.056  1.00  0.00     0.198 A 
ATOM     79  F   UNL A   1      42.581  26.612  33.076  1.00  0.00    -0.203 F 
ATOM     80  F   UNL A   1      44.695  28.085  37.846  1.00  0.00    -0.200 F 
ATOM     81  C   UNL A   1      44.199  26.426  36.255  1.00  0.00     0.200 A 
ATOM     82  F   UNL A   1      43.710  24.827  34.597  1.00  0.00    -0.200 F 
ATOM     83  F   UNL A   1      44.899  25.519  36.946  1.00  0.00    -0.200 F 
ENDBRANCH  59  73
BRANCH  60  84
ATOM     84  C   UNL A   1      42.426  25.232  26.820  1.00  0.00     0.064 A 
ATOM     85  C   UNL A   1      43.118  24.893  25.645  1.00  0.00     0.173 A 
ATOM     86  C   UNL A   1      41.767  24.176  27.481  1.00  0.00     0.173 A 
ATOM     87  F   UNL A   1      43.810  25.827  24.977  1.00  0.00    -0.203 F 
ATOM     88  C   UNL A   1      43.170  23.575  25.176  1.00  0.00     0.198 A 
ATOM     89  C   UNL A   1      41.813  22.864  27.008  1.00  0.00     0.198 A 
ATOM     90  F   UNL A   1      41.143  24.380  28.651  1.00  0.00    -0.203 F 
ATOM     91  F   UNL A   1      43.894  23.280  24.087  1.00  0.00    -0.200 F 
ATOM     92  C   UNL A   1      42.527  22.560  25.864  1.00  0.00     0.200 A 
ATOM     93  F   UNL A   1      41.216  21.885  27.703  1.00  0.00    -0.200 F 
ATOM     94  F   UNL A   1      42.629  21.289  25.451  1.00  0.00    -0.200 F 
ENDBRANCH  60  84
BRANCH  72  95
ATOM     95  C   UNL A   1      45.435  30.432  28.696  1.00  0.00     0.064 A 
ATOM     96  C   UNL A   1      44.516  31.145  27.904  1.00  0.00     0.173 A 
ATOM     97  C   UNL A   1      46.796  30.673  28.473  1.00  0.00     0.173 A 
ATOM     98  F   UNL A   1      43.199  31.050  28.118  1.00  0.00    -0.203 F 
ATOM     99  C   UNL A   1      44.946  32.025  26.911  1.00  0.00     0.198 A 
ATOM    100  C   UNL A   1      47.222  31.580  27.507  1.00  0.00     0.198 A 
ATOM    101  F   UNL A   1      47.719  30.062  29.233  1.00  0.00    -0.203 F 
ATOM    102  F   UNL A   1      44.048  32.685  26.164  1.00  0.00    -0.200 F 
ATOM    103  C   UNL A   1      46.299  32.247  26.719  1.00  0.00     0.200 A 
ATOM    104  F   UNL A   1      48.531  31.828  27.361  1.00  0.00    -0.200 F 
ATOM    105  F   UNL A   1      46.713  33.124  25.794  1.00  0.00    -0.200 F 
ENDBRANCH  72  95
ENDBRANCH  46  47
ENDBRANCH  38  41
ENDBRANCH  36  37
ENDBRANCH  35  36
ENDBRANCH   1  35
TORSDOF 15
ENDMDL
MODEL 3
REMARK VINA RESULT:     -13.9      2.865      8.381
REMARK SMILES Cc1c(C(=O)NCCCCNC(=O)c2ccc(-c3c4nc(c(-c5c(F)c(F)c(F)c(F)c5F)c5ccc([nH]5)c(-c5c(F)c(F)c(F)c(F)c5F)c5nc(c(-c6c(F)c(F)c(F)c(F)c6F)c6ccc3[nH]6)C=C5)C=C4)cc2)oc2c1/C(=N/NC(=O)C(c1ccccc1)c1ccccc1)CCC2
REMARK SMILES IDX 8 1 7 2 6 3 4 4 5 5 3 7 1 8 2 9 79 10 77 11 78 12 80 13
REMARK SMILES IDX 100 14 81 15 98 16 99 17 82 18 83 19 84 21 85 22 86 23 87 24
REMARK SMILES IDX 91 25 88 26 90 27 89 28 92 29 93 30 97 31 94 32 96 33 95 34
REMARK SMILES IDX 9 35 10 36 11 37 12 38 13 40 14 41 15 42 76 43 16 44 75 45
REMARK SMILES IDX 17 46 18 47 19 48 69 49 20 50 74 51 68 52 70 53 21 54 73 55
REMARK SMILES IDX 67 56 66 57 22 59 54 60 34 61 53 62 35 63 38 64 52 65 71 66
REMARK SMILES IDX 36 67 37 68 51 70 72 71 39 72 23 73 24 74 32 75 25 76 26 77
REMARK SMILES IDX 30 78 33 79 27 80 28 81 31 82 29 83 55 84 56 85 64 86 57 87
REMARK SMILES IDX 58 88 62 89 65 90 59 91 60 92 63 93 61 94 40 95 41 96 49 97
REMARK SMILES IDX 42 98 43 99 47 100 50 101 44 102 45 103 48 104 46 105
REMARK H PARENT 6 6 82 20 11 39 70 58 38 69
REMARK Flexibility Score: inf
ROOT
ATOM      1  C   UNL A   1      33.009  30.411  26.601  1.00  0.00     0.023 C 
ENDROOT
BRANCH   1   2
ATOM      2  C   UNL A   1      33.057  29.628  25.276  1.00  0.00     0.116 C 
BRANCH   2   3
ATOM      3  N   UNL A   1      31.841  29.765  24.454  1.00  0.00    -0.349 N 
ATOM      4  C   UNL A   1      30.951  28.807  23.960  1.00  0.00     0.287 C 
ATOM      5  O   UNL A   1      29.919  29.211  23.422  1.00  0.00    -0.266 OA
ATOM      6  H   UNL A   1      31.617  30.692  24.211  1.00  0.00     0.163 HD
BRANCH   4   7
ATOM      7  C   UNL A   1      31.259  27.403  24.150  1.00  0.00     0.195 A 
ATOM      8  C   UNL A   1      31.541  26.234  21.851  1.00  0.00     0.049 C 
ATOM      9  C   UNL A   1      31.466  26.276  23.334  1.00  0.00     0.010 A 
ATOM     10  C   UNL A   1      31.414  25.147  24.228  1.00  0.00     0.043 A 
ATOM     11  O   UNL A   1      31.308  27.025  25.444  1.00  0.00    -0.455 OA
ATOM     12  C   UNL A   1      31.194  25.714  25.468  1.00  0.00     0.114 A 
ATOM     13  C   UNL A   1      31.384  23.680  24.152  1.00  0.00     0.072 C 
ATOM     14  C   UNL A   1      30.747  25.141  26.745  1.00  0.00     0.076 C 
ATOM     15  N   UNL A   1      31.859  23.048  23.121  1.00  0.00    -0.177 NA
ATOM     16  C   UNL A   1      30.695  23.123  25.358  1.00  0.00     0.059 C 
ATOM     17  C   UNL A   1      31.123  23.692  26.703  1.00  0.00     0.014 C 
BRANCH  15  18
ATOM     18  N   UNL A   1      31.963  21.696  22.813  1.00  0.00    -0.246 N 
ATOM     19  C   UNL A   1      32.403  20.472  23.294  1.00  0.00     0.252 C 
ATOM     20  H   UNL A   1      31.579  21.553  21.917  1.00  0.00     0.193 HD
ATOM     21  O   UNL A   1      32.311  19.525  22.490  1.00  0.00    -0.272 OA
BRANCH  19  22
ATOM     22  C   UNL A   1      32.981  20.154  24.713  1.00  0.00     0.140 C 
BRANCH  22  23
ATOM     23  C   UNL A   1      33.263  18.599  24.778  1.00  0.00    -0.031 A 
ATOM     24  C   UNL A   1      32.367  17.642  25.281  1.00  0.00     0.005 A 
ATOM     25  C   UNL A   1      34.535  18.101  24.385  1.00  0.00     0.005 A 
ATOM     26  C   UNL A   1      32.792  16.325  25.558  1.00  0.00     0.000 A 
ATOM     27  C   UNL A   1      34.966  16.804  24.681  1.00  0.00     0.000 A 
ATOM     28  C   UNL A   1      34.102  15.921  25.300  1.00  0.00     0.000 A 
ENDBRANCH  22  23
BRANCH  22  29
ATOM     29  C   UNL A   1      34.052  21.279  25.038  1.00  0.00    -0.031 A 
ATOM     30  C   UNL A   1      34.118  21.789  26.362  1.00  0.00     0.005 A 
ATOM     31  C   UNL A   1      34.825  21.960  24.081  1.00  0.00     0.005 A 
ATOM     32  C   UNL A   1      34.664  23.042  26.654  1.00  0.00     0.000 A 
ATOM     33  C   UNL A   1      35.402  23.212  24.381  1.00  0.00     0.000 A 
ATOM     34  C   UNL A   1      35.272  23.776  25.650  1.00  0.00     0.000 A 
ENDBRANCH  22  29
ENDBRANCH  19  22
ENDBRANCH  15  18
ENDBRANCH   4   7
ENDBRANCH   2   3
ENDBRANCH   1   2
BRANCH   1  35
ATOM     35  C   UNL A   1      34.275  30.294  27.462  1.00  0.00     0.023 C 
BRANCH  35  36
ATOM     36  C   UNL A   1      35.050  31.596  27.643  1.00  0.00     0.116 C 
BRANCH  36  37
ATOM     37  N   UNL A   1      34.643  32.368  28.817  1.00  0.00    -0.352 N 
ATOM     38  C   UNL A   1      35.033  32.166  30.136  1.00  0.00     0.251 C 
ATOM     39  H   UNL A   1      34.024  33.116  28.656  1.00  0.00     0.163 HD
ATOM     40  O   UNL A   1      34.359  32.551  31.070  1.00  0.00    -0.269 OA
BRANCH  38  41
ATOM     41  C   UNL A   1      36.320  31.487  30.376  1.00  0.00     0.039 A 
ATOM     42  C   UNL A   1      36.405  30.109  30.602  1.00  0.00     0.014 A 
ATOM     43  C   UNL A   1      37.463  32.278  30.328  1.00  0.00     0.014 A 
ATOM     44  C   UNL A   1      37.665  29.519  30.697  1.00  0.00     0.010 A 
ATOM     45  C   UNL A   1      38.692  31.680  30.259  1.00  0.00     0.010 A 
ATOM     46  C   UNL A   1      38.805  30.313  30.508  1.00  0.00    -0.014 A 
BRANCH  46  47
ATOM     47  C   UNL A   1      40.144  29.735  30.433  1.00  0.00     0.031 A 
ATOM     48  C   UNL A   1      40.815  29.553  31.755  1.00  0.00     0.074 A 
ATOM     49  C   UNL A   1      40.573  29.137  29.297  1.00  0.00     0.049 A 
ATOM     50  N   UNL A   1      41.958  30.016  32.143  1.00  0.00    -0.248 NA
ATOM     51  C   UNL A   1      40.066  28.865  32.823  1.00  0.00     0.031 C 
ATOM     52  C   UNL A   1      39.834  28.974  28.037  1.00  0.00     0.029 A 
ATOM     53  N   UNL A   1      41.703  28.416  29.063  1.00  0.00    -0.354 N 
ATOM     54  C   UNL A   1      42.164  29.508  33.427  1.00  0.00     0.074 A 
ATOM     55  C   UNL A   1      40.895  28.990  33.859  1.00  0.00     0.031 C 
ATOM     56  C   UNL A   1      40.408  28.005  27.293  1.00  0.00     0.029 A 
ATOM     57  C   UNL A   1      41.644  27.601  27.934  1.00  0.00     0.049 A 
ATOM     58  H   UNL A   1      42.497  28.465  29.644  1.00  0.00     0.167 HD
ATOM     59  C   UNL A   1      43.425  29.305  33.903  1.00  0.00     0.037 A 
ATOM     60  C   UNL A   1      42.525  26.632  27.582  1.00  0.00     0.037 A 
ATOM     61  C   UNL A   1      44.379  30.081  33.148  1.00  0.00     0.049 A 
ATOM     62  C   UNL A   1      43.770  26.871  28.354  1.00  0.00     0.074 A 
ATOM     63  C   UNL A   1      44.544  31.428  32.879  1.00  0.00     0.029 A 
ATOM     64  N   UNL A   1      45.147  29.427  32.215  1.00  0.00    -0.354 N 
ATOM     65  N   UNL A   1      44.543  27.906  28.179  1.00  0.00    -0.248 NA
ATOM     66  C   UNL A   1      43.892  26.207  29.642  1.00  0.00     0.031 C 
ATOM     67  C   UNL A   1      44.977  31.481  31.520  1.00  0.00     0.029 A 
ATOM     68  C   UNL A   1      45.132  30.171  31.067  1.00  0.00     0.049 A 
ATOM     69  H   UNL A   1      45.623  28.575  32.349  1.00  0.00     0.167 HD
ATOM     70  C   UNL A   1      44.911  28.287  29.461  1.00  0.00     0.074 A 
ATOM     71  C   UNL A   1      44.547  27.158  30.314  1.00  0.00     0.031 C 
ATOM     72  C   UNL A   1      45.196  29.592  29.747  1.00  0.00     0.037 A 
BRANCH  59  73
ATOM     73  C   UNL A   1      43.849  28.103  34.733  1.00  0.00     0.064 A 
ATOM     74  C   UNL A   1      43.545  26.811  34.250  1.00  0.00     0.173 A 
ATOM     75  C   UNL A   1      44.227  28.155  36.094  1.00  0.00     0.173 A 
ATOM     76  F   UNL A   1      43.191  26.625  32.969  1.00  0.00    -0.203 F 
ATOM     77  C   UNL A   1      43.484  25.696  35.092  1.00  0.00     0.198 A 
ATOM     78  C   UNL A   1      44.213  27.031  36.919  1.00  0.00     0.198 A 
ATOM     79  F   UNL A   1      44.527  29.296  36.721  1.00  0.00    -0.203 F 
ATOM     80  F   UNL A   1      43.036  24.528  34.614  1.00  0.00    -0.200 F 
ATOM     81  C   UNL A   1      43.800  25.811  36.431  1.00  0.00     0.200 A 
ATOM     82  F   UNL A   1      44.521  27.166  38.217  1.00  0.00    -0.200 F 
ATOM     83  F   UNL A   1      43.666  24.766  37.256  1.00  0.00    -0.200 F 
ENDBRANCH  59  73
BRANCH  60  84
ATOM     84  C   UNL A   1      42.262  25.347  26.886  1.00  0.00     0.064 A 
ATOM     85  C   UNL A   1      42.981  24.986  25.734  1.00  0.00     0.173 A 
ATOM     86  C   UNL A   1      41.503  24.325  27.492  1.00  0.00     0.173 A 
ATOM     87  F   UNL A   1      43.765  25.884  25.121  1.00  0.00    -0.203 F 
ATOM     88  C   UNL A   1      42.965  23.678  25.236  1.00  0.00     0.198 A 
ATOM     89  C   UNL A   1      41.481  23.023  26.990  1.00  0.00     0.198 A 
ATOM     90  F   UNL A   1      40.842  24.547  28.637  1.00  0.00    -0.203 F 
ATOM     91  F   UNL A   1      43.716  23.357  24.173  1.00  0.00    -0.200 F 
ATOM     92  C   UNL A   1      42.224  22.695  25.870  1.00  0.00     0.200 A 
ATOM     93  F   UNL A   1      40.788  22.074  27.634  1.00  0.00    -0.200 F 
ATOM     94  F   UNL A   1      42.257  21.429  25.432  1.00  0.00    -0.200 F 
ENDBRANCH  60  84
BRANCH  72  95
ATOM     95  C   UNL A   1      45.368  30.546  28.598  1.00  0.00     0.064 A 
ATOM     96  C   UNL A   1      44.332  31.317  28.043  1.00  0.00     0.173 A 
ATOM     97  C   UNL A   1      46.669  30.794  28.141  1.00  0.00     0.173 A 
ATOM     98  F   UNL A   1      43.076  31.215  28.493  1.00  0.00    -0.203 F 
ATOM     99  C   UNL A   1      44.585  32.262  27.049  1.00  0.00     0.198 A 
ATOM    100  C   UNL A   1      46.924  31.764  27.176  1.00  0.00     0.198 A 
ATOM    101  F   UNL A   1      47.705  30.127  28.672  1.00  0.00    -0.203 F 
ATOM    102  F   UNL A   1      43.576  32.977  26.528  1.00  0.00    -0.200 F 
ATOM    103  C   UNL A   1      45.882  32.490  26.622  1.00  0.00     0.200 A 
ATOM    104  F   UNL A   1      48.187  32.014  26.804  1.00  0.00    -0.200 F 
ATOM    105  F   UNL A   1      46.133  33.426  25.696  1.00  0.00    -0.200 F 
ENDBRANCH  72  95
ENDBRANCH  46  47
ENDBRANCH  38  41
ENDBRANCH  36  37
ENDBRANCH  35  36
ENDBRANCH   1  35
TORSDOF 15
ENDMDL
