MODEL 1
REMARK VINA RESULT:     -11.8      0.000      0.000
REMARK SMILES CC[C@H](C)Oc1ccc(NC(=O)/C=C/C(=O)NCCCCNC(=O)c2ccc(-c3c4nc(c(-c5c(F)c(F)c(F)c(F)c5F)c5ccc([nH]5)c(-c5c(F)c(F)c(F)c(F)c5F)c5nc(c(-c6c(F)c(F)c(F)c(F)c6F)c6ccc3[nH]6)C=C5)C=C4)cc2)cc1
REMARK SMILES IDX 18 1 17 2 15 3 16 4 14 6 13 7 11 8 10 9 12 11 9 12 6 13 7 14
REMARK SMILES IDX 89 15 8 16 88 17 5 18 3 19 4 20 2 21 1 22 19 23 20 24 21 25
REMARK SMILES IDX 22 26 23 27 24 29 25 30 26 31 87 32 27 33 86 34 28 35 29 36
REMARK SMILES IDX 30 37 80 38 31 39 85 40 79 41 81 42 32 43 84 44 78 45 77 46
REMARK SMILES IDX 33 48 65 49 45 50 64 51 46 52 49 53 63 54 82 55 47 56 48 57
REMARK SMILES IDX 62 59 83 60 50 61 34 62 35 63 43 64 36 65 37 66 41 67 44 68
REMARK SMILES IDX 38 69 39 70 42 71 40 72 66 73 67 74 75 75 68 76 69 77 73 78
REMARK SMILES IDX 76 79 70 80 71 81 74 82 72 83 51 84 52 85 60 86 53 87 54 88
REMARK SMILES IDX 58 89 61 90 55 91 56 92 59 93 57 94
REMARK H PARENT 17 5 10 10 22 28 81 47 49 58
REMARK Flexibility Score: inf
ROOT
ATOM      1  C   UNL A   1      33.386  29.953  26.902  1.00  0.00     0.116 C 
ENDROOT
BRANCH   1   2
ATOM      2  N   UNL A   1      33.921  29.183  25.797  1.00  0.00    -0.353 N 
ATOM      3  C   UNL A   1      33.459  28.025  25.259  1.00  0.00     0.244 C 
ATOM      4  O   UNL A   1      33.932  27.600  24.209  1.00  0.00    -0.270 OA
ATOM      5  H   UNL A   1      34.732  29.551  25.378  1.00  0.00     0.163 HD
BRANCH   3   6
ATOM      6  C   UNL A   1      32.383  27.274  25.931  1.00  0.00     0.077 C 
ATOM      7  C   UNL A   1      32.325  25.939  25.827  1.00  0.00     0.077 C 
BRANCH   7   8
ATOM      8  C   UNL A   1      31.132  25.213  26.276  1.00  0.00     0.248 C 
ATOM      9  N   UNL A   1      31.177  23.858  26.442  1.00  0.00    -0.323 N 
ATOM     10  H   UNL A   1      30.326  23.465  26.742  1.00  0.00     0.170 HD
ATOM     11  O   UNL A   1      30.100  25.842  26.500  1.00  0.00    -0.270 OA
BRANCH   9  12
ATOM     12  C   UNL A   1      32.210  22.916  26.264  1.00  0.00     0.041 A 
ATOM     13  C   UNL A   1      34.443  21.360  25.583  1.00  0.00     0.119 A 
ATOM     14  C   UNL A   1      34.280  21.819  26.883  1.00  0.00     0.048 A 
ATOM     15  C   UNL A   1      33.410  21.528  24.671  1.00  0.00     0.048 A 
ATOM     16  C   UNL A   1      33.155  22.570  27.228  1.00  0.00     0.030 A 
ATOM     17  C   UNL A   1      32.305  22.320  25.003  1.00  0.00     0.030 A 
BRANCH  13  18
ATOM     18  O   UNL A   1      35.599  20.693  25.335  1.00  0.00    -0.491 OA
BRANCH  18  19
ATOM     19  C   UNL A   1      36.852  21.397  25.346  1.00  0.00     0.170 C 
ATOM     20  C   UNL A   1      38.021  20.480  25.006  1.00  0.00     0.053 C 
BRANCH  19  21
ATOM     21  C   UNL A   1      36.880  22.807  24.712  1.00  0.00     0.041 C 
ATOM     22  C   UNL A   1      36.651  22.920  23.209  1.00  0.00     0.008 C 
ENDBRANCH  19  21
ENDBRANCH  18  19
ENDBRANCH  13  18
ENDBRANCH   9  12
ENDBRANCH   7   8
ENDBRANCH   3   6
ENDBRANCH   1   2
BRANCH   1  23
ATOM     23  C   UNL A   1      31.961  30.423  26.621  1.00  0.00     0.023 C 
BRANCH  23  24
ATOM     24  C   UNL A   1      31.787  31.944  26.592  1.00  0.00     0.023 C 
BRANCH  24  25
ATOM     25  C   UNL A   1      32.863  32.735  27.325  1.00  0.00     0.116 C 
BRANCH  25  26
ATOM     26  N   UNL A   1      32.470  34.102  27.633  1.00  0.00    -0.352 N 
ATOM     27  C   UNL A   1      33.014  34.955  28.562  1.00  0.00     0.251 C 
ATOM     28  H   UNL A   1      31.718  34.462  27.109  1.00  0.00     0.163 HD
ATOM     29  O   UNL A   1      32.526  36.062  28.761  1.00  0.00    -0.269 OA
BRANCH  27  30
ATOM     30  C   UNL A   1      34.168  34.496  29.354  1.00  0.00     0.039 A 
ATOM     31  C   UNL A   1      33.931  33.829  30.557  1.00  0.00     0.014 A 
ATOM     32  C   UNL A   1      35.469  34.668  28.875  1.00  0.00     0.014 A 
ATOM     33  C   UNL A   1      35.001  33.265  31.249  1.00  0.00     0.010 A 
ATOM     34  C   UNL A   1      36.527  34.050  29.532  1.00  0.00     0.010 A 
ATOM     35  C   UNL A   1      36.300  33.339  30.721  1.00  0.00    -0.014 A 
BRANCH  35  36
ATOM     36  C   UNL A   1      37.439  32.672  31.393  1.00  0.00     0.031 A 
ATOM     37  C   UNL A   1      38.129  31.518  30.727  1.00  0.00     0.074 A 
ATOM     38  C   UNL A   1      37.801  33.062  32.630  1.00  0.00     0.049 A 
ATOM     39  N   UNL A   1      39.091  30.754  31.182  1.00  0.00    -0.248 NA
ATOM     40  C   UNL A   1      37.657  31.154  29.383  1.00  0.00     0.031 C 
ATOM     41  C   UNL A   1      37.171  34.141  33.395  1.00  0.00     0.029 A 
ATOM     42  N   UNL A   1      38.780  32.589  33.467  1.00  0.00    -0.354 N 
ATOM     43  C   UNL A   1      39.327  29.817  30.187  1.00  0.00     0.074 A 
ATOM     44  C   UNL A   1      38.374  30.070  29.129  1.00  0.00     0.031 C 
ATOM     45  C   UNL A   1      37.794  34.261  34.579  1.00  0.00     0.029 A 
ATOM     46  C   UNL A   1      38.841  33.248  34.670  1.00  0.00     0.049 A 
ATOM     47  H   UNL A   1      39.382  31.848  33.227  1.00  0.00     0.167 HD
ATOM     48  C   UNL A   1      40.271  28.846  30.151  1.00  0.00     0.037 A 
ATOM     49  C   UNL A   1      39.649  33.051  35.728  1.00  0.00     0.037 A 
ATOM     50  C   UNL A   1      41.232  28.616  31.197  1.00  0.00     0.049 A 
ATOM     51  C   UNL A   1      40.687  31.964  35.664  1.00  0.00     0.074 A 
ATOM     52  C   UNL A   1      42.265  27.697  31.233  1.00  0.00     0.029 A 
ATOM     53  N   UNL A   1      41.275  29.316  32.394  1.00  0.00    -0.354 N 
ATOM     54  N   UNL A   1      40.945  31.123  34.691  1.00  0.00    -0.248 NA
ATOM     55  C   UNL A   1      41.550  31.801  36.843  1.00  0.00     0.031 C 
ATOM     56  C   UNL A   1      42.909  27.813  32.468  1.00  0.00     0.029 A 
ATOM     57  C   UNL A   1      42.307  28.836  33.184  1.00  0.00     0.049 A 
ATOM     58  H   UNL A   1      40.664  30.046  32.645  1.00  0.00     0.167 HD
ATOM     59  C   UNL A   1      42.013  30.352  35.127  1.00  0.00     0.074 A 
ATOM     60  C   UNL A   1      42.365  30.834  36.447  1.00  0.00     0.031 C 
ATOM     61  C   UNL A   1      42.647  29.336  34.491  1.00  0.00     0.037 A 
BRANCH  48  62
ATOM     62  C   UNL A   1      40.313  27.968  28.935  1.00  0.00     0.064 A 
ATOM     63  C   UNL A   1      41.059  28.321  27.800  1.00  0.00     0.173 A 
ATOM     64  C   UNL A   1      39.621  26.747  28.913  1.00  0.00     0.173 A 
ATOM     65  F   UNL A   1      41.727  29.484  27.766  1.00  0.00    -0.203 F 
ATOM     66  C   UNL A   1      41.088  27.499  26.677  1.00  0.00     0.198 A 
ATOM     67  C   UNL A   1      39.677  25.914  27.798  1.00  0.00     0.198 A 
ATOM     68  F   UNL A   1      38.896  26.361  29.973  1.00  0.00    -0.203 F 
ATOM     69  F   UNL A   1      41.768  27.882  25.587  1.00  0.00    -0.200 F 
ATOM     70  C   UNL A   1      40.403  26.294  26.680  1.00  0.00     0.200 A 
ATOM     71  F   UNL A   1      39.024  24.744  27.806  1.00  0.00    -0.200 F 
ATOM     72  F   UNL A   1      40.437  25.500  25.600  1.00  0.00    -0.200 F 
ENDBRANCH  48  62
BRANCH  49  73
ATOM     73  C   UNL A   1      39.530  33.921  36.926  1.00  0.00     0.064 A 
ATOM     74  C   UNL A   1      38.757  33.524  38.026  1.00  0.00     0.173 A 
ATOM     75  C   UNL A   1      40.179  35.163  36.999  1.00  0.00     0.173 A 
ATOM     76  F   UNL A   1      38.101  32.355  37.996  1.00  0.00    -0.203 F 
ATOM     77  C   UNL A   1      38.622  34.343  39.146  1.00  0.00     0.198 A 
ATOM     78  C   UNL A   1      40.065  35.969  38.129  1.00  0.00     0.198 A 
ATOM     79  F   UNL A   1      40.935  35.586  35.976  1.00  0.00    -0.203 F 
ATOM     80  F   UNL A   1      37.843  33.957  40.165  1.00  0.00    -0.200 F 
ATOM     81  C   UNL A   1      39.281  35.562  39.198  1.00  0.00     0.200 A 
ATOM     82  F   UNL A   1      40.713  37.140  38.182  1.00  0.00    -0.200 F 
ATOM     83  F   UNL A   1      39.154  36.348  40.276  1.00  0.00    -0.200 F 
ENDBRANCH  49  73
BRANCH  61  84
ATOM     84  C   UNL A   1      43.806  28.700  35.199  1.00  0.00     0.064 A 
ATOM     85  C   UNL A   1      45.105  29.217  35.094  1.00  0.00     0.173 A 
ATOM     86  C   UNL A   1      43.605  27.585  36.028  1.00  0.00     0.173 A 
ATOM     87  F   UNL A   1      45.350  30.272  34.301  1.00  0.00    -0.203 F 
ATOM     88  C   UNL A   1      46.165  28.629  35.779  1.00  0.00     0.198 A 
ATOM     89  C   UNL A   1      44.662  27.018  36.733  1.00  0.00     0.198 A 
ATOM     90  F   UNL A   1      42.379  27.057  36.165  1.00  0.00    -0.203 F 
ATOM     91  F   UNL A   1      47.406  29.114  35.631  1.00  0.00    -0.200 F 
ATOM     92  C   UNL A   1      45.942  27.536  36.603  1.00  0.00     0.200 A 
ATOM     93  F   UNL A   1      44.443  25.969  37.538  1.00  0.00    -0.200 F 
ATOM     94  F   UNL A   1      46.963  26.977  37.267  1.00  0.00    -0.200 F 
ENDBRANCH  61  84
ENDBRANCH  35  36
ENDBRANCH  27  30
ENDBRANCH  25  26
ENDBRANCH  24  25
ENDBRANCH  23  24
ENDBRANCH   1  23
TORSDOF 16
ENDMDL
MODEL 2
REMARK VINA RESULT:     -11.7      0.828      7.371
REMARK SMILES CC[C@H](C)Oc1ccc(NC(=O)/C=C/C(=O)NCCCCNC(=O)c2ccc(-c3c4nc(c(-c5c(F)c(F)c(F)c(F)c5F)c5ccc([nH]5)c(-c5c(F)c(F)c(F)c(F)c5F)c5nc(c(-c6c(F)c(F)c(F)c(F)c6F)c6ccc3[nH]6)C=C5)C=C4)cc2)cc1
REMARK SMILES IDX 18 1 17 2 15 3 16 4 14 6 13 7 11 8 10 9 12 11 9 12 6 13 7 14
REMARK SMILES IDX 89 15 8 16 88 17 5 18 3 19 4 20 2 21 1 22 19 23 20 24 21 25
REMARK SMILES IDX 22 26 23 27 24 29 25 30 26 31 87 32 27 33 86 34 28 35 29 36
REMARK SMILES IDX 30 37 80 38 31 39 85 40 79 41 81 42 32 43 84 44 78 45 77 46
REMARK SMILES IDX 33 48 65 49 45 50 64 51 46 52 49 53 63 54 82 55 47 56 48 57
REMARK SMILES IDX 62 59 83 60 50 61 34 62 35 63 43 64 36 65 37 66 41 67 44 68
REMARK SMILES IDX 38 69 39 70 42 71 40 72 66 73 67 74 75 75 68 76 69 77 73 78
REMARK SMILES IDX 76 79 70 80 71 81 74 82 72 83 51 84 52 85 60 86 53 87 54 88
REMARK SMILES IDX 58 89 61 90 55 91 56 92 59 93 57 94
REMARK H PARENT 17 5 10 10 22 28 81 47 49 58
REMARK Flexibility Score: inf
ROOT
ATOM      1  C   UNL A   1      32.919  30.147  26.792  1.00  0.00     0.116 C 
ENDROOT
BRANCH   1   2
ATOM      2  N   UNL A   1      33.673  29.465  25.759  1.00  0.00    -0.353 N 
ATOM      3  C   UNL A   1      33.289  28.439  24.956  1.00  0.00     0.244 C 
ATOM      4  O   UNL A   1      33.994  28.099  24.011  1.00  0.00    -0.270 OA
ATOM      5  H   UNL A   1      34.591  29.791  25.622  1.00  0.00     0.163 HD
BRANCH   3   6
ATOM      6  C   UNL A   1      32.020  27.734  25.212  1.00  0.00     0.077 C 
ATOM      7  C   UNL A   1      31.692  26.654  24.489  1.00  0.00     0.077 C 
BRANCH   7   8
ATOM      8  C   UNL A   1      30.336  26.099  24.562  1.00  0.00     0.248 C 
ATOM      9  N   UNL A   1      30.139  24.829  25.022  1.00  0.00    -0.323 N 
ATOM     10  H   UNL A   1      29.195  24.549  25.030  1.00  0.00     0.170 HD
ATOM     11  O   UNL A   1      29.387  26.795  24.205  1.00  0.00    -0.270 OA
BRANCH   9  12
ATOM     12  C   UNL A   1      31.031  23.842  25.489  1.00  0.00     0.041 A 
ATOM     13  C   UNL A   1      33.124  22.078  26.104  1.00  0.00     0.119 A 
ATOM     14  C   UNL A   1      32.600  22.912  27.083  1.00  0.00     0.048 A 
ATOM     15  C   UNL A   1      32.491  22.000  24.871  1.00  0.00     0.048 A 
ATOM     16  C   UNL A   1      31.541  23.769  26.784  1.00  0.00     0.030 A 
ATOM     17  C   UNL A   1      31.459  22.893  24.556  1.00  0.00     0.030 A 
BRANCH  13  18
ATOM     18  O   UNL A   1      34.192  21.330  26.478  1.00  0.00    -0.491 OA
BRANCH  18  19
ATOM     19  C   UNL A   1      35.513  21.689  26.041  1.00  0.00     0.170 C 
ATOM     20  C   UNL A   1      36.053  20.713  25.002  1.00  0.00     0.053 C 
BRANCH  19  21
ATOM     21  C   UNL A   1      35.791  23.188  25.782  1.00  0.00     0.041 C 
ATOM     22  C   UNL A   1      37.193  23.589  25.341  1.00  0.00     0.008 C 
ENDBRANCH  19  21
ENDBRANCH  18  19
ENDBRANCH  13  18
ENDBRANCH   9  12
ENDBRANCH   7   8
ENDBRANCH   3   6
ENDBRANCH   1   2
BRANCH   1  23
ATOM     23  C   UNL A   1      31.627  30.745  26.242  1.00  0.00     0.023 C 
BRANCH  23  24
ATOM     24  C   UNL A   1      31.435  32.233  26.545  1.00  0.00     0.023 C 
BRANCH  24  25
ATOM     25  C   UNL A   1      32.549  32.879  27.360  1.00  0.00     0.116 C 
BRANCH  25  26
ATOM     26  N   UNL A   1      32.301  34.277  27.678  1.00  0.00    -0.352 N 
ATOM     27  C   UNL A   1      32.971  35.079  28.567  1.00  0.00     0.251 C 
ATOM     28  H   UNL A   1      31.556  34.702  27.194  1.00  0.00     0.163 HD
ATOM     29  O   UNL A   1      32.599  36.227  28.785  1.00  0.00    -0.269 OA
BRANCH  27  30
ATOM     30  C   UNL A   1      34.122  34.519  29.297  1.00  0.00     0.039 A 
ATOM     31  C   UNL A   1      33.892  33.872  30.513  1.00  0.00     0.014 A 
ATOM     32  C   UNL A   1      35.405  34.578  28.749  1.00  0.00     0.014 A 
ATOM     33  C   UNL A   1      34.945  33.216  31.148  1.00  0.00     0.010 A 
ATOM     34  C   UNL A   1      36.438  33.868  29.349  1.00  0.00     0.010 A 
ATOM     35  C   UNL A   1      36.215  33.177  30.550  1.00  0.00    -0.014 A 
BRANCH  35  36
ATOM     36  C   UNL A   1      37.325  32.411  31.162  1.00  0.00     0.031 A 
ATOM     37  C   UNL A   1      37.816  32.769  32.534  1.00  0.00     0.074 A 
ATOM     38  C   UNL A   1      37.933  31.441  30.452  1.00  0.00     0.049 A 
ATOM     39  N   UNL A   1      38.822  32.273  33.209  1.00  0.00    -0.248 NA
ATOM     40  C   UNL A   1      37.100  33.850  33.228  1.00  0.00     0.031 C 
ATOM     41  C   UNL A   1      37.573  31.037  29.091  1.00  0.00     0.029 A 
ATOM     42  N   UNL A   1      38.989  30.626  30.772  1.00  0.00    -0.354 N 
ATOM     43  C   UNL A   1      38.865  32.988  34.397  1.00  0.00     0.074 A 
ATOM     44  C   UNL A   1      37.822  33.989  34.330  1.00  0.00     0.031 C 
ATOM     45  C   UNL A   1      38.379  30.036  28.702  1.00  0.00     0.029 A 
ATOM     46  C   UNL A   1      39.334  29.752  29.770  1.00  0.00     0.049 A 
ATOM     47  H   UNL A   1      39.455  30.663  31.638  1.00  0.00     0.167 HD
ATOM     48  C   UNL A   1      39.686  32.810  35.459  1.00  0.00     0.037 A 
ATOM     49  C   UNL A   1      40.314  28.831  29.719  1.00  0.00     0.037 A 
ATOM     50  C   UNL A   1      40.705  31.797  35.529  1.00  0.00     0.049 A 
ATOM     51  C   UNL A   1      41.215  28.655  30.910  1.00  0.00     0.074 A 
ATOM     52  C   UNL A   1      41.552  31.495  36.581  1.00  0.00     0.029 A 
ATOM     53  N   UNL A   1      41.014  30.917  34.501  1.00  0.00    -0.354 N 
ATOM     54  N   UNL A   1      41.206  29.294  32.055  1.00  0.00    -0.248 NA
ATOM     55  C   UNL A   1      42.259  27.627  30.805  1.00  0.00     0.031 C 
ATOM     56  C   UNL A   1      42.400  30.460  36.175  1.00  0.00     0.029 A 
ATOM     57  C   UNL A   1      42.051  30.085  34.887  1.00  0.00     0.049 A 
ATOM     58  H   UNL A   1      40.561  30.889  33.627  1.00  0.00     0.167 HD
ATOM     59  C   UNL A   1      42.220  28.729  32.815  1.00  0.00     0.074 A 
ATOM     60  C   UNL A   1      42.817  27.686  32.006  1.00  0.00     0.031 C 
ATOM     61  C   UNL A   1      42.623  29.046  34.070  1.00  0.00     0.037 A 
BRANCH  48  62
ATOM     62  C   UNL A   1      39.508  33.727  36.633  1.00  0.00     0.064 A 
ATOM     63  C   UNL A   1      40.098  35.001  36.665  1.00  0.00     0.173 A 
ATOM     64  C   UNL A   1      38.720  33.342  37.727  1.00  0.00     0.173 A 
ATOM     65  F   UNL A   1      40.873  35.412  35.649  1.00  0.00    -0.203 F 
ATOM     66  C   UNL A   1      39.929  35.842  37.760  1.00  0.00     0.198 A 
ATOM     67  C   UNL A   1      38.529  34.198  38.809  1.00  0.00     0.198 A 
ATOM     68  F   UNL A   1      38.131  32.137  37.745  1.00  0.00    -0.203 F 
ATOM     69  F   UNL A   1      40.543  37.033  37.789  1.00  0.00    -0.200 F 
ATOM     70  C   UNL A   1      39.139  35.443  38.828  1.00  0.00     0.200 A 
ATOM     71  F   UNL A   1      37.756  33.816  39.834  1.00  0.00    -0.200 F 
ATOM     72  F   UNL A   1      38.972  36.256  39.880  1.00  0.00    -0.200 F 
ENDBRANCH  48  62
BRANCH  49  73
ATOM     73  C   UNL A   1      40.474  27.983  28.510  1.00  0.00     0.064 A 
ATOM     74  C   UNL A   1      39.886  26.712  28.444  1.00  0.00     0.173 A 
ATOM     75  C   UNL A   1      41.214  28.418  27.401  1.00  0.00     0.173 A 
ATOM     76  F   UNL A   1      39.186  26.243  29.486  1.00  0.00    -0.203 F 
ATOM     77  C   UNL A   1      40.048  25.901  27.322  1.00  0.00     0.198 A 
ATOM     78  C   UNL A   1      41.354  27.617  26.270  1.00  0.00     0.198 A 
ATOM     79  F   UNL A   1      41.791  29.629  27.413  1.00  0.00    -0.203 F 
ATOM     80  F   UNL A   1      39.511  24.674  27.302  1.00  0.00    -0.200 F 
ATOM     81  C   UNL A   1      40.778  26.356  26.234  1.00  0.00     0.200 A 
ATOM     82  F   UNL A   1      42.048  28.066  25.216  1.00  0.00    -0.200 F 
ATOM     83  F   UNL A   1      40.931  25.578  25.154  1.00  0.00    -0.200 F 
ENDBRANCH  49  73
BRANCH  61  84
ATOM     84  C   UNL A   1      43.738  28.233  34.659  1.00  0.00     0.064 A 
ATOM     85  C   UNL A   1      43.492  27.034  35.343  1.00  0.00     0.173 A 
ATOM     86  C   UNL A   1      45.072  28.639  34.497  1.00  0.00     0.173 A 
ATOM     87  F   UNL A   1      42.232  26.614  35.537  1.00  0.00    -0.203 F 
ATOM     88  C   UNL A   1      44.541  26.280  35.861  1.00  0.00     0.198 A 
ATOM     89  C   UNL A   1      46.119  27.867  34.991  1.00  0.00     0.198 A 
ATOM     90  F   UNL A   1      45.359  29.776  33.845  1.00  0.00    -0.203 F 
ATOM     91  F   UNL A   1      44.281  25.158  36.548  1.00  0.00    -0.200 F 
ATOM     92  C   UNL A   1      45.852  26.692  35.678  1.00  0.00     0.200 A 
ATOM     93  F   UNL A   1      47.387  28.260  34.804  1.00  0.00    -0.200 F 
ATOM     94  F   UNL A   1      46.861  25.959  36.171  1.00  0.00    -0.200 F 
ENDBRANCH  61  84
ENDBRANCH  35  36
ENDBRANCH  27  30
ENDBRANCH  25  26
ENDBRANCH  24  25
ENDBRANCH  23  24
ENDBRANCH   1  23
TORSDOF 16
ENDMDL
MODEL 3
REMARK VINA RESULT:     -11.6      1.032      2.154
REMARK SMILES CC[C@H](C)Oc1ccc(NC(=O)/C=C/C(=O)NCCCCNC(=O)c2ccc(-c3c4nc(c(-c5c(F)c(F)c(F)c(F)c5F)c5ccc([nH]5)c(-c5c(F)c(F)c(F)c(F)c5F)c5nc(c(-c6c(F)c(F)c(F)c(F)c6F)c6ccc3[nH]6)C=C5)C=C4)cc2)cc1
REMARK SMILES IDX 18 1 17 2 15 3 16 4 14 6 13 7 11 8 10 9 12 11 9 12 6 13 7 14
REMARK SMILES IDX 89 15 8 16 88 17 5 18 3 19 4 20 2 21 1 22 19 23 20 24 21 25
REMARK SMILES IDX 22 26 23 27 24 29 25 30 26 31 87 32 27 33 86 34 28 35 29 36
REMARK SMILES IDX 30 37 80 38 31 39 85 40 79 41 81 42 32 43 84 44 78 45 77 46
REMARK SMILES IDX 33 48 65 49 45 50 64 51 46 52 49 53 63 54 82 55 47 56 48 57
REMARK SMILES IDX 62 59 83 60 50 61 34 62 35 63 43 64 36 65 37 66 41 67 44 68
REMARK SMILES IDX 38 69 39 70 42 71 40 72 66 73 67 74 75 75 68 76 69 77 73 78
REMARK SMILES IDX 76 79 70 80 71 81 74 82 72 83 51 84 52 85 60 86 53 87 54 88
REMARK SMILES IDX 58 89 61 90 55 91 56 92 59 93 57 94
REMARK H PARENT 17 5 10 10 22 28 81 47 49 58
REMARK Flexibility Score: inf
ROOT
ATOM      1  C   UNL A   1      32.809  29.783  25.822  1.00  0.00     0.116 C 
ENDROOT
BRANCH   1   2
ATOM      2  N   UNL A   1      33.342  28.510  26.265  1.00  0.00    -0.353 N 
ATOM      3  C   UNL A   1      33.541  27.371  25.552  1.00  0.00     0.244 C 
ATOM      4  O   UNL A   1      34.169  26.437  26.042  1.00  0.00    -0.270 OA
ATOM      5  H   UNL A   1      33.594  28.464  27.215  1.00  0.00     0.163 HD
BRANCH   3   6
ATOM      6  C   UNL A   1      33.009  27.254  24.181  1.00  0.00     0.077 C 
ATOM      7  C   UNL A   1      31.801  26.712  23.971  1.00  0.00     0.077 C 
BRANCH   7   8
ATOM      8  C   UNL A   1      31.373  26.365  22.611  1.00  0.00     0.248 C 
ATOM      9  N   UNL A   1      31.621  25.118  22.113  1.00  0.00    -0.323 N 
ATOM     10  H   UNL A   1      31.298  24.985  21.192  1.00  0.00     0.170 HD
ATOM     11  O   UNL A   1      30.791  27.210  21.935  1.00  0.00    -0.270 OA
BRANCH   9  12
ATOM     12  C   UNL A   1      32.251  23.985  22.666  1.00  0.00     0.041 A 
ATOM     13  C   UNL A   1      33.721  22.050  24.068  1.00  0.00     0.119 A 
ATOM     14  C   UNL A   1      32.333  22.018  24.078  1.00  0.00     0.048 A 
ATOM     15  C   UNL A   1      34.372  22.937  23.221  1.00  0.00     0.048 A 
ATOM     16  C   UNL A   1      31.602  22.964  23.358  1.00  0.00     0.030 A 
ATOM     17  C   UNL A   1      33.641  23.915  22.536  1.00  0.00     0.030 A 
BRANCH  13  18
ATOM     18  O   UNL A   1      34.337  21.127  24.848  1.00  0.00    -0.491 OA
BRANCH  18  19
ATOM     19  C   UNL A   1      35.121  21.546  25.978  1.00  0.00     0.170 C 
ATOM     20  C   UNL A   1      36.608  21.604  25.647  1.00  0.00     0.053 C 
BRANCH  19  21
ATOM     21  C   UNL A   1      34.564  22.704  26.837  1.00  0.00     0.041 C 
ATOM     22  C   UNL A   1      33.337  22.431  27.698  1.00  0.00     0.008 C 
ENDBRANCH  19  21
ENDBRANCH  18  19
ENDBRANCH  13  18
ENDBRANCH   9  12
ENDBRANCH   7   8
ENDBRANCH   3   6
ENDBRANCH   1   2
BRANCH   1  23
ATOM     23  C   UNL A   1      31.900  30.408  26.876  1.00  0.00     0.023 C 
BRANCH  23  24
ATOM     24  C   UNL A   1      31.734  31.925  26.755  1.00  0.00     0.023 C 
BRANCH  24  25
ATOM     25  C   UNL A   1      32.851  32.752  27.380  1.00  0.00     0.116 C 
BRANCH  25  26
ATOM     26  N   UNL A   1      32.463  34.124  27.674  1.00  0.00    -0.352 N 
ATOM     27  C   UNL A   1      33.012  34.985  28.592  1.00  0.00     0.251 C 
ATOM     28  H   UNL A   1      31.711  34.480  27.148  1.00  0.00     0.163 HD
ATOM     29  O   UNL A   1      32.529  36.096  28.780  1.00  0.00    -0.269 OA
BRANCH  27  30
ATOM     30  C   UNL A   1      34.167  34.531  29.386  1.00  0.00     0.039 A 
ATOM     31  C   UNL A   1      33.931  33.859  30.586  1.00  0.00     0.014 A 
ATOM     32  C   UNL A   1      35.468  34.713  28.911  1.00  0.00     0.014 A 
ATOM     33  C   UNL A   1      35.003  33.300  31.281  1.00  0.00     0.010 A 
ATOM     34  C   UNL A   1      36.528  34.100  29.569  1.00  0.00     0.010 A 
ATOM     35  C   UNL A   1      36.303  33.384  30.756  1.00  0.00    -0.014 A 
BRANCH  35  36
ATOM     36  C   UNL A   1      37.444  32.722  31.430  1.00  0.00     0.031 A 
ATOM     37  C   UNL A   1      38.132  31.563  30.771  1.00  0.00     0.074 A 
ATOM     38  C   UNL A   1      37.809  33.122  32.663  1.00  0.00     0.049 A 
ATOM     39  N   UNL A   1      39.095  30.803  31.228  1.00  0.00    -0.248 NA
ATOM     40  C   UNL A   1      37.657  31.190  29.430  1.00  0.00     0.031 C 
ATOM     41  C   UNL A   1      37.181  34.206  33.422  1.00  0.00     0.029 A 
ATOM     42  N   UNL A   1      38.791  32.655  33.500  1.00  0.00    -0.354 N 
ATOM     43  C   UNL A   1      39.330  29.859  30.239  1.00  0.00     0.074 A 
ATOM     44  C   UNL A   1      38.373  30.104  29.182  1.00  0.00     0.031 C 
ATOM     45  C   UNL A   1      37.808  34.335  34.603  1.00  0.00     0.029 A 
ATOM     46  C   UNL A   1      38.855  33.323  34.699  1.00  0.00     0.049 A 
ATOM     47  H   UNL A   1      39.392  31.913  33.264  1.00  0.00     0.167 HD
ATOM     48  C   UNL A   1      40.273  28.889  30.207  1.00  0.00     0.037 A 
ATOM     49  C   UNL A   1      39.667  33.134  35.756  1.00  0.00     0.037 A 
ATOM     50  C   UNL A   1      41.238  28.666  31.252  1.00  0.00     0.049 A 
ATOM     51  C   UNL A   1      40.705  32.046  35.696  1.00  0.00     0.074 A 
ATOM     52  C   UNL A   1      42.271  27.748  31.291  1.00  0.00     0.029 A 
ATOM     53  N   UNL A   1      41.284  29.375  32.444  1.00  0.00    -0.354 N 
ATOM     54  N   UNL A   1      40.960  31.199  34.729  1.00  0.00    -0.248 NA
ATOM     55  C   UNL A   1      41.571  31.893  36.873  1.00  0.00     0.031 C 
ATOM     56  C   UNL A   1      42.919  27.874  32.524  1.00  0.00     0.029 A 
ATOM     57  C   UNL A   1      42.319  28.901  33.234  1.00  0.00     0.049 A 
ATOM     58  H   UNL A   1      40.673  30.107  32.691  1.00  0.00     0.167 HD
ATOM     59  C   UNL A   1      42.030  30.432  35.166  1.00  0.00     0.074 A 
ATOM     60  C   UNL A   1      42.386  30.923  36.483  1.00  0.00     0.031 C 
ATOM     61  C   UNL A   1      42.662  29.411  34.537  1.00  0.00     0.037 A 
BRANCH  48  62
ATOM     62  C   UNL A   1      40.312  28.001  28.998  1.00  0.00     0.064 A 
ATOM     63  C   UNL A   1      39.601  26.792  28.953  1.00  0.00     0.173 A 
ATOM     64  C   UNL A   1      41.047  28.373  27.862  1.00  0.00     0.173 A 
ATOM     65  F   UNL A   1      38.894  26.384  30.019  1.00  0.00    -0.203 F 
ATOM     66  C   UNL A   1      39.647  25.975  27.828  1.00  0.00     0.198 A 
ATOM     67  C   UNL A   1      41.066  27.567  26.727  1.00  0.00     0.198 A 
ATOM     68  F   UNL A   1      41.741  29.520  27.852  1.00  0.00    -0.203 F 
ATOM     69  F   UNL A   1      38.999  24.801  27.827  1.00  0.00    -0.200 F 
ATOM     70  C   UNL A   1      40.373  26.366  26.713  1.00  0.00     0.200 A 
ATOM     71  F   UNL A   1      41.759  27.951  25.647  1.00  0.00    -0.200 F 
ATOM     72  F   UNL A   1      40.412  25.581  25.627  1.00  0.00    -0.200 F 
ENDBRANCH  48  62
BRANCH  49  73
ATOM     73  C   UNL A   1      39.551  34.013  36.947  1.00  0.00     0.064 A 
ATOM     74  C   UNL A   1      38.800  33.613  38.062  1.00  0.00     0.173 A 
ATOM     75  C   UNL A   1      40.180  35.265  37.000  1.00  0.00     0.173 A 
ATOM     76  F   UNL A   1      38.164  32.433  38.052  1.00  0.00    -0.203 F 
ATOM     77  C   UNL A   1      38.669  34.439  39.176  1.00  0.00     0.198 A 
ATOM     78  C   UNL A   1      40.069  36.080  38.124  1.00  0.00     0.198 A 
ATOM     79  F   UNL A   1      40.914  35.691  35.961  1.00  0.00    -0.203 F 
ATOM     80  F   UNL A   1      37.911  34.050  40.210  1.00  0.00    -0.200 F 
ATOM     81  C   UNL A   1      39.308  35.670  39.208  1.00  0.00     0.200 A 
ATOM     82  F   UNL A   1      40.699  37.262  38.157  1.00  0.00    -0.200 F 
ATOM     83  F   UNL A   1      39.184  36.463  40.281  1.00  0.00    -0.200 F 
ENDBRANCH  49  73
BRANCH  61  84
ATOM     84  C   UNL A   1      43.823  28.781  35.246  1.00  0.00     0.064 A 
ATOM     85  C   UNL A   1      43.654  27.680  36.098  1.00  0.00     0.173 A 
ATOM     86  C   UNL A   1      45.127  29.257  35.035  1.00  0.00     0.173 A 
ATOM     87  F   UNL A   1      42.426  27.199  36.344  1.00  0.00    -0.203 F 
ATOM     88  C   UNL A   1      44.747  27.091  36.728  1.00  0.00     0.198 A 
ATOM     89  C   UNL A   1      46.219  28.647  35.644  1.00  0.00     0.198 A 
ATOM     90  F   UNL A   1      45.341  30.304  34.224  1.00  0.00    -0.203 F 
ATOM     91  F   UNL A   1      44.558  26.066  37.572  1.00  0.00    -0.200 F 
ATOM     92  C   UNL A   1      46.027  27.569  36.495  1.00  0.00     0.200 A 
ATOM     93  F   UNL A   1      47.457  29.103  35.409  1.00  0.00    -0.200 F 
ATOM     94  F   UNL A   1      47.078  26.995  37.097  1.00  0.00    -0.200 F 
ENDBRANCH  61  84
ENDBRANCH  35  36
ENDBRANCH  27  30
ENDBRANCH  25  26
ENDBRANCH  24  25
ENDBRANCH  23  24
ENDBRANCH   1  23
TORSDOF 16
ENDMDL
