MODEL 1
REMARK VINA RESULT:     -12.7      0.000      0.000
REMARK SMILES C[C@H]1CCCC[C@H]1[N@H+]1[C@@H](C(=O)NCCCCNC(=O)c2ccc(-c3c4nc(c(-c5c(F)c(F)c(F)c(F)c5F)c5ccc([nH]5)c(-c5c(F)c(F)c(F)c(F)c5F)c5nc(c(-c6c(F)c(F)c(F)c(F)c6F)c6ccc3[nH]6)C=C5)C=C4)cc2)CC[C@@H]2CCCC[C@@H]21
REMARK SMILES IDX 15 1 14 2 13 3 12 4 10 5 11 6 9 8 8 9 90 10 83 12 85 13
REMARK SMILES IDX 89 14 84 15 86 16 88 17 87 18 7 19 1 20 2 21 3 22 4 23 6 24
REMARK SMILES IDX 5 25 16 26 17 27 18 28 19 30 20 31 21 32 82 33 22 34 81 35
REMARK SMILES IDX 23 36 24 37 25 38 75 39 26 40 80 41 74 42 76 43 27 44 79 45
REMARK SMILES IDX 73 46 72 47 28 49 60 50 40 51 59 52 41 53 44 54 58 55 77 56
REMARK SMILES IDX 42 57 43 58 57 60 78 61 45 62 29 63 30 64 38 65 31 66 32 67
REMARK SMILES IDX 36 68 39 69 33 70 34 71 37 72 35 73 61 74 62 75 70 76 63 77
REMARK SMILES IDX 64 78 68 79 71 80 65 81 66 82 69 83 67 84 46 85 47 86 55 87
REMARK SMILES IDX 48 88 49 89 53 90 56 91 50 92 51 93 54 94 52 95
REMARK H PARENT 12 7 8 11 17 29 76 48 44 59
REMARK Flexibility Score: inf
ROOT
ATOM      1  C   UNL A   1      33.849  27.909  25.870  1.00  0.00     0.023 C 
ENDROOT
BRANCH   1   2
ATOM      2  C   UNL A   1      33.883  29.021  24.825  1.00  0.00     0.023 C 
BRANCH   2   3
ATOM      3  C   UNL A   1      33.082  28.740  23.559  1.00  0.00     0.116 C 
BRANCH   3   4
ATOM      4  N   UNL A   1      33.688  27.757  22.668  1.00  0.00    -0.351 N 
ATOM      5  C   UNL A   1      33.275  26.482  22.347  1.00  0.00     0.278 C 
ATOM      6  O   UNL A   1      33.766  25.953  21.348  1.00  0.00    -0.268 OA
ATOM      7  H   UNL A   1      34.520  28.050  22.230  1.00  0.00     0.163 HD
BRANCH   5   8
ATOM      8  C   UNL A   1      32.168  25.819  23.152  1.00  0.00     0.274 C 
ATOM      9  N   UNL A   1      32.311  24.431  23.686  1.00  0.00    -0.319 N 
ATOM     10  C   UNL A   1      31.005  23.965  24.269  1.00  0.00     0.188 C 
ATOM     11  H   UNL A   1      33.028  24.589  24.393  1.00  0.00     0.349 HD
ATOM     12  C   UNL A   1      30.768  26.128  22.613  1.00  0.00     0.076 C 
ATOM     13  C   UNL A   1      30.178  25.130  24.885  1.00  0.00     0.048 C 
ATOM     14  C   UNL A   1      31.057  22.838  25.333  1.00  0.00     0.065 C 
ATOM     15  C   UNL A   1      29.794  26.159  23.800  1.00  0.00     0.016 C 
ATOM     16  C   UNL A   1      30.884  25.737  26.129  1.00  0.00     0.010 C 
ATOM     17  C   UNL A   1      31.123  23.326  26.784  1.00  0.00     0.006 C 
ATOM     18  C   UNL A   1      31.738  24.710  26.884  1.00  0.00     0.001 C 
BRANCH   9  19
ATOM     19  C   UNL A   1      33.134  23.372  23.036  1.00  0.00     0.187 C 
ATOM     20  C   UNL A   1      35.554  23.779  24.010  1.00  0.00     0.014 C 
ATOM     21  C   UNL A   1      34.443  22.799  23.652  1.00  0.00     0.044 C 
ATOM     22  C   UNL A   1      34.129  21.857  24.805  1.00  0.00     0.009 C 
ATOM     23  C   UNL A   1      33.380  20.624  24.315  1.00  0.00     0.001 C 
ATOM     24  C   UNL A   1      32.373  22.159  22.436  1.00  0.00     0.065 C 
ATOM     25  C   UNL A   1      32.325  20.850  23.230  1.00  0.00     0.006 C 
ENDBRANCH   9  19
ENDBRANCH   5   8
ENDBRANCH   3   4
ENDBRANCH   2   3
ENDBRANCH   1   2
BRANCH   1  26
ATOM     26  C   UNL A   1      33.405  28.345  27.263  1.00  0.00     0.116 C 
BRANCH  26  27
ATOM     27  N   UNL A   1      33.405  29.790  27.440  1.00  0.00    -0.352 N 
ATOM     28  C   UNL A   1      34.383  30.617  27.936  1.00  0.00     0.251 C 
ATOM     29  H   UNL A   1      32.577  30.245  27.161  1.00  0.00     0.163 HD
ATOM     30  O   UNL A   1      34.140  31.807  28.126  1.00  0.00    -0.269 OA
BRANCH  28  31
ATOM     31  C   UNL A   1      35.718  30.078  28.275  1.00  0.00     0.039 A 
ATOM     32  C   UNL A   1      36.723  30.113  27.305  1.00  0.00     0.014 A 
ATOM     33  C   UNL A   1      35.983  29.541  29.537  1.00  0.00     0.014 A 
ATOM     34  C   UNL A   1      38.011  29.679  27.624  1.00  0.00     0.010 A 
ATOM     35  C   UNL A   1      37.285  29.183  29.878  1.00  0.00     0.010 A 
ATOM     36  C   UNL A   1      38.315  29.252  28.927  1.00  0.00    -0.014 A 
BRANCH  36  37
ATOM     37  C   UNL A   1      39.702  28.883  29.314  1.00  0.00     0.031 A 
ATOM     38  C   UNL A   1      40.526  29.809  30.165  1.00  0.00     0.074 A 
ATOM     39  C   UNL A   1      40.241  27.737  28.847  1.00  0.00     0.049 A 
ATOM     40  N   UNL A   1      41.776  29.699  30.540  1.00  0.00    -0.248 NA
ATOM     41  C   UNL A   1      39.866  31.036  30.639  1.00  0.00     0.031 C 
ATOM     42  C   UNL A   1      39.561  26.773  27.981  1.00  0.00     0.029 A 
ATOM     43  N   UNL A   1      41.490  27.195  29.027  1.00  0.00    -0.354 N 
ATOM     44  C   UNL A   1      42.050  30.837  31.286  1.00  0.00     0.074 A 
ATOM     45  C   UNL A   1      40.857  31.655  31.263  1.00  0.00     0.031 C 
ATOM     46  C   UNL A   1      40.391  25.750  27.723  1.00  0.00     0.029 A 
ATOM     47  C   UNL A   1      41.676  26.006  28.365  1.00  0.00     0.049 A 
ATOM     48  H   UNL A   1      42.186  27.620  29.579  1.00  0.00     0.167 HD
ATOM     49  C   UNL A   1      43.184  31.158  31.954  1.00  0.00     0.037 A 
ATOM     50  C   UNL A   1      42.765  25.218  28.272  1.00  0.00     0.037 A 
ATOM     51  C   UNL A   1      44.365  30.335  31.989  1.00  0.00     0.049 A 
ATOM     52  C   UNL A   1      44.025  25.621  28.996  1.00  0.00     0.074 A 
ATOM     53  C   UNL A   1      45.550  30.556  32.668  1.00  0.00     0.029 A 
ATOM     54  N   UNL A   1      44.511  29.133  31.313  1.00  0.00    -0.354 N 
ATOM     55  N   UNL A   1      44.249  26.668  29.752  1.00  0.00    -0.248 NA
ATOM     56  C   UNL A   1      45.182  24.725  28.859  1.00  0.00     0.031 C 
ATOM     57  C   UNL A   1      46.432  29.516  32.363  1.00  0.00     0.029 A 
ATOM     58  C   UNL A   1      45.775  28.612  31.543  1.00  0.00     0.049 A 
ATOM     59  H   UNL A   1      43.820  28.711  30.753  1.00  0.00     0.167 HD
ATOM     60  C   UNL A   1      45.554  26.538  30.207  1.00  0.00     0.074 A 
ATOM     61  C   UNL A   1      46.067  25.301  29.659  1.00  0.00     0.031 C 
ATOM     62  C   UNL A   1      46.266  27.369  31.007  1.00  0.00     0.037 A 
BRANCH  49  63
ATOM     63  C   UNL A   1      43.206  32.453  32.715  1.00  0.00     0.064 A 
ATOM     64  C   UNL A   1      43.595  33.655  32.104  1.00  0.00     0.173 A 
ATOM     65  C   UNL A   1      42.771  32.506  34.047  1.00  0.00     0.173 A 
ATOM     66  F   UNL A   1      44.030  33.658  30.834  1.00  0.00    -0.203 F 
ATOM     67  C   UNL A   1      43.566  34.858  32.804  1.00  0.00     0.198 A 
ATOM     68  C   UNL A   1      42.713  33.715  34.735  1.00  0.00     0.198 A 
ATOM     69  F   UNL A   1      42.382  31.387  34.677  1.00  0.00    -0.203 F 
ATOM     70  F   UNL A   1      43.981  35.986  32.213  1.00  0.00    -0.200 F 
ATOM     71  C   UNL A   1      43.116  34.888  34.116  1.00  0.00     0.200 A 
ATOM     72  F   UNL A   1      42.261  33.745  35.997  1.00  0.00    -0.200 F 
ATOM     73  F   UNL A   1      43.072  36.049  34.783  1.00  0.00    -0.200 F 
ENDBRANCH  49  63
BRANCH  50  74
ATOM     74  C   UNL A   1      42.725  23.966  27.468  1.00  0.00     0.064 A 
ATOM     75  C   UNL A   1      42.373  22.742  28.056  1.00  0.00     0.173 A 
ATOM     76  C   UNL A   1      43.081  23.956  26.112  1.00  0.00     0.173 A 
ATOM     77  F   UNL A   1      42.043  22.694  29.355  1.00  0.00    -0.203 F 
ATOM     78  C   UNL A   1      42.418  21.554  27.330  1.00  0.00     0.198 A 
ATOM     79  C   UNL A   1      43.090  22.773  25.377  1.00  0.00     0.198 A 
ATOM     80  F   UNL A   1      43.422  25.099  25.498  1.00  0.00    -0.203 F 
ATOM     81  F   UNL A   1      42.145  20.391  27.937  1.00  0.00    -0.200 F 
ATOM     82  C   UNL A   1      42.773  21.571  25.990  1.00  0.00     0.200 A 
ATOM     83  F   UNL A   1      43.419  22.796  24.078  1.00  0.00    -0.200 F 
ATOM     84  F   UNL A   1      42.822  20.427  25.294  1.00  0.00    -0.200 F 
ENDBRANCH  50  74
BRANCH  62  85
ATOM     85  C   UNL A   1      47.656  26.944  31.384  1.00  0.00     0.064 A 
ATOM     86  C   UNL A   1      47.898  26.057  32.443  1.00  0.00     0.173 A 
ATOM     87  C   UNL A   1      48.761  27.405  30.651  1.00  0.00     0.173 A 
ATOM     88  F   UNL A   1      46.880  25.599  33.186  1.00  0.00    -0.203 F 
ATOM     89  C   UNL A   1      49.195  25.672  32.772  1.00  0.00     0.198 A 
ATOM     90  C   UNL A   1      50.053  26.989  30.959  1.00  0.00     0.198 A 
ATOM     91  F   UNL A   1      48.585  28.249  29.622  1.00  0.00    -0.203 F 
ATOM     92  F   UNL A   1      49.407  24.867  33.824  1.00  0.00    -0.200 F 
ATOM     93  C   UNL A   1      50.269  26.131  32.026  1.00  0.00     0.200 A 
ATOM     94  F   UNL A   1      51.087  27.420  30.225  1.00  0.00    -0.200 F 
ATOM     95  F   UNL A   1      51.516  25.751  32.338  1.00  0.00    -0.200 F 
ENDBRANCH  62  85
ENDBRANCH  36  37
ENDBRANCH  28  31
ENDBRANCH  26  27
ENDBRANCH   1  26
TORSDOF 12
ENDMDL
MODEL 2
REMARK VINA RESULT:     -12.7      2.526      3.793
REMARK SMILES C[C@H]1CCCC[C@H]1[N@H+]1[C@@H](C(=O)NCCCCNC(=O)c2ccc(-c3c4nc(c(-c5c(F)c(F)c(F)c(F)c5F)c5ccc([nH]5)c(-c5c(F)c(F)c(F)c(F)c5F)c5nc(c(-c6c(F)c(F)c(F)c(F)c6F)c6ccc3[nH]6)C=C5)C=C4)cc2)CC[C@@H]2CCCC[C@@H]21
REMARK SMILES IDX 15 1 14 2 13 3 12 4 10 5 11 6 9 8 8 9 90 10 83 12 85 13
REMARK SMILES IDX 89 14 84 15 86 16 88 17 87 18 7 19 1 20 2 21 3 22 4 23 6 24
REMARK SMILES IDX 5 25 16 26 17 27 18 28 19 30 20 31 21 32 82 33 22 34 81 35
REMARK SMILES IDX 23 36 24 37 25 38 75 39 26 40 80 41 74 42 76 43 27 44 79 45
REMARK SMILES IDX 73 46 72 47 28 49 60 50 40 51 59 52 41 53 44 54 58 55 77 56
REMARK SMILES IDX 42 57 43 58 57 60 78 61 45 62 29 63 30 64 38 65 31 66 32 67
REMARK SMILES IDX 36 68 39 69 33 70 34 71 37 72 35 73 61 74 62 75 70 76 63 77
REMARK SMILES IDX 64 78 68 79 71 80 65 81 66 82 69 83 67 84 46 85 47 86 55 87
REMARK SMILES IDX 48 88 49 89 53 90 56 91 50 92 51 93 54 94 52 95
REMARK H PARENT 12 7 8 11 17 29 76 48 44 59
REMARK Flexibility Score: inf
ROOT
ATOM      1  C   UNL A   1      31.882  29.192  24.949  1.00  0.00     0.023 C 
ENDROOT
BRANCH   1   2
ATOM      2  C   UNL A   1      32.752  29.102  23.698  1.00  0.00     0.023 C 
BRANCH   2   3
ATOM      3  C   UNL A   1      33.899  28.100  23.781  1.00  0.00     0.116 C 
BRANCH   3   4
ATOM      4  N   UNL A   1      34.051  27.262  22.597  1.00  0.00    -0.351 N 
ATOM      5  C   UNL A   1      33.272  26.218  22.148  1.00  0.00     0.278 C 
ATOM      6  O   UNL A   1      33.410  25.860  20.976  1.00  0.00    -0.268 OA
ATOM      7  H   UNL A   1      34.831  27.474  22.034  1.00  0.00     0.163 HD
BRANCH   5   8
ATOM      8  C   UNL A   1      32.207  25.621  23.055  1.00  0.00     0.274 C 
ATOM      9  N   UNL A   1      32.354  24.255  23.642  1.00  0.00    -0.319 N 
ATOM     10  C   UNL A   1      31.081  23.851  24.334  1.00  0.00     0.188 C 
ATOM     11  H   UNL A   1      33.121  24.427  24.292  1.00  0.00     0.349 HD
ATOM     12  C   UNL A   1      30.781  25.942  22.597  1.00  0.00     0.076 C 
ATOM     13  C   UNL A   1      30.325  25.064  24.949  1.00  0.00     0.048 C 
ATOM     14  C   UNL A   1      31.179  22.772  25.444  1.00  0.00     0.065 C 
ATOM     15  C   UNL A   1      29.892  26.052  23.845  1.00  0.00     0.016 C 
ATOM     16  C   UNL A   1      31.128  25.708  26.112  1.00  0.00     0.010 C 
ATOM     17  C   UNL A   1      31.355  23.323  26.862  1.00  0.00     0.006 C 
ATOM     18  C   UNL A   1      32.008  24.694  26.856  1.00  0.00     0.001 C 
BRANCH   9  19
ATOM     19  C   UNL A   1      33.106  23.147  22.990  1.00  0.00     0.187 C 
ATOM     20  C   UNL A   1      35.606  23.570  23.729  1.00  0.00     0.014 C 
ATOM     21  C   UNL A   1      34.457  22.589  23.525  1.00  0.00     0.044 C 
ATOM     22  C   UNL A   1      34.232  21.721  24.755  1.00  0.00     0.009 C 
ATOM     23  C   UNL A   1      33.429  20.475  24.404  1.00  0.00     0.001 C 
ATOM     24  C   UNL A   1      32.283  21.914  22.529  1.00  0.00     0.065 C 
ATOM     25  C   UNL A   1      32.288  20.654  23.402  1.00  0.00     0.006 C 
ENDBRANCH   9  19
ENDBRANCH   5   8
ENDBRANCH   3   4
ENDBRANCH   2   3
ENDBRANCH   1   2
BRANCH   1  26
ATOM     26  C   UNL A   1      32.612  29.631  26.214  1.00  0.00     0.116 C 
BRANCH  26  27
ATOM     27  N   UNL A   1      32.481  31.055  26.487  1.00  0.00    -0.352 N 
ATOM     28  C   UNL A   1      33.267  31.881  27.252  1.00  0.00     0.251 C 
ATOM     29  H   UNL A   1      31.710  31.494  26.058  1.00  0.00     0.163 HD
ATOM     30  O   UNL A   1      32.912  33.039  27.465  1.00  0.00    -0.269 OA
BRANCH  28  31
ATOM     31  C   UNL A   1      34.522  31.378  27.850  1.00  0.00     0.039 A 
ATOM     32  C   UNL A   1      35.582  32.269  28.036  1.00  0.00     0.014 A 
ATOM     33  C   UNL A   1      34.659  30.039  28.226  1.00  0.00     0.014 A 
ATOM     34  C   UNL A   1      36.750  31.836  28.667  1.00  0.00     0.010 A 
ATOM     35  C   UNL A   1      35.793  29.628  28.924  1.00  0.00     0.010 A 
ATOM     36  C   UNL A   1      36.849  30.523  29.156  1.00  0.00    -0.014 A 
BRANCH  36  37
ATOM     37  C   UNL A   1      38.043  30.072  29.919  1.00  0.00     0.031 A 
ATOM     38  C   UNL A   1      38.291  30.581  31.312  1.00  0.00     0.074 A 
ATOM     39  C   UNL A   1      38.936  29.248  29.333  1.00  0.00     0.049 A 
ATOM     40  N   UNL A   1      39.312  30.365  32.104  1.00  0.00    -0.248 NA
ATOM     41  C   UNL A   1      37.269  31.472  31.884  1.00  0.00     0.031 C 
ATOM     42  C   UNL A   1      38.831  28.716  27.973  1.00  0.00     0.029 A 
ATOM     43  N   UNL A   1      40.115  28.723  29.803  1.00  0.00    -0.354 N 
ATOM     44  C   UNL A   1      39.057  31.092  33.258  1.00  0.00     0.074 A 
ATOM     45  C   UNL A   1      37.815  31.804  33.045  1.00  0.00     0.031 C 
ATOM     46  C   UNL A   1      39.886  27.925  27.727  1.00  0.00     0.029 A 
ATOM     47  C   UNL A   1      40.767  27.930  28.890  1.00  0.00     0.049 A 
ATOM     48  H   UNL A   1      40.459  28.899  30.708  1.00  0.00     0.167 HD
ATOM     49  C   UNL A   1      39.778  31.140  34.404  1.00  0.00     0.037 A 
ATOM     50  C   UNL A   1      41.951  27.291  28.976  1.00  0.00     0.037 A 
ATOM     51  C   UNL A   1      41.005  30.420  34.622  1.00  0.00     0.049 A 
ATOM     52  C   UNL A   1      42.748  27.394  30.251  1.00  0.00     0.074 A 
ATOM     53  C   UNL A   1      41.789  30.374  35.761  1.00  0.00     0.029 A 
ATOM     54  N   UNL A   1      41.630  29.618  33.677  1.00  0.00    -0.354 N 
ATOM     55  N   UNL A   1      42.463  28.033  31.359  1.00  0.00    -0.248 NA
ATOM     56  C   UNL A   1      44.031  26.678  30.288  1.00  0.00     0.031 C 
ATOM     57  C   UNL A   1      42.912  29.588  35.491  1.00  0.00     0.029 A 
ATOM     58  C   UNL A   1      42.799  29.092  34.202  1.00  0.00     0.049 A 
ATOM     59  H   UNL A   1      41.292  29.449  32.767  1.00  0.00     0.167 HD
ATOM     60  C   UNL A   1      43.508  27.767  32.233  1.00  0.00     0.074 A 
ATOM     61  C   UNL A   1      44.426  26.893  31.534  1.00  0.00     0.031 C 
ATOM     62  C   UNL A   1      43.694  28.207  33.502  1.00  0.00     0.037 A 
BRANCH  49  63
ATOM     63  C   UNL A   1      39.257  31.995  35.525  1.00  0.00     0.064 A 
ATOM     64  C   UNL A   1      38.430  31.465  36.527  1.00  0.00     0.173 A 
ATOM     65  C   UNL A   1      39.642  33.339  35.636  1.00  0.00     0.173 A 
ATOM     66  F   UNL A   1      38.024  30.188  36.463  1.00  0.00    -0.203 F 
ATOM     67  C   UNL A   1      37.992  32.254  37.587  1.00  0.00     0.198 A 
ATOM     68  C   UNL A   1      39.228  34.118  36.714  1.00  0.00     0.198 A 
ATOM     69  F   UNL A   1      40.437  33.895  34.708  1.00  0.00    -0.203 F 
ATOM     70  F   UNL A   1      37.170  31.737  38.510  1.00  0.00    -0.200 F 
ATOM     71  C   UNL A   1      38.399  33.576  37.685  1.00  0.00     0.200 A 
ATOM     72  F   UNL A   1      39.636  35.390  36.816  1.00  0.00    -0.200 F 
ATOM     73  F   UNL A   1      37.990  34.330  38.715  1.00  0.00    -0.200 F 
ENDBRANCH  49  63
BRANCH  50  74
ATOM     74  C   UNL A   1      42.462  26.493  27.828  1.00  0.00     0.064 A 
ATOM     75  C   UNL A   1      43.328  27.063  26.882  1.00  0.00     0.173 A 
ATOM     76  C   UNL A   1      42.064  25.164  27.626  1.00  0.00     0.173 A 
ATOM     77  F   UNL A   1      43.722  28.338  27.018  1.00  0.00    -0.203 F 
ATOM     78  C   UNL A   1      43.740  26.348  25.759  1.00  0.00     0.198 A 
ATOM     79  C   UNL A   1      42.507  24.438  26.523  1.00  0.00     0.198 A 
ATOM     80  F   UNL A   1      41.243  24.567  28.503  1.00  0.00    -0.203 F 
ATOM     81  F   UNL A   1      44.508  26.942  24.836  1.00  0.00    -0.200 F 
ATOM     82  C   UNL A   1      43.333  25.035  25.583  1.00  0.00     0.200 A 
ATOM     83  F   UNL A   1      42.124  23.164  26.365  1.00  0.00    -0.200 F 
ATOM     84  F   UNL A   1      43.725  24.350  24.500  1.00  0.00    -0.200 F 
ENDBRANCH  50  74
BRANCH  62  85
ATOM     85  C   UNL A   1      44.905  27.710  34.237  1.00  0.00     0.064 A 
ATOM     86  C   UNL A   1      46.107  28.433  34.259  1.00  0.00     0.173 A 
ATOM     87  C   UNL A   1      44.850  26.509  34.961  1.00  0.00     0.173 A 
ATOM     88  F   UNL A   1      46.218  29.579  33.572  1.00  0.00    -0.203 F 
ATOM     89  C   UNL A   1      47.216  27.956  34.953  1.00  0.00     0.198 A 
ATOM     90  C   UNL A   1      45.949  26.053  35.683  1.00  0.00     0.198 A 
ATOM     91  F   UNL A   1      43.721  25.782  34.981  1.00  0.00    -0.203 F 
ATOM     92  F   UNL A   1      48.372  28.635  34.913  1.00  0.00    -0.200 F 
ATOM     93  C   UNL A   1      47.134  26.773  35.670  1.00  0.00     0.200 A 
ATOM     94  F   UNL A   1      45.861  24.918  36.390  1.00  0.00    -0.200 F 
ATOM     95  F   UNL A   1      48.200  26.319  36.344  1.00  0.00    -0.200 F 
ENDBRANCH  62  85
ENDBRANCH  36  37
ENDBRANCH  28  31
ENDBRANCH  26  27
ENDBRANCH   1  26
TORSDOF 12
ENDMDL
MODEL 3
REMARK VINA RESULT:     -12.6      2.669      7.683
REMARK SMILES C[C@H]1CCCC[C@H]1[N@H+]1[C@@H](C(=O)NCCCCNC(=O)c2ccc(-c3c4nc(c(-c5c(F)c(F)c(F)c(F)c5F)c5ccc([nH]5)c(-c5c(F)c(F)c(F)c(F)c5F)c5nc(c(-c6c(F)c(F)c(F)c(F)c6F)c6ccc3[nH]6)C=C5)C=C4)cc2)CC[C@@H]2CCCC[C@@H]21
REMARK SMILES IDX 15 1 14 2 13 3 12 4 10 5 11 6 9 8 8 9 90 10 83 12 85 13
REMARK SMILES IDX 89 14 84 15 86 16 88 17 87 18 7 19 1 20 2 21 3 22 4 23 6 24
REMARK SMILES IDX 5 25 16 26 17 27 18 28 19 30 20 31 21 32 82 33 22 34 81 35
REMARK SMILES IDX 23 36 24 37 25 38 75 39 26 40 80 41 74 42 76 43 27 44 79 45
REMARK SMILES IDX 73 46 72 47 28 49 60 50 40 51 59 52 41 53 44 54 58 55 77 56
REMARK SMILES IDX 42 57 43 58 57 60 78 61 45 62 29 63 30 64 38 65 31 66 32 67
REMARK SMILES IDX 36 68 39 69 33 70 34 71 37 72 35 73 61 74 62 75 70 76 63 77
REMARK SMILES IDX 64 78 68 79 71 80 65 81 66 82 69 83 67 84 46 85 47 86 55 87
REMARK SMILES IDX 48 88 49 89 53 90 56 91 50 92 51 93 54 94 52 95
REMARK H PARENT 12 7 8 11 17 29 76 48 44 59
REMARK Flexibility Score: inf
ROOT
ATOM      1  C   UNL A   1      31.888  29.198  24.763  1.00  0.00     0.023 C 
ENDROOT
BRANCH   1   2
ATOM      2  C   UNL A   1      32.595  28.947  23.434  1.00  0.00     0.023 C 
BRANCH   2   3
ATOM      3  C   UNL A   1      33.805  28.022  23.512  1.00  0.00     0.116 C 
BRANCH   3   4
ATOM      4  N   UNL A   1      33.938  27.109  22.382  1.00  0.00    -0.351 N 
ATOM      5  C   UNL A   1      33.173  26.016  22.034  1.00  0.00     0.278 C 
ATOM      6  O   UNL A   1      33.278  25.583  20.885  1.00  0.00    -0.268 OA
ATOM      7  H   UNL A   1      34.689  27.303  21.775  1.00  0.00     0.163 HD
BRANCH   5   8
ATOM      8  C   UNL A   1      32.161  25.454  23.021  1.00  0.00     0.274 C 
ATOM      9  N   UNL A   1      32.356  24.122  23.670  1.00  0.00    -0.319 N 
ATOM     10  C   UNL A   1      31.122  23.739  24.441  1.00  0.00     0.188 C 
ATOM     11  H   UNL A   1      33.149  24.337  24.272  1.00  0.00     0.349 HD
ATOM     12  C   UNL A   1      30.711  25.734  22.616  1.00  0.00     0.076 C 
ATOM     13  C   UNL A   1      30.378  24.973  25.028  1.00  0.00     0.048 C 
ATOM     14  C   UNL A   1      31.288  22.720  25.599  1.00  0.00     0.065 C 
ATOM     15  C   UNL A   1      29.880  25.898  23.897  1.00  0.00     0.016 C 
ATOM     16  C   UNL A   1      31.226  25.687  26.118  1.00  0.00     0.010 C 
ATOM     17  C   UNL A   1      31.523  23.346  26.977  1.00  0.00     0.006 C 
ATOM     18  C   UNL A   1      32.154  24.723  26.869  1.00  0.00     0.001 C 
BRANCH   9  19
ATOM     19  C   UNL A   1      33.092  22.991  23.039  1.00  0.00     0.187 C 
ATOM     20  C   UNL A   1      35.628  23.562  23.505  1.00  0.00     0.014 C 
ATOM     21  C   UNL A   1      34.508  22.527  23.489  1.00  0.00     0.044 C 
ATOM     22  C   UNL A   1      34.434  21.758  24.799  1.00  0.00     0.009 C 
ATOM     23  C   UNL A   1      33.656  20.459  24.625  1.00  0.00     0.001 C 
ATOM     24  C   UNL A   1      32.284  21.696  22.758  1.00  0.00     0.065 C 
ATOM     25  C   UNL A   1      32.422  20.513  23.723  1.00  0.00     0.006 C 
ENDBRANCH   9  19
ENDBRANCH   5   8
ENDBRANCH   3   4
ENDBRANCH   2   3
ENDBRANCH   1   2
BRANCH   1  26
ATOM     26  C   UNL A   1      32.789  29.694  25.890  1.00  0.00     0.116 C 
BRANCH  26  27
ATOM     27  N   UNL A   1      32.503  31.063  26.293  1.00  0.00    -0.352 N 
ATOM     28  C   UNL A   1      33.160  31.874  27.185  1.00  0.00     0.251 C 
ATOM     29  H   UNL A   1      31.718  31.471  25.859  1.00  0.00     0.163 HD
ATOM     30  O   UNL A   1      32.682  32.966  27.487  1.00  0.00    -0.269 OA
BRANCH  28  31
ATOM     31  C   UNL A   1      34.423  31.428  27.812  1.00  0.00     0.039 A 
ATOM     32  C   UNL A   1      35.436  32.367  28.023  1.00  0.00     0.014 A 
ATOM     33  C   UNL A   1      34.614  30.097  28.190  1.00  0.00     0.014 A 
ATOM     34  C   UNL A   1      36.608  31.989  28.681  1.00  0.00     0.010 A 
ATOM     35  C   UNL A   1      35.748  29.738  28.915  1.00  0.00     0.010 A 
ATOM     36  C   UNL A   1      36.756  30.681  29.172  1.00  0.00    -0.014 A 
BRANCH  36  37
ATOM     37  C   UNL A   1      37.952  30.285  29.962  1.00  0.00     0.031 A 
ATOM     38  C   UNL A   1      38.961  29.331  29.387  1.00  0.00     0.074 A 
ATOM     39  C   UNL A   1      38.097  30.740  31.224  1.00  0.00     0.049 A 
ATOM     40  N   UNL A   1      40.023  28.809  29.949  1.00  0.00    -0.248 NA
ATOM     41  C   UNL A   1      38.736  28.883  28.003  1.00  0.00     0.031 C 
ATOM     42  C   UNL A   1      37.167  31.638  31.911  1.00  0.00     0.029 A 
ATOM     43  N   UNL A   1      39.075  30.501  32.157  1.00  0.00    -0.354 N 
ATOM     44  C   UNL A   1      40.586  27.974  28.994  1.00  0.00     0.074 A 
ATOM     45  C   UNL A   1      39.718  28.010  27.836  1.00  0.00     0.031 C 
ATOM     46  C   UNL A   1      37.630  31.891  33.146  1.00  0.00     0.029 A 
ATOM     47  C   UNL A   1      38.863  31.137  33.356  1.00  0.00     0.049 A 
ATOM     48  H   UNL A   1      39.856  29.927  31.983  1.00  0.00     0.167 HD
ATOM     49  C   UNL A   1      41.737  27.262  29.065  1.00  0.00     0.037 A 
ATOM     50  C   UNL A   1      39.572  31.105  34.501  1.00  0.00     0.037 A 
ATOM     51  C   UNL A   1      42.607  27.239  30.211  1.00  0.00     0.049 A 
ATOM     52  C   UNL A   1      40.829  30.275  34.561  1.00  0.00     0.074 A 
ATOM     53  C   UNL A   1      43.814  26.580  30.365  1.00  0.00     0.029 A 
ATOM     54  N   UNL A   1      42.362  27.905  31.403  1.00  0.00    -0.354 N 
ATOM     55  N   UNL A   1      41.384  29.541  33.627  1.00  0.00    -0.248 NA
ATOM     56  C   UNL A   1      41.562  30.275  35.835  1.00  0.00     0.031 C 
ATOM     57  C   UNL A   1      44.274  26.804  31.665  1.00  0.00     0.029 A 
ATOM     58  C   UNL A   1      43.385  27.654  32.304  1.00  0.00     0.049 A 
ATOM     59  H   UNL A   1      41.577  28.473  31.583  1.00  0.00     0.167 HD
ATOM     60  C   UNL A   1      42.545  29.025  34.187  1.00  0.00     0.074 A 
ATOM     61  C   UNL A   1      42.625  29.544  35.536  1.00  0.00     0.031 C 
ATOM     62  C   UNL A   1      43.463  28.194  33.636  1.00  0.00     0.037 A 
BRANCH  49  63
ATOM     63  C   UNL A   1      42.135  26.452  27.863  1.00  0.00     0.064 A 
ATOM     64  C   UNL A   1      43.057  26.939  26.925  1.00  0.00     0.173 A 
ATOM     65  C   UNL A   1      41.642  25.151  27.684  1.00  0.00     0.173 A 
ATOM     66  F   UNL A   1      43.551  28.180  27.043  1.00  0.00    -0.203 F 
ATOM     67  C   UNL A   1      43.455  26.161  25.841  1.00  0.00     0.198 A 
ATOM     68  C   UNL A   1      42.066  24.363  26.617  1.00  0.00     0.198 A 
ATOM     69  F   UNL A   1      40.762  24.635  28.556  1.00  0.00    -0.203 F 
ATOM     70  F   UNL A   1      44.306  26.662  24.935  1.00  0.00    -0.200 F 
ATOM     71  C   UNL A   1      42.967  24.871  25.693  1.00  0.00     0.200 A 
ATOM     72  F   UNL A   1      41.607  23.111  26.486  1.00  0.00    -0.200 F 
ATOM     73  F   UNL A   1      43.365  24.117  24.660  1.00  0.00    -0.200 F 
ENDBRANCH  49  63
BRANCH  50  74
ATOM     74  C   UNL A   1      39.122  31.880  35.689  1.00  0.00     0.064 A 
ATOM     75  C   UNL A   1      39.588  33.183  35.919  1.00  0.00     0.173 A 
ATOM     76  C   UNL A   1      38.259  31.321  36.642  1.00  0.00     0.173 A 
ATOM     77  F   UNL A   1      40.432  33.755  35.048  1.00  0.00    -0.203 F 
ATOM     78  C   UNL A   1      39.239  33.880  37.074  1.00  0.00     0.198 A 
ATOM     79  C   UNL A   1      37.881  32.034  37.779  1.00  0.00     0.198 A 
ATOM     80  F   UNL A   1      37.779  30.080  36.470  1.00  0.00    -0.203 F 
ATOM     81  F   UNL A   1      39.756  35.095  37.301  1.00  0.00    -0.200 F 
ATOM     82  C   UNL A   1      38.383  33.306  38.001  1.00  0.00     0.200 A 
ATOM     83  F   UNL A   1      37.041  31.481  38.664  1.00  0.00    -0.200 F 
ATOM     84  F   UNL A   1      38.053  33.974  39.115  1.00  0.00    -0.200 F 
ENDBRANCH  50  74
BRANCH  62  85
ATOM     85  C   UNL A   1      44.662  27.837  34.468  1.00  0.00     0.064 A 
ATOM     86  C   UNL A   1      45.820  28.628  34.476  1.00  0.00     0.173 A 
ATOM     87  C   UNL A   1      44.636  26.705  35.297  1.00  0.00     0.173 A 
ATOM     88  F   UNL A   1      45.902  29.713  33.690  1.00  0.00    -0.203 F 
ATOM     89  C   UNL A   1      46.918  28.282  35.258  1.00  0.00     0.198 A 
ATOM     90  C   UNL A   1      45.722  26.382  36.106  1.00  0.00     0.198 A 
ATOM     91  F   UNL A   1      43.550  25.918  35.334  1.00  0.00    -0.203 F 
ATOM     92  F   UNL A   1      48.035  29.021  35.207  1.00  0.00    -0.200 F 
ATOM     93  C   UNL A   1      46.865  27.165  36.078  1.00  0.00     0.200 A 
ATOM     94  F   UNL A   1      45.661  25.312  36.910  1.00  0.00    -0.200 F 
ATOM     95  F   UNL A   1      47.920  26.838  36.838  1.00  0.00    -0.200 F 
ENDBRANCH  62  85
ENDBRANCH  36  37
ENDBRANCH  28  31
ENDBRANCH  26  27
ENDBRANCH   1  26
TORSDOF 12
ENDMDL
