MODEL 1
REMARK VINA RESULT:     -12.9      0.000      0.000
REMARK SMILES C[C@H]1Cc2ccc(C3CC3)cc2[C@H](C(=O)NCCCCNC(=O)c2ccc(-c3c4nc(c(-c5c(F)c(F)c(F)c(F)c5F)c5ccc([nH]5)c(-c5c(F)c(F)c(F)c(F)c5F)c5nc(c(-c6c(F)c(F)c(F)c(F)c6F)c6ccc3[nH]6)C=C5)C=C4)cc2)[NH2+]1
REMARK SMILES IDX 19 1 18 2 17 3 16 4 14 5 15 6 13 8 1 9 2 10 3 11 87 12 4 13
REMARK SMILES IDX 5 16 12 17 6 18 11 19 7 20 8 21 9 22 10 23 20 24 21 25 22 26
REMARK SMILES IDX 23 28 24 29 25 30 86 31 26 32 85 33 27 34 28 35 29 36 79 37
REMARK SMILES IDX 30 38 84 39 78 40 80 41 31 42 83 43 77 44 76 45 32 47 64 48
REMARK SMILES IDX 44 49 63 50 45 51 48 52 62 53 81 54 46 55 47 56 61 58 82 59
REMARK SMILES IDX 49 60 33 61 34 62 42 63 35 64 36 65 40 66 43 67 37 68 38 69
REMARK SMILES IDX 41 70 39 71 65 72 66 73 74 74 67 75 68 76 72 77 75 78 69 79
REMARK SMILES IDX 70 80 73 81 71 82 50 83 51 84 59 85 52 86 53 87 57 88 60 89
REMARK SMILES IDX 54 90 55 91 58 92 56 93
REMARK H PARENT 16 7 87 14 87 15 21 27 80 46 48 57
REMARK Flexibility Score: inf
ROOT
ATOM      1  C   UNL A   1      31.489  32.025  26.882  1.00  0.00     0.023 C 
ENDROOT
BRANCH   1   2
ATOM      2  C   UNL A   1      31.862  30.658  26.307  1.00  0.00     0.023 C 
BRANCH   2   3
ATOM      3  C   UNL A   1      32.643  29.742  27.256  1.00  0.00     0.116 C 
BRANCH   3   4
ATOM      4  N   UNL A   1      32.010  28.447  27.387  1.00  0.00    -0.351 N 
ATOM      5  C   UNL A   1      31.966  27.385  26.520  1.00  0.00     0.283 C 
ATOM      6  O   UNL A   1      31.278  26.425  26.874  1.00  0.00    -0.268 OA
ATOM      7  H   UNL A   1      31.534  28.303  28.237  1.00  0.00     0.163 HD
BRANCH   5   8
ATOM      8  C   UNL A   1      32.774  27.424  25.183  1.00  0.00     0.304 C 
ATOM      9  C   UNL A   1      29.976  27.871  22.700  1.00  0.00     0.075 C 
ATOM     10  C   UNL A   1      30.914  27.129  23.651  1.00  0.00     0.184 C 
ATOM     11  C   UNL A   1      31.540  25.905  22.962  1.00  0.00     0.100 C 
ATOM     12  N   UNL A   1      31.979  28.041  24.089  1.00  0.00    -0.330 N 
ATOM     13  C   UNL A   1      32.681  25.316  23.754  1.00  0.00    -0.032 A 
ATOM     14  H   UNL A   1      31.560  28.907  24.426  1.00  0.00     0.347 HD
ATOM     15  H   UNL A   1      32.596  28.230  23.300  1.00  0.00     0.347 HD
ATOM     16  C   UNL A   1      33.170  24.050  23.427  1.00  0.00     0.005 A 
ATOM     17  C   UNL A   1      33.297  26.049  24.784  1.00  0.00     0.023 A 
ATOM     18  C   UNL A   1      34.244  23.505  24.135  1.00  0.00     0.004 A 
ATOM     19  C   UNL A   1      34.382  25.481  25.480  1.00  0.00     0.014 A 
ATOM     20  C   UNL A   1      34.877  24.199  25.180  1.00  0.00    -0.044 A 
BRANCH  20  21
ATOM     21  C   UNL A   1      36.027  23.542  25.918  1.00  0.00     0.019 C 
ATOM     22  C   UNL A   1      36.727  22.288  25.454  1.00  0.00     0.009 C 
ATOM     23  C   UNL A   1      37.407  23.617  25.304  1.00  0.00     0.009 C 
ENDBRANCH  20  21
ENDBRANCH   5   8
ENDBRANCH   3   4
ENDBRANCH   2   3
ENDBRANCH   1   2
BRANCH   1  24
ATOM     24  C   UNL A   1      32.656  32.856  27.391  1.00  0.00     0.116 C 
BRANCH  24  25
ATOM     25  N   UNL A   1      32.295  34.233  27.693  1.00  0.00    -0.352 N 
ATOM     26  C   UNL A   1      32.879  35.096  28.591  1.00  0.00     0.251 C 
ATOM     27  H   UNL A   1      31.531  34.595  27.187  1.00  0.00     0.163 HD
ATOM     28  O   UNL A   1      32.388  36.200  28.803  1.00  0.00    -0.269 OA
BRANCH  26  29
ATOM     29  C   UNL A   1      34.076  34.658  29.338  1.00  0.00     0.039 A 
ATOM     30  C   UNL A   1      35.343  34.732  28.756  1.00  0.00     0.014 A 
ATOM     31  C   UNL A   1      33.917  34.114  30.616  1.00  0.00     0.014 A 
ATOM     32  C   UNL A   1      36.420  34.111  29.376  1.00  0.00     0.010 A 
ATOM     33  C   UNL A   1      35.017  33.557  31.272  1.00  0.00     0.010 A 
ATOM     34  C   UNL A   1      36.267  33.504  30.635  1.00  0.00    -0.014 A 
BRANCH  34  35
ATOM     35  C   UNL A   1      37.419  32.796  31.247  1.00  0.00     0.031 A 
ATOM     36  C   UNL A   1      37.894  33.162  32.628  1.00  0.00     0.074 A 
ATOM     37  C   UNL A   1      37.985  31.766  30.589  1.00  0.00     0.049 A 
ATOM     38  N   UNL A   1      38.873  32.644  33.328  1.00  0.00    -0.248 NA
ATOM     39  C   UNL A   1      37.176  34.245  33.319  1.00  0.00     0.031 C 
ATOM     40  C   UNL A   1      37.588  31.297  29.260  1.00  0.00     0.029 A 
ATOM     41  N   UNL A   1      38.989  30.908  30.959  1.00  0.00    -0.354 N 
ATOM     42  C   UNL A   1      38.894  33.342  34.528  1.00  0.00     0.074 A 
ATOM     43  C   UNL A   1      37.849  34.340  34.457  1.00  0.00     0.031 C 
ATOM     44  C   UNL A   1      38.297  30.200  28.953  1.00  0.00     0.029 A 
ATOM     45  C   UNL A   1      39.240  29.925  30.032  1.00  0.00     0.049 A 
ATOM     46  H   UNL A   1      39.482  30.988  31.807  1.00  0.00     0.167 HD
ATOM     47  C   UNL A   1      39.703  33.156  35.598  1.00  0.00     0.037 A 
ATOM     48  C   UNL A   1      40.135  28.921  30.048  1.00  0.00     0.037 A 
ATOM     49  C   UNL A   1      40.728  32.149  35.678  1.00  0.00     0.049 A 
ATOM     50  C   UNL A   1      41.058  28.779  31.225  1.00  0.00     0.074 A 
ATOM     51  C   UNL A   1      41.612  31.899  36.714  1.00  0.00     0.029 A 
ATOM     52  N   UNL A   1      40.997  31.215  34.689  1.00  0.00    -0.354 N 
ATOM     53  N   UNL A   1      41.089  29.469  32.339  1.00  0.00    -0.248 NA
ATOM     54  C   UNL A   1      42.082  27.728  31.139  1.00  0.00     0.031 C 
ATOM     55  C   UNL A   1      42.432  30.829  36.342  1.00  0.00     0.029 A 
ATOM     56  C   UNL A   1      42.036  30.392  35.089  1.00  0.00     0.049 A 
ATOM     57  H   UNL A   1      40.520  31.148  33.831  1.00  0.00     0.167 HD
ATOM     58  C   UNL A   1      42.121  28.928  33.091  1.00  0.00     0.074 A 
ATOM     59  C   UNL A   1      42.680  27.839  32.317  1.00  0.00     0.031 C 
ATOM     60  C   UNL A   1      42.571  29.306  34.311  1.00  0.00     0.037 A 
BRANCH  47  61
ATOM     61  C   UNL A   1      39.520  34.052  36.785  1.00  0.00     0.064 A 
ATOM     62  C   UNL A   1      38.761  33.645  37.892  1.00  0.00     0.173 A 
ATOM     63  C   UNL A   1      40.187  35.284  36.860  1.00  0.00     0.173 A 
ATOM     64  F   UNL A   1      38.095  32.482  37.863  1.00  0.00    -0.203 F 
ATOM     65  C   UNL A   1      38.678  34.441  39.032  1.00  0.00     0.198 A 
ATOM     66  C   UNL A   1      40.118  36.066  38.009  1.00  0.00     0.198 A 
ATOM     67  F   UNL A   1      40.930  35.714  35.829  1.00  0.00    -0.203 F 
ATOM     68  F   UNL A   1      37.934  34.041  40.073  1.00  0.00    -0.200 F 
ATOM     69  C   UNL A   1      39.364  35.645  39.093  1.00  0.00     0.200 A 
ATOM     70  F   UNL A   1      40.791  37.224  38.072  1.00  0.00    -0.200 F 
ATOM     71  F   UNL A   1      39.299  36.398  40.200  1.00  0.00    -0.200 F 
ENDBRANCH  47  61
BRANCH  48  72
ATOM     72  C   UNL A   1      40.201  27.967  28.912  1.00  0.00     0.064 A 
ATOM     73  C   UNL A   1      40.928  28.279  27.755  1.00  0.00     0.173 A 
ATOM     74  C   UNL A   1      39.540  26.731  28.956  1.00  0.00     0.173 A 
ATOM     75  F   UNL A   1      41.559  29.459  27.658  1.00  0.00    -0.203 F 
ATOM     76  C   UNL A   1      40.981  27.396  26.680  1.00  0.00     0.198 A 
ATOM     77  C   UNL A   1      39.616  25.838  27.891  1.00  0.00     0.198 A 
ATOM     78  F   UNL A   1      38.831  26.387  30.041  1.00  0.00    -0.203 F 
ATOM     79  F   UNL A   1      41.651  27.734  25.570  1.00  0.00    -0.200 F 
ATOM     80  C   UNL A   1      40.330  26.173  26.752  1.00  0.00     0.200 A 
ATOM     81  F   UNL A   1      38.996  24.651  27.970  1.00  0.00    -0.200 F 
ATOM     82  F   UNL A   1      40.386  25.321  25.718  1.00  0.00    -0.200 F 
ENDBRANCH  48  72
BRANCH  60  83
ATOM     83  C   UNL A   1      43.708  28.527  34.897  1.00  0.00     0.064 A 
ATOM     84  C   UNL A   1      45.037  28.934  34.720  1.00  0.00     0.173 A 
ATOM     85  C   UNL A   1      43.462  27.398  35.693  1.00  0.00     0.173 A 
ATOM     86  F   UNL A   1      45.320  29.999  33.955  1.00  0.00    -0.203 F 
ATOM     87  C   UNL A   1      46.083  28.229  35.307  1.00  0.00     0.198 A 
ATOM     88  C   UNL A   1      44.509  26.709  36.297  1.00  0.00     0.198 A 
ATOM     89  F   UNL A   1      42.205  26.976  35.897  1.00  0.00    -0.203 F 
ATOM     90  F   UNL A   1      47.350  28.615  35.098  1.00  0.00    -0.200 F 
ATOM     91  C   UNL A   1      45.819  27.122  36.101  1.00  0.00     0.200 A 
ATOM     92  F   UNL A   1      44.251  25.647  37.072  1.00  0.00    -0.200 F 
ATOM     93  F   UNL A   1      46.826  26.450  36.673  1.00  0.00    -0.200 F 
ENDBRANCH  60  83
ENDBRANCH  34  35
ENDBRANCH  26  29
ENDBRANCH  24  25
ENDBRANCH   1  24
TORSDOF 12
ENDMDL
MODEL 2
REMARK VINA RESULT:     -12.8      0.167      1.619
REMARK SMILES C[C@H]1Cc2ccc(C3CC3)cc2[C@H](C(=O)NCCCCNC(=O)c2ccc(-c3c4nc(c(-c5c(F)c(F)c(F)c(F)c5F)c5ccc([nH]5)c(-c5c(F)c(F)c(F)c(F)c5F)c5nc(c(-c6c(F)c(F)c(F)c(F)c6F)c6ccc3[nH]6)C=C5)C=C4)cc2)[NH2+]1
REMARK SMILES IDX 19 1 18 2 17 3 16 4 14 5 15 6 13 8 1 9 2 10 3 11 87 12 4 13
REMARK SMILES IDX 5 16 12 17 6 18 11 19 7 20 8 21 9 22 10 23 20 24 21 25 22 26
REMARK SMILES IDX 23 28 24 29 25 30 86 31 26 32 85 33 27 34 28 35 29 36 79 37
REMARK SMILES IDX 30 38 84 39 78 40 80 41 31 42 83 43 77 44 76 45 32 47 64 48
REMARK SMILES IDX 44 49 63 50 45 51 48 52 62 53 81 54 46 55 47 56 61 58 82 59
REMARK SMILES IDX 49 60 33 61 34 62 42 63 35 64 36 65 40 66 43 67 37 68 38 69
REMARK SMILES IDX 41 70 39 71 65 72 66 73 74 74 67 75 68 76 72 77 75 78 69 79
REMARK SMILES IDX 70 80 73 81 71 82 50 83 51 84 59 85 52 86 53 87 57 88 60 89
REMARK SMILES IDX 54 90 55 91 58 92 56 93
REMARK H PARENT 16 7 87 14 87 15 21 27 80 46 48 57
REMARK Flexibility Score: inf
ROOT
ATOM      1  C   UNL A   1      31.498  31.980  26.876  1.00  0.00     0.023 C 
ENDROOT
BRANCH   1   2
ATOM      2  C   UNL A   1      31.855  30.621  26.271  1.00  0.00     0.023 C 
BRANCH   2   3
ATOM      3  C   UNL A   1      32.710  29.715  27.163  1.00  0.00     0.116 C 
BRANCH   3   4
ATOM      4  N   UNL A   1      32.098  28.415  27.344  1.00  0.00    -0.351 N 
ATOM      5  C   UNL A   1      32.038  27.334  26.502  1.00  0.00     0.283 C 
ATOM      6  O   UNL A   1      31.374  26.374  26.901  1.00  0.00    -0.268 OA
ATOM      7  H   UNL A   1      31.652  28.286  28.212  1.00  0.00     0.163 HD
BRANCH   5   8
ATOM      8  C   UNL A   1      32.802  27.352  25.139  1.00  0.00     0.304 C 
ATOM      9  C   UNL A   1      29.934  27.869  22.751  1.00  0.00     0.075 C 
ATOM     10  C   UNL A   1      30.885  27.104  23.671  1.00  0.00     0.184 C 
ATOM     11  C   UNL A   1      31.455  25.864  22.963  1.00  0.00     0.100 C 
ATOM     12  N   UNL A   1      31.986  27.988  24.072  1.00  0.00    -0.330 N 
ATOM     13  C   UNL A   1      32.608  25.246  23.717  1.00  0.00    -0.032 A 
ATOM     14  H   UNL A   1      31.601  28.865  24.422  1.00  0.00     0.347 HD
ATOM     15  H   UNL A   1      32.581  28.162  23.262  1.00  0.00     0.347 HD
ATOM     16  C   UNL A   1      33.053  23.968  23.375  1.00  0.00     0.005 A 
ATOM     17  C   UNL A   1      33.276  25.964  24.724  1.00  0.00     0.023 A 
ATOM     18  C   UNL A   1      34.136  23.396  24.047  1.00  0.00     0.004 A 
ATOM     19  C   UNL A   1      34.369  25.368  25.384  1.00  0.00     0.014 A 
ATOM     20  C   UNL A   1      34.821  24.074  25.070  1.00  0.00    -0.044 A 
BRANCH  20  21
ATOM     21  C   UNL A   1      35.978  23.389  25.769  1.00  0.00     0.019 C 
ATOM     22  C   UNL A   1      36.833  22.316  25.141  1.00  0.00     0.009 C 
ATOM     23  C   UNL A   1      37.382  23.703  25.305  1.00  0.00     0.009 C 
ENDBRANCH  20  21
ENDBRANCH   5   8
ENDBRANCH   3   4
ENDBRANCH   2   3
ENDBRANCH   1   2
BRANCH   1  24
ATOM     24  C   UNL A   1      32.682  32.826  27.317  1.00  0.00     0.116 C 
BRANCH  24  25
ATOM     25  N   UNL A   1      32.323  34.203  27.626  1.00  0.00    -0.352 N 
ATOM     26  C   UNL A   1      32.903  35.057  28.534  1.00  0.00     0.251 C 
ATOM     27  H   UNL A   1      31.564  34.571  27.117  1.00  0.00     0.163 HD
ATOM     28  O   UNL A   1      32.414  36.161  28.751  1.00  0.00    -0.269 OA
BRANCH  26  29
ATOM     29  C   UNL A   1      34.093  34.610  29.288  1.00  0.00     0.039 A 
ATOM     30  C   UNL A   1      35.363  34.671  28.711  1.00  0.00     0.014 A 
ATOM     31  C   UNL A   1      33.922  34.069  30.566  1.00  0.00     0.014 A 
ATOM     32  C   UNL A   1      36.431  34.041  29.338  1.00  0.00     0.010 A 
ATOM     33  C   UNL A   1      35.015  33.504  31.228  1.00  0.00     0.010 A 
ATOM     34  C   UNL A   1      36.266  33.438  30.596  1.00  0.00    -0.014 A 
BRANCH  34  35
ATOM     35  C   UNL A   1      37.409  32.720  31.215  1.00  0.00     0.031 A 
ATOM     36  C   UNL A   1      37.859  33.060  32.611  1.00  0.00     0.074 A 
ATOM     37  C   UNL A   1      37.989  31.705  30.548  1.00  0.00     0.049 A 
ATOM     38  N   UNL A   1      38.828  32.532  33.318  1.00  0.00    -0.248 NA
ATOM     39  C   UNL A   1      37.127  34.129  33.310  1.00  0.00     0.031 C 
ATOM     40  C   UNL A   1      37.617  31.260  29.203  1.00  0.00     0.029 A 
ATOM     41  N   UNL A   1      38.989  30.841  30.918  1.00  0.00    -0.354 N 
ATOM     42  C   UNL A   1      38.826  33.206  34.531  1.00  0.00     0.074 A 
ATOM     43  C   UNL A   1      37.780  34.203  34.461  1.00  0.00     0.031 C 
ATOM     44  C   UNL A   1      38.334  30.171  28.887  1.00  0.00     0.029 A 
ATOM     45  C   UNL A   1      39.258  29.877  29.978  1.00  0.00     0.049 A 
ATOM     46  H   UNL A   1      39.467  30.907  31.777  1.00  0.00     0.167 HD
ATOM     47  C   UNL A   1      39.617  33.001  35.612  1.00  0.00     0.037 A 
ATOM     48  C   UNL A   1      40.156  28.875  29.989  1.00  0.00     0.037 A 
ATOM     49  C   UNL A   1      40.642  31.995  35.690  1.00  0.00     0.049 A 
ATOM     50  C   UNL A   1      41.057  28.712  31.180  1.00  0.00     0.074 A 
ATOM     51  C   UNL A   1      41.508  31.727  36.737  1.00  0.00     0.029 A 
ATOM     52  N   UNL A   1      40.930  31.081  34.688  1.00  0.00    -0.354 N 
ATOM     53  N   UNL A   1      41.067  29.380  32.307  1.00  0.00    -0.248 NA
ATOM     54  C   UNL A   1      42.085  27.665  31.091  1.00  0.00     0.031 C 
ATOM     55  C   UNL A   1      42.337  30.666  36.359  1.00  0.00     0.029 A 
ATOM     56  C   UNL A   1      41.964  30.252  35.091  1.00  0.00     0.049 A 
ATOM     57  H   UNL A   1      40.468  31.029  33.821  1.00  0.00     0.167 HD
ATOM     58  C   UNL A   1      42.088  28.827  33.067  1.00  0.00     0.074 A 
ATOM     59  C   UNL A   1      42.663  27.755  32.282  1.00  0.00     0.031 C 
ATOM     60  C   UNL A   1      42.515  29.182  34.302  1.00  0.00     0.037 A 
BRANCH  47  61
ATOM     61  C   UNL A   1      39.410  33.873  36.812  1.00  0.00     0.064 A 
ATOM     62  C   UNL A   1      38.638  33.442  37.900  1.00  0.00     0.173 A 
ATOM     63  C   UNL A   1      40.068  35.108  36.920  1.00  0.00     0.173 A 
ATOM     64  F   UNL A   1      37.980  32.275  37.840  1.00  0.00    -0.203 F 
ATOM     65  C   UNL A   1      38.533  34.216  39.054  1.00  0.00     0.198 A 
ATOM     66  C   UNL A   1      39.977  35.869  38.082  1.00  0.00     0.198 A 
ATOM     67  F   UNL A   1      40.822  35.562  35.907  1.00  0.00    -0.203 F 
ATOM     68  F   UNL A   1      37.778  33.792  40.076  1.00  0.00    -0.200 F 
ATOM     69  C   UNL A   1      39.211  35.423  39.147  1.00  0.00     0.200 A 
ATOM     70  F   UNL A   1      40.642  37.029  38.175  1.00  0.00    -0.200 F 
ATOM     71  F   UNL A   1      39.125  36.154  40.267  1.00  0.00    -0.200 F 
ENDBRANCH  47  61
BRANCH  48  72
ATOM     72  C   UNL A   1      40.243  27.943  28.837  1.00  0.00     0.064 A 
ATOM     73  C   UNL A   1      39.595  26.700  28.870  1.00  0.00     0.173 A 
ATOM     74  C   UNL A   1      40.974  28.270  27.686  1.00  0.00     0.173 A 
ATOM     75  F   UNL A   1      38.903  26.334  29.959  1.00  0.00    -0.203 F 
ATOM     76  C   UNL A   1      39.686  25.815  27.799  1.00  0.00     0.198 A 
ATOM     77  C   UNL A   1      41.041  27.395  26.605  1.00  0.00     0.198 A 
ATOM     78  F   UNL A   1      41.610  29.448  27.607  1.00  0.00    -0.203 F 
ATOM     79  F   UNL A   1      39.090  24.617  27.871  1.00  0.00    -0.200 F 
ATOM     80  C   UNL A   1      40.403  26.166  26.665  1.00  0.00     0.200 A 
ATOM     81  F   UNL A   1      41.724  27.744  25.505  1.00  0.00    -0.200 F 
ATOM     82  F   UNL A   1      40.485  25.315  25.632  1.00  0.00    -0.200 F 
ENDBRANCH  48  72
BRANCH  60  83
ATOM     83  C   UNL A   1      43.643  28.394  34.893  1.00  0.00     0.064 A 
ATOM     84  C   UNL A   1      43.408  27.224  35.627  1.00  0.00     0.173 A 
ATOM     85  C   UNL A   1      44.974  28.781  34.671  1.00  0.00     0.173 A 
ATOM     86  F   UNL A   1      42.152  26.825  35.876  1.00  0.00    -0.203 F 
ATOM     87  C   UNL A   1      44.466  26.475  36.133  1.00  0.00     0.198 A 
ATOM     88  C   UNL A   1      46.029  28.016  35.158  1.00  0.00     0.198 A 
ATOM     89  F   UNL A   1      45.247  29.889  33.967  1.00  0.00    -0.203 F 
ATOM     90  F   UNL A   1      44.219  25.377  36.861  1.00  0.00    -0.200 F 
ATOM     91  C   UNL A   1      45.775  26.866  35.892  1.00  0.00     0.200 A 
ATOM     92  F   UNL A   1      47.293  28.390  34.916  1.00  0.00    -0.200 F 
ATOM     93  F   UNL A   1      46.793  26.139  36.371  1.00  0.00    -0.200 F 
ENDBRANCH  60  83
ENDBRANCH  34  35
ENDBRANCH  26  29
ENDBRANCH  24  25
ENDBRANCH   1  24
TORSDOF 12
ENDMDL
MODEL 3
REMARK VINA RESULT:     -12.7      5.809     11.286
REMARK SMILES C[C@H]1Cc2ccc(C3CC3)cc2[C@H](C(=O)NCCCCNC(=O)c2ccc(-c3c4nc(c(-c5c(F)c(F)c(F)c(F)c5F)c5ccc([nH]5)c(-c5c(F)c(F)c(F)c(F)c5F)c5nc(c(-c6c(F)c(F)c(F)c(F)c6F)c6ccc3[nH]6)C=C5)C=C4)cc2)[NH2+]1
REMARK SMILES IDX 19 1 18 2 17 3 16 4 14 5 15 6 13 8 1 9 2 10 3 11 87 12 4 13
REMARK SMILES IDX 5 16 12 17 6 18 11 19 7 20 8 21 9 22 10 23 20 24 21 25 22 26
REMARK SMILES IDX 23 28 24 29 25 30 86 31 26 32 85 33 27 34 28 35 29 36 79 37
REMARK SMILES IDX 30 38 84 39 78 40 80 41 31 42 83 43 77 44 76 45 32 47 64 48
REMARK SMILES IDX 44 49 63 50 45 51 48 52 62 53 81 54 46 55 47 56 61 58 82 59
REMARK SMILES IDX 49 60 33 61 34 62 42 63 35 64 36 65 40 66 43 67 37 68 38 69
REMARK SMILES IDX 41 70 39 71 65 72 66 73 74 74 67 75 68 76 72 77 75 78 69 79
REMARK SMILES IDX 70 80 73 81 71 82 50 83 51 84 59 85 52 86 53 87 57 88 60 89
REMARK SMILES IDX 54 90 55 91 58 92 56 93
REMARK H PARENT 16 7 87 14 87 15 21 27 80 46 48 57
REMARK Flexibility Score: inf
ROOT
ATOM      1  C   UNL A   1      38.169  19.881  24.831  1.00  0.00     0.023 C 
ENDROOT
BRANCH   1   2
ATOM      2  C   UNL A   1      36.999  20.849  25.013  1.00  0.00     0.023 C 
BRANCH   2   3
ATOM      3  C   UNL A   1      37.362  22.335  24.919  1.00  0.00     0.116 C 
BRANCH   3   4
ATOM      4  N   UNL A   1      36.556  23.018  23.929  1.00  0.00    -0.351 N 
ATOM      5  C   UNL A   1      35.306  23.574  24.027  1.00  0.00     0.283 C 
ATOM      6  O   UNL A   1      34.833  24.028  22.982  1.00  0.00    -0.268 OA
ATOM      7  H   UNL A   1      36.973  23.096  23.040  1.00  0.00     0.163 HD
BRANCH   5   8
ATOM      8  C   UNL A   1      34.574  23.629  25.405  1.00  0.00     0.304 C 
ATOM      9  C   UNL A   1      32.159  20.763  25.016  1.00  0.00     0.075 C 
ATOM     10  C   UNL A   1      32.703  22.182  24.856  1.00  0.00     0.184 C 
ATOM     11  C   UNL A   1      31.645  23.224  25.251  1.00  0.00     0.100 C 
ATOM     12  N   UNL A   1      33.890  22.344  25.705  1.00  0.00    -0.330 N 
ATOM     13  C   UNL A   1      32.222  24.612  25.387  1.00  0.00    -0.032 A 
ATOM     14  H   UNL A   1      34.534  21.573  25.531  1.00  0.00     0.347 HD
ATOM     15  H   UNL A   1      33.598  22.346  26.682  1.00  0.00     0.347 HD
ATOM     16  C   UNL A   1      31.367  25.714  25.456  1.00  0.00     0.005 A 
ATOM     17  C   UNL A   1      33.610  24.807  25.501  1.00  0.00     0.023 A 
ATOM     18  C   UNL A   1      31.888  27.001  25.609  1.00  0.00     0.004 A 
ATOM     19  C   UNL A   1      34.111  26.114  25.660  1.00  0.00     0.014 A 
ATOM     20  C   UNL A   1      33.269  27.239  25.712  1.00  0.00    -0.044 A 
BRANCH  20  21
ATOM     21  C   UNL A   1      33.768  28.662  25.861  1.00  0.00     0.019 C 
ATOM     22  C   UNL A   1      32.877  29.849  26.135  1.00  0.00     0.009 C 
ATOM     23  C   UNL A   1      33.733  29.293  27.234  1.00  0.00     0.009 C 
ENDBRANCH  20  21
ENDBRANCH   5   8
ENDBRANCH   3   4
ENDBRANCH   2   3
ENDBRANCH   1   2
BRANCH   1  24
ATOM     24  C   UNL A   1      39.349  20.106  25.764  1.00  0.00     0.116 C 
BRANCH  24  25
ATOM     25  N   UNL A   1      40.278  18.986  25.797  1.00  0.00    -0.352 N 
ATOM     26  C   UNL A   1      41.631  19.001  26.044  1.00  0.00     0.251 C 
ATOM     27  H   UNL A   1      39.886  18.100  25.619  1.00  0.00     0.163 HD
ATOM     28  O   UNL A   1      42.296  17.976  25.934  1.00  0.00    -0.269 OA
BRANCH  26  29
ATOM     29  C   UNL A   1      42.287  20.279  26.392  1.00  0.00     0.039 A 
ATOM     30  C   UNL A   1      42.267  20.753  27.705  1.00  0.00     0.014 A 
ATOM     31  C   UNL A   1      42.878  21.036  25.376  1.00  0.00     0.014 A 
ATOM     32  C   UNL A   1      42.683  22.051  27.971  1.00  0.00     0.010 A 
ATOM     33  C   UNL A   1      43.367  22.313  25.662  1.00  0.00     0.010 A 
ATOM     34  C   UNL A   1      43.225  22.851  26.951  1.00  0.00    -0.014 A 
BRANCH  34  35
ATOM     35  C   UNL A   1      43.606  24.255  27.250  1.00  0.00     0.031 A 
ATOM     36  C   UNL A   1      44.994  24.751  26.944  1.00  0.00     0.074 A 
ATOM     37  C   UNL A   1      42.674  25.104  27.723  1.00  0.00     0.049 A 
ATOM     38  N   UNL A   1      45.502  25.945  27.124  1.00  0.00    -0.248 NA
ATOM     39  C   UNL A   1      45.936  23.786  26.355  1.00  0.00     0.031 C 
ATOM     40  C   UNL A   1      41.287  24.747  28.026  1.00  0.00     0.029 A 
ATOM     41  N   UNL A   1      42.741  26.446  28.000  1.00  0.00    -0.354 N 
ATOM     42  C   UNL A   1      46.816  25.871  26.682  1.00  0.00     0.074 A 
ATOM     43  C   UNL A   1      47.042  24.510  26.250  1.00  0.00     0.031 C 
ATOM     44  C   UNL A   1      40.619  25.853  28.387  1.00  0.00     0.029 A 
ATOM     45  C   UNL A   1      41.542  26.984  28.402  1.00  0.00     0.049 A 
ATOM     46  H   UNL A   1      43.569  26.973  27.918  1.00  0.00     0.167 HD
ATOM     47  C   UNL A   1      47.745  26.856  26.630  1.00  0.00     0.037 A 
ATOM     48  C   UNL A   1      41.226  28.244  28.750  1.00  0.00     0.037 A 
ATOM     49  C   UNL A   1      47.514  28.216  27.039  1.00  0.00     0.049 A 
ATOM     50  C   UNL A   1      42.295  29.299  28.736  1.00  0.00     0.074 A 
ATOM     51  C   UNL A   1      48.402  29.278  27.041  1.00  0.00     0.029 A 
ATOM     52  N   UNL A   1      46.303  28.705  27.505  1.00  0.00    -0.354 N 
ATOM     53  N   UNL A   1      43.543  29.206  28.349  1.00  0.00    -0.248 NA
ATOM     54  C   UNL A   1      41.914  30.632  29.225  1.00  0.00     0.031 C 
ATOM     55  C   UNL A   1      47.736  30.405  27.531  1.00  0.00     0.029 A 
ATOM     56  C   UNL A   1      46.424  30.053  27.802  1.00  0.00     0.049 A 
ATOM     57  H   UNL A   1      45.481  28.174  27.608  1.00  0.00     0.167 HD
ATOM     58  C   UNL A   1      44.092  30.467  28.532  1.00  0.00     0.074 A 
ATOM     59  C   UNL A   1      43.037  31.315  29.046  1.00  0.00     0.031 C 
ATOM     60  C   UNL A   1      45.360  30.883  28.301  1.00  0.00     0.037 A 
BRANCH  47  61
ATOM     61  C   UNL A   1      49.106  26.514  26.103  1.00  0.00     0.064 A 
ATOM     62  C   UNL A   1      49.481  26.839  24.792  1.00  0.00     0.173 A 
ATOM     63  C   UNL A   1      50.075  25.946  26.945  1.00  0.00     0.173 A 
ATOM     64  F   UNL A   1      48.587  27.372  23.947  1.00  0.00    -0.203 F 
ATOM     65  C   UNL A   1      50.779  26.608  24.343  1.00  0.00     0.198 A 
ATOM     66  C   UNL A   1      51.376  25.736  26.498  1.00  0.00     0.198 A 
ATOM     67  F   UNL A   1      49.765  25.622  28.209  1.00  0.00    -0.203 F 
ATOM     68  F   UNL A   1      51.113  26.913  23.081  1.00  0.00    -0.200 F 
ATOM     69  C   UNL A   1      51.727  26.067  25.199  1.00  0.00     0.200 A 
ATOM     70  F   UNL A   1      52.295  25.224  27.329  1.00  0.00    -0.200 F 
ATOM     71  F   UNL A   1      52.981  25.867  24.769  1.00  0.00    -0.200 F 
ENDBRANCH  47  61
BRANCH  48  72
ATOM     72  C   UNL A   1      39.833  28.579  29.139  1.00  0.00     0.064 A 
ATOM     73  C   UNL A   1      38.934  29.107  28.201  1.00  0.00     0.173 A 
ATOM     74  C   UNL A   1      39.371  28.383  30.448  1.00  0.00     0.173 A 
ATOM     75  F   UNL A   1      39.337  29.333  26.941  1.00  0.00    -0.203 F 
ATOM     76  C   UNL A   1      37.631  29.438  28.562  1.00  0.00     0.198 A 
ATOM     77  C   UNL A   1      38.060  28.690  30.801  1.00  0.00     0.198 A 
ATOM     78  F   UNL A   1      40.193  27.881  31.381  1.00  0.00    -0.203 F 
ATOM     79  F   UNL A   1      36.804  29.978  27.656  1.00  0.00    -0.200 F 
ATOM     80  C   UNL A   1      37.193  29.223  29.860  1.00  0.00     0.200 A 
ATOM     81  F   UNL A   1      37.636  28.468  32.054  1.00  0.00    -0.200 F 
ATOM     82  F   UNL A   1      35.936  29.537  30.206  1.00  0.00    -0.200 F 
ENDBRANCH  48  72
BRANCH  60  83
ATOM     83  C   UNL A   1      45.675  32.320  28.582  1.00  0.00     0.064 A 
ATOM     84  C   UNL A   1      45.491  33.309  27.606  1.00  0.00     0.173 A 
ATOM     85  C   UNL A   1      46.107  32.718  29.855  1.00  0.00     0.173 A 
ATOM     86  F   UNL A   1      45.093  32.973  26.370  1.00  0.00    -0.203 F 
ATOM     87  C   UNL A   1      45.743  34.647  27.892  1.00  0.00     0.198 A 
ATOM     88  C   UNL A   1      46.336  34.060  30.144  1.00  0.00     0.198 A 
ATOM     89  F   UNL A   1      46.290  31.807  30.823  1.00  0.00    -0.203 F 
ATOM     90  F   UNL A   1      45.593  35.575  26.936  1.00  0.00    -0.200 F 
ATOM     91  C   UNL A   1      46.158  35.023  29.161  1.00  0.00     0.200 A 
ATOM     92  F   UNL A   1      46.726  34.423  31.373  1.00  0.00    -0.200 F 
ATOM     93  F   UNL A   1      46.390  36.313  29.438  1.00  0.00    -0.200 F 
ENDBRANCH  60  83
ENDBRANCH  34  35
ENDBRANCH  26  29
ENDBRANCH  24  25
ENDBRANCH   1  24
TORSDOF 12
ENDMDL
