MODEL 1
REMARK VINA RESULT:     -11.9      0.000      0.000
REMARK SMILES C[N@H+]1CCO[C@H](CNC(=O)c2ccc(/C=C/C(=O)NCCCCNC(=O)c3ccc(-c4c5nc(c(-c6c(F)c(F)c(F)c(F)c6F)c6ccc([nH]6)c(-c6c(F)c(F)c(F)c(F)c6F)c6nc(c(-c7c(F)c(F)c(F)c(F)c7F)c7ccc4[nH]7)C=C6)C=C5)cc3)s2)C1
REMARK SMILES IDX 20 1 19 2 17 3 18 4 16 6 15 7 14 8 11 9 12 10 90 11 13 12
REMARK SMILES IDX 9 13 8 14 10 16 7 17 6 18 1 19 2 20 3 21 91 22 4 24 5 25
REMARK SMILES IDX 21 26 22 27 23 28 24 29 25 30 26 32 27 33 28 34 89 35 29 36
REMARK SMILES IDX 88 37 30 38 31 39 32 40 82 41 33 42 87 43 81 44 83 45 34 46
REMARK SMILES IDX 86 47 80 48 79 49 35 51 67 52 47 53 66 54 48 55 51 56 65 57
REMARK SMILES IDX 84 58 49 59 50 60 64 62 85 63 52 64 36 65 37 66 45 67 38 68
REMARK SMILES IDX 39 69 43 70 46 71 40 72 41 73 44 74 42 75 68 76 69 77 77 78
REMARK SMILES IDX 70 79 71 80 75 81 78 82 72 83 73 84 76 85 74 86 53 87 54 88
REMARK SMILES IDX 62 89 55 90 56 91 60 92 63 93 57 94 58 95 61 96 59 97
REMARK H PARENT 19 5 8 15 2 23 24 31 83 50 51 61
REMARK Flexibility Score: inf
ROOT
ATOM      1  C   UNL A   1      34.028  32.450  28.012  1.00  0.00     0.116 C 
ENDROOT
BRANCH   1   2
ATOM      2  N   UNL A   1      35.275  31.705  27.999  1.00  0.00    -0.353 N 
ATOM      3  C   UNL A   1      35.525  30.418  27.630  1.00  0.00     0.244 C 
ATOM      4  O   UNL A   1      36.684  30.018  27.570  1.00  0.00    -0.270 OA
ATOM      5  H   UNL A   1      36.063  32.211  28.304  1.00  0.00     0.163 HD
BRANCH   3   6
ATOM      6  C   UNL A   1      34.418  29.524  27.219  1.00  0.00     0.072 C 
ATOM      7  C   UNL A   1      34.628  28.363  26.584  1.00  0.00     0.024 C 
BRANCH   7   8
ATOM      8  C   UNL A   1      33.587  27.468  26.206  1.00  0.00     0.028 A 
ATOM      9  C   UNL A   1      31.422  26.331  25.741  1.00  0.00     0.092 A 
ATOM     10  C   UNL A   1      32.503  25.616  25.267  1.00  0.00     0.026 A 
ATOM     11  S   UNL A   1      31.918  27.800  26.461  1.00  0.00    -0.131 S 
ATOM     12  C   UNL A   1      33.740  26.261  25.543  1.00  0.00     0.021 A 
BRANCH   9  13
ATOM     13  C   UNL A   1      30.007  26.015  25.672  1.00  0.00     0.261 C 
ATOM     14  N   UNL A   1      29.281  26.467  24.591  1.00  0.00    -0.348 N 
ATOM     15  H   UNL A   1      28.301  26.445  24.689  1.00  0.00     0.163 HD
ATOM     16  O   UNL A   1      29.407  25.380  26.538  1.00  0.00    -0.268 OA
BRANCH  14  17
ATOM     17  C   UNL A   1      29.783  26.974  23.321  1.00  0.00     0.154 C 
BRANCH  17  18
ATOM     18  C   UNL A   1      29.344  28.415  23.003  1.00  0.00     0.192 C 
ATOM     19  C   UNL A   1      27.480  30.792  23.693  1.00  0.00     0.332 C 
ATOM     20  N   UNL A   1      27.365  29.907  22.534  1.00  0.00    -0.333 N 
ATOM     21  C   UNL A   1      28.142  30.415  21.383  1.00  0.00     0.290 C 
ATOM     22  C   UNL A   1      27.816  28.531  22.834  1.00  0.00     0.296 C 
ATOM     23  H   UNL A   1      26.373  29.888  22.296  1.00  0.00     0.348 HD
ATOM     24  C   UNL A   1      29.666  30.235  21.517  1.00  0.00     0.222 C 
ATOM     25  O   UNL A   1      30.026  28.883  21.827  1.00  0.00    -0.365 OA
ENDBRANCH  17  18
ENDBRANCH  14  17
ENDBRANCH   9  13
ENDBRANCH   7   8
ENDBRANCH   3   6
ENDBRANCH   1   2
BRANCH   1  26
ATOM     26  C   UNL A   1      34.086  33.624  28.991  1.00  0.00     0.023 C 
BRANCH  26  27
ATOM     27  C   UNL A   1      32.985  34.673  28.804  1.00  0.00     0.023 C 
BRANCH  27  28
ATOM     28  C   UNL A   1      33.222  35.998  29.522  1.00  0.00     0.116 C 
BRANCH  28  29
ATOM     29  N   UNL A   1      32.392  36.170  30.702  1.00  0.00    -0.352 N 
ATOM     30  C   UNL A   1      32.608  35.726  31.982  1.00  0.00     0.251 C 
ATOM     31  H   UNL A   1      31.558  36.673  30.564  1.00  0.00     0.163 HD
ATOM     32  O   UNL A   1      31.742  35.884  32.837  1.00  0.00    -0.269 OA
BRANCH  30  33
ATOM     33  C   UNL A   1      33.864  35.024  32.331  1.00  0.00     0.039 A 
ATOM     34  C   UNL A   1      33.782  33.708  32.795  1.00  0.00     0.014 A 
ATOM     35  C   UNL A   1      35.107  35.654  32.230  1.00  0.00     0.014 A 
ATOM     36  C   UNL A   1      34.947  33.012  33.122  1.00  0.00     0.010 A 
ATOM     37  C   UNL A   1      36.272  34.940  32.493  1.00  0.00     0.010 A 
ATOM     38  C   UNL A   1      36.203  33.618  32.957  1.00  0.00    -0.014 A 
BRANCH  38  39
ATOM     39  C   UNL A   1      37.447  32.893  33.311  1.00  0.00     0.031 A 
ATOM     40  C   UNL A   1      38.147  33.192  34.609  1.00  0.00     0.074 A 
ATOM     41  C   UNL A   1      37.967  31.996  32.452  1.00  0.00     0.049 A 
ATOM     42  N   UNL A   1      39.253  32.684  35.090  1.00  0.00    -0.248 NA
ATOM     43  C   UNL A   1      37.536  34.219  35.466  1.00  0.00     0.031 C 
ATOM     44  C   UNL A   1      37.410  31.659  31.142  1.00  0.00     0.029 A 
ATOM     45  N   UNL A   1      39.083  31.205  32.555  1.00  0.00    -0.354 N 
ATOM     46  C   UNL A   1      39.476  33.337  36.295  1.00  0.00     0.074 A 
ATOM     47  C   UNL A   1      38.422  34.316  36.446  1.00  0.00     0.031 C 
ATOM     48  C   UNL A   1      38.171  30.709  30.573  1.00  0.00     0.029 A 
ATOM     49  C   UNL A   1      39.277  30.386  31.470  1.00  0.00     0.049 A 
ATOM     50  H   UNL A   1      39.685  31.221  33.333  1.00  0.00     0.167 HD
ATOM     51  C   UNL A   1      40.455  33.122  37.206  1.00  0.00     0.037 A 
ATOM     52  C   UNL A   1      40.236  29.472  31.234  1.00  0.00     0.037 A 
ATOM     53  C   UNL A   1      41.484  32.126  37.069  1.00  0.00     0.049 A 
ATOM     54  C   UNL A   1      41.289  29.225  32.280  1.00  0.00     0.074 A 
ATOM     55  C   UNL A   1      42.498  31.801  37.953  1.00  0.00     0.029 A 
ATOM     56  N   UNL A   1      41.623  31.286  35.975  1.00  0.00    -0.354 N 
ATOM     57  N   UNL A   1      41.455  29.807  33.442  1.00  0.00    -0.248 NA
ATOM     58  C   UNL A   1      42.280  28.181  31.985  1.00  0.00     0.031 C 
ATOM     59  C   UNL A   1      43.265  30.779  37.383  1.00  0.00     0.029 A 
ATOM     60  C   UNL A   1      42.707  30.443  36.159  1.00  0.00     0.049 A 
ATOM     61  H   UNL A   1      41.038  31.287  35.183  1.00  0.00     0.167 HD
ATOM     62  C   UNL A   1      42.546  29.182  34.030  1.00  0.00     0.074 A 
ATOM     63  C   UNL A   1      42.993  28.164  33.102  1.00  0.00     0.031 C 
ATOM     64  C   UNL A   1      43.126  29.428  35.230  1.00  0.00     0.037 A 
BRANCH  51  65
ATOM     65  C   UNL A   1      40.445  33.977  38.439  1.00  0.00     0.064 A 
ATOM     66  C   UNL A   1      41.171  35.175  38.504  1.00  0.00     0.173 A 
ATOM     67  C   UNL A   1      39.688  33.605  39.561  1.00  0.00     0.173 A 
ATOM     68  F   UNL A   1      41.923  35.565  37.464  1.00  0.00    -0.203 F 
ATOM     69  C   UNL A   1      41.167  35.954  39.659  1.00  0.00     0.198 A 
ATOM     70  C   UNL A   1      39.663  34.402  40.703  1.00  0.00     0.198 A 
ATOM     71  F   UNL A   1      38.972  32.471  39.550  1.00  0.00    -0.203 F 
ATOM     72  F   UNL A   1      41.911  37.067  39.715  1.00  0.00    -0.200 F 
ATOM     73  C   UNL A   1      40.409  35.570  40.754  1.00  0.00     0.200 A 
ATOM     74  F   UNL A   1      38.924  34.034  41.759  1.00  0.00    -0.200 F 
ATOM     75  F   UNL A   1      40.405  36.322  41.863  1.00  0.00    -0.200 F 
ENDBRANCH  51  65
BRANCH  52  76
ATOM     76  C   UNL A   1      40.213  28.678  29.980  1.00  0.00     0.064 A 
ATOM     77  C   UNL A   1      40.842  29.152  28.820  1.00  0.00     0.173 A 
ATOM     78  C   UNL A   1      39.554  27.443  29.908  1.00  0.00     0.173 A 
ATOM     79  F   UNL A   1      41.467  30.339  28.837  1.00  0.00    -0.203 F 
ATOM     80  C   UNL A   1      40.794  28.433  27.629  1.00  0.00     0.198 A 
ATOM     81  C   UNL A   1      39.527  26.712  28.722  1.00  0.00     0.198 A 
ATOM     82  F   UNL A   1      38.942  26.944  30.992  1.00  0.00    -0.203 F 
ATOM     83  F   UNL A   1      41.365  28.931  26.524  1.00  0.00    -0.200 F 
ATOM     84  C   UNL A   1      40.139  27.211  27.581  1.00  0.00     0.200 A 
ATOM     85  F   UNL A   1      38.903  25.527  28.681  1.00  0.00    -0.200 F 
ATOM     86  F   UNL A   1      40.092  26.519  26.435  1.00  0.00    -0.200 F 
ENDBRANCH  52  76
BRANCH  64  87
ATOM     87  C   UNL A   1      44.281  28.553  35.620  1.00  0.00     0.064 A 
ATOM     88  C   UNL A   1      45.601  28.885  35.283  1.00  0.00     0.173 A 
ATOM     89  C   UNL A   1      44.062  27.379  36.356  1.00  0.00     0.173 A 
ATOM     90  F   UNL A   1      45.857  29.990  34.566  1.00  0.00    -0.203 F 
ATOM     91  C   UNL A   1      46.659  28.056  35.642  1.00  0.00     0.198 A 
ATOM     92  C   UNL A   1      45.126  26.566  36.736  1.00  0.00     0.198 A 
ATOM     93  F   UNL A   1      42.819  27.023  36.707  1.00  0.00    -0.203 F 
ATOM     94  F   UNL A   1      47.908  28.365  35.266  1.00  0.00    -0.200 F 
ATOM     95  C   UNL A   1      46.422  26.900  36.373  1.00  0.00     0.200 A 
ATOM     96  F   UNL A   1      44.897  25.455  37.449  1.00  0.00    -0.200 F 
ATOM     97  F   UNL A   1      47.442  26.102  36.716  1.00  0.00    -0.200 F 
ENDBRANCH  64  87
ENDBRANCH  38  39
ENDBRANCH  30  33
ENDBRANCH  28  29
ENDBRANCH  27  28
ENDBRANCH  26  27
ENDBRANCH   1  26
TORSDOF 15
ENDMDL
MODEL 2
REMARK VINA RESULT:     -11.7      7.303     12.756
REMARK SMILES C[N@H+]1CCO[C@H](CNC(=O)c2ccc(/C=C/C(=O)NCCCCNC(=O)c3ccc(-c4c5nc(c(-c6c(F)c(F)c(F)c(F)c6F)c6ccc([nH]6)c(-c6c(F)c(F)c(F)c(F)c6F)c6nc(c(-c7c(F)c(F)c(F)c(F)c7F)c7ccc4[nH]7)C=C6)C=C5)cc3)s2)C1
REMARK SMILES IDX 20 1 19 2 17 3 18 4 16 6 15 7 14 8 11 9 12 10 90 11 13 12
REMARK SMILES IDX 9 13 8 14 10 16 7 17 6 18 1 19 2 20 3 21 91 22 4 24 5 25
REMARK SMILES IDX 21 26 22 27 23 28 24 29 25 30 26 32 27 33 28 34 89 35 29 36
REMARK SMILES IDX 88 37 30 38 31 39 32 40 82 41 33 42 87 43 81 44 83 45 34 46
REMARK SMILES IDX 86 47 80 48 79 49 35 51 67 52 47 53 66 54 48 55 51 56 65 57
REMARK SMILES IDX 84 58 49 59 50 60 64 62 85 63 52 64 36 65 37 66 45 67 38 68
REMARK SMILES IDX 39 69 43 70 46 71 40 72 41 73 44 74 42 75 68 76 69 77 77 78
REMARK SMILES IDX 70 79 71 80 75 81 78 82 72 83 73 84 76 85 74 86 53 87 54 88
REMARK SMILES IDX 62 89 55 90 56 91 60 92 63 93 57 94 58 95 61 96 59 97
REMARK H PARENT 19 5 8 15 2 23 24 31 83 50 51 61
REMARK Flexibility Score: inf
ROOT
ATOM      1  C   UNL A   1      40.197  21.558  26.271  1.00  0.00     0.116 C 
ENDROOT
BRANCH   1   2
ATOM      2  N   UNL A   1      40.066  22.766  27.066  1.00  0.00    -0.353 N 
ATOM      3  C   UNL A   1      39.104  23.731  27.045  1.00  0.00     0.244 C 
ATOM      4  O   UNL A   1      39.111  24.614  27.898  1.00  0.00    -0.270 OA
ATOM      5  H   UNL A   1      40.785  22.910  27.723  1.00  0.00     0.163 HD
BRANCH   3   6
ATOM      6  C   UNL A   1      38.003  23.673  26.056  1.00  0.00     0.072 C 
ATOM      7  C   UNL A   1      36.745  24.023  26.359  1.00  0.00     0.024 C 
BRANCH   7   8
ATOM      8  C   UNL A   1      35.673  24.010  25.422  1.00  0.00     0.028 A 
ATOM      9  C   UNL A   1      34.078  23.522  23.574  1.00  0.00     0.092 A 
ATOM     10  C   UNL A   1      33.640  24.546  24.389  1.00  0.00     0.026 A 
ATOM     11  S   UNL A   1      35.566  22.884  24.126  1.00  0.00    -0.131 S 
ATOM     12  C   UNL A   1      34.557  24.831  25.438  1.00  0.00     0.021 A 
BRANCH   9  13
ATOM     13  C   UNL A   1      33.446  22.943  22.402  1.00  0.00     0.261 C 
ATOM     14  N   UNL A   1      32.680  21.808  22.558  1.00  0.00    -0.348 N 
ATOM     15  H   UNL A   1      32.468  21.313  21.733  1.00  0.00     0.163 HD
ATOM     16  O   UNL A   1      33.573  23.396  21.266  1.00  0.00    -0.268 OA
BRANCH  14  17
ATOM     17  C   UNL A   1      32.143  21.249  23.791  1.00  0.00     0.154 C 
BRANCH  17  18
ATOM     18  C   UNL A   1      32.646  19.830  24.108  1.00  0.00     0.192 C 
ATOM     19  C   UNL A   1      33.951  17.224  23.056  1.00  0.00     0.332 C 
ATOM     20  N   UNL A   1      32.544  17.407  23.411  1.00  0.00    -0.333 N 
ATOM     21  C   UNL A   1      32.299  17.106  24.838  1.00  0.00     0.290 C 
ATOM     22  C   UNL A   1      32.072  18.781  23.133  1.00  0.00     0.296 C 
ATOM     23  H   UNL A   1      32.022  16.752  22.828  1.00  0.00     0.348 HD
ATOM     24  C   UNL A   1      32.807  18.186  25.811  1.00  0.00     0.222 C 
ATOM     25  O   UNL A   1      32.326  19.492  25.469  1.00  0.00    -0.365 OA
ENDBRANCH  17  18
ENDBRANCH  14  17
ENDBRANCH   9  13
ENDBRANCH   7   8
ENDBRANCH   3   6
ENDBRANCH   1   2
BRANCH   1  26
ATOM     26  C   UNL A   1      41.619  20.995  26.336  1.00  0.00     0.023 C 
BRANCH  26  27
ATOM     27  C   UNL A   1      41.771  19.568  25.802  1.00  0.00     0.023 C 
BRANCH  27  28
ATOM     28  C   UNL A   1      43.108  18.899  26.108  1.00  0.00     0.116 C 
BRANCH  28  29
ATOM     29  N   UNL A   1      43.916  18.660  24.924  1.00  0.00    -0.352 N 
ATOM     30  C   UNL A   1      44.693  19.543  24.216  1.00  0.00     0.251 C 
ATOM     31  H   UNL A   1      43.903  17.738  24.581  1.00  0.00     0.163 HD
ATOM     32  O   UNL A   1      45.234  19.180  23.176  1.00  0.00    -0.269 OA
BRANCH  30  33
ATOM     33  C   UNL A   1      44.854  20.939  24.680  1.00  0.00     0.039 A 
ATOM     34  C   UNL A   1      45.458  21.162  25.921  1.00  0.00     0.014 A 
ATOM     35  C   UNL A   1      44.395  22.020  23.922  1.00  0.00     0.014 A 
ATOM     36  C   UNL A   1      45.635  22.466  26.384  1.00  0.00     0.010 A 
ATOM     37  C   UNL A   1      44.631  23.322  24.353  1.00  0.00     0.010 A 
ATOM     38  C   UNL A   1      45.238  23.557  25.595  1.00  0.00    -0.014 A 
BRANCH  38  39
ATOM     39  C   UNL A   1      45.412  24.948  26.081  1.00  0.00     0.031 A 
ATOM     40  C   UNL A   1      46.759  25.610  25.996  1.00  0.00     0.074 A 
ATOM     41  C   UNL A   1      44.369  25.599  26.630  1.00  0.00     0.049 A 
ATOM     42  N   UNL A   1      47.119  26.807  26.384  1.00  0.00    -0.248 NA
ATOM     43  C   UNL A   1      47.853  24.811  25.424  1.00  0.00     0.031 C 
ATOM     44  C   UNL A   1      43.028  25.044  26.817  1.00  0.00     0.029 A 
ATOM     45  N   UNL A   1      44.278  26.871  27.136  1.00  0.00    -0.354 N 
ATOM     46  C   UNL A   1      48.479  26.898  26.116  1.00  0.00     0.074 A 
ATOM     47  C   UNL A   1      48.891  25.617  25.584  1.00  0.00     0.031 C 
ATOM     48  C   UNL A   1      42.239  25.981  27.369  1.00  0.00     0.029 A 
ATOM     49  C   UNL A   1      43.024  27.192  27.593  1.00  0.00     0.049 A 
ATOM     50  H   UNL A   1      45.039  27.495  27.166  1.00  0.00     0.167 HD
ATOM     51  C   UNL A   1      49.305  27.960  26.274  1.00  0.00     0.037 A 
ATOM     52  C   UNL A   1      42.561  28.339  28.123  1.00  0.00     0.037 A 
ATOM     53  C   UNL A   1      48.886  29.243  26.773  1.00  0.00     0.049 A 
ATOM     54  C   UNL A   1      43.489  29.517  28.251  1.00  0.00     0.074 A 
ATOM     55  C   UNL A   1      49.635  30.396  26.934  1.00  0.00     0.029 A 
ATOM     56  N   UNL A   1      47.597  29.542  27.187  1.00  0.00    -0.354 N 
ATOM     57  N   UNL A   1      44.759  29.608  27.939  1.00  0.00    -0.248 NA
ATOM     58  C   UNL A   1      42.913  30.755  28.792  1.00  0.00     0.031 C 
ATOM     59  C   UNL A   1      48.804  31.387  27.466  1.00  0.00     0.029 A 
ATOM     60  C   UNL A   1      47.529  30.862  27.604  1.00  0.00     0.049 A 
ATOM     61  H   UNL A   1      46.842  28.911  27.185  1.00  0.00     0.167 HD
ATOM     62  C   UNL A   1      45.125  30.918  28.215  1.00  0.00     0.074 A 
ATOM     63  C   UNL A   1      43.939  31.589  28.706  1.00  0.00     0.031 C 
ATOM     64  C   UNL A   1      46.335  31.514  28.075  1.00  0.00     0.037 A 
BRANCH  51  65
ATOM     65  C   UNL A   1      50.742  27.776  25.886  1.00  0.00     0.064 A 
ATOM     66  C   UNL A   1      51.721  27.456  26.839  1.00  0.00     0.173 A 
ATOM     67  C   UNL A   1      51.144  27.902  24.548  1.00  0.00     0.173 A 
ATOM     68  F   UNL A   1      51.390  27.341  28.134  1.00  0.00    -0.203 F 
ATOM     69  C   UNL A   1      53.056  27.302  26.471  1.00  0.00     0.198 A 
ATOM     70  C   UNL A   1      52.474  27.719  24.180  1.00  0.00     0.198 A 
ATOM     71  F   UNL A   1      50.247  28.203  23.597  1.00  0.00    -0.203 F 
ATOM     72  F   UNL A   1      53.981  27.049  27.407  1.00  0.00    -0.200 F 
ATOM     73  C   UNL A   1      53.430  27.427  25.142  1.00  0.00     0.200 A 
ATOM     74  F   UNL A   1      52.834  27.831  22.893  1.00  0.00    -0.200 F 
ATOM     75  F   UNL A   1      54.714  27.277  24.790  1.00  0.00    -0.200 F 
ENDBRANCH  51  65
BRANCH  52  76
ATOM     76  C   UNL A   1      41.135  28.452  28.519  1.00  0.00     0.064 A 
ATOM     77  C   UNL A   1      40.180  28.951  27.622  1.00  0.00     0.173 A 
ATOM     78  C   UNL A   1      40.699  28.079  29.798  1.00  0.00     0.173 A 
ATOM     79  F   UNL A   1      40.556  29.339  26.394  1.00  0.00    -0.203 F 
ATOM     80  C   UNL A   1      38.846  29.095  27.996  1.00  0.00     0.198 A 
ATOM     81  C   UNL A   1      39.360  28.201  30.164  1.00  0.00     0.198 A 
ATOM     82  F   UNL A   1      41.573  27.591  30.690  1.00  0.00    -0.203 F 
ATOM     83  F   UNL A   1      37.964  29.617  27.134  1.00  0.00    -0.200 F 
ATOM     84  C   UNL A   1      38.436  28.717  29.266  1.00  0.00     0.200 A 
ATOM     85  F   UNL A   1      38.964  27.824  31.387  1.00  0.00    -0.200 F 
ATOM     86  F   UNL A   1      37.153  28.856  29.626  1.00  0.00    -0.200 F 
ENDBRANCH  52  76
BRANCH  64  87
ATOM     87  C   UNL A   1      46.421  32.970  28.421  1.00  0.00     0.064 A 
ATOM     88  C   UNL A   1      46.178  33.968  27.466  1.00  0.00     0.173 A 
ATOM     89  C   UNL A   1      46.731  33.370  29.730  1.00  0.00     0.173 A 
ATOM     90  F   UNL A   1      45.893  33.634  26.198  1.00  0.00    -0.203 F 
ATOM     91  C   UNL A   1      46.274  35.316  27.802  1.00  0.00     0.198 A 
ATOM     92  C   UNL A   1      46.799  34.719  30.067  1.00  0.00     0.198 A 
ATOM     93  F   UNL A   1      46.965  32.453  30.679  1.00  0.00    -0.203 F 
ATOM     94  F   UNL A   1      46.088  36.252  26.862  1.00  0.00    -0.200 F 
ATOM     95  C   UNL A   1      46.579  35.690  29.102  1.00  0.00     0.200 A 
ATOM     96  F   UNL A   1      47.086  35.079  31.326  1.00  0.00    -0.200 F 
ATOM     97  F   UNL A   1      46.673  36.987  29.423  1.00  0.00    -0.200 F 
ENDBRANCH  64  87
ENDBRANCH  38  39
ENDBRANCH  30  33
ENDBRANCH  28  29
ENDBRANCH  27  28
ENDBRANCH  26  27
ENDBRANCH   1  26
TORSDOF 15
ENDMDL
MODEL 3
REMARK VINA RESULT:     -11.6      4.618      9.513
REMARK SMILES C[N@H+]1CCO[C@H](CNC(=O)c2ccc(/C=C/C(=O)NCCCCNC(=O)c3ccc(-c4c5nc(c(-c6c(F)c(F)c(F)c(F)c6F)c6ccc([nH]6)c(-c6c(F)c(F)c(F)c(F)c6F)c6nc(c(-c7c(F)c(F)c(F)c(F)c7F)c7ccc4[nH]7)C=C6)C=C5)cc3)s2)C1
REMARK SMILES IDX 20 1 19 2 17 3 18 4 16 6 15 7 14 8 11 9 12 10 90 11 13 12
REMARK SMILES IDX 9 13 8 14 10 16 7 17 6 18 1 19 2 20 3 21 91 22 4 24 5 25
REMARK SMILES IDX 21 26 22 27 23 28 24 29 25 30 26 32 27 33 28 34 89 35 29 36
REMARK SMILES IDX 88 37 30 38 31 39 32 40 82 41 33 42 87 43 81 44 83 45 34 46
REMARK SMILES IDX 86 47 80 48 79 49 35 51 67 52 47 53 66 54 48 55 51 56 65 57
REMARK SMILES IDX 84 58 49 59 50 60 64 62 85 63 52 64 36 65 37 66 45 67 38 68
REMARK SMILES IDX 39 69 43 70 46 71 40 72 41 73 44 74 42 75 68 76 69 77 77 78
REMARK SMILES IDX 70 79 71 80 75 81 78 82 72 83 73 84 76 85 74 86 53 87 54 88
REMARK SMILES IDX 62 89 55 90 56 91 60 92 63 93 57 94 58 95 61 96 59 97
REMARK H PARENT 19 5 8 15 2 23 24 31 83 50 51 61
REMARK Flexibility Score: inf
ROOT
ATOM      1  C   UNL A   1      34.055  21.849  27.263  1.00  0.00     0.116 C 
ENDROOT
BRANCH   1   2
ATOM      2  N   UNL A   1      33.227  20.893  26.549  1.00  0.00    -0.353 N 
ATOM      3  C   UNL A   1      32.373  21.080  25.504  1.00  0.00     0.244 C 
ATOM      4  O   UNL A   1      31.862  20.107  24.956  1.00  0.00    -0.270 OA
ATOM      5  H   UNL A   1      33.294  19.965  26.870  1.00  0.00     0.163 HD
BRANCH   3   6
ATOM      6  C   UNL A   1      32.126  22.438  24.968  1.00  0.00     0.072 C 
ATOM      7  C   UNL A   1      32.808  22.937  23.928  1.00  0.00     0.024 C 
BRANCH   7   8
ATOM      8  C   UNL A   1      32.569  24.225  23.369  1.00  0.00     0.028 A 
ATOM      9  C   UNL A   1      32.707  26.570  22.547  1.00  0.00     0.092 A 
ATOM     10  C   UNL A   1      31.507  25.970  22.222  1.00  0.00     0.026 A 
ATOM     11  S   UNL A   1      33.737  25.488  23.377  1.00  0.00    -0.131 S 
ATOM     12  C   UNL A   1      31.425  24.633  22.702  1.00  0.00     0.021 A 
BRANCH   9  13
ATOM     13  C   UNL A   1      33.173  27.914  22.253  1.00  0.00     0.261 C 
ATOM     14  N   UNL A   1      32.379  28.981  22.612  1.00  0.00    -0.348 N 
ATOM     15  H   UNL A   1      32.602  29.845  22.195  1.00  0.00     0.163 HD
ATOM     16  O   UNL A   1      34.232  28.156  21.677  1.00  0.00    -0.268 OA
BRANCH  14  17
ATOM     17  C   UNL A   1      31.251  28.992  23.535  1.00  0.00     0.154 C 
BRANCH  17  18
ATOM     18  C   UNL A   1      31.653  29.116  25.015  1.00  0.00     0.192 C 
ATOM     19  C   UNL A   1      32.870  30.879  27.254  1.00  0.00     0.332 C 
ATOM     20  N   UNL A   1      33.517  29.745  26.596  1.00  0.00    -0.333 N 
ATOM     21  C   UNL A   1      33.226  28.473  27.293  1.00  0.00     0.290 C 
ATOM     22  C   UNL A   1      33.105  29.610  25.181  1.00  0.00     0.296 C 
ATOM     23  H   UNL A   1      34.519  29.935  26.633  1.00  0.00     0.348 HD
ATOM     24  C   UNL A   1      31.798  27.940  27.070  1.00  0.00     0.222 C 
ATOM     25  O   UNL A   1      31.463  27.855  25.679  1.00  0.00    -0.365 OA
ENDBRANCH  17  18
ENDBRANCH  14  17
ENDBRANCH   9  13
ENDBRANCH   7   8
ENDBRANCH   3   6
ENDBRANCH   1   2
BRANCH   1  26
ATOM     26  C   UNL A   1      35.385  22.085  26.545  1.00  0.00     0.023 C 
BRANCH  26  27
ATOM     27  C   UNL A   1      35.645  23.538  26.133  1.00  0.00     0.023 C 
BRANCH  27  28
ATOM     28  C   UNL A   1      36.908  23.763  25.306  1.00  0.00     0.116 C 
BRANCH  28  29
ATOM     29  N   UNL A   1      37.932  22.758  25.535  1.00  0.00    -0.352 N 
ATOM     30  C   UNL A   1      39.156  22.894  26.142  1.00  0.00     0.251 C 
ATOM     31  H   UNL A   1      37.719  21.854  25.210  1.00  0.00     0.163 HD
ATOM     32  O   UNL A   1      39.936  21.946  26.160  1.00  0.00    -0.269 OA
BRANCH  30  33
ATOM     33  C   UNL A   1      39.556  24.186  26.741  1.00  0.00     0.039 A 
ATOM     34  C   UNL A   1      39.248  24.419  28.085  1.00  0.00     0.014 A 
ATOM     35  C   UNL A   1      40.201  25.173  25.991  1.00  0.00     0.014 A 
ATOM     36  C   UNL A   1      39.620  25.622  28.686  1.00  0.00     0.010 A 
ATOM     37  C   UNL A   1      40.631  26.346  26.607  1.00  0.00     0.010 A 
ATOM     38  C   UNL A   1      40.330  26.588  27.955  1.00  0.00    -0.014 A 
BRANCH  38  39
ATOM     39  C   UNL A   1      40.721  27.875  28.579  1.00  0.00     0.031 A 
ATOM     40  C   UNL A   1      42.153  28.114  28.974  1.00  0.00     0.074 A 
ATOM     41  C   UNL A   1      39.786  28.812  28.825  1.00  0.00     0.049 A 
ATOM     42  N   UNL A   1      42.690  29.160  29.549  1.00  0.00    -0.248 NA
ATOM     43  C   UNL A   1      43.100  27.020  28.712  1.00  0.00     0.031 C 
ATOM     44  C   UNL A   1      38.357  28.676  28.537  1.00  0.00     0.029 A 
ATOM     45  N   UNL A   1      39.898  30.063  29.375  1.00  0.00    -0.354 N 
ATOM     46  C   UNL A   1      44.031  28.845  29.728  1.00  0.00     0.074 A 
ATOM     47  C   UNL A   1      44.214  27.491  29.252  1.00  0.00     0.031 C 
ATOM     48  C   UNL A   1      37.730  29.811  28.887  1.00  0.00     0.029 A 
ATOM     49  C   UNL A   1      38.708  30.743  29.440  1.00  0.00     0.049 A 
ATOM     50  H   UNL A   1      40.752  30.438  29.691  1.00  0.00     0.167 HD
ATOM     51  C   UNL A   1      45.025  29.623  30.220  1.00  0.00     0.037 A 
ATOM     52  C   UNL A   1      38.441  31.985  29.888  1.00  0.00     0.037 A 
ATOM     53  C   UNL A   1      44.847  30.979  30.663  1.00  0.00     0.049 A 
ATOM     54  C   UNL A   1      39.570  32.842  30.393  1.00  0.00     0.074 A 
ATOM     55  C   UNL A   1      45.797  31.866  31.141  1.00  0.00     0.029 A 
ATOM     56  N   UNL A   1      43.633  31.649  30.674  1.00  0.00    -0.354 N 
ATOM     57  N   UNL A   1      40.844  32.554  30.502  1.00  0.00    -0.248 NA
ATOM     58  C   UNL A   1      39.224  34.203  30.822  1.00  0.00     0.031 C 
ATOM     59  C   UNL A   1      45.153  33.066  31.463  1.00  0.00     0.029 A 
ATOM     60  C   UNL A   1      43.808  32.938  31.152  1.00  0.00     0.049 A 
ATOM     61  H   UNL A   1      42.773  31.266  30.386  1.00  0.00     0.167 HD
ATOM     62  C   UNL A   1      41.455  33.704  30.981  1.00  0.00     0.074 A 
ATOM     63  C   UNL A   1      40.414  34.700  31.128  1.00  0.00     0.031 C 
ATOM     64  C   UNL A   1      42.761  33.918  31.276  1.00  0.00     0.037 A 
BRANCH  51  65
ATOM     65  C   UNL A   1      46.398  29.020  30.289  1.00  0.00     0.064 A 
ATOM     66  C   UNL A   1      47.295  29.120  29.214  1.00  0.00     0.173 A 
ATOM     67  C   UNL A   1      46.828  28.353  31.445  1.00  0.00     0.173 A 
ATOM     68  F   UNL A   1      46.924  29.735  28.081  1.00  0.00    -0.203 F 
ATOM     69  C   UNL A   1      48.561  28.544  29.282  1.00  0.00     0.198 A 
ATOM     70  C   UNL A   1      48.106  27.803  31.519  1.00  0.00     0.198 A 
ATOM     71  F   UNL A   1      46.011  28.232  32.502  1.00  0.00    -0.203 F 
ATOM     72  F   UNL A   1      49.380  28.607  28.224  1.00  0.00    -0.200 F 
ATOM     73  C   UNL A   1      48.967  27.892  30.436  1.00  0.00     0.200 A 
ATOM     74  F   UNL A   1      48.502  27.180  32.638  1.00  0.00    -0.200 F 
ATOM     75  F   UNL A   1      50.187  27.340  30.500  1.00  0.00    -0.200 F 
ENDBRANCH  51  65
BRANCH  52  76
ATOM     76  C   UNL A   1      37.057  32.515  29.825  1.00  0.00     0.064 A 
ATOM     77  C   UNL A   1      36.604  33.202  28.689  1.00  0.00     0.173 A 
ATOM     78  C   UNL A   1      36.164  32.361  30.895  1.00  0.00     0.173 A 
ATOM     79  F   UNL A   1      37.430  33.391  27.649  1.00  0.00    -0.203 F 
ATOM     80  C   UNL A   1      35.319  33.737  28.635  1.00  0.00     0.198 A 
ATOM     81  C   UNL A   1      34.871  32.875  30.830  1.00  0.00     0.198 A 
ATOM     82  F   UNL A   1      36.548  31.707  32.001  1.00  0.00    -0.203 F 
ATOM     83  F   UNL A   1      34.928  34.428  27.556  1.00  0.00    -0.200 F 
ATOM     84  C   UNL A   1      34.452  33.570  29.704  1.00  0.00     0.200 A 
ATOM     85  F   UNL A   1      34.031  32.703  31.860  1.00  0.00    -0.200 F 
ATOM     86  F   UNL A   1      33.215  34.084  29.652  1.00  0.00    -0.200 F 
ENDBRANCH  52  76
BRANCH  64  87
ATOM     87  C   UNL A   1      43.137  35.292  31.745  1.00  0.00     0.064 A 
ATOM     88  C   UNL A   1      43.025  35.665  33.092  1.00  0.00     0.173 A 
ATOM     89  C   UNL A   1      43.634  36.238  30.837  1.00  0.00     0.173 A 
ATOM     90  F   UNL A   1      42.541  34.798  33.995  1.00  0.00    -0.203 F 
ATOM     91  C   UNL A   1      43.368  36.948  33.508  1.00  0.00     0.198 A 
ATOM     92  C   UNL A   1      44.001  37.512  31.262  1.00  0.00     0.198 A 
ATOM     93  F   UNL A   1      43.765  35.927  29.539  1.00  0.00    -0.203 F 
ATOM     94  F   UNL A   1      43.205  37.300  34.791  1.00  0.00    -0.200 F 
ATOM     95  C   UNL A   1      43.860  37.869  32.594  1.00  0.00     0.200 A 
ATOM     96  F   UNL A   1      44.484  38.398  30.379  1.00  0.00    -0.200 F 
ATOM     97  F   UNL A   1      44.188  39.104  32.996  1.00  0.00    -0.200 F 
ENDBRANCH  64  87
ENDBRANCH  38  39
ENDBRANCH  30  33
ENDBRANCH  28  29
ENDBRANCH  27  28
ENDBRANCH  26  27
ENDBRANCH   1  26
TORSDOF 15
ENDMDL
