MODEL 1
REMARK VINA RESULT:     -12.9      0.000      0.000
REMARK SMILES CC1(C)CCC[C@H]1NC(=O)N[C@@H]1COC[C@@]1(C)C(=O)NCCCCNC(=O)c1ccc(-c2c3nc(c(-c4c(F)c(F)c(F)c(F)c4F)c4ccc([nH]4)c(-c4c(F)c(F)c(F)c(F)c4F)c4nc(c(-c5c(F)c(F)c(F)c(F)c5F)c5ccc2[nH]5)C=C4)C=C3)cc1
REMARK SMILES IDX 22 1 21 2 20 3 18 4 19 5 16 7 12 8 13 9 14 10 15 11 17 12
REMARK SMILES IDX 11 13 8 14 9 15 10 17 7 19 1 20 2 21 3 22 4 23 5 24 6 25
REMARK SMILES IDX 23 26 24 27 25 28 26 29 27 31 28 32 29 33 90 34 30 35 89 36
REMARK SMILES IDX 31 37 32 38 33 39 83 40 34 41 88 42 82 43 84 44 35 45 87 46
REMARK SMILES IDX 81 47 80 48 36 50 68 51 48 52 67 53 49 54 52 55 66 56 85 57
REMARK SMILES IDX 50 58 51 59 65 61 86 62 53 63 37 64 38 65 46 66 39 67 40 68
REMARK SMILES IDX 44 69 47 70 41 71 42 72 45 73 43 74 69 75 70 76 78 77 71 78
REMARK SMILES IDX 72 79 76 80 79 81 73 82 74 83 77 84 75 85 54 86 55 87 63 88
REMARK SMILES IDX 56 89 57 90 61 91 64 92 58 93 59 94 62 95 60 96
REMARK H PARENT 20 6 8 16 11 18 25 30 84 49 52 60
REMARK Flexibility Score: inf
ROOT
ATOM      1  C   UNL A   1      31.781  30.568  26.552  1.00  0.00     0.023 C 
ENDROOT
BRANCH   1   2
ATOM      2  C   UNL A   1      31.628  30.018  25.130  1.00  0.00     0.116 C 
BRANCH   2   3
ATOM      3  N   UNL A   1      32.824  29.486  24.500  1.00  0.00    -0.355 N 
ATOM      4  C   UNL A   1      33.027  28.339  23.781  1.00  0.00     0.230 C 
ATOM      5  O   UNL A   1      34.051  28.300  23.095  1.00  0.00    -0.274 OA
ATOM      6  H   UNL A   1      33.627  30.047  24.610  1.00  0.00     0.163 HD
BRANCH   4   7
ATOM      7  C   UNL A   1      32.098  27.124  23.900  1.00  0.00     0.092 C 
ATOM      8  C   UNL A   1      32.783  25.745  23.969  1.00  0.00     0.127 C 
ATOM      9  C   UNL A   1      32.103  24.972  25.096  1.00  0.00     0.186 C 
ATOM     10  O   UNL A   1      31.029  25.786  25.567  1.00  0.00    -0.378 OA
ATOM     11  C   UNL A   1      31.391  27.146  25.273  1.00  0.00     0.179 C 
ATOM     12  C   UNL A   1      31.024  27.291  22.853  1.00  0.00     0.026 C 
BRANCH   8  13
ATOM     13  N   UNL A   1      33.008  24.937  22.759  1.00  0.00    -0.332 N 
ATOM     14  N   UNL A   1      34.412  23.021  22.995  1.00  0.00    -0.335 N 
ATOM     15  C   UNL A   1      33.619  23.844  22.319  1.00  0.00     0.315 C 
ATOM     16  H   UNL A   1      34.551  22.178  22.505  1.00  0.00     0.165 HD
ATOM     17  O   UNL A   1      33.391  23.547  21.140  1.00  0.00    -0.249 OA
ATOM     18  H   UNL A   1      32.532  25.358  22.007  1.00  0.00     0.165 HD
BRANCH  14  19
ATOM     19  C   UNL A   1      35.139  23.020  24.265  1.00  0.00     0.089 C 
ATOM     20  C   UNL A   1      33.258  21.332  25.089  1.00  0.00     0.013 C 
ATOM     21  C   UNL A   1      34.695  21.864  25.242  1.00  0.00    -0.015 C 
ATOM     22  C   UNL A   1      34.909  22.271  26.723  1.00  0.00     0.013 C 
ATOM     23  C   UNL A   1      35.676  20.735  24.888  1.00  0.00     0.008 C 
ATOM     24  C   UNL A   1      36.999  21.450  24.698  1.00  0.00     0.003 C 
ATOM     25  C   UNL A   1      36.635  22.742  23.977  1.00  0.00     0.025 C 
ENDBRANCH  14  19
ENDBRANCH   8  13
ENDBRANCH   4   7
ENDBRANCH   2   3
ENDBRANCH   1   2
BRANCH   1  26
ATOM     26  C   UNL A   1      31.500  32.049  26.766  1.00  0.00     0.023 C 
BRANCH  26  27
ATOM     27  C   UNL A   1      32.678  32.859  27.263  1.00  0.00     0.116 C 
BRANCH  27  28
ATOM     28  N   UNL A   1      32.349  34.218  27.663  1.00  0.00    -0.352 N 
ATOM     29  C   UNL A   1      32.982  34.992  28.611  1.00  0.00     0.251 C 
ATOM     30  H   UNL A   1      31.584  34.634  27.202  1.00  0.00     0.163 HD
ATOM     31  O   UNL A   1      32.559  36.094  28.914  1.00  0.00    -0.269 OA
BRANCH  29  32
ATOM     32  C   UNL A   1      34.161  34.426  29.304  1.00  0.00     0.039 A 
ATOM     33  C   UNL A   1      33.960  33.632  30.434  1.00  0.00     0.014 A 
ATOM     34  C   UNL A   1      35.445  34.617  28.793  1.00  0.00     0.014 A 
ATOM     35  C   UNL A   1      35.048  32.976  31.011  1.00  0.00     0.010 A 
ATOM     36  C   UNL A   1      36.504  33.875  29.296  1.00  0.00     0.010 A 
ATOM     37  C   UNL A   1      36.321  33.064  30.423  1.00  0.00    -0.014 A 
BRANCH  37  38
ATOM     38  C   UNL A   1      37.484  32.351  31.001  1.00  0.00     0.031 A 
ATOM     39  C   UNL A   1      37.970  32.713  32.378  1.00  0.00     0.074 A 
ATOM     40  C   UNL A   1      38.129  31.421  30.271  1.00  0.00     0.049 A 
ATOM     41  N   UNL A   1      38.983  32.231  33.052  1.00  0.00    -0.248 NA
ATOM     42  C   UNL A   1      37.245  33.787  33.076  1.00  0.00     0.031 C 
ATOM     43  C   UNL A   1      37.793  31.039  28.898  1.00  0.00     0.029 A 
ATOM     44  N   UNL A   1      39.205  30.628  30.582  1.00  0.00    -0.354 N 
ATOM     45  C   UNL A   1      39.020  32.952  34.239  1.00  0.00     0.074 A 
ATOM     46  C   UNL A   1      37.982  33.953  34.164  1.00  0.00     0.031 C 
ATOM     47  C   UNL A   1      38.619  30.057  28.500  1.00  0.00     0.029 A 
ATOM     48  C   UNL A   1      39.561  29.763  29.576  1.00  0.00     0.049 A 
ATOM     49  H   UNL A   1      39.676  30.674  31.445  1.00  0.00     0.167 HD
ATOM     50  C   UNL A   1      39.823  32.769  35.312  1.00  0.00     0.037 A 
ATOM     51  C   UNL A   1      40.533  28.834  29.536  1.00  0.00     0.037 A 
ATOM     52  C   UNL A   1      40.828  31.744  35.395  1.00  0.00     0.049 A 
ATOM     53  C   UNL A   1      41.400  28.637  30.750  1.00  0.00     0.074 A 
ATOM     54  C   UNL A   1      41.650  31.425  36.460  1.00  0.00     0.029 A 
ATOM     55  N   UNL A   1      41.145  30.870  34.366  1.00  0.00    -0.354 N 
ATOM     56  N   UNL A   1      41.371  29.266  31.901  1.00  0.00    -0.248 NA
ATOM     57  C   UNL A   1      42.430  27.592  30.665  1.00  0.00     0.031 C 
ATOM     58  C   UNL A   1      42.495  30.385  36.060  1.00  0.00     0.029 A 
ATOM     59  C   UNL A   1      42.166  30.023  34.763  1.00  0.00     0.049 A 
ATOM     60  H   UNL A   1      40.708  30.854  33.483  1.00  0.00     0.167 HD
ATOM     61  C   UNL A   1      42.356  28.679  32.683  1.00  0.00     0.074 A 
ATOM     62  C   UNL A   1      42.951  27.628  31.883  1.00  0.00     0.031 C 
ATOM     63  C   UNL A   1      42.739  28.982  33.948  1.00  0.00     0.037 A 
BRANCH  50  64
ATOM     64  C   UNL A   1      39.632  33.688  36.485  1.00  0.00     0.064 A 
ATOM     65  C   UNL A   1      38.824  33.330  37.576  1.00  0.00     0.173 A 
ATOM     66  C   UNL A   1      40.277  34.932  36.528  1.00  0.00     0.173 A 
ATOM     67  F   UNL A   1      38.171  32.158  37.577  1.00  0.00    -0.203 F 
ATOM     68  C   UNL A   1      38.642  34.198  38.649  1.00  0.00     0.198 A 
ATOM     69  C   UNL A   1      40.120  35.783  37.619  1.00  0.00     0.198 A 
ATOM     70  F   UNL A   1      41.063  35.324  35.513  1.00  0.00    -0.203 F 
ATOM     71  F   UNL A   1      37.818  33.858  39.651  1.00  0.00    -0.200 F 
ATOM     72  C   UNL A   1      39.295  35.421  38.674  1.00  0.00     0.200 A 
ATOM     73  F   UNL A   1      40.760  36.960  37.647  1.00  0.00    -0.200 F 
ATOM     74  F   UNL A   1      39.124  36.253  39.710  1.00  0.00    -0.200 F 
ENDBRANCH  50  64
BRANCH  51  75
ATOM     75  C   UNL A   1      40.710  27.991  28.324  1.00  0.00     0.064 A 
ATOM     76  C   UNL A   1      40.092  26.738  28.223  1.00  0.00     0.173 A 
ATOM     77  C   UNL A   1      41.502  28.416  27.248  1.00  0.00     0.173 A 
ATOM     78  F   UNL A   1      39.338  26.279  29.234  1.00  0.00    -0.203 F 
ATOM     79  C   UNL A   1      40.278  25.929  27.103  1.00  0.00     0.198 A 
ATOM     80  C   UNL A   1      41.665  27.619  26.115  1.00  0.00     0.198 A 
ATOM     81  F   UNL A   1      42.110  29.610  27.290  1.00  0.00    -0.203 F 
ATOM     82  F   UNL A   1      39.713  24.715  27.054  1.00  0.00    -0.200 F 
ATOM     83  C   UNL A   1      41.059  26.373  26.047  1.00  0.00     0.200 A 
ATOM     84  F   UNL A   1      42.409  28.058  25.091  1.00  0.00    -0.200 F 
ATOM     85  F   UNL A   1      41.237  25.597  24.969  1.00  0.00    -0.200 F 
ENDBRANCH  51  75
BRANCH  63  86
ATOM     86  C   UNL A   1      43.835  28.152  34.549  1.00  0.00     0.064 A 
ATOM     87  C   UNL A   1      45.182  28.521  34.435  1.00  0.00     0.173 A 
ATOM     88  C   UNL A   1      43.529  26.992  35.277  1.00  0.00     0.173 A 
ATOM     89  F   UNL A   1      45.527  29.614  33.737  1.00  0.00    -0.203 F 
ATOM     90  C   UNL A   1      46.187  27.744  35.005  1.00  0.00     0.198 A 
ATOM     91  C   UNL A   1      44.533  26.236  35.873  1.00  0.00     0.198 A 
ATOM     92  F   UNL A   1      42.254  26.602  35.422  1.00  0.00    -0.203 F 
ATOM     93  F   UNL A   1      47.471  28.088  34.839  1.00  0.00    -0.200 F 
ATOM     94  C   UNL A   1      45.861  26.607  35.729  1.00  0.00     0.200 A 
ATOM     95  F   UNL A   1      44.215  25.146  36.585  1.00  0.00    -0.200 F 
ATOM     96  F   UNL A   1      46.829  25.863  36.282  1.00  0.00    -0.200 F 
ENDBRANCH  63  86
ENDBRANCH  37  38
ENDBRANCH  29  32
ENDBRANCH  27  28
ENDBRANCH  26  27
ENDBRANCH   1  26
TORSDOF 13
ENDMDL
MODEL 2
REMARK VINA RESULT:     -12.9      5.445      9.865
REMARK SMILES CC1(C)CCC[C@H]1NC(=O)N[C@@H]1COC[C@@]1(C)C(=O)NCCCCNC(=O)c1ccc(-c2c3nc(c(-c4c(F)c(F)c(F)c(F)c4F)c4ccc([nH]4)c(-c4c(F)c(F)c(F)c(F)c4F)c4nc(c(-c5c(F)c(F)c(F)c(F)c5F)c5ccc2[nH]5)C=C4)C=C3)cc1
REMARK SMILES IDX 22 1 21 2 20 3 18 4 19 5 16 7 12 8 13 9 14 10 15 11 17 12
REMARK SMILES IDX 11 13 8 14 9 15 10 17 7 19 1 20 2 21 3 22 4 23 5 24 6 25
REMARK SMILES IDX 23 26 24 27 25 28 26 29 27 31 28 32 29 33 90 34 30 35 89 36
REMARK SMILES IDX 31 37 32 38 33 39 83 40 34 41 88 42 82 43 84 44 35 45 87 46
REMARK SMILES IDX 81 47 80 48 36 50 68 51 48 52 67 53 49 54 52 55 66 56 85 57
REMARK SMILES IDX 50 58 51 59 65 61 86 62 53 63 37 64 38 65 46 66 39 67 40 68
REMARK SMILES IDX 44 69 47 70 41 71 42 72 45 73 43 74 69 75 70 76 78 77 71 78
REMARK SMILES IDX 72 79 76 80 79 81 73 82 74 83 77 84 75 85 54 86 55 87 63 88
REMARK SMILES IDX 56 89 57 90 61 91 64 92 58 93 59 94 62 95 60 96
REMARK H PARENT 20 6 8 16 11 18 25 30 84 49 52 60
REMARK Flexibility Score: inf
ROOT
ATOM      1  C   UNL A   1      37.561  21.502  24.698  1.00  0.00     0.023 C 
ENDROOT
BRANCH   1   2
ATOM      2  C   UNL A   1      37.006  22.280  25.896  1.00  0.00     0.116 C 
BRANCH   2   3
ATOM      3  N   UNL A   1      36.000  23.288  25.612  1.00  0.00    -0.355 N 
ATOM      4  C   UNL A   1      34.657  23.318  25.878  1.00  0.00     0.230 C 
ATOM      5  O   UNL A   1      34.115  24.425  25.821  1.00  0.00    -0.274 OA
ATOM      6  H   UNL A   1      36.343  24.088  25.150  1.00  0.00     0.163 HD
BRANCH   4   7
ATOM      7  C   UNL A   1      33.843  22.041  26.124  1.00  0.00     0.092 C 
ATOM      8  C   UNL A   1      32.391  22.047  25.608  1.00  0.00     0.127 C 
ATOM      9  C   UNL A   1      32.173  20.714  24.896  1.00  0.00     0.186 C 
ATOM     10  O   UNL A   1      33.359  19.944  25.086  1.00  0.00    -0.378 OA
ATOM     11  C   UNL A   1      34.428  20.885  25.283  1.00  0.00     0.179 C 
ATOM     12  C   UNL A   1      34.042  21.670  27.574  1.00  0.00     0.026 C 
BRANCH   8  13
ATOM     13  N   UNL A   1      31.268  22.437  26.476  1.00  0.00    -0.332 N 
ATOM     14  N   UNL A   1      30.460  24.671  26.246  1.00  0.00    -0.335 N 
ATOM     15  C   UNL A   1      30.453  23.446  26.757  1.00  0.00     0.315 C 
ATOM     16  H   UNL A   1      29.624  25.149  26.453  1.00  0.00     0.165 HD
ATOM     17  O   UNL A   1      29.559  23.194  27.574  1.00  0.00    -0.249 OA
ATOM     18  H   UNL A   1      31.040  21.674  27.056  1.00  0.00     0.165 HD
BRANCH  14  19
ATOM     19  C   UNL A   1      31.367  25.510  25.461  1.00  0.00     0.089 C 
ATOM     20  C   UNL A   1      30.412  24.196  23.358  1.00  0.00     0.013 C 
ATOM     21  C   UNL A   1      31.079  25.468  23.912  1.00  0.00    -0.015 C 
ATOM     22  C   UNL A   1      32.369  25.738  23.096  1.00  0.00     0.013 C 
ATOM     23  C   UNL A   1      30.114  26.650  23.721  1.00  0.00     0.008 C 
ATOM     24  C   UNL A   1      30.682  27.732  24.619  1.00  0.00     0.003 C 
ATOM     25  C   UNL A   1      31.146  26.989  25.866  1.00  0.00     0.025 C 
ENDBRANCH  14  19
ENDBRANCH   8  13
ENDBRANCH   4   7
ENDBRANCH   2   3
ENDBRANCH   1   2
BRANCH   1  26
ATOM     26  C   UNL A   1      38.285  20.193  24.986  1.00  0.00     0.023 C 
BRANCH  26  27
ATOM     27  C   UNL A   1      39.393  20.286  26.013  1.00  0.00     0.116 C 
BRANCH  27  28
ATOM     28  N   UNL A   1      40.337  19.180  25.982  1.00  0.00    -0.352 N 
ATOM     29  C   UNL A   1      41.707  19.241  26.125  1.00  0.00     0.251 C 
ATOM     30  H   UNL A   1      39.954  18.285  25.842  1.00  0.00     0.163 HD
ATOM     31  O   UNL A   1      42.400  18.247  25.999  1.00  0.00    -0.269 OA
BRANCH  29  32
ATOM     32  C   UNL A   1      42.327  20.560  26.375  1.00  0.00     0.039 A 
ATOM     33  C   UNL A   1      42.583  21.400  25.290  1.00  0.00     0.014 A 
ATOM     34  C   UNL A   1      42.581  20.991  27.678  1.00  0.00     0.014 A 
ATOM     35  C   UNL A   1      43.033  22.700  25.522  1.00  0.00     0.010 A 
ATOM     36  C   UNL A   1      42.917  22.316  27.912  1.00  0.00     0.010 A 
ATOM     37  C   UNL A   1      43.168  23.178  26.837  1.00  0.00    -0.014 A 
BRANCH  37  38
ATOM     38  C   UNL A   1      43.615  24.565  27.107  1.00  0.00     0.031 A 
ATOM     39  C   UNL A   1      42.624  25.582  27.602  1.00  0.00     0.074 A 
ATOM     40  C   UNL A   1      44.891  24.917  26.857  1.00  0.00     0.049 A 
ATOM     41  N   UNL A   1      42.804  26.850  27.872  1.00  0.00    -0.248 NA
ATOM     42  C   UNL A   1      41.237  25.125  27.783  1.00  0.00     0.031 C 
ATOM     43  C   UNL A   1      45.921  24.035  26.307  1.00  0.00     0.029 A 
ATOM     44  N   UNL A   1      45.538  26.114  27.034  1.00  0.00    -0.354 N 
ATOM     45  C   UNL A   1      41.555  27.336  28.237  1.00  0.00     0.074 A 
ATOM     46  C   UNL A   1      40.613  26.253  28.082  1.00  0.00     0.031 C 
ATOM     47  C   UNL A   1      47.081  24.708  26.230  1.00  0.00     0.029 A 
ATOM     48  C   UNL A   1      46.868  26.076  26.693  1.00  0.00     0.049 A 
ATOM     49  H   UNL A   1      45.091  26.923  27.373  1.00  0.00     0.167 HD
ATOM     50  C   UNL A   1      41.231  28.566  28.698  1.00  0.00     0.037 A 
ATOM     51  C   UNL A   1      47.808  27.037  26.760  1.00  0.00     0.037 A 
ATOM     52  C   UNL A   1      42.182  29.627  28.888  1.00  0.00     0.049 A 
ATOM     53  C   UNL A   1      47.425  28.391  27.295  1.00  0.00     0.074 A 
ATOM     54  C   UNL A   1      41.975  30.890  29.414  1.00  0.00     0.029 A 
ATOM     55  N   UNL A   1      43.526  29.546  28.555  1.00  0.00    -0.354 N 
ATOM     56  N   UNL A   1      46.259  28.815  27.720  1.00  0.00    -0.248 NA
ATOM     57  C   UNL A   1      48.493  29.398  27.370  1.00  0.00     0.031 C 
ATOM     58  C   UNL A   1      43.186  31.587  29.359  1.00  0.00     0.029 A 
ATOM     59  C   UNL A   1      44.158  30.743  28.846  1.00  0.00     0.049 A 
ATOM     60  H   UNL A   1      43.966  28.753  28.170  1.00  0.00     0.167 HD
ATOM     61  C   UNL A   1      46.457  30.125  28.136  1.00  0.00     0.074 A 
ATOM     62  C   UNL A   1      47.860  30.418  27.932  1.00  0.00     0.031 C 
ATOM     63  C   UNL A   1      45.559  31.009  28.637  1.00  0.00     0.037 A 
BRANCH  50  64
ATOM     64  C   UNL A   1      39.792  28.819  29.045  1.00  0.00     0.064 A 
ATOM     65  C   UNL A   1      39.295  28.595  30.339  1.00  0.00     0.173 A 
ATOM     66  C   UNL A   1      38.900  29.307  28.077  1.00  0.00     0.173 A 
ATOM     67  F   UNL A   1      40.101  28.113  31.297  1.00  0.00    -0.203 F 
ATOM     68  C   UNL A   1      37.955  28.817  30.642  1.00  0.00     0.198 A 
ATOM     69  C   UNL A   1      37.568  29.560  28.393  1.00  0.00     0.198 A 
ATOM     70  F   UNL A   1      39.321  29.540  26.825  1.00  0.00    -0.203 F 
ATOM     71  F   UNL A   1      37.492  28.539  31.870  1.00  0.00    -0.200 F 
ATOM     72  C   UNL A   1      37.093  29.306  29.672  1.00  0.00     0.200 A 
ATOM     73  F   UNL A   1      36.739  30.043  27.458  1.00  0.00    -0.200 F 
ATOM     74  F   UNL A   1      35.805  29.525  29.966  1.00  0.00    -0.200 F 
ENDBRANCH  50  64
BRANCH  51  75
ATOM     75  C   UNL A   1      49.206  26.744  26.350  1.00  0.00     0.064 A 
ATOM     76  C   UNL A   1      49.621  26.931  25.024  1.00  0.00     0.173 A 
ATOM     77  C   UNL A   1      50.153  26.269  27.268  1.00  0.00     0.173 A 
ATOM     78  F   UNL A   1      48.748  27.367  24.104  1.00  0.00    -0.203 F 
ATOM     79  C   UNL A   1      50.923  26.629  24.626  1.00  0.00     0.198 A 
ATOM     80  C   UNL A   1      51.463  25.995  26.876  1.00  0.00     0.198 A 
ATOM     81  F   UNL A   1      49.810  26.080  28.550  1.00  0.00    -0.203 F 
ATOM     82  F   UNL A   1      51.279  26.772  23.342  1.00  0.00    -0.200 F 
ATOM     83  C   UNL A   1      51.844  26.167  25.553  1.00  0.00     0.200 A 
ATOM     84  F   UNL A   1      52.354  25.562  27.778  1.00  0.00    -0.200 F 
ATOM     85  F   UNL A   1      53.096  25.879  25.172  1.00  0.00    -0.200 F 
ENDBRANCH  51  75
BRANCH  63  86
ATOM     86  C   UNL A   1      46.075  32.365  29.021  1.00  0.00     0.064 A 
ATOM     87  C   UNL A   1      46.591  32.618  30.298  1.00  0.00     0.173 A 
ATOM     88  C   UNL A   1      46.083  33.411  28.086  1.00  0.00     0.173 A 
ATOM     89  F   UNL A   1      46.592  31.654  31.231  1.00  0.00    -0.203 F 
ATOM     90  C   UNL A   1      47.073  33.880  30.637  1.00  0.00     0.198 A 
ATOM     91  C   UNL A   1      46.595  34.662  28.418  1.00  0.00     0.198 A 
ATOM     92  F   UNL A   1      45.608  33.216  26.847  1.00  0.00    -0.203 F 
ATOM     93  F   UNL A   1      47.514  34.115  31.881  1.00  0.00    -0.200 F 
ATOM     94  C   UNL A   1      47.081  34.898  29.694  1.00  0.00     0.200 A 
ATOM     95  F   UNL A   1      46.616  35.639  27.501  1.00  0.00    -0.200 F 
ATOM     96  F   UNL A   1      47.551  36.110  30.020  1.00  0.00    -0.200 F 
ENDBRANCH  63  86
ENDBRANCH  37  38
ENDBRANCH  29  32
ENDBRANCH  27  28
ENDBRANCH  26  27
ENDBRANCH   1  26
TORSDOF 13
ENDMDL
MODEL 3
REMARK VINA RESULT:     -12.9      0.966      1.898
REMARK SMILES CC1(C)CCC[C@H]1NC(=O)N[C@@H]1COC[C@@]1(C)C(=O)NCCCCNC(=O)c1ccc(-c2c3nc(c(-c4c(F)c(F)c(F)c(F)c4F)c4ccc([nH]4)c(-c4c(F)c(F)c(F)c(F)c4F)c4nc(c(-c5c(F)c(F)c(F)c(F)c5F)c5ccc2[nH]5)C=C4)C=C3)cc1
REMARK SMILES IDX 22 1 21 2 20 3 18 4 19 5 16 7 12 8 13 9 14 10 15 11 17 12
REMARK SMILES IDX 11 13 8 14 9 15 10 17 7 19 1 20 2 21 3 22 4 23 5 24 6 25
REMARK SMILES IDX 23 26 24 27 25 28 26 29 27 31 28 32 29 33 90 34 30 35 89 36
REMARK SMILES IDX 31 37 32 38 33 39 83 40 34 41 88 42 82 43 84 44 35 45 87 46
REMARK SMILES IDX 81 47 80 48 36 50 68 51 48 52 67 53 49 54 52 55 66 56 85 57
REMARK SMILES IDX 50 58 51 59 65 61 86 62 53 63 37 64 38 65 46 66 39 67 40 68
REMARK SMILES IDX 44 69 47 70 41 71 42 72 45 73 43 74 69 75 70 76 78 77 71 78
REMARK SMILES IDX 72 79 76 80 79 81 73 82 74 83 77 84 75 85 54 86 55 87 63 88
REMARK SMILES IDX 56 89 57 90 61 91 64 92 58 93 59 94 62 95 60 96
REMARK H PARENT 20 6 8 16 11 18 25 30 84 49 52 60
REMARK Flexibility Score: inf
ROOT
ATOM      1  C   UNL A   1      32.111  29.681  27.202  1.00  0.00     0.023 C 
ENDROOT
BRANCH   1   2
ATOM      2  C   UNL A   1      32.010  28.597  26.124  1.00  0.00     0.116 C 
BRANCH   2   3
ATOM      3  N   UNL A   1      32.044  29.041  24.742  1.00  0.00    -0.355 N 
ATOM      4  C   UNL A   1      32.029  28.334  23.569  1.00  0.00     0.230 C 
ATOM      5  O   UNL A   1      31.738  28.970  22.553  1.00  0.00    -0.274 OA
ATOM      6  H   UNL A   1      32.084  30.019  24.629  1.00  0.00     0.163 HD
BRANCH   4   7
ATOM      7  C   UNL A   1      32.454  26.862  23.496  1.00  0.00     0.092 C 
ATOM      8  C   UNL A   1      31.386  25.823  23.888  1.00  0.00     0.127 C 
ATOM      9  C   UNL A   1      31.426  24.729  22.823  1.00  0.00     0.186 C 
ATOM     10  O   UNL A   1      32.510  25.042  21.949  1.00  0.00    -0.378 OA
ATOM     11  C   UNL A   1      32.694  26.465  22.023  1.00  0.00     0.179 C 
ATOM     12  C   UNL A   1      33.786  26.757  24.198  1.00  0.00     0.026 C 
BRANCH   8  13
ATOM     13  N   UNL A   1      31.290  25.299  25.260  1.00  0.00    -0.332 N 
ATOM     14  N   UNL A   1      32.798  23.544  25.847  1.00  0.00    -0.335 N 
ATOM     15  C   UNL A   1      31.832  24.420  26.094  1.00  0.00     0.315 C 
ATOM     16  H   UNL A   1      33.166  23.173  26.682  1.00  0.00     0.165 HD
ATOM     17  O   UNL A   1      31.398  24.451  27.252  1.00  0.00    -0.249 OA
ATOM     18  H   UNL A   1      30.562  25.771  25.727  1.00  0.00     0.165 HD
BRANCH  14  19
ATOM     19  C   UNL A   1      33.468  22.976  24.676  1.00  0.00     0.089 C 
ATOM     20  C   UNL A   1      35.701  23.914  25.770  1.00  0.00     0.013 C 
ATOM     21  C   UNL A   1      35.036  22.895  24.827  1.00  0.00    -0.015 C 
ATOM     22  C   UNL A   1      35.735  22.980  23.445  1.00  0.00     0.013 C 
ATOM     23  C   UNL A   1      35.242  21.485  25.403  1.00  0.00     0.008 C 
ATOM     24  C   UNL A   1      34.251  20.630  24.638  1.00  0.00     0.003 C 
ATOM     25  C   UNL A   1      33.010  21.505  24.512  1.00  0.00     0.025 C 
ENDBRANCH  14  19
ENDBRANCH   8  13
ENDBRANCH   4   7
ENDBRANCH   2   3
ENDBRANCH   1   2
BRANCH   1  26
ATOM     26  C   UNL A   1      31.787  31.111  26.791  1.00  0.00     0.023 C 
BRANCH  26  27
ATOM     27  C   UNL A   1      32.925  32.097  26.947  1.00  0.00     0.116 C 
BRANCH  27  28
ATOM     28  N   UNL A   1      32.514  33.437  27.333  1.00  0.00    -0.352 N 
ATOM     29  C   UNL A   1      33.063  34.236  28.312  1.00  0.00     0.251 C 
ATOM     30  H   UNL A   1      31.754  33.818  26.837  1.00  0.00     0.163 HD
ATOM     31  O   UNL A   1      32.575  35.315  28.596  1.00  0.00    -0.269 OA
BRANCH  29  32
ATOM     32  C   UNL A   1      34.232  33.723  29.061  1.00  0.00     0.039 A 
ATOM     33  C   UNL A   1      34.035  32.724  30.015  1.00  0.00     0.014 A 
ATOM     34  C   UNL A   1      35.519  34.174  28.764  1.00  0.00     0.014 A 
ATOM     35  C   UNL A   1      35.141  32.131  30.624  1.00  0.00     0.010 A 
ATOM     36  C   UNL A   1      36.620  33.506  29.283  1.00  0.00     0.010 A 
ATOM     37  C   UNL A   1      36.442  32.494  30.234  1.00  0.00    -0.014 A 
BRANCH  37  38
ATOM     38  C   UNL A   1      37.632  31.855  30.845  1.00  0.00     0.031 A 
ATOM     39  C   UNL A   1      38.072  32.267  32.223  1.00  0.00     0.074 A 
ATOM     40  C   UNL A   1      38.340  30.950  30.143  1.00  0.00     0.049 A 
ATOM     41  N   UNL A   1      39.097  31.853  32.923  1.00  0.00    -0.248 NA
ATOM     42  C   UNL A   1      37.276  33.310  32.889  1.00  0.00     0.031 C 
ATOM     43  C   UNL A   1      38.051  30.527  28.771  1.00  0.00     0.029 A 
ATOM     44  N   UNL A   1      39.451  30.223  30.487  1.00  0.00    -0.354 N 
ATOM     45  C   UNL A   1      39.073  32.594  34.097  1.00  0.00     0.074 A 
ATOM     46  C   UNL A   1      37.983  33.535  33.986  1.00  0.00     0.031 C 
ATOM     47  C   UNL A   1      38.936  29.585  28.406  1.00  0.00     0.029 A 
ATOM     48  C   UNL A   1      39.873  29.362  29.503  1.00  0.00     0.049 A 
ATOM     49  H   UNL A   1      39.904  30.309  31.357  1.00  0.00     0.167 HD
ATOM     50  C   UNL A   1      39.865  32.474  35.187  1.00  0.00     0.037 A 
ATOM     51  C   UNL A   1      40.895  28.486  29.496  1.00  0.00     0.037 A 
ATOM     52  C   UNL A   1      40.922  31.508  35.306  1.00  0.00     0.049 A 
ATOM     53  C   UNL A   1      41.750  28.358  30.729  1.00  0.00     0.074 A 
ATOM     54  C   UNL A   1      41.741  31.252  36.392  1.00  0.00     0.029 A 
ATOM     55  N   UNL A   1      41.306  30.635  34.299  1.00  0.00    -0.354 N 
ATOM     56  N   UNL A   1      41.664  29.004  31.867  1.00  0.00    -0.248 NA
ATOM     57  C   UNL A   1      42.836  27.371  30.680  1.00  0.00     0.031 C 
ATOM     58  C   UNL A   1      42.649  30.254  36.024  1.00  0.00     0.029 A 
ATOM     59  C   UNL A   1      42.364  29.852  34.729  1.00  0.00     0.049 A 
ATOM     60  H   UNL A   1      40.887  30.579  33.409  1.00  0.00     0.167 HD
ATOM     61  C   UNL A   1      42.666  28.485  32.677  1.00  0.00     0.074 A 
ATOM     62  C   UNL A   1      43.332  27.456  31.906  1.00  0.00     0.031 C 
ATOM     63  C   UNL A   1      43.008  28.831  33.942  1.00  0.00     0.037 A 
BRANCH  50  64
ATOM     64  C   UNL A   1      39.602  33.400  36.340  1.00  0.00     0.064 A 
ATOM     65  C   UNL A   1      38.773  33.027  37.410  1.00  0.00     0.173 A 
ATOM     66  C   UNL A   1      40.200  34.668  36.386  1.00  0.00     0.173 A 
ATOM     67  F   UNL A   1      38.164  31.833  37.408  1.00  0.00    -0.203 F 
ATOM     68  C   UNL A   1      38.525  33.902  38.464  1.00  0.00     0.198 A 
ATOM     69  C   UNL A   1      39.976  35.528  37.459  1.00  0.00     0.198 A 
ATOM     70  F   UNL A   1      41.003  35.075  35.391  1.00  0.00    -0.203 F 
ATOM     71  F   UNL A   1      37.682  33.545  39.444  1.00  0.00    -0.200 F 
ATOM     72  C   UNL A   1      39.131  35.149  38.492  1.00  0.00     0.200 A 
ATOM     73  F   UNL A   1      40.572  36.728  37.491  1.00  0.00    -0.200 F 
ATOM     74  F   UNL A   1      38.896  35.987  39.510  1.00  0.00    -0.200 F 
ENDBRANCH  50  64
BRANCH  51  75
ATOM     75  C   UNL A   1      41.141  27.635  28.303  1.00  0.00     0.064 A 
ATOM     76  C   UNL A   1      40.505  26.394  28.162  1.00  0.00     0.173 A 
ATOM     77  C   UNL A   1      42.015  28.038  27.284  1.00  0.00     0.173 A 
ATOM     78  F   UNL A   1      39.672  25.956  29.119  1.00  0.00    -0.203 F 
ATOM     79  C   UNL A   1      40.753  25.576  27.061  1.00  0.00     0.198 A 
ATOM     80  C   UNL A   1      42.241  27.232  26.168  1.00  0.00     0.198 A 
ATOM     81  F   UNL A   1      42.643  29.219  27.365  1.00  0.00    -0.203 F 
ATOM     82  F   UNL A   1      40.168  24.373  26.976  1.00  0.00    -0.200 F 
ATOM     83  C   UNL A   1      41.617  25.999  26.062  1.00  0.00     0.200 A 
ATOM     84  F   UNL A   1      43.066  27.651  25.198  1.00  0.00    -0.200 F 
ATOM     85  F   UNL A   1      41.854  25.214  25.002  1.00  0.00    -0.200 F 
ENDBRANCH  51  75
BRANCH  63  86
ATOM     86  C   UNL A   1      44.137  28.072  34.577  1.00  0.00     0.064 A 
ATOM     87  C   UNL A   1      43.920  26.865  35.255  1.00  0.00     0.173 A 
ATOM     88  C   UNL A   1      45.455  28.543  34.474  1.00  0.00     0.173 A 
ATOM     89  F   UNL A   1      42.676  26.381  35.392  1.00  0.00    -0.203 F 
ATOM     90  C   UNL A   1      44.979  26.170  35.832  1.00  0.00     0.198 A 
ATOM     91  C   UNL A   1      46.514  27.829  35.024  1.00  0.00     0.198 A 
ATOM     92  F   UNL A   1      45.715  29.689  33.828  1.00  0.00    -0.203 F 
ATOM     93  F   UNL A   1      44.741  25.044  36.520  1.00  0.00    -0.200 F 
ATOM     94  C   UNL A   1      46.275  26.648  35.710  1.00  0.00     0.200 A 
ATOM     95  F   UNL A   1      47.767  28.285  34.892  1.00  0.00    -0.200 F 
ATOM     96  F   UNL A   1      47.293  25.974  36.261  1.00  0.00    -0.200 F 
ENDBRANCH  63  86
ENDBRANCH  37  38
ENDBRANCH  29  32
ENDBRANCH  27  28
ENDBRANCH  26  27
ENDBRANCH   1  26
TORSDOF 13
ENDMDL
