MODEL 1
REMARK VINA RESULT:     -11.5      0.000      0.000
REMARK SMILES CC(C)(C)SCC(=O)NC1(CC(=O)NCCCCNC(=O)c2ccc(-c3c4nc(c(-c5c(F)c(F)c(F)c(F)c5F)c5ccc([nH]5)c(-c5c(F)c(F)c(F)c(F)c5F)c5nc(c(-c6c(F)c(F)c(F)c(F)c6F)c6ccc3[nH]6)C=C5)C=C4)cc2)CCC1
REMARK SMILES IDX 15 1 14 2 12 3 13 4 11 6 10 7 85 8 87 9 86 10 9 11 7 12 8 13
REMARK SMILES IDX 6 15 5 16 2 17 1 18 3 19 4 20 16 21 17 22 18 23 19 24 20 25
REMARK SMILES IDX 21 27 22 28 23 29 84 30 24 31 83 32 25 33 26 34 27 35 77 36
REMARK SMILES IDX 28 37 82 38 76 39 78 40 29 41 81 42 75 43 74 44 30 46 62 47
REMARK SMILES IDX 42 48 61 49 43 50 46 51 60 52 79 53 44 54 45 55 59 57 80 58
REMARK SMILES IDX 47 59 31 60 32 61 40 62 33 63 34 64 38 65 41 66 35 67 36 68
REMARK SMILES IDX 39 69 37 70 63 71 64 72 72 73 65 74 66 75 70 76 73 77 67 78
REMARK SMILES IDX 68 79 71 80 69 81 48 82 49 83 57 84 50 85 51 86 55 87 58 88
REMARK SMILES IDX 52 89 53 90 56 91 54 92
REMARK H PARENT 14 5 9 14 19 26 78 45 46 56
REMARK Flexibility Score: inf
ROOT
ATOM      1  C   UNL A   1      32.849  30.010  26.378  1.00  0.00     0.116 C 
ENDROOT
BRANCH   1   2
ATOM      2  N   UNL A   1      33.615  29.668  25.199  1.00  0.00    -0.356 N 
ATOM      3  C   UNL A   1      33.427  28.643  24.326  1.00  0.00     0.222 C 
ATOM      4  O   UNL A   1      34.326  28.390  23.521  1.00  0.00    -0.275 OA
ATOM      5  H   UNL A   1      34.377  30.258  25.002  1.00  0.00     0.163 HD
BRANCH   3   6
ATOM      6  C   UNL A   1      32.163  27.803  24.343  1.00  0.00     0.128 C 
BRANCH   6   7
ATOM      7  C   UNL A   1      31.371  27.739  23.012  1.00  0.00     0.049 C 
ATOM      8  C   UNL A   1      30.847  29.133  22.556  1.00  0.00     0.029 C 
ATOM      9  C   UNL A   1      29.900  27.325  23.235  1.00  0.00     0.029 C 
ATOM     10  C   UNL A   1      29.461  28.784  23.105  1.00  0.00     0.005 C 
BRANCH   7  11
ATOM     11  N   UNL A   1      32.207  27.080  21.974  1.00  0.00    -0.349 N 
ATOM     12  C   UNL A   1      32.581  25.810  21.655  1.00  0.00     0.230 C 
ATOM     13  O   UNL A   1      33.134  25.672  20.555  1.00  0.00    -0.274 OA
ATOM     14  H   UNL A   1      32.592  27.736  21.350  1.00  0.00     0.164 HD
BRANCH  12  15
ATOM     15  C   UNL A   1      32.320  24.589  22.501  1.00  0.00     0.169 C 
BRANCH  15  16
ATOM     16  S   UNL A   1      33.669  23.382  22.655  1.00  0.00    -0.146 SA
BRANCH  16  17
ATOM     17  C   UNL A   1      33.513  22.562  24.303  1.00  0.00     0.008 C 
ATOM     18  C   UNL A   1      34.884  21.876  24.483  1.00  0.00     0.022 C 
ATOM     19  C   UNL A   1      32.421  21.498  24.414  1.00  0.00     0.022 C 
ATOM     20  C   UNL A   1      33.334  23.614  25.400  1.00  0.00     0.022 C 
ENDBRANCH  16  17
ENDBRANCH  15  16
ENDBRANCH  12  15
ENDBRANCH   7  11
ENDBRANCH   6   7
ENDBRANCH   3   6
ENDBRANCH   1   2
BRANCH   1  21
ATOM     21  C   UNL A   1      31.607  30.816  26.000  1.00  0.00     0.023 C 
BRANCH  21  22
ATOM     22  C   UNL A   1      31.363  32.035  26.884  1.00  0.00     0.023 C 
BRANCH  22  23
ATOM     23  C   UNL A   1      32.620  32.811  27.237  1.00  0.00     0.116 C 
BRANCH  23  24
ATOM     24  N   UNL A   1      32.368  34.196  27.614  1.00  0.00    -0.352 N 
ATOM     25  C   UNL A   1      33.018  34.974  28.543  1.00  0.00     0.251 C 
ATOM     26  H   UNL A   1      31.629  34.636  27.135  1.00  0.00     0.163 HD
ATOM     27  O   UNL A   1      32.626  36.108  28.785  1.00  0.00    -0.269 OA
BRANCH  25  28
ATOM     28  C   UNL A   1      34.163  34.408  29.288  1.00  0.00     0.039 A 
ATOM     29  C   UNL A   1      33.912  33.643  30.429  1.00  0.00     0.014 A 
ATOM     30  C   UNL A   1      35.470  34.587  28.833  1.00  0.00     0.014 A 
ATOM     31  C   UNL A   1      34.966  32.986  31.064  1.00  0.00     0.010 A 
ATOM     32  C   UNL A   1      36.501  33.853  29.401  1.00  0.00     0.010 A 
ATOM     33  C   UNL A   1      36.261  33.049  30.526  1.00  0.00    -0.014 A 
BRANCH  33  34
ATOM     34  C   UNL A   1      37.391  32.296  31.124  1.00  0.00     0.031 A 
ATOM     35  C   UNL A   1      37.882  32.658  32.498  1.00  0.00     0.074 A 
ATOM     36  C   UNL A   1      38.026  31.355  30.398  1.00  0.00     0.049 A 
ATOM     37  N   UNL A   1      38.920  32.205  33.153  1.00  0.00    -0.248 NA
ATOM     38  C   UNL A   1      37.128  33.699  33.215  1.00  0.00     0.031 C 
ATOM     39  C   UNL A   1      37.681  30.962  29.031  1.00  0.00     0.029 A 
ATOM     40  N   UNL A   1      39.106  30.568  30.707  1.00  0.00    -0.354 N 
ATOM     41  C   UNL A   1      38.958  32.925  34.340  1.00  0.00     0.074 A 
ATOM     42  C   UNL A   1      37.877  33.884  34.291  1.00  0.00     0.031 C 
ATOM     43  C   UNL A   1      38.516  29.990  28.629  1.00  0.00     0.029 A 
ATOM     44  C   UNL A   1      39.476  29.718  29.694  1.00  0.00     0.049 A 
ATOM     45  H   UNL A   1      39.572  30.608  31.573  1.00  0.00     0.167 HD
ATOM     46  C   UNL A   1      39.801  32.778  35.388  1.00  0.00     0.037 A 
ATOM     47  C   UNL A   1      40.480  28.824  29.632  1.00  0.00     0.037 A 
ATOM     48  C   UNL A   1      40.842  31.789  35.450  1.00  0.00     0.049 A 
ATOM     49  C   UNL A   1      41.384  28.659  30.823  1.00  0.00     0.074 A 
ATOM     50  C   UNL A   1      41.705  31.506  36.494  1.00  0.00     0.029 A 
ATOM     51  N   UNL A   1      41.158  30.914  34.421  1.00  0.00    -0.354 N 
ATOM     52  N   UNL A   1      41.368  29.296  31.969  1.00  0.00    -0.248 NA
ATOM     53  C   UNL A   1      42.441  27.643  30.717  1.00  0.00     0.031 C 
ATOM     54  C   UNL A   1      42.566  30.483  36.084  1.00  0.00     0.029 A 
ATOM     55  C   UNL A   1      42.211  30.099  34.800  1.00  0.00     0.049 A 
ATOM     56  H   UNL A   1      40.702  30.878  33.550  1.00  0.00     0.167 HD
ATOM     57  C   UNL A   1      42.390  28.744  32.728  1.00  0.00     0.074 A 
ATOM     58  C   UNL A   1      42.998  27.708  31.918  1.00  0.00     0.031 C 
ATOM     59  C   UNL A   1      42.792  29.065  33.981  1.00  0.00     0.037 A 
BRANCH  46  60
ATOM     60  C   UNL A   1      39.619  33.701  36.557  1.00  0.00     0.064 A 
ATOM     61  C   UNL A   1      40.234  34.962  36.603  1.00  0.00     0.173 A 
ATOM     62  C   UNL A   1      38.802  33.332  37.637  1.00  0.00     0.173 A 
ATOM     63  F   UNL A   1      41.036  35.358  35.603  1.00  0.00    -0.203 F 
ATOM     64  C   UNL A   1      40.065  35.804  37.699  1.00  0.00     0.198 A 
ATOM     65  C   UNL A   1      38.611  34.190  38.717  1.00  0.00     0.198 A 
ATOM     66  F   UNL A   1      38.188  32.139  37.644  1.00  0.00    -0.203 F 
ATOM     67  F   UNL A   1      40.707  36.979  37.743  1.00  0.00    -0.200 F 
ATOM     68  C   UNL A   1      39.248  35.420  38.751  1.00  0.00     0.200 A 
ATOM     69  F   UNL A   1      37.813  33.821  39.729  1.00  0.00    -0.200 F 
ATOM     70  F   UNL A   1      39.083  36.233  39.803  1.00  0.00    -0.200 F 
ENDBRANCH  46  60
BRANCH  47  71
ATOM     71  C   UNL A   1      40.660  27.990  28.415  1.00  0.00     0.064 A 
ATOM     72  C   UNL A   1      41.446  28.443  27.346  1.00  0.00     0.173 A 
ATOM     73  C   UNL A   1      40.055  26.730  28.294  1.00  0.00     0.173 A 
ATOM     74  F   UNL A   1      42.029  29.649  27.408  1.00  0.00    -0.203 F 
ATOM     75  C   UNL A   1      41.603  27.677  26.193  1.00  0.00     0.198 A 
ATOM     76  C   UNL A   1      40.235  25.954  27.151  1.00  0.00     0.198 A 
ATOM     77  F   UNL A   1      39.299  26.249  29.291  1.00  0.00    -0.203 F 
ATOM     78  F   UNL A   1      42.324  28.153  25.169  1.00  0.00    -0.200 F 
ATOM     79  C   UNL A   1      41.002  26.431  26.098  1.00  0.00     0.200 A 
ATOM     80  F   UNL A   1      39.664  24.745  27.068  1.00  0.00    -0.200 F 
ATOM     81  F   UNL A   1      41.156  25.694  24.990  1.00  0.00    -0.200 F 
ENDBRANCH  47  71
BRANCH  59  82
ATOM     82  C   UNL A   1      43.916  28.265  34.569  1.00  0.00     0.064 A 
ATOM     83  C   UNL A   1      43.682  27.064  35.253  1.00  0.00     0.173 A 
ATOM     84  C   UNL A   1      45.244  28.684  34.406  1.00  0.00     0.173 A 
ATOM     85  F   UNL A   1      42.427  26.630  35.448  1.00  0.00    -0.203 F 
ATOM     86  C   UNL A   1      44.739  26.321  35.773  1.00  0.00     0.198 A 
ATOM     87  C   UNL A   1      46.300  27.924  34.901  1.00  0.00     0.198 A 
ATOM     88  F   UNL A   1      45.520  29.823  33.753  1.00  0.00    -0.203 F 
ATOM     89  F   UNL A   1      44.492  25.198  36.460  1.00  0.00    -0.200 F 
ATOM     90  C   UNL A   1      46.046  26.748  35.589  1.00  0.00     0.200 A 
ATOM     91  F   UNL A   1      47.563  28.331  34.712  1.00  0.00    -0.200 F 
ATOM     92  F   UNL A   1      47.063  26.026  36.083  1.00  0.00    -0.200 F 
ENDBRANCH  59  82
ENDBRANCH  33  34
ENDBRANCH  25  28
ENDBRANCH  23  24
ENDBRANCH  22  23
ENDBRANCH  21  22
ENDBRANCH   1  21
TORSDOF 16
ENDMDL
MODEL 2
REMARK VINA RESULT:     -11.4      5.665     10.009
REMARK SMILES CC(C)(C)SCC(=O)NC1(CC(=O)NCCCCNC(=O)c2ccc(-c3c4nc(c(-c5c(F)c(F)c(F)c(F)c5F)c5ccc([nH]5)c(-c5c(F)c(F)c(F)c(F)c5F)c5nc(c(-c6c(F)c(F)c(F)c(F)c6F)c6ccc3[nH]6)C=C5)C=C4)cc2)CCC1
REMARK SMILES IDX 15 1 14 2 12 3 13 4 11 6 10 7 85 8 87 9 86 10 9 11 7 12 8 13
REMARK SMILES IDX 6 15 5 16 2 17 1 18 3 19 4 20 16 21 17 22 18 23 19 24 20 25
REMARK SMILES IDX 21 27 22 28 23 29 84 30 24 31 83 32 25 33 26 34 27 35 77 36
REMARK SMILES IDX 28 37 82 38 76 39 78 40 29 41 81 42 75 43 74 44 30 46 62 47
REMARK SMILES IDX 42 48 61 49 43 50 46 51 60 52 79 53 44 54 45 55 59 57 80 58
REMARK SMILES IDX 47 59 31 60 32 61 40 62 33 63 34 64 38 65 41 66 35 67 36 68
REMARK SMILES IDX 39 69 37 70 63 71 64 72 72 73 65 74 66 75 70 76 73 77 67 78
REMARK SMILES IDX 68 79 71 80 69 81 48 82 49 83 57 84 50 85 51 86 55 87 58 88
REMARK SMILES IDX 52 89 53 90 56 91 54 92
REMARK H PARENT 14 5 9 14 19 26 78 45 46 56
REMARK Flexibility Score: inf
ROOT
ATOM      1  C   UNL A   1      37.263  22.353  25.570  1.00  0.00     0.116 C 
ENDROOT
BRANCH   1   2
ATOM      2  N   UNL A   1      36.158  22.242  26.498  1.00  0.00    -0.356 N 
ATOM      3  C   UNL A   1      35.050  23.022  26.603  1.00  0.00     0.222 C 
ATOM      4  O   UNL A   1      34.345  22.899  27.608  1.00  0.00    -0.275 OA
ATOM      5  H   UNL A   1      36.218  21.500  27.142  1.00  0.00     0.163 HD
BRANCH   3   6
ATOM      6  C   UNL A   1      34.687  24.039  25.538  1.00  0.00     0.128 C 
BRANCH   6   7
ATOM      7  C   UNL A   1      33.382  23.760  24.748  1.00  0.00     0.049 C 
ATOM      8  C   UNL A   1      33.460  22.459  23.895  1.00  0.00     0.029 C 
ATOM      9  C   UNL A   1      33.328  24.554  23.424  1.00  0.00     0.029 C 
ATOM     10  C   UNL A   1      33.738  23.301  22.648  1.00  0.00     0.005 C 
BRANCH   7  11
ATOM     11  N   UNL A   1      32.230  23.753  25.688  1.00  0.00    -0.349 N 
ATOM     12  C   UNL A   1      31.465  24.678  26.333  1.00  0.00     0.230 C 
ATOM     13  O   UNL A   1      30.441  24.243  26.879  1.00  0.00    -0.274 OA
ATOM     14  H   UNL A   1      31.943  22.837  25.901  1.00  0.00     0.164 HD
BRANCH  12  15
ATOM     15  C   UNL A   1      31.743  26.159  26.374  1.00  0.00     0.169 C 
BRANCH  15  16
ATOM     16  S   UNL A   1      31.106  27.160  24.999  1.00  0.00    -0.146 SA
BRANCH  16  17
ATOM     17  C   UNL A   1      32.347  28.479  24.633  1.00  0.00     0.008 C 
ATOM     18  C   UNL A   1      31.775  29.711  25.365  1.00  0.00     0.022 C 
ATOM     19  C   UNL A   1      32.524  28.832  23.155  1.00  0.00     0.022 C 
ATOM     20  C   UNL A   1      33.700  28.115  25.251  1.00  0.00     0.022 C 
ENDBRANCH  16  17
ENDBRANCH  15  16
ENDBRANCH  12  15
ENDBRANCH   7  11
ENDBRANCH   6   7
ENDBRANCH   3   6
ENDBRANCH   1   2
BRANCH   1  21
ATOM     21  C   UNL A   1      37.228  21.214  24.551  1.00  0.00     0.023 C 
BRANCH  21  22
ATOM     22  C   UNL A   1      38.024  19.980  24.968  1.00  0.00     0.023 C 
BRANCH  22  23
ATOM     23  C   UNL A   1      39.280  20.290  25.765  1.00  0.00     0.116 C 
BRANCH  23  24
ATOM     24  N   UNL A   1      40.208  19.170  25.854  1.00  0.00    -0.352 N 
ATOM     25  C   UNL A   1      41.556  19.179  26.127  1.00  0.00     0.251 C 
ATOM     26  H   UNL A   1      39.814  18.281  25.697  1.00  0.00     0.163 HD
ATOM     27  O   UNL A   1      42.203  18.141  26.093  1.00  0.00    -0.269 OA
BRANCH  25  28
ATOM     28  C   UNL A   1      42.229  20.466  26.409  1.00  0.00     0.039 A 
ATOM     29  C   UNL A   1      42.683  21.237  25.336  1.00  0.00     0.014 A 
ATOM     30  C   UNL A   1      42.361  20.931  27.718  1.00  0.00     0.014 A 
ATOM     31  C   UNL A   1      43.193  22.514  25.574  1.00  0.00     0.010 A 
ATOM     32  C   UNL A   1      42.771  22.237  27.944  1.00  0.00     0.010 A 
ATOM     33  C   UNL A   1      43.196  23.040  26.875  1.00  0.00    -0.014 A 
BRANCH  33  34
ATOM     34  C   UNL A   1      43.651  24.425  27.154  1.00  0.00     0.031 A 
ATOM     35  C   UNL A   1      42.672  25.439  27.674  1.00  0.00     0.074 A 
ATOM     36  C   UNL A   1      44.914  24.787  26.854  1.00  0.00     0.049 A 
ATOM     37  N   UNL A   1      42.834  26.722  27.874  1.00  0.00    -0.248 NA
ATOM     38  C   UNL A   1      41.314  24.955  27.969  1.00  0.00     0.031 C 
ATOM     39  C   UNL A   1      45.937  23.907  26.285  1.00  0.00     0.029 A 
ATOM     40  N   UNL A   1      45.548  25.998  26.975  1.00  0.00    -0.354 N 
ATOM     41  C   UNL A   1      41.597  27.197  28.288  1.00  0.00     0.074 A 
ATOM     42  C   UNL A   1      40.679  26.081  28.256  1.00  0.00     0.031 C 
ATOM     43  C   UNL A   1      47.076  24.600  26.131  1.00  0.00     0.029 A 
ATOM     44  C   UNL A   1      46.855  25.979  26.554  1.00  0.00     0.049 A 
ATOM     45  H   UNL A   1      45.107  26.803  27.329  1.00  0.00     0.167 HD
ATOM     46  C   UNL A   1      41.265  28.447  28.689  1.00  0.00     0.037 A 
ATOM     47  C   UNL A   1      47.769  26.966  26.513  1.00  0.00     0.037 A 
ATOM     48  C   UNL A   1      42.195  29.540  28.765  1.00  0.00     0.049 A 
ATOM     49  C   UNL A   1      47.382  28.338  26.993  1.00  0.00     0.074 A 
ATOM     50  C   UNL A   1      41.980  30.827  29.227  1.00  0.00     0.029 A 
ATOM     51  N   UNL A   1      43.524  29.471  28.374  1.00  0.00    -0.354 N 
ATOM     52  N   UNL A   1      46.228  28.761  27.449  1.00  0.00    -0.248 NA
ATOM     53  C   UNL A   1      48.428  29.370  26.960  1.00  0.00     0.031 C 
ATOM     54  C   UNL A   1      43.170  31.547  29.082  1.00  0.00     0.029 A 
ATOM     55  C   UNL A   1      44.138  30.696  28.571  1.00  0.00     0.049 A 
ATOM     56  H   UNL A   1      43.965  28.671  28.009  1.00  0.00     0.167 HD
ATOM     57  C   UNL A   1      46.414  30.095  27.782  1.00  0.00     0.074 A 
ATOM     58  C   UNL A   1      47.798  30.409  27.489  1.00  0.00     0.031 C 
ATOM     59  C   UNL A   1      45.521  30.983  28.284  1.00  0.00     0.037 A 
BRANCH  46  60
ATOM     60  C   UNL A   1      39.838  28.689  29.087  1.00  0.00     0.064 A 
ATOM     61  C   UNL A   1      38.874  29.107  28.156  1.00  0.00     0.173 A 
ATOM     62  C   UNL A   1      39.423  28.481  30.411  1.00  0.00     0.173 A 
ATOM     63  F   UNL A   1      39.223  29.335  26.880  1.00  0.00    -0.203 F 
ATOM     64  C   UNL A   1      37.557  29.339  28.542  1.00  0.00     0.198 A 
ATOM     65  C   UNL A   1      38.097  28.684  30.787  1.00  0.00     0.198 A 
ATOM     66  F   UNL A   1      40.302  28.079  31.341  1.00  0.00    -0.203 F 
ATOM     67  F   UNL A   1      36.668  29.791  27.646  1.00  0.00    -0.200 F 
ATOM     68  C   UNL A   1      37.168  29.120  29.855  1.00  0.00     0.200 A 
ATOM     69  F   UNL A   1      37.721  28.463  32.054  1.00  0.00    -0.200 F 
ATOM     70  F   UNL A   1      35.899  29.340  30.224  1.00  0.00    -0.200 F 
ENDBRANCH  46  60
BRANCH  47  71
ATOM     71  C   UNL A   1      49.147  26.684  26.034  1.00  0.00     0.064 A 
ATOM     72  C   UNL A   1      49.518  26.967  24.712  1.00  0.00     0.173 A 
ATOM     73  C   UNL A   1      50.118  26.130  26.881  1.00  0.00     0.173 A 
ATOM     74  F   UNL A   1      48.619  27.479  23.860  1.00  0.00    -0.203 F 
ATOM     75  C   UNL A   1      50.802  26.686  24.249  1.00  0.00     0.198 A 
ATOM     76  C   UNL A   1      51.410  25.875  26.424  1.00  0.00     0.198 A 
ATOM     77  F   UNL A   1      49.815  25.848  28.156  1.00  0.00    -0.203 F 
ATOM     78  F   UNL A   1      51.117  26.926  22.968  1.00  0.00    -0.200 F 
ATOM     79  C   UNL A   1      51.748  26.146  25.106  1.00  0.00     0.200 A 
ATOM     80  F   UNL A   1      52.325  25.366  27.259  1.00  0.00    -0.200 F 
ATOM     81  F   UNL A   1      52.983  25.880  24.661  1.00  0.00    -0.200 F 
ENDBRANCH  47  71
BRANCH  59  82
ATOM     82  C   UNL A   1      46.019  32.365  28.583  1.00  0.00     0.064 A 
ATOM     83  C   UNL A   1      45.939  33.395  27.635  1.00  0.00     0.173 A 
ATOM     84  C   UNL A   1      46.542  32.670  29.848  1.00  0.00     0.173 A 
ATOM     85  F   UNL A   1      45.461  33.147  26.406  1.00  0.00    -0.203 F 
ATOM     86  C   UNL A   1      46.385  34.679  27.937  1.00  0.00     0.198 A 
ATOM     87  C   UNL A   1      46.960  33.962  30.156  1.00  0.00     0.198 A 
ATOM     88  F   UNL A   1      46.633  31.721  30.790  1.00  0.00    -0.203 F 
ATOM     89  F   UNL A   1      46.339  35.639  27.004  1.00  0.00    -0.200 F 
ATOM     90  C   UNL A   1      46.888  34.962  29.199  1.00  0.00     0.200 A 
ATOM     91  F   UNL A   1      47.433  34.237  31.379  1.00  0.00    -0.200 F 
ATOM     92  F   UNL A   1      47.308  36.201  29.491  1.00  0.00    -0.200 F 
ENDBRANCH  59  82
ENDBRANCH  33  34
ENDBRANCH  25  28
ENDBRANCH  23  24
ENDBRANCH  22  23
ENDBRANCH  21  22
ENDBRANCH   1  21
TORSDOF 16
ENDMDL
MODEL 3
REMARK VINA RESULT:     -11.4      1.298      3.094
REMARK SMILES CC(C)(C)SCC(=O)NC1(CC(=O)NCCCCNC(=O)c2ccc(-c3c4nc(c(-c5c(F)c(F)c(F)c(F)c5F)c5ccc([nH]5)c(-c5c(F)c(F)c(F)c(F)c5F)c5nc(c(-c6c(F)c(F)c(F)c(F)c6F)c6ccc3[nH]6)C=C5)C=C4)cc2)CCC1
REMARK SMILES IDX 15 1 14 2 12 3 13 4 11 6 10 7 85 8 87 9 86 10 9 11 7 12 8 13
REMARK SMILES IDX 6 15 5 16 2 17 1 18 3 19 4 20 16 21 17 22 18 23 19 24 20 25
REMARK SMILES IDX 21 27 22 28 23 29 84 30 24 31 83 32 25 33 26 34 27 35 77 36
REMARK SMILES IDX 28 37 82 38 76 39 78 40 29 41 81 42 75 43 74 44 30 46 62 47
REMARK SMILES IDX 42 48 61 49 43 50 46 51 60 52 79 53 44 54 45 55 59 57 80 58
REMARK SMILES IDX 47 59 31 60 32 61 40 62 33 63 34 64 38 65 41 66 35 67 36 68
REMARK SMILES IDX 39 69 37 70 63 71 64 72 72 73 65 74 66 75 70 76 73 77 67 78
REMARK SMILES IDX 68 79 71 80 69 81 48 82 49 83 57 84 50 85 51 86 55 87 58 88
REMARK SMILES IDX 52 89 53 90 56 91 54 92
REMARK H PARENT 14 5 9 14 19 26 78 45 46 56
REMARK Flexibility Score: inf
ROOT
ATOM      1  C   UNL A   1      32.597  29.830  27.206  1.00  0.00     0.116 C 
ENDROOT
BRANCH   1   2
ATOM      2  N   UNL A   1      33.423  28.899  26.466  1.00  0.00    -0.356 N 
ATOM      3  C   UNL A   1      33.217  27.576  26.232  1.00  0.00     0.222 C 
ATOM      4  O   UNL A   1      34.153  26.912  25.779  1.00  0.00    -0.275 OA
ATOM      5  H   UNL A   1      34.246  29.275  26.080  1.00  0.00     0.163 HD
BRANCH   3   6
ATOM      6  C   UNL A   1      31.889  26.909  26.537  1.00  0.00     0.128 C 
BRANCH   6   7
ATOM      7  C   UNL A   1      31.468  25.763  25.580  1.00  0.00     0.049 C 
ATOM      8  C   UNL A   1      30.012  25.272  25.832  1.00  0.00     0.029 C 
ATOM      9  C   UNL A   1      31.955  24.385  26.081  1.00  0.00     0.029 C 
ATOM     10  C   UNL A   1      30.557  24.077  26.618  1.00  0.00     0.005 C 
BRANCH   7  11
ATOM     11  N   UNL A   1      31.686  26.192  24.173  1.00  0.00    -0.349 N 
ATOM     12  C   UNL A   1      31.114  27.064  23.297  1.00  0.00     0.230 C 
ATOM     13  O   UNL A   1      31.751  27.277  22.256  1.00  0.00    -0.274 OA
ATOM     14  H   UNL A   1      32.448  25.720  23.766  1.00  0.00     0.164 HD
BRANCH  12  15
ATOM     15  C   UNL A   1      29.826  27.811  23.533  1.00  0.00     0.169 C 
BRANCH  15  16
ATOM     16  S   UNL A   1      29.852  29.610  23.284  1.00  0.00    -0.146 SA
BRANCH  16  17
ATOM     17  C   UNL A   1      28.169  30.133  22.730  1.00  0.00     0.008 C 
ATOM     18  C   UNL A   1      27.302  28.892  23.028  1.00  0.00     0.022 C 
ATOM     19  C   UNL A   1      28.036  30.472  21.245  1.00  0.00     0.022 C 
ATOM     20  C   UNL A   1      27.674  31.304  23.582  1.00  0.00     0.022 C 
ENDBRANCH  16  17
ENDBRANCH  15  16
ENDBRANCH  12  15
ENDBRANCH   7  11
ENDBRANCH   6   7
ENDBRANCH   3   6
ENDBRANCH   1   2
BRANCH   1  21
ATOM     21  C   UNL A   1      31.744  30.668  26.255  1.00  0.00     0.023 C 
BRANCH  21  22
ATOM     22  C   UNL A   1      31.452  32.079  26.759  1.00  0.00     0.023 C 
BRANCH  22  23
ATOM     23  C   UNL A   1      32.678  32.833  27.244  1.00  0.00     0.116 C 
BRANCH  23  24
ATOM     24  N   UNL A   1      32.398  34.203  27.654  1.00  0.00    -0.352 N 
ATOM     25  C   UNL A   1      33.024  34.967  28.611  1.00  0.00     0.251 C 
ATOM     26  H   UNL A   1      31.657  34.644  27.178  1.00  0.00     0.163 HD
ATOM     27  O   UNL A   1      32.611  36.087  28.879  1.00  0.00    -0.269 OA
BRANCH  25  28
ATOM     28  C   UNL A   1      34.170  34.400  29.355  1.00  0.00     0.039 A 
ATOM     29  C   UNL A   1      33.919  33.621  30.486  1.00  0.00     0.014 A 
ATOM     30  C   UNL A   1      35.477  34.593  28.907  1.00  0.00     0.014 A 
ATOM     31  C   UNL A   1      34.976  32.964  31.118  1.00  0.00     0.010 A 
ATOM     32  C   UNL A   1      36.511  33.859  29.471  1.00  0.00     0.010 A 
ATOM     33  C   UNL A   1      36.272  33.041  30.586  1.00  0.00    -0.014 A 
BRANCH  33  34
ATOM     34  C   UNL A   1      37.404  32.288  31.180  1.00  0.00     0.031 A 
ATOM     35  C   UNL A   1      37.897  32.647  32.554  1.00  0.00     0.074 A 
ATOM     36  C   UNL A   1      38.039  31.350  30.451  1.00  0.00     0.049 A 
ATOM     37  N   UNL A   1      38.937  32.195  33.206  1.00  0.00    -0.248 NA
ATOM     38  C   UNL A   1      37.143  33.686  33.275  1.00  0.00     0.031 C 
ATOM     39  C   UNL A   1      37.693  30.959  29.083  1.00  0.00     0.029 A 
ATOM     40  N   UNL A   1      39.122  30.564  30.757  1.00  0.00    -0.354 N 
ATOM     41  C   UNL A   1      38.976  32.912  34.395  1.00  0.00     0.074 A 
ATOM     42  C   UNL A   1      37.893  33.870  34.350  1.00  0.00     0.031 C 
ATOM     43  C   UNL A   1      38.528  29.990  28.678  1.00  0.00     0.029 A 
ATOM     44  C   UNL A   1      39.491  29.718  29.740  1.00  0.00     0.049 A 
ATOM     45  H   UNL A   1      39.589  30.603  31.622  1.00  0.00     0.167 HD
ATOM     46  C   UNL A   1      39.822  32.765  35.441  1.00  0.00     0.037 A 
ATOM     47  C   UNL A   1      40.497  28.825  29.675  1.00  0.00     0.037 A 
ATOM     48  C   UNL A   1      40.865  31.777  35.498  1.00  0.00     0.049 A 
ATOM     49  C   UNL A   1      41.403  28.658  30.864  1.00  0.00     0.074 A 
ATOM     50  C   UNL A   1      41.730  31.493  36.541  1.00  0.00     0.029 A 
ATOM     51  N   UNL A   1      41.180  30.906  34.467  1.00  0.00    -0.354 N 
ATOM     52  N   UNL A   1      41.388  29.293  32.011  1.00  0.00    -0.248 NA
ATOM     53  C   UNL A   1      42.462  27.645  30.753  1.00  0.00     0.031 C 
ATOM     54  C   UNL A   1      42.592  30.473  36.126  1.00  0.00     0.029 A 
ATOM     55  C   UNL A   1      42.235  30.091  34.842  1.00  0.00     0.049 A 
ATOM     56  H   UNL A   1      40.722  30.870  33.597  1.00  0.00     0.167 HD
ATOM     57  C   UNL A   1      42.412  28.741  32.767  1.00  0.00     0.074 A 
ATOM     58  C   UNL A   1      43.021  27.708  31.953  1.00  0.00     0.031 C 
ATOM     59  C   UNL A   1      42.816  29.060  34.020  1.00  0.00     0.037 A 
BRANCH  46  60
ATOM     60  C   UNL A   1      39.640  33.685  36.613  1.00  0.00     0.064 A 
ATOM     61  C   UNL A   1      38.846  33.327  37.714  1.00  0.00     0.173 A 
ATOM     62  C   UNL A   1      40.283  34.931  36.647  1.00  0.00     0.173 A 
ATOM     63  F   UNL A   1      38.196  32.153  37.724  1.00  0.00    -0.203 F 
ATOM     64  C   UNL A   1      38.676  34.195  38.789  1.00  0.00     0.198 A 
ATOM     65  C   UNL A   1      40.137  35.783  37.739  1.00  0.00     0.198 A 
ATOM     66  F   UNL A   1      41.057  35.322  35.623  1.00  0.00    -0.203 F 
ATOM     67  F   UNL A   1      37.869  33.854  39.803  1.00  0.00    -0.200 F 
ATOM     68  C   UNL A   1      39.328  35.419  38.804  1.00  0.00     0.200 A 
ATOM     69  F   UNL A   1      40.775  36.962  37.756  1.00  0.00    -0.200 F 
ATOM     70  F   UNL A   1      39.167  36.252  39.841  1.00  0.00    -0.200 F 
ENDBRANCH  46  60
BRANCH  47  71
ATOM     71  C   UNL A   1      40.676  27.994  28.456  1.00  0.00     0.064 A 
ATOM     72  C   UNL A   1      40.064  26.737  28.349  1.00  0.00     0.173 A 
ATOM     73  C   UNL A   1      41.456  28.435  27.377  1.00  0.00     0.173 A 
ATOM     74  F   UNL A   1      39.324  26.265  29.363  1.00  0.00    -0.203 F 
ATOM     75  C   UNL A   1      40.244  25.942  27.219  1.00  0.00     0.198 A 
ATOM     76  C   UNL A   1      41.613  27.650  26.236  1.00  0.00     0.198 A 
ATOM     77  F   UNL A   1      42.057  29.632  27.427  1.00  0.00    -0.203 F 
ATOM     78  F   UNL A   1      39.683  24.726  27.162  1.00  0.00    -0.200 F 
ATOM     79  C   UNL A   1      41.013  26.401  26.161  1.00  0.00     0.200 A 
ATOM     80  F   UNL A   1      42.346  28.102  25.210  1.00  0.00    -0.200 F 
ATOM     81  F   UNL A   1      41.183  25.639  25.073  1.00  0.00    -0.200 F 
ENDBRANCH  47  71
BRANCH  59  82
ATOM     82  C   UNL A   1      43.943  28.261  34.604  1.00  0.00     0.064 A 
ATOM     83  C   UNL A   1      43.710  27.067  35.302  1.00  0.00     0.173 A 
ATOM     84  C   UNL A   1      45.271  28.673  34.423  1.00  0.00     0.173 A 
ATOM     85  F   UNL A   1      42.456  26.641  35.513  1.00  0.00    -0.203 F 
ATOM     86  C   UNL A   1      44.770  26.325  35.817  1.00  0.00     0.198 A 
ATOM     87  C   UNL A   1      46.329  27.913  34.915  1.00  0.00     0.198 A 
ATOM     88  F   UNL A   1      45.545  29.804  33.757  1.00  0.00    -0.203 F 
ATOM     89  F   UNL A   1      44.524  25.209  36.518  1.00  0.00    -0.200 F 
ATOM     90  C   UNL A   1      46.076  26.744  35.617  1.00  0.00     0.200 A 
ATOM     91  F   UNL A   1      47.591  28.312  34.709  1.00  0.00    -0.200 F 
ATOM     92  F   UNL A   1      47.095  26.023  36.107  1.00  0.00    -0.200 F 
ENDBRANCH  59  82
ENDBRANCH  33  34
ENDBRANCH  25  28
ENDBRANCH  23  24
ENDBRANCH  22  23
ENDBRANCH  21  22
ENDBRANCH   1  21
TORSDOF 16
ENDMDL
