MODEL 1
REMARK VINA RESULT:     -12.9      0.000      0.000
REMARK SMILES Cc1cccc(Nc2ccccc2C(=O)NCCCCNC(=O)c2ccc(-c3c4nc(c(-c5c(F)c(F)c(F)c(F)c5F)c5ccc([nH]5)c(-c5c(F)c(F)c(F)c(F)c5F)c5nc(c(-c6c(F)c(F)c(F)c(F)c6F)c6ccc3[nH]6)C=C5)C=C4)cc2)c1C
REMARK SMILES IDX 18 1 17 2 16 3 14 4 15 5 13 7 8 8 9 9 10 10 12 11 11 12 7 13
REMARK SMILES IDX 6 15 1 16 2 17 3 18 87 19 4 20 88 21 5 22 19 23 20 24 21 25
REMARK SMILES IDX 22 26 23 28 24 29 25 30 86 31 26 32 85 33 27 34 28 35 29 36
REMARK SMILES IDX 79 37 30 38 84 39 78 40 80 41 31 42 83 43 77 44 76 45 32 47
REMARK SMILES IDX 64 48 44 49 63 50 45 51 48 52 62 53 81 54 46 55 47 56 61 58
REMARK SMILES IDX 82 59 49 60 33 61 34 62 42 63 35 64 36 65 40 66 43 67 37 68
REMARK SMILES IDX 38 69 41 70 39 71 65 72 66 73 74 74 67 75 68 76 72 77 75 78
REMARK SMILES IDX 69 79 70 80 73 81 71 82 50 83 51 84 59 85 52 86 53 87 57 88
REMARK SMILES IDX 60 89 54 90 55 91 58 92 56 93
REMARK H PARENT 16 6 7 14 21 27 80 46 48 57
REMARK Flexibility Score: inf
ROOT
ATOM      1  C   UNL A   1      32.169  27.536  27.054  1.00  0.00     0.023 C 
ENDROOT
BRANCH   1   2
ATOM      2  C   UNL A   1      32.098  26.162  26.401  1.00  0.00     0.116 C 
BRANCH   2   3
ATOM      3  N   UNL A   1      31.025  25.312  26.854  1.00  0.00    -0.352 N 
ATOM      4  C   UNL A   1      30.786  23.984  26.587  1.00  0.00     0.253 C 
ATOM      5  O   UNL A   1      29.892  23.437  27.241  1.00  0.00    -0.269 OA
ATOM      6  H   UNL A   1      30.366  25.747  27.442  1.00  0.00     0.163 HD
BRANCH   4   7
ATOM      7  C   UNL A   1      31.431  23.209  25.477  1.00  0.00     0.063 A 
ATOM      8  C   UNL A   1      31.230  23.322  24.086  1.00  0.00     0.051 A 
ATOM      9  C   UNL A   1      31.903  22.403  23.240  1.00  0.00     0.027 A 
ATOM     10  C   UNL A   1      32.803  21.457  23.728  1.00  0.00     0.002 A 
ATOM     11  C   UNL A   1      32.369  22.255  25.948  1.00  0.00     0.016 A 
ATOM     12  C   UNL A   1      33.055  21.398  25.087  1.00  0.00     0.001 A 
BRANCH   8  13
ATOM     13  N   UNL A   1      30.525  24.330  23.396  1.00  0.00    -0.355 N 
ATOM     14  H   UNL A   1      29.742  23.987  22.908  1.00  0.00     0.167 HD
BRANCH  13  15
ATOM     15  C   UNL A   1      30.695  25.723  23.248  1.00  0.00     0.042 A 
ATOM     16  C   UNL A   1      28.857  29.080  23.120  1.00  0.00     0.044 C 
ATOM     17  C   UNL A   1      29.927  28.026  23.018  1.00  0.00    -0.046 A 
ATOM     18  C   UNL A   1      31.183  28.393  22.511  1.00  0.00     0.004 A 
ATOM     19  C   UNL A   1      29.693  26.692  23.445  1.00  0.00    -0.025 A 
ATOM     20  C   UNL A   1      32.205  27.460  22.415  1.00  0.00     0.002 A 
ATOM     21  C   UNL A   1      28.399  26.371  24.153  1.00  0.00     0.047 C 
ATOM     22  C   UNL A   1      31.959  26.140  22.779  1.00  0.00     0.026 A 
ENDBRANCH  13  15
ENDBRANCH   8  13
ENDBRANCH   4   7
ENDBRANCH   2   3
ENDBRANCH   1   2
BRANCH   1  23
ATOM     23  C   UNL A   1      31.691  28.724  26.215  1.00  0.00     0.023 C 
BRANCH  23  24
ATOM     24  C   UNL A   1      32.714  29.805  25.856  1.00  0.00     0.116 C 
BRANCH  24  25
ATOM     25  N   UNL A   1      32.451  31.117  26.425  1.00  0.00    -0.352 N 
ATOM     26  C   UNL A   1      33.243  31.892  27.244  1.00  0.00     0.251 C 
ATOM     27  H   UNL A   1      31.579  31.509  26.190  1.00  0.00     0.163 HD
ATOM     28  O   UNL A   1      32.861  32.999  27.599  1.00  0.00    -0.269 OA
BRANCH  26  29
ATOM     29  C   UNL A   1      34.537  31.368  27.743  1.00  0.00     0.039 A 
ATOM     30  C   UNL A   1      35.587  32.271  27.943  1.00  0.00     0.014 A 
ATOM     31  C   UNL A   1      34.717  30.016  28.040  1.00  0.00     0.014 A 
ATOM     32  C   UNL A   1      36.774  31.836  28.539  1.00  0.00     0.010 A 
ATOM     33  C   UNL A   1      35.878  29.595  28.693  1.00  0.00     0.010 A 
ATOM     34  C   UNL A   1      36.910  30.506  28.968  1.00  0.00    -0.014 A 
BRANCH  34  35
ATOM     35  C   UNL A   1      38.098  30.086  29.760  1.00  0.00     0.031 A 
ATOM     36  C   UNL A   1      38.307  30.579  31.166  1.00  0.00     0.074 A 
ATOM     37  C   UNL A   1      39.028  29.297  29.183  1.00  0.00     0.049 A 
ATOM     38  N   UNL A   1      39.276  30.301  32.002  1.00  0.00    -0.248 NA
ATOM     39  C   UNL A   1      37.315  31.527  31.693  1.00  0.00     0.031 C 
ATOM     40  C   UNL A   1      38.991  28.824  27.798  1.00  0.00     0.029 A 
ATOM     41  N   UNL A   1      40.189  28.761  29.684  1.00  0.00    -0.354 N 
ATOM     42  C   UNL A   1      39.017  31.046  33.145  1.00  0.00     0.074 A 
ATOM     43  C   UNL A   1      37.825  31.822  32.882  1.00  0.00     0.031 C 
ATOM     44  C   UNL A   1      40.064  28.051  27.567  1.00  0.00     0.029 A 
ATOM     45  C   UNL A   1      40.876  27.990  28.778  1.00  0.00     0.049 A 
ATOM     46  H   UNL A   1      40.499  28.914  30.605  1.00  0.00     0.167 HD
ATOM     47  C   UNL A   1      39.701  31.063  34.315  1.00  0.00     0.037 A 
ATOM     48  C   UNL A   1      42.028  27.304  28.909  1.00  0.00     0.037 A 
ATOM     49  C   UNL A   1      40.868  30.265  34.590  1.00  0.00     0.049 A 
ATOM     50  C   UNL A   1      42.731  27.296  30.240  1.00  0.00     0.074 A 
ATOM     51  C   UNL A   1      41.574  30.148  35.775  1.00  0.00     0.029 A 
ATOM     52  N   UNL A   1      41.505  29.451  33.666  1.00  0.00    -0.354 N 
ATOM     53  N   UNL A   1      42.409  27.915  31.349  1.00  0.00    -0.248 NA
ATOM     54  C   UNL A   1      43.946  26.476  30.342  1.00  0.00     0.031 C 
ATOM     55  C   UNL A   1      42.663  29.298  35.557  1.00  0.00     0.029 A 
ATOM     56  C   UNL A   1      42.608  28.845  34.249  1.00  0.00     0.049 A 
ATOM     57  H   UNL A   1      41.216  29.322  32.733  1.00  0.00     0.167 HD
ATOM     58  C   UNL A   1      43.363  27.539  32.286  1.00  0.00     0.074 A 
ATOM     59  C   UNL A   1      44.260  26.617  31.621  1.00  0.00     0.031 C 
ATOM     60  C   UNL A   1      43.489  27.926  33.579  1.00  0.00     0.037 A 
BRANCH  47  61
ATOM     61  C   UNL A   1      39.201  31.964  35.406  1.00  0.00     0.064 A 
ATOM     62  C   UNL A   1      38.384  31.482  36.440  1.00  0.00     0.173 A 
ATOM     63  C   UNL A   1      39.604  33.308  35.459  1.00  0.00     0.173 A 
ATOM     64  F   UNL A   1      37.964  30.209  36.431  1.00  0.00    -0.203 F 
ATOM     65  C   UNL A   1      37.978  32.316  37.479  1.00  0.00     0.198 A 
ATOM     66  C   UNL A   1      39.218  34.131  36.514  1.00  0.00     0.198 A 
ATOM     67  F   UNL A   1      40.391  33.817  34.500  1.00  0.00    -0.203 F 
ATOM     68  F   UNL A   1      37.172  31.843  38.440  1.00  0.00    -0.200 F 
ATOM     69  C   UNL A   1      38.402  33.636  37.521  1.00  0.00     0.200 A 
ATOM     70  F   UNL A   1      39.640  35.402  36.560  1.00  0.00    -0.200 F 
ATOM     71  F   UNL A   1      38.023  34.432  38.530  1.00  0.00    -0.200 F 
ENDBRANCH  47  61
BRANCH  48  72
ATOM     72  C   UNL A   1      42.581  26.538  27.760  1.00  0.00     0.064 A 
ATOM     73  C   UNL A   1      43.498  27.123  26.875  1.00  0.00     0.173 A 
ATOM     74  C   UNL A   1      42.178  25.220  27.503  1.00  0.00     0.173 A 
ATOM     75  F   UNL A   1      43.899  28.388  27.068  1.00  0.00    -0.203 F 
ATOM     76  C   UNL A   1      43.962  26.432  25.758  1.00  0.00     0.198 A 
ATOM     77  C   UNL A   1      42.667  24.519  26.402  1.00  0.00     0.198 A 
ATOM     78  F   UNL A   1      41.308  24.611  28.322  1.00  0.00    -0.203 F 
ATOM     79  F   UNL A   1      44.789  27.038  24.895  1.00  0.00    -0.200 F 
ATOM     80  C   UNL A   1      43.549  25.130  25.523  1.00  0.00     0.200 A 
ATOM     81  F   UNL A   1      42.275  23.256  26.186  1.00  0.00    -0.200 F 
ATOM     82  F   UNL A   1      43.989  24.468  24.445  1.00  0.00    -0.200 F 
ENDBRANCH  48  72
BRANCH  60  83
ATOM     83  C   UNL A   1      44.620  27.327  34.364  1.00  0.00     0.064 A 
ATOM     84  C   UNL A   1      44.474  26.117  35.060  1.00  0.00     0.173 A 
ATOM     85  C   UNL A   1      45.867  27.968  34.415  1.00  0.00     0.173 A 
ATOM     86  F   UNL A   1      43.297  25.474  35.055  1.00  0.00    -0.203 F 
ATOM     87  C   UNL A   1      45.522  25.593  35.811  1.00  0.00     0.198 A 
ATOM     88  C   UNL A   1      46.923  27.423  35.140  1.00  0.00     0.198 A 
ATOM     89  F   UNL A   1      46.063  29.122  33.761  1.00  0.00    -0.203 F 
ATOM     90  F   UNL A   1      45.340  24.470  36.518  1.00  0.00    -0.200 F 
ATOM     91  C   UNL A   1      46.747  26.243  35.846  1.00  0.00     0.200 A 
ATOM     92  F   UNL A   1      48.110  28.046  35.162  1.00  0.00    -0.200 F 
ATOM     93  F   UNL A   1      47.755  25.738  36.571  1.00  0.00    -0.200 F 
ENDBRANCH  60  83
ENDBRANCH  34  35
ENDBRANCH  26  29
ENDBRANCH  24  25
ENDBRANCH  23  24
ENDBRANCH   1  23
TORSDOF 13
ENDMDL
MODEL 2
REMARK VINA RESULT:     -12.7      2.053      3.940
REMARK SMILES Cc1cccc(Nc2ccccc2C(=O)NCCCCNC(=O)c2ccc(-c3c4nc(c(-c5c(F)c(F)c(F)c(F)c5F)c5ccc([nH]5)c(-c5c(F)c(F)c(F)c(F)c5F)c5nc(c(-c6c(F)c(F)c(F)c(F)c6F)c6ccc3[nH]6)C=C5)C=C4)cc2)c1C
REMARK SMILES IDX 18 1 17 2 16 3 14 4 15 5 13 7 8 8 9 9 10 10 12 11 11 12 7 13
REMARK SMILES IDX 6 15 1 16 2 17 3 18 87 19 4 20 88 21 5 22 19 23 20 24 21 25
REMARK SMILES IDX 22 26 23 28 24 29 25 30 86 31 26 32 85 33 27 34 28 35 29 36
REMARK SMILES IDX 79 37 30 38 84 39 78 40 80 41 31 42 83 43 77 44 76 45 32 47
REMARK SMILES IDX 64 48 44 49 63 50 45 51 48 52 62 53 81 54 46 55 47 56 61 58
REMARK SMILES IDX 82 59 49 60 33 61 34 62 42 63 35 64 36 65 40 66 43 67 37 68
REMARK SMILES IDX 38 69 41 70 39 71 65 72 66 73 74 74 67 75 68 76 72 77 75 78
REMARK SMILES IDX 69 79 70 80 73 81 71 82 50 83 51 84 59 85 52 86 53 87 57 88
REMARK SMILES IDX 60 89 54 90 55 91 58 92 56 93
REMARK H PARENT 16 6 7 14 21 27 80 46 48 57
REMARK Flexibility Score: inf
ROOT
ATOM      1  C   UNL A   1      31.491  30.531  26.660  1.00  0.00     0.023 C 
ENDROOT
BRANCH   1   2
ATOM      2  C   UNL A   1      32.840  29.824  26.621  1.00  0.00     0.116 C 
BRANCH   2   3
ATOM      3  N   UNL A   1      33.412  29.647  25.310  1.00  0.00    -0.352 N 
ATOM      4  C   UNL A   1      32.877  29.047  24.193  1.00  0.00     0.253 C 
ATOM      5  O   UNL A   1      33.502  29.180  23.137  1.00  0.00    -0.269 OA
ATOM      6  H   UNL A   1      34.320  30.010  25.196  1.00  0.00     0.163 HD
BRANCH   4   7
ATOM      7  C   UNL A   1      31.683  28.139  24.204  1.00  0.00     0.063 A 
ATOM      8  C   UNL A   1      31.516  26.903  24.863  1.00  0.00     0.051 A 
ATOM      9  C   UNL A   1      30.310  26.189  24.642  1.00  0.00     0.027 A 
ATOM     10  C   UNL A   1      29.270  26.699  23.867  1.00  0.00     0.002 A 
ATOM     11  C   UNL A   1      30.602  28.649  23.441  1.00  0.00     0.016 A 
ATOM     12  C   UNL A   1      29.406  27.946  23.283  1.00  0.00     0.001 A 
BRANCH   8  13
ATOM     13  N   UNL A   1      32.359  26.324  25.835  1.00  0.00    -0.355 N 
ATOM     14  H   UNL A   1      32.363  26.821  26.685  1.00  0.00     0.167 HD
BRANCH  13  15
ATOM     15  C   UNL A   1      33.198  25.191  25.858  1.00  0.00     0.042 A 
ATOM     16  C   UNL A   1      33.681  21.713  27.386  1.00  0.00     0.044 C 
ATOM     17  C   UNL A   1      33.927  23.001  26.646  1.00  0.00    -0.046 A 
ATOM     18  C   UNL A   1      35.197  23.227  26.096  1.00  0.00     0.004 A 
ATOM     19  C   UNL A   1      32.896  23.964  26.480  1.00  0.00    -0.025 A 
ATOM     20  C   UNL A   1      35.464  24.391  25.391  1.00  0.00     0.002 A 
ATOM     21  C   UNL A   1      31.496  23.616  26.921  1.00  0.00     0.047 C 
ATOM     22  C   UNL A   1      34.474  25.361  25.277  1.00  0.00     0.026 A 
ENDBRANCH  13  15
ENDBRANCH   8  13
ENDBRANCH   4   7
ENDBRANCH   2   3
ENDBRANCH   1   2
BRANCH   1  23
ATOM     23  C   UNL A   1      31.509  32.058  26.544  1.00  0.00     0.023 C 
BRANCH  23  24
ATOM     24  C   UNL A   1      32.612  32.819  27.283  1.00  0.00     0.116 C 
BRANCH  24  25
ATOM     25  N   UNL A   1      32.255  34.164  27.707  1.00  0.00    -0.352 N 
ATOM     26  C   UNL A   1      32.914  35.016  28.568  1.00  0.00     0.251 C 
ATOM     27  H   UNL A   1      31.421  34.518  27.321  1.00  0.00     0.163 HD
ATOM     28  O   UNL A   1      32.472  36.137  28.779  1.00  0.00    -0.269 OA
BRANCH  26  29
ATOM     29  C   UNL A   1      34.129  34.558  29.283  1.00  0.00     0.039 A 
ATOM     30  C   UNL A   1      33.975  33.954  30.535  1.00  0.00     0.014 A 
ATOM     31  C   UNL A   1      35.403  34.690  28.727  1.00  0.00     0.014 A 
ATOM     32  C   UNL A   1      35.081  33.390  31.177  1.00  0.00     0.010 A 
ATOM     33  C   UNL A   1      36.496  34.070  29.337  1.00  0.00     0.010 A 
ATOM     34  C   UNL A   1      36.342  33.396  30.559  1.00  0.00    -0.014 A 
BRANCH  34  35
ATOM     35  C   UNL A   1      37.478  32.642  31.155  1.00  0.00     0.031 A 
ATOM     36  C   UNL A   1      38.009  32.987  32.519  1.00  0.00     0.074 A 
ATOM     37  C   UNL A   1      38.074  31.672  30.431  1.00  0.00     0.049 A 
ATOM     38  N   UNL A   1      38.981  32.424  33.193  1.00  0.00    -0.248 NA
ATOM     39  C   UNL A   1      37.389  34.130  33.204  1.00  0.00     0.031 C 
ATOM     40  C   UNL A   1      37.715  31.299  29.061  1.00  0.00     0.029 A 
ATOM     41  N   UNL A   1      39.112  30.827  30.741  1.00  0.00    -0.354 N 
ATOM     42  C   UNL A   1      39.095  33.148  34.373  1.00  0.00     0.074 A 
ATOM     43  C   UNL A   1      38.125  34.219  34.305  1.00  0.00     0.031 C 
ATOM     44  C   UNL A   1      38.502  30.288  28.659  1.00  0.00     0.029 A 
ATOM     45  C   UNL A   1      39.434  29.954  29.730  1.00  0.00     0.049 A 
ATOM     46  H   UNL A   1      39.581  30.845  31.606  1.00  0.00     0.167 HD
ATOM     47  C   UNL A   1      39.920  32.925  35.424  1.00  0.00     0.037 A 
ATOM     48  C   UNL A   1      40.370  28.987  29.674  1.00  0.00     0.037 A 
ATOM     49  C   UNL A   1      40.863  31.838  35.507  1.00  0.00     0.049 A 
ATOM     50  C   UNL A   1      41.230  28.727  30.882  1.00  0.00     0.074 A 
ATOM     51  C   UNL A   1      41.675  31.480  36.568  1.00  0.00     0.029 A 
ATOM     52  N   UNL A   1      41.122  30.938  34.484  1.00  0.00    -0.354 N 
ATOM     53  N   UNL A   1      41.246  29.347  32.036  1.00  0.00    -0.248 NA
ATOM     54  C   UNL A   1      42.188  27.616  30.785  1.00  0.00     0.031 C 
ATOM     55  C   UNL A   1      42.458  30.390  36.173  1.00  0.00     0.029 A 
ATOM     56  C   UNL A   1      42.098  30.037  34.884  1.00  0.00     0.049 A 
ATOM     57  H   UNL A   1      40.679  30.939  33.605  1.00  0.00     0.167 HD
ATOM     58  C   UNL A   1      42.192  28.688  32.810  1.00  0.00     0.074 A 
ATOM     59  C   UNL A   1      42.709  27.602  32.003  1.00  0.00     0.031 C 
ATOM     60  C   UNL A   1      42.599  28.959  34.074  1.00  0.00     0.037 A 
BRANCH  47  61
ATOM     61  C   UNL A   1      39.838  33.865  36.591  1.00  0.00     0.064 A 
ATOM     62  C   UNL A   1      40.520  35.091  36.596  1.00  0.00     0.173 A 
ATOM     63  C   UNL A   1      39.008  33.571  37.685  1.00  0.00     0.173 A 
ATOM     64  F   UNL A   1      41.332  35.415  35.580  1.00  0.00    -0.203 F 
ATOM     65  C   UNL A   1      40.387  35.981  37.659  1.00  0.00     0.198 A 
ATOM     66  C   UNL A   1      38.857  34.475  38.733  1.00  0.00     0.198 A 
ATOM     67  F   UNL A   1      38.328  32.416  37.726  1.00  0.00    -0.203 F 
ATOM     68  F   UNL A   1      41.073  37.132  37.657  1.00  0.00    -0.200 F 
ATOM     69  C   UNL A   1      39.548  35.677  38.722  1.00  0.00     0.200 A 
ATOM     70  F   UNL A   1      38.035  34.186  39.752  1.00  0.00    -0.200 F 
ATOM     71  F   UNL A   1      39.408  36.542  39.735  1.00  0.00    -0.200 F 
ENDBRANCH  47  61
BRANCH  48  72
ATOM     72  C   UNL A   1      40.531  28.167  28.443  1.00  0.00     0.064 A 
ATOM     73  C   UNL A   1      39.893  26.925  28.313  1.00  0.00     0.173 A 
ATOM     74  C   UNL A   1      41.352  28.591  27.389  1.00  0.00     0.173 A 
ATOM     75  F   UNL A   1      39.113  26.468  29.304  1.00  0.00    -0.203 F 
ATOM     76  C   UNL A   1      40.099  26.123  27.193  1.00  0.00     0.198 A 
ATOM     77  C   UNL A   1      41.533  27.801  26.255  1.00  0.00     0.198 A 
ATOM     78  F   UNL A   1      41.979  29.774  27.459  1.00  0.00    -0.203 F 
ATOM     79  F   UNL A   1      39.527  24.913  27.125  1.00  0.00    -0.200 F 
ATOM     80  C   UNL A   1      40.916  26.562  26.163  1.00  0.00     0.200 A 
ATOM     81  F   UNL A   1      42.313  28.235  25.256  1.00  0.00    -0.200 F 
ATOM     82  F   UNL A   1      41.121  25.788  25.090  1.00  0.00    -0.200 F 
ENDBRANCH  48  72
BRANCH  60  83
ATOM     83  C   UNL A   1      43.633  28.047  34.668  1.00  0.00     0.064 A 
ATOM     84  C   UNL A   1      43.277  26.859  35.326  1.00  0.00     0.173 A 
ATOM     85  C   UNL A   1      44.998  28.360  34.572  1.00  0.00     0.173 A 
ATOM     86  F   UNL A   1      41.985  26.523  35.458  1.00  0.00    -0.203 F 
ATOM     87  C   UNL A   1      44.246  26.042  35.902  1.00  0.00     0.198 A 
ATOM     88  C   UNL A   1      45.965  27.523  35.120  1.00  0.00     0.198 A 
ATOM     89  F   UNL A   1      45.393  29.478  33.946  1.00  0.00    -0.203 F 
ATOM     90  F   UNL A   1      43.878  24.947  36.580  1.00  0.00    -0.200 F 
ATOM     91  C   UNL A   1      45.589  26.371  35.793  1.00  0.00     0.200 A 
ATOM     92  F   UNL A   1      47.263  27.836  35.003  1.00  0.00    -0.200 F 
ATOM     93  F   UNL A   1      46.520  25.584  36.350  1.00  0.00    -0.200 F 
ENDBRANCH  60  83
ENDBRANCH  34  35
ENDBRANCH  26  29
ENDBRANCH  24  25
ENDBRANCH  23  24
ENDBRANCH   1  23
TORSDOF 13
ENDMDL
MODEL 3
REMARK VINA RESULT:     -12.7      2.170      8.206
REMARK SMILES Cc1cccc(Nc2ccccc2C(=O)NCCCCNC(=O)c2ccc(-c3c4nc(c(-c5c(F)c(F)c(F)c(F)c5F)c5ccc([nH]5)c(-c5c(F)c(F)c(F)c(F)c5F)c5nc(c(-c6c(F)c(F)c(F)c(F)c6F)c6ccc3[nH]6)C=C5)C=C4)cc2)c1C
REMARK SMILES IDX 18 1 17 2 16 3 14 4 15 5 13 7 8 8 9 9 10 10 12 11 11 12 7 13
REMARK SMILES IDX 6 15 1 16 2 17 3 18 87 19 4 20 88 21 5 22 19 23 20 24 21 25
REMARK SMILES IDX 22 26 23 28 24 29 25 30 86 31 26 32 85 33 27 34 28 35 29 36
REMARK SMILES IDX 79 37 30 38 84 39 78 40 80 41 31 42 83 43 77 44 76 45 32 47
REMARK SMILES IDX 64 48 44 49 63 50 45 51 48 52 62 53 81 54 46 55 47 56 61 58
REMARK SMILES IDX 82 59 49 60 33 61 34 62 42 63 35 64 36 65 40 66 43 67 37 68
REMARK SMILES IDX 38 69 41 70 39 71 65 72 66 73 74 74 67 75 68 76 72 77 75 78
REMARK SMILES IDX 69 79 70 80 73 81 71 82 50 83 51 84 59 85 52 86 53 87 57 88
REMARK SMILES IDX 60 89 54 90 55 91 58 92 56 93
REMARK H PARENT 16 6 7 14 21 27 80 46 48 57
REMARK Flexibility Score: inf
ROOT
ATOM      1  C   UNL A   1      31.729  30.360  26.817  1.00  0.00     0.023 C 
ENDROOT
BRANCH   1   2
ATOM      2  C   UNL A   1      33.054  29.611  26.779  1.00  0.00     0.116 C 
BRANCH   2   3
ATOM      3  N   UNL A   1      33.626  29.424  25.470  1.00  0.00    -0.352 N 
ATOM      4  C   UNL A   1      33.057  28.905  24.330  1.00  0.00     0.253 C 
ATOM      5  O   UNL A   1      33.706  29.015  23.284  1.00  0.00    -0.269 OA
ATOM      6  H   UNL A   1      34.564  29.711  25.377  1.00  0.00     0.163 HD
BRANCH   4   7
ATOM      7  C   UNL A   1      31.791  28.103  24.300  1.00  0.00     0.063 A 
ATOM      8  C   UNL A   1      31.501  26.880  24.940  1.00  0.00     0.051 A 
ATOM      9  C   UNL A   1      30.245  26.273  24.680  1.00  0.00     0.027 A 
ATOM     10  C   UNL A   1      29.273  26.878  23.884  1.00  0.00     0.002 A 
ATOM     11  C   UNL A   1      30.777  28.710  23.515  1.00  0.00     0.016 A 
ATOM     12  C   UNL A   1      29.531  28.113  23.319  1.00  0.00     0.001 A 
BRANCH   8  13
ATOM     13  N   UNL A   1      32.266  26.221  25.926  1.00  0.00    -0.355 N 
ATOM     14  H   UNL A   1      32.146  26.604  26.825  1.00  0.00     0.167 HD
BRANCH  13  15
ATOM     15  C   UNL A   1      33.167  25.137  25.909  1.00  0.00     0.042 A 
ATOM     16  C   UNL A   1      33.873  21.661  27.356  1.00  0.00     0.044 C 
ATOM     17  C   UNL A   1      34.031  22.975  26.638  1.00  0.00    -0.046 A 
ATOM     18  C   UNL A   1      35.276  23.281  26.067  1.00  0.00     0.004 A 
ATOM     19  C   UNL A   1      32.946  23.883  26.511  1.00  0.00    -0.025 A 
ATOM     20  C   UNL A   1      35.463  24.472  25.381  1.00  0.00     0.002 A 
ATOM     21  C   UNL A   1      31.576  23.449  26.973  1.00  0.00     0.047 C 
ATOM     22  C   UNL A   1      34.419  25.388  25.307  1.00  0.00     0.026 A 
ENDBRANCH  13  15
ENDBRANCH   8  13
ENDBRANCH   4   7
ENDBRANCH   2   3
ENDBRANCH   1   2
BRANCH   1  23
ATOM     23  C   UNL A   1      31.780  31.866  26.543  1.00  0.00     0.023 C 
BRANCH  23  24
ATOM     24  C   UNL A   1      32.834  32.693  27.283  1.00  0.00     0.116 C 
BRANCH  24  25
ATOM     25  N   UNL A   1      32.403  34.023  27.685  1.00  0.00    -0.352 N 
ATOM     26  C   UNL A   1      32.980  34.898  28.580  1.00  0.00     0.251 C 
ATOM     27  H   UNL A   1      31.578  34.345  27.255  1.00  0.00     0.163 HD
ATOM     28  O   UNL A   1      32.485  36.002  28.766  1.00  0.00    -0.269 OA
BRANCH  26  29
ATOM     29  C   UNL A   1      34.172  34.487  29.361  1.00  0.00     0.039 A 
ATOM     30  C   UNL A   1      33.979  33.995  30.657  1.00  0.00     0.014 A 
ATOM     31  C   UNL A   1      35.460  34.553  28.826  1.00  0.00     0.014 A 
ATOM     32  C   UNL A   1      35.062  33.473  31.370  1.00  0.00     0.010 A 
ATOM     33  C   UNL A   1      36.529  33.973  29.514  1.00  0.00     0.010 A 
ATOM     34  C   UNL A   1      36.336  33.408  30.784  1.00  0.00    -0.014 A 
BRANCH  34  35
ATOM     35  C   UNL A   1      37.446  32.692  31.470  1.00  0.00     0.031 A 
ATOM     36  C   UNL A   1      38.134  31.522  30.821  1.00  0.00     0.074 A 
ATOM     37  C   UNL A   1      37.798  33.067  32.717  1.00  0.00     0.049 A 
ATOM     38  N   UNL A   1      39.126  30.796  31.270  1.00  0.00    -0.248 NA
ATOM     39  C   UNL A   1      37.624  31.094  29.510  1.00  0.00     0.031 C 
ATOM     40  C   UNL A   1      37.152  34.126  33.494  1.00  0.00     0.029 A 
ATOM     41  N   UNL A   1      38.779  32.595  33.555  1.00  0.00    -0.354 N 
ATOM     42  C   UNL A   1      39.352  29.822  30.306  1.00  0.00     0.074 A 
ATOM     43  C   UNL A   1      38.364  30.021  29.268  1.00  0.00     0.031 C 
ATOM     44  C   UNL A   1      37.767  34.239  34.683  1.00  0.00     0.029 A 
ATOM     45  C   UNL A   1      38.836  33.249  34.762  1.00  0.00     0.049 A 
ATOM     46  H   UNL A   1      39.385  31.859  33.313  1.00  0.00     0.167 HD
ATOM     47  C   UNL A   1      40.309  28.863  30.281  1.00  0.00     0.037 A 
ATOM     48  C   UNL A   1      39.660  33.077  35.813  1.00  0.00     0.037 A 
ATOM     49  C   UNL A   1      41.314  28.686  31.299  1.00  0.00     0.049 A 
ATOM     50  C   UNL A   1      40.751  32.042  35.729  1.00  0.00     0.074 A 
ATOM     51  C   UNL A   1      42.378  27.801  31.316  1.00  0.00     0.029 A 
ATOM     52  N   UNL A   1      41.375  29.405  32.483  1.00  0.00    -0.354 N 
ATOM     53  N   UNL A   1      41.024  31.205  34.758  1.00  0.00    -0.248 NA
ATOM     54  C   UNL A   1      41.661  31.945  36.879  1.00  0.00     0.031 C 
ATOM     55  C   UNL A   1      43.057  27.954  32.529  1.00  0.00     0.029 A 
ATOM     56  C   UNL A   1      42.447  28.968  33.246  1.00  0.00     0.049 A 
ATOM     57  H   UNL A   1      40.749  30.119  32.743  1.00  0.00     0.167 HD
ATOM     58  C   UNL A   1      42.150  30.502  35.167  1.00  0.00     0.074 A 
ATOM     59  C   UNL A   1      42.524  31.031  36.463  1.00  0.00     0.031 C 
ATOM     60  C   UNL A   1      42.812  29.506  34.530  1.00  0.00     0.037 A 
BRANCH  47  61
ATOM     61  C   UNL A   1      40.336  27.929  29.107  1.00  0.00     0.064 A 
ATOM     62  C   UNL A   1      39.577  26.749  29.090  1.00  0.00     0.173 A 
ATOM     63  C   UNL A   1      41.069  28.255  27.955  1.00  0.00     0.173 A 
ATOM     64  F   UNL A   1      38.867  26.388  30.168  1.00  0.00    -0.203 F 
ATOM     65  C   UNL A   1      39.564  25.922  27.969  1.00  0.00     0.198 A 
ATOM     66  C   UNL A   1      41.032  27.440  26.827  1.00  0.00     0.198 A 
ATOM     67  F   UNL A   1      41.805  29.375  27.917  1.00  0.00    -0.203 F 
ATOM     68  F   UNL A   1      38.857  24.784  27.987  1.00  0.00    -0.200 F 
ATOM     69  C   UNL A   1      40.283  26.273  26.835  1.00  0.00     0.200 A 
ATOM     70  F   UNL A   1      41.716  27.787  25.728  1.00  0.00    -0.200 F 
ATOM     71  F   UNL A   1      40.256  25.484  25.753  1.00  0.00    -0.200 F 
ENDBRANCH  47  61
BRANCH  48  72
ATOM     72  C   UNL A   1      39.513  33.919  37.030  1.00  0.00     0.064 A 
ATOM     73  C   UNL A   1      38.807  33.456  38.150  1.00  0.00     0.173 A 
ATOM     74  C   UNL A   1      40.043  35.216  37.085  1.00  0.00     0.173 A 
ATOM     75  F   UNL A   1      38.264  32.230  38.137  1.00  0.00    -0.203 F 
ATOM     76  C   UNL A   1      38.606  34.270  39.262  1.00  0.00     0.198 A 
ATOM     77  C   UNL A   1      39.868  36.018  38.211  1.00  0.00     0.198 A 
ATOM     78  F   UNL A   1      40.733  35.705  36.044  1.00  0.00    -0.203 F 
ATOM     79  F   UNL A   1      37.874  33.824  40.292  1.00  0.00    -0.200 F 
ATOM     80  C   UNL A   1      39.139  35.549  39.294  1.00  0.00     0.200 A 
ATOM     81  F   UNL A   1      40.396  37.249  38.243  1.00  0.00    -0.200 F 
ATOM     82  F   UNL A   1      38.940  36.335  40.360  1.00  0.00    -0.200 F 
ENDBRANCH  48  72
BRANCH  60  83
ATOM     83  C   UNL A   1      44.026  28.946  35.214  1.00  0.00     0.064 A 
ATOM     84  C   UNL A   1      45.310  29.458  34.970  1.00  0.00     0.173 A 
ATOM     85  C   UNL A   1      43.903  27.891  36.131  1.00  0.00     0.173 A 
ATOM     86  F   UNL A   1      45.482  30.456  34.092  1.00  0.00    -0.203 F 
ATOM     87  C   UNL A   1      46.429  28.905  35.587  1.00  0.00     0.198 A 
ATOM     88  C   UNL A   1      45.020  27.364  36.770  1.00  0.00     0.198 A 
ATOM     89  F   UNL A   1      42.697  27.372  36.407  1.00  0.00    -0.203 F 
ATOM     90  F   UNL A   1      47.651  29.367  35.290  1.00  0.00    -0.200 F 
ATOM     91  C   UNL A   1      46.283  27.863  36.490  1.00  0.00     0.200 A 
ATOM     92  F   UNL A   1      44.876  26.365  37.653  1.00  0.00    -0.200 F 
ATOM     93  F   UNL A   1      47.362  27.331  37.081  1.00  0.00    -0.200 F 
ENDBRANCH  60  83
ENDBRANCH  34  35
ENDBRANCH  26  29
ENDBRANCH  24  25
ENDBRANCH  23  24
ENDBRANCH   1  23
TORSDOF 13
ENDMDL
