MODEL 1
REMARK VINA RESULT:     -11.9      0.000      0.000
REMARK SMILES CC[C@](C)(NC(=O)Cc1cccc(F)c1)C(=O)NCCCCNC(=O)c1ccc(-c2c3nc(c(-c4c(F)c(F)c(F)c(F)c4F)c4ccc([nH]4)c(-c4c(F)c(F)c(F)c(F)c4F)c4nc(c(-c5c(F)c(F)c(F)c(F)c5F)c5ccc2[nH]5)C=C4)C=C3)cc1
REMARK SMILES IDX 20 1 19 2 18 3 16 4 17 5 3 7 4 8 2 9 1 10 5 11 6 12 7 14
REMARK SMILES IDX 8 15 9 16 10 17 15 18 11 19 13 20 12 21 14 22 21 23 22 24
REMARK SMILES IDX 23 25 24 26 25 28 26 29 27 30 88 31 28 32 87 33 29 34 30 35
REMARK SMILES IDX 31 36 81 37 32 38 86 39 80 40 82 41 33 42 85 43 79 44 78 45
REMARK SMILES IDX 34 47 66 48 46 49 65 50 47 51 50 52 64 53 83 54 48 55 49 56
REMARK SMILES IDX 63 58 84 59 51 60 35 61 36 62 44 63 37 64 38 65 42 66 45 67
REMARK SMILES IDX 39 68 40 69 43 70 41 71 67 72 68 73 76 74 69 75 70 76 74 77
REMARK SMILES IDX 77 78 71 79 72 80 75 81 73 82 52 83 53 84 61 85 54 86 55 87
REMARK SMILES IDX 59 88 62 89 56 90 57 91 60 92 58 93
REMARK H PARENT 18 6 5 13 23 27 82 46 50 57
REMARK Flexibility Score: inf
ROOT
ATOM      1  C   UNL A   1      37.060  21.175  24.466  1.00  0.00     0.023 C 
ENDROOT
BRANCH   1   2
ATOM      2  C   UNL A   1      36.578  22.144  25.545  1.00  0.00     0.116 C 
BRANCH   2   3
ATOM      3  N   UNL A   1      35.633  21.582  26.495  1.00  0.00    -0.354 N 
ATOM      4  C   UNL A   1      34.330  21.917  26.756  1.00  0.00     0.245 C 
ATOM      5  O   UNL A   1      33.660  21.068  27.351  1.00  0.00    -0.272 OA
ATOM      6  H   UNL A   1      35.984  20.840  27.038  1.00  0.00     0.163 HD
BRANCH   4   7
ATOM      7  C   UNL A   1      33.690  23.212  26.172  1.00  0.00     0.116 C 
ATOM      8  C   UNL A   1      34.630  24.421  26.328  1.00  0.00     0.045 C 
BRANCH   7   9
ATOM      9  C   UNL A   1      32.365  23.416  27.001  1.00  0.00     0.035 C 
ATOM     10  C   UNL A   1      31.123  23.882  26.246  1.00  0.00     0.007 C 
ENDBRANCH   7   9
BRANCH   7  11
ATOM     11  N   UNL A   1      33.342  23.080  24.730  1.00  0.00    -0.342 N 
ATOM     12  C   UNL A   1      33.058  21.987  23.959  1.00  0.00     0.225 C 
ATOM     13  H   UNL A   1      33.309  23.936  24.244  1.00  0.00     0.164 HD
ATOM     14  O   UNL A   1      33.239  22.105  22.743  1.00  0.00    -0.275 OA
BRANCH  12  15
ATOM     15  C   UNL A   1      32.414  20.722  24.517  1.00  0.00     0.135 C 
BRANCH  15  16
ATOM     16  C   UNL A   1      33.008  19.427  24.046  1.00  0.00    -0.036 A 
ATOM     17  C   UNL A   1      32.401  18.713  23.000  1.00  0.00     0.004 A 
ATOM     18  C   UNL A   1      34.147  18.898  24.659  1.00  0.00     0.043 A 
ATOM     19  C   UNL A   1      32.850  17.438  22.655  1.00  0.00     0.003 A 
ATOM     20  C   UNL A   1      34.603  17.638  24.288  1.00  0.00     0.123 A 
ATOM     21  C   UNL A   1      33.949  16.895  23.311  1.00  0.00     0.039 A 
ATOM     22  F   UNL A   1      35.675  17.121  24.901  1.00  0.00    -0.207 F 
ENDBRANCH  15  16
ENDBRANCH  12  15
ENDBRANCH   7  11
ENDBRANCH   4   7
ENDBRANCH   2   3
ENDBRANCH   1   2
BRANCH   1  23
ATOM     23  C   UNL A   1      37.883  19.989  24.962  1.00  0.00     0.023 C 
BRANCH  23  24
ATOM     24  C   UNL A   1      39.039  20.359  25.875  1.00  0.00     0.116 C 
BRANCH  24  25
ATOM     25  N   UNL A   1      40.053  19.319  25.930  1.00  0.00    -0.352 N 
ATOM     26  C   UNL A   1      41.414  19.437  26.055  1.00  0.00     0.251 C 
ATOM     27  H   UNL A   1      39.714  18.397  25.869  1.00  0.00     0.163 HD
ATOM     28  O   UNL A   1      42.135  18.460  25.896  1.00  0.00    -0.269 OA
BRANCH  26  29
ATOM     29  C   UNL A   1      42.007  20.754  26.363  1.00  0.00     0.039 A 
ATOM     30  C   UNL A   1      42.292  21.626  25.312  1.00  0.00     0.014 A 
ATOM     31  C   UNL A   1      42.272  21.129  27.683  1.00  0.00     0.014 A 
ATOM     32  C   UNL A   1      42.794  22.897  25.589  1.00  0.00     0.010 A 
ATOM     33  C   UNL A   1      42.683  22.426  27.964  1.00  0.00     0.010 A 
ATOM     34  C   UNL A   1      42.960  23.319  26.919  1.00  0.00    -0.014 A 
BRANCH  34  35
ATOM     35  C   UNL A   1      43.437  24.686  27.239  1.00  0.00     0.031 A 
ATOM     36  C   UNL A   1      42.482  25.700  27.803  1.00  0.00     0.074 A 
ATOM     37  C   UNL A   1      44.712  25.026  26.972  1.00  0.00     0.049 A 
ATOM     38  N   UNL A   1      42.686  26.962  28.082  1.00  0.00    -0.248 NA
ATOM     39  C   UNL A   1      41.105  25.246  28.064  1.00  0.00     0.031 C 
ATOM     40  C   UNL A   1      45.716  24.138  26.385  1.00  0.00     0.029 A 
ATOM     41  N   UNL A   1      45.381  26.211  27.153  1.00  0.00    -0.354 N 
ATOM     42  C   UNL A   1      41.470  27.449  28.541  1.00  0.00     0.074 A 
ATOM     43  C   UNL A   1      40.514  26.369  28.444  1.00  0.00     0.031 C 
ATOM     44  C   UNL A   1      46.881  24.798  26.285  1.00  0.00     0.029 A 
ATOM     45  C   UNL A   1      46.694  26.167  26.755  1.00  0.00     0.049 A 
ATOM     46  H   UNL A   1      44.959  27.016  27.532  1.00  0.00     0.167 HD
ATOM     47  C   UNL A   1      41.186  28.679  29.028  1.00  0.00     0.037 A 
ATOM     48  C   UNL A   1      47.641  27.125  26.762  1.00  0.00     0.037 A 
ATOM     49  C   UNL A   1      42.151  29.739  29.148  1.00  0.00     0.049 A 
ATOM     50  C   UNL A   1      47.294  28.490  27.293  1.00  0.00     0.074 A 
ATOM     51  C   UNL A   1      41.974  31.006  29.675  1.00  0.00     0.029 A 
ATOM     52  N   UNL A   1      43.473  29.655  28.738  1.00  0.00    -0.354 N 
ATOM     53  N   UNL A   1      46.154  28.924  27.773  1.00  0.00    -0.248 NA
ATOM     54  C   UNL A   1      48.364  29.498  27.287  1.00  0.00     0.031 C 
ATOM     55  C   UNL A   1      43.173  31.708  29.534  1.00  0.00     0.029 A 
ATOM     56  C   UNL A   1      44.117  30.858  28.978  1.00  0.00     0.049 A 
ATOM     57  H   UNL A   1      43.891  28.860  28.334  1.00  0.00     0.167 HD
ATOM     58  C   UNL A   1      46.374  30.242  28.148  1.00  0.00     0.074 A 
ATOM     59  C   UNL A   1      47.761  30.535  27.853  1.00  0.00     0.031 C 
ATOM     60  C   UNL A   1      45.502  31.129  28.687  1.00  0.00     0.037 A 
BRANCH  47  61
ATOM     61  C   UNL A   1      39.783  28.947  29.492  1.00  0.00     0.064 A 
ATOM     62  C   UNL A   1      39.400  28.660  30.810  1.00  0.00     0.173 A 
ATOM     63  C   UNL A   1      38.797  29.411  28.608  1.00  0.00     0.173 A 
ATOM     64  F   UNL A   1      40.304  28.211  31.695  1.00  0.00    -0.203 F 
ATOM     65  C   UNL A   1      38.078  28.809  31.221  1.00  0.00     0.198 A 
ATOM     66  C   UNL A   1      37.483  29.588  29.030  1.00  0.00     0.198 A 
ATOM     67  F   UNL A   1      39.114  29.713  27.339  1.00  0.00    -0.203 F 
ATOM     68  F   UNL A   1      37.728  28.491  32.475  1.00  0.00    -0.200 F 
ATOM     69  C   UNL A   1      37.121  29.276  30.332  1.00  0.00     0.200 A 
ATOM     70  F   UNL A   1      36.565  30.065  28.177  1.00  0.00    -0.200 F 
ATOM     71  F   UNL A   1      35.851  29.424  30.730  1.00  0.00    -0.200 F 
ENDBRANCH  47  61
BRANCH  48  72
ATOM     72  C   UNL A   1      49.011  26.810  26.279  1.00  0.00     0.064 A 
ATOM     73  C   UNL A   1      49.393  27.058  24.952  1.00  0.00     0.173 A 
ATOM     74  C   UNL A   1      49.958  26.223  27.130  1.00  0.00     0.173 A 
ATOM     75  F   UNL A   1      48.523  27.611  24.095  1.00  0.00    -0.203 F 
ATOM     76  C   UNL A   1      50.661  26.711  24.490  1.00  0.00     0.198 A 
ATOM     77  C   UNL A   1      51.235  25.906  26.676  1.00  0.00     0.198 A 
ATOM     78  F   UNL A   1      49.647  25.985  28.413  1.00  0.00    -0.203 F 
ATOM     79  F   UNL A   1      50.986  26.922  23.208  1.00  0.00    -0.200 F 
ATOM     80  C   UNL A   1      51.584  26.140  25.354  1.00  0.00     0.200 A 
ATOM     81  F   UNL A   1      52.132  25.376  27.520  1.00  0.00    -0.200 F 
ATOM     82  F   UNL A   1      52.807  25.819  24.914  1.00  0.00    -0.200 F 
ENDBRANCH  48  72
BRANCH  60  83
ATOM     83  C   UNL A   1      46.015  32.499  29.023  1.00  0.00     0.064 A 
ATOM     84  C   UNL A   1      46.487  32.782  30.315  1.00  0.00     0.173 A 
ATOM     85  C   UNL A   1      45.951  33.553  28.101  1.00  0.00     0.173 A 
ATOM     86  F   UNL A   1      46.557  31.810  31.238  1.00  0.00    -0.203 F 
ATOM     87  C   UNL A   1      46.853  34.075  30.677  1.00  0.00     0.198 A 
ATOM     88  C   UNL A   1      46.350  34.838  28.457  1.00  0.00     0.198 A 
ATOM     89  F   UNL A   1      45.519  33.331  26.850  1.00  0.00    -0.203 F 
ATOM     90  F   UNL A   1      47.256  34.330  31.929  1.00  0.00    -0.200 F 
ATOM     91  C   UNL A   1      46.789  35.100  29.747  1.00  0.00     0.200 A 
ATOM     92  F   UNL A   1      46.310  35.825  27.551  1.00  0.00    -0.200 F 
ATOM     93  F   UNL A   1      47.148  36.345  30.093  1.00  0.00    -0.200 F 
ENDBRANCH  60  83
ENDBRANCH  34  35
ENDBRANCH  26  29
ENDBRANCH  24  25
ENDBRANCH  23  24
ENDBRANCH   1  23
TORSDOF 15
ENDMDL
MODEL 2
REMARK VINA RESULT:     -11.7      1.730      3.190
REMARK SMILES CC[C@](C)(NC(=O)Cc1cccc(F)c1)C(=O)NCCCCNC(=O)c1ccc(-c2c3nc(c(-c4c(F)c(F)c(F)c(F)c4F)c4ccc([nH]4)c(-c4c(F)c(F)c(F)c(F)c4F)c4nc(c(-c5c(F)c(F)c(F)c(F)c5F)c5ccc2[nH]5)C=C4)C=C3)cc1
REMARK SMILES IDX 20 1 19 2 18 3 16 4 17 5 3 7 4 8 2 9 1 10 5 11 6 12 7 14
REMARK SMILES IDX 8 15 9 16 10 17 15 18 11 19 13 20 12 21 14 22 21 23 22 24
REMARK SMILES IDX 23 25 24 26 25 28 26 29 27 30 88 31 28 32 87 33 29 34 30 35
REMARK SMILES IDX 31 36 81 37 32 38 86 39 80 40 82 41 33 42 85 43 79 44 78 45
REMARK SMILES IDX 34 47 66 48 46 49 65 50 47 51 50 52 64 53 83 54 48 55 49 56
REMARK SMILES IDX 63 58 84 59 51 60 35 61 36 62 44 63 37 64 38 65 42 66 45 67
REMARK SMILES IDX 39 68 40 69 43 70 41 71 67 72 68 73 76 74 69 75 70 76 74 77
REMARK SMILES IDX 77 78 71 79 72 80 75 81 73 82 52 83 53 84 61 85 54 86 55 87
REMARK SMILES IDX 59 88 62 89 56 90 57 91 60 92 58 93
REMARK H PARENT 18 6 5 13 23 27 82 46 50 57
REMARK Flexibility Score: inf
ROOT
ATOM      1  C   UNL A   1      37.094  20.776  24.687  1.00  0.00     0.023 C 
ENDROOT
BRANCH   1   2
ATOM      2  C   UNL A   1      35.631  20.463  24.999  1.00  0.00     0.116 C 
BRANCH   2   3
ATOM      3  N   UNL A   1      35.122  21.071  26.217  1.00  0.00    -0.354 N 
ATOM      4  C   UNL A   1      33.856  21.481  26.544  1.00  0.00     0.245 C 
ATOM      5  O   UNL A   1      33.629  21.638  27.747  1.00  0.00    -0.272 OA
ATOM      6  H   UNL A   1      35.795  21.211  26.922  1.00  0.00     0.163 HD
BRANCH   4   7
ATOM      7  C   UNL A   1      32.725  21.561  25.475  1.00  0.00     0.116 C 
ATOM      8  C   UNL A   1      32.457  20.184  24.839  1.00  0.00     0.045 C 
BRANCH   7   9
ATOM      9  C   UNL A   1      33.257  22.584  24.400  1.00  0.00     0.035 C 
ATOM     10  C   UNL A   1      32.513  22.665  23.071  1.00  0.00     0.007 C 
ENDBRANCH   7   9
BRANCH   7  11
ATOM     11  N   UNL A   1      31.442  22.070  26.032  1.00  0.00    -0.342 N 
ATOM     12  C   UNL A   1      31.143  23.204  26.736  1.00  0.00     0.225 C 
ATOM     13  H   UNL A   1      30.669  21.484  25.863  1.00  0.00     0.164 HD
ATOM     14  O   UNL A   1      30.128  23.167  27.440  1.00  0.00    -0.275 OA
BRANCH  12  15
ATOM     15  C   UNL A   1      31.912  24.510  26.572  1.00  0.00     0.135 C 
BRANCH  15  16
ATOM     16  C   UNL A   1      31.258  25.546  25.704  1.00  0.00    -0.036 A 
ATOM     17  C   UNL A   1      30.278  25.168  24.772  1.00  0.00     0.004 A 
ATOM     18  C   UNL A   1      31.637  26.889  25.785  1.00  0.00     0.043 A 
ATOM     19  C   UNL A   1      29.774  26.091  23.857  1.00  0.00     0.003 A 
ATOM     20  C   UNL A   1      31.107  27.806  24.885  1.00  0.00     0.123 A 
ATOM     21  C   UNL A   1      30.200  27.414  23.907  1.00  0.00     0.039 A 
ATOM     22  F   UNL A   1      31.498  29.085  24.945  1.00  0.00    -0.207 F 
ENDBRANCH  15  16
ENDBRANCH  12  15
ENDBRANCH   7  11
ENDBRANCH   4   7
ENDBRANCH   2   3
ENDBRANCH   1   2
BRANCH   1  23
ATOM     23  C   UNL A   1      38.091  19.665  25.004  1.00  0.00     0.023 C 
BRANCH  23  24
ATOM     24  C   UNL A   1      39.229  20.079  25.920  1.00  0.00     0.116 C 
BRANCH  24  25
ATOM     25  N   UNL A   1      40.273  19.070  25.995  1.00  0.00    -0.352 N 
ATOM     26  C   UNL A   1      41.629  19.229  26.123  1.00  0.00     0.251 C 
ATOM     27  H   UNL A   1      39.961  18.138  25.947  1.00  0.00     0.163 HD
ATOM     28  O   UNL A   1      42.378  18.271  25.981  1.00  0.00    -0.269 OA
BRANCH  26  29
ATOM     29  C   UNL A   1      42.182  20.568  26.412  1.00  0.00     0.039 A 
ATOM     30  C   UNL A   1      42.562  21.384  25.345  1.00  0.00     0.014 A 
ATOM     31  C   UNL A   1      42.319  21.016  27.728  1.00  0.00     0.014 A 
ATOM     32  C   UNL A   1      43.029  22.673  25.598  1.00  0.00     0.010 A 
ATOM     33  C   UNL A   1      42.695  22.331  27.974  1.00  0.00     0.010 A 
ATOM     34  C   UNL A   1      43.065  23.169  26.913  1.00  0.00    -0.014 A 
BRANCH  34  35
ATOM     35  C   UNL A   1      43.501  24.556  27.200  1.00  0.00     0.031 A 
ATOM     36  C   UNL A   1      42.518  25.554  27.745  1.00  0.00     0.074 A 
ATOM     37  C   UNL A   1      44.765  24.929  26.921  1.00  0.00     0.049 A 
ATOM     38  N   UNL A   1      42.685  26.827  27.994  1.00  0.00    -0.248 NA
ATOM     39  C   UNL A   1      41.156  25.065  28.020  1.00  0.00     0.031 C 
ATOM     40  C   UNL A   1      45.794  24.058  26.350  1.00  0.00     0.029 A 
ATOM     41  N   UNL A   1      45.399  26.136  27.073  1.00  0.00    -0.354 N 
ATOM     42  C   UNL A   1      41.456  27.288  28.446  1.00  0.00     0.074 A 
ATOM     43  C   UNL A   1      40.533  26.178  28.377  1.00  0.00     0.031 C 
ATOM     44  C   UNL A   1      46.938  24.749  26.231  1.00  0.00     0.029 A 
ATOM     45  C   UNL A   1      46.712  26.122  26.671  1.00  0.00     0.049 A 
ATOM     46  H   UNL A   1      44.954  26.936  27.435  1.00  0.00     0.167 HD
ATOM     47  C   UNL A   1      41.137  28.519  28.907  1.00  0.00     0.037 A 
ATOM     48  C   UNL A   1      47.630  27.109  26.653  1.00  0.00     0.037 A 
ATOM     49  C   UNL A   1      42.070  29.611  28.999  1.00  0.00     0.049 A 
ATOM     50  C   UNL A   1      47.243  28.474  27.154  1.00  0.00     0.074 A 
ATOM     51  C   UNL A   1      41.857  30.883  29.498  1.00  0.00     0.029 A 
ATOM     52  N   UNL A   1      43.393  29.557  28.586  1.00  0.00    -0.354 N 
ATOM     53  N   UNL A   1      46.092  28.884  27.629  1.00  0.00    -0.248 NA
ATOM     54  C   UNL A   1      48.282  29.513  27.122  1.00  0.00     0.031 C 
ATOM     55  C   UNL A   1      43.035  31.617  29.337  1.00  0.00     0.029 A 
ATOM     56  C   UNL A   1      44.002  30.784  28.797  1.00  0.00     0.049 A 
ATOM     57  H   UNL A   1      43.834  28.766  28.199  1.00  0.00     0.167 HD
ATOM     58  C   UNL A   1      46.273  30.217  27.973  1.00  0.00     0.074 A 
ATOM     59  C   UNL A   1      47.650  30.544  27.667  1.00  0.00     0.031 C 
ATOM     60  C   UNL A   1      45.377  31.089  28.495  1.00  0.00     0.037 A 
BRANCH  47  61
ATOM     61  C   UNL A   1      39.729  28.757  29.369  1.00  0.00     0.064 A 
ATOM     62  C   UNL A   1      38.776  29.311  28.501  1.00  0.00     0.173 A 
ATOM     63  C   UNL A   1      39.344  28.512  30.696  1.00  0.00     0.173 A 
ATOM     64  F   UNL A   1      39.094  29.567  27.223  1.00  0.00    -0.203 F 
ATOM     65  C   UNL A   1      37.497  29.629  28.949  1.00  0.00     0.198 A 
ATOM     66  C   UNL A   1      38.054  28.803  31.133  1.00  0.00     0.198 A 
ATOM     67  F   UNL A   1      40.212  27.970  31.564  1.00  0.00    -0.203 F 
ATOM     68  F   UNL A   1      36.617  30.195  28.111  1.00  0.00    -0.200 F 
ATOM     69  C   UNL A   1      37.136  29.373  30.264  1.00  0.00     0.200 A 
ATOM     70  F   UNL A   1      37.699  28.529  32.396  1.00  0.00    -0.200 F 
ATOM     71  F   UNL A   1      35.903  29.674  30.692  1.00  0.00    -0.200 F 
ENDBRANCH  47  61
BRANCH  48  72
ATOM     72  C   UNL A   1      49.007  26.824  26.172  1.00  0.00     0.064 A 
ATOM     73  C   UNL A   1      49.367  27.017  24.830  1.00  0.00     0.173 A 
ATOM     74  C   UNL A   1      49.983  26.320  27.042  1.00  0.00     0.173 A 
ATOM     75  F   UNL A   1      48.468  27.490  23.955  1.00  0.00    -0.203 F 
ATOM     76  C   UNL A   1      50.644  26.697  24.373  1.00  0.00     0.198 A 
ATOM     77  C   UNL A   1      51.269  26.031  26.591  1.00  0.00     0.198 A 
ATOM     78  F   UNL A   1      49.693  26.136  28.339  1.00  0.00    -0.203 F 
ATOM     79  F   UNL A   1      50.949  26.855  23.078  1.00  0.00    -0.200 F 
ATOM     80  C   UNL A   1      51.597  26.209  25.255  1.00  0.00     0.200 A 
ATOM     81  F   UNL A   1      52.193  25.582  27.452  1.00  0.00    -0.200 F 
ATOM     82  F   UNL A   1      52.828  25.915  24.819  1.00  0.00    -0.200 F 
ENDBRANCH  48  72
BRANCH  60  83
ATOM     83  C   UNL A   1      45.850  32.481  28.799  1.00  0.00     0.064 A 
ATOM     84  C   UNL A   1      46.349  32.798  30.072  1.00  0.00     0.173 A 
ATOM     85  C   UNL A   1      45.721  33.519  27.866  1.00  0.00     0.173 A 
ATOM     86  F   UNL A   1      46.481  31.842  31.004  1.00  0.00    -0.203 F 
ATOM     87  C   UNL A   1      46.679  34.109  30.406  1.00  0.00     0.198 A 
ATOM     88  C   UNL A   1      46.084  34.823  28.193  1.00  0.00     0.198 A 
ATOM     89  F   UNL A   1      45.261  33.265  26.631  1.00  0.00    -0.203 F 
ATOM     90  F   UNL A   1      47.109  34.395  31.642  1.00  0.00    -0.200 F 
ATOM     91  C   UNL A   1      46.550  35.118  29.466  1.00  0.00     0.200 A 
ATOM     92  F   UNL A   1      45.982  35.795  27.276  1.00  0.00    -0.200 F 
ATOM     93  F   UNL A   1      46.874  36.379  29.786  1.00  0.00    -0.200 F 
ENDBRANCH  60  83
ENDBRANCH  34  35
ENDBRANCH  26  29
ENDBRANCH  24  25
ENDBRANCH  23  24
ENDBRANCH   1  23
TORSDOF 15
ENDMDL
MODEL 3
REMARK VINA RESULT:     -11.7      5.819     10.964
REMARK SMILES CC[C@](C)(NC(=O)Cc1cccc(F)c1)C(=O)NCCCCNC(=O)c1ccc(-c2c3nc(c(-c4c(F)c(F)c(F)c(F)c4F)c4ccc([nH]4)c(-c4c(F)c(F)c(F)c(F)c4F)c4nc(c(-c5c(F)c(F)c(F)c(F)c5F)c5ccc2[nH]5)C=C4)C=C3)cc1
REMARK SMILES IDX 20 1 19 2 18 3 16 4 17 5 3 7 4 8 2 9 1 10 5 11 6 12 7 14
REMARK SMILES IDX 8 15 9 16 10 17 15 18 11 19 13 20 12 21 14 22 21 23 22 24
REMARK SMILES IDX 23 25 24 26 25 28 26 29 27 30 88 31 28 32 87 33 29 34 30 35
REMARK SMILES IDX 31 36 81 37 32 38 86 39 80 40 82 41 33 42 85 43 79 44 78 45
REMARK SMILES IDX 34 47 66 48 46 49 65 50 47 51 50 52 64 53 83 54 48 55 49 56
REMARK SMILES IDX 63 58 84 59 51 60 35 61 36 62 44 63 37 64 38 65 42 66 45 67
REMARK SMILES IDX 39 68 40 69 43 70 41 71 67 72 68 73 76 74 69 75 70 76 74 77
REMARK SMILES IDX 77 78 71 79 72 80 75 81 73 82 52 83 53 84 61 85 54 86 55 87
REMARK SMILES IDX 59 88 62 89 56 90 57 91 60 92 58 93
REMARK H PARENT 18 6 5 13 23 27 82 46 50 57
REMARK Flexibility Score: inf
ROOT
ATOM      1  C   UNL A   1      31.519  30.757  26.140  1.00  0.00     0.023 C 
ENDROOT
BRANCH   1   2
ATOM      2  C   UNL A   1      32.882  30.138  26.448  1.00  0.00     0.116 C 
BRANCH   2   3
ATOM      3  N   UNL A   1      33.654  29.746  25.282  1.00  0.00    -0.354 N 
ATOM      4  C   UNL A   1      33.596  28.609  24.518  1.00  0.00     0.245 C 
ATOM      5  O   UNL A   1      34.110  28.681  23.398  1.00  0.00    -0.272 OA
ATOM      6  H   UNL A   1      34.327  30.404  24.991  1.00  0.00     0.163 HD
BRANCH   4   7
ATOM      7  C   UNL A   1      32.769  27.368  24.968  1.00  0.00     0.116 C 
ATOM      8  C   UNL A   1      32.851  27.163  26.492  1.00  0.00     0.045 C 
BRANCH   7   9
ATOM      9  C   UNL A   1      33.414  26.153  24.200  1.00  0.00     0.035 C 
ATOM     10  C   UNL A   1      34.401  25.276  24.965  1.00  0.00     0.007 C 
ENDBRANCH   7   9
BRANCH   7  11
ATOM     11  N   UNL A   1      31.332  27.469  24.592  1.00  0.00    -0.342 N 
ATOM     12  C   UNL A   1      30.293  26.591  24.731  1.00  0.00     0.225 C 
ATOM     13  H   UNL A   1      31.085  28.322  24.168  1.00  0.00     0.164 HD
ATOM     14  O   UNL A   1      29.339  26.736  23.959  1.00  0.00    -0.275 OA
BRANCH  12  15
ATOM     15  C   UNL A   1      30.213  25.569  25.860  1.00  0.00     0.135 C 
BRANCH  15  16
ATOM     16  C   UNL A   1      30.872  24.248  25.590  1.00  0.00    -0.036 A 
ATOM     17  C   UNL A   1      31.508  23.552  26.630  1.00  0.00     0.004 A 
ATOM     18  C   UNL A   1      30.891  23.710  24.301  1.00  0.00     0.043 A 
ATOM     19  C   UNL A   1      32.253  22.403  26.367  1.00  0.00     0.003 A 
ATOM     20  C   UNL A   1      31.615  22.548  24.054  1.00  0.00     0.123 A 
ATOM     21  C   UNL A   1      32.316  21.907  25.069  1.00  0.00     0.039 A 
ATOM     22  F   UNL A   1      31.658  22.054  22.810  1.00  0.00    -0.207 F 
ENDBRANCH  15  16
ENDBRANCH  12  15
ENDBRANCH   7  11
ENDBRANCH   4   7
ENDBRANCH   2   3
ENDBRANCH   1   2
BRANCH   1  23
ATOM     23  C   UNL A   1      31.358  32.227  26.516  1.00  0.00     0.023 C 
BRANCH  23  24
ATOM     24  C   UNL A   1      32.541  32.822  27.262  1.00  0.00     0.116 C 
BRANCH  24  25
ATOM     25  N   UNL A   1      32.332  34.219  27.602  1.00  0.00    -0.352 N 
ATOM     26  C   UNL A   1      32.940  34.980  28.568  1.00  0.00     0.251 C 
ATOM     27  H   UNL A   1      31.657  34.688  27.061  1.00  0.00     0.163 HD
ATOM     28  O   UNL A   1      32.508  36.092  28.840  1.00  0.00    -0.269 OA
BRANCH  26  29
ATOM     29  C   UNL A   1      34.108  34.439  29.293  1.00  0.00     0.039 A 
ATOM     30  C   UNL A   1      33.901  33.769  30.500  1.00  0.00     0.014 A 
ATOM     31  C   UNL A   1      35.400  34.588  28.781  1.00  0.00     0.014 A 
ATOM     32  C   UNL A   1      34.986  33.200  31.165  1.00  0.00     0.010 A 
ATOM     33  C   UNL A   1      36.465  33.942  29.395  1.00  0.00     0.010 A 
ATOM     34  C   UNL A   1      36.271  33.251  30.600  1.00  0.00    -0.014 A 
BRANCH  34  35
ATOM     35  C   UNL A   1      37.429  32.603  31.260  1.00  0.00     0.031 A 
ATOM     36  C   UNL A   1      38.144  31.471  30.577  1.00  0.00     0.074 A 
ATOM     37  C   UNL A   1      37.799  32.997  32.494  1.00  0.00     0.049 A 
ATOM     38  N   UNL A   1      39.129  30.731  31.018  1.00  0.00    -0.248 NA
ATOM     39  C   UNL A   1      37.674  31.101  29.231  1.00  0.00     0.031 C 
ATOM     40  C   UNL A   1      37.152  34.055  33.271  1.00  0.00     0.029 A 
ATOM     41  N   UNL A   1      38.806  32.552  33.314  1.00  0.00    -0.354 N 
ATOM     42  C   UNL A   1      39.389  29.811  30.011  1.00  0.00     0.074 A 
ATOM     43  C   UNL A   1      38.419  30.039  28.964  1.00  0.00     0.031 C 
ATOM     44  C   UNL A   1      37.796  34.199  34.439  1.00  0.00     0.029 A 
ATOM     45  C   UNL A   1      38.871  33.214  34.514  1.00  0.00     0.049 A 
ATOM     46  H   UNL A   1      39.422  31.825  33.064  1.00  0.00     0.167 HD
ATOM     47  C   UNL A   1      40.369  28.880  29.955  1.00  0.00     0.037 A 
ATOM     48  C   UNL A   1      39.701  33.043  35.562  1.00  0.00     0.037 A 
ATOM     49  C   UNL A   1      41.348  28.678  30.990  1.00  0.00     0.049 A 
ATOM     50  C   UNL A   1      40.771  31.988  35.481  1.00  0.00     0.074 A 
ATOM     51  C   UNL A   1      42.411  27.794  31.005  1.00  0.00     0.029 A 
ATOM     52  N   UNL A   1      41.384  29.372  32.190  1.00  0.00    -0.354 N 
ATOM     53  N   UNL A   1      41.040  31.159  34.502  1.00  0.00    -0.248 NA
ATOM     54  C   UNL A   1      41.655  31.846  36.646  1.00  0.00     0.031 C 
ATOM     55  C   UNL A   1      43.059  27.914  32.237  1.00  0.00     0.029 A 
ATOM     56  C   UNL A   1      42.439  28.918  32.964  1.00  0.00     0.049 A 
ATOM     57  H   UNL A   1      40.753  30.081  32.453  1.00  0.00     0.167 HD
ATOM     58  C   UNL A   1      42.135  30.416  34.920  1.00  0.00     0.074 A 
ATOM     59  C   UNL A   1      42.491  30.902  36.237  1.00  0.00     0.031 C 
ATOM     60  C   UNL A   1      42.785  29.420  34.270  1.00  0.00     0.037 A 
BRANCH  47  61
ATOM     61  C   UNL A   1      40.453  28.018  28.729  1.00  0.00     0.064 A 
ATOM     62  C   UNL A   1      39.813  26.770  28.688  1.00  0.00     0.173 A 
ATOM     63  C   UNL A   1      41.236  28.390  27.625  1.00  0.00     0.173 A 
ATOM     64  F   UNL A   1      39.055  26.364  29.719  1.00  0.00    -0.203 F 
ATOM     65  C   UNL A   1      39.970  25.919  27.597  1.00  0.00     0.198 A 
ATOM     66  C   UNL A   1      41.365  27.550  26.523  1.00  0.00     0.198 A 
ATOM     67  F   UNL A   1      41.858  29.578  27.607  1.00  0.00    -0.203 F 
ATOM     68  F   UNL A   1      39.380  24.716  27.598  1.00  0.00    -0.200 F 
ATOM     69  C   UNL A   1      40.743  26.311  26.514  1.00  0.00     0.200 A 
ATOM     70  F   UNL A   1      42.091  27.942  25.466  1.00  0.00    -0.200 F 
ATOM     71  F   UNL A   1      40.888  25.494  25.462  1.00  0.00    -0.200 F 
ENDBRANCH  47  61
BRANCH  48  72
ATOM     72  C   UNL A   1      39.565  33.915  36.758  1.00  0.00     0.064 A 
ATOM     73  C   UNL A   1      40.205  35.162  36.830  1.00  0.00     0.173 A 
ATOM     74  C   UNL A   1      38.818  33.502  37.869  1.00  0.00     0.173 A 
ATOM     75  F   UNL A   1      40.939  35.601  35.797  1.00  0.00    -0.203 F 
ATOM     76  C   UNL A   1      40.119  35.951  37.976  1.00  0.00     0.198 A 
ATOM     77  C   UNL A   1      38.707  34.305  39.001  1.00  0.00     0.198 A 
ATOM     78  F   UNL A   1      38.172  32.327  37.841  1.00  0.00    -0.203 F 
ATOM     79  F   UNL A   1      40.772  37.119  38.032  1.00  0.00    -0.200 F 
ATOM     80  C   UNL A   1      39.365  35.525  39.059  1.00  0.00     0.200 A 
ATOM     81  F   UNL A   1      37.958  33.901  40.037  1.00  0.00    -0.200 F 
ATOM     82  F   UNL A   1      39.271  36.289  40.154  1.00  0.00    -0.200 F 
ENDBRANCH  48  72
BRANCH  60  83
ATOM     83  C   UNL A   1      43.969  28.795  34.950  1.00  0.00     0.064 A 
ATOM     84  C   UNL A   1      43.793  27.708  35.822  1.00  0.00     0.173 A 
ATOM     85  C   UNL A   1      45.258  29.330  34.817  1.00  0.00     0.173 A 
ATOM     86  F   UNL A   1      42.577  27.168  35.993  1.00  0.00    -0.203 F 
ATOM     87  C   UNL A   1      44.862  27.196  36.552  1.00  0.00     0.198 A 
ATOM     88  C   UNL A   1      46.330  28.793  35.523  1.00  0.00     0.198 A 
ATOM     89  F   UNL A   1      45.479  30.361  33.987  1.00  0.00    -0.203 F 
ATOM     90  F   UNL A   1      44.661  26.189  37.412  1.00  0.00    -0.200 F 
ATOM     91  C   UNL A   1      46.129  27.735  36.399  1.00  0.00     0.200 A 
ATOM     92  F   UNL A   1      47.560  29.299  35.357  1.00  0.00    -0.200 F 
ATOM     93  F   UNL A   1      47.160  27.237  37.097  1.00  0.00    -0.200 F 
ENDBRANCH  60  83
ENDBRANCH  34  35
ENDBRANCH  26  29
ENDBRANCH  24  25
ENDBRANCH  23  24
ENDBRANCH   1  23
TORSDOF 15
ENDMDL
