MODEL 1
REMARK VINA RESULT:     -13.7      0.000      0.000
REMARK SMILES Cc1ccc(S(=O)(=O)N(c2ccccc2)[C@H](C)C(=O)NCCCCNC(=O)c2ccc(-c3c4nc(c(-c5c(F)c(F)c(F)c(F)c5F)c5ccc([nH]5)c(-c5c(F)c(F)c(F)c(F)c5F)c5nc(c(-c6c(F)c(F)c(F)c(F)c6F)c6ccc3[nH]6)C=C5)C=C4)cc2)cc1
REMARK SMILES IDX 22 1 21 2 20 3 18 4 19 5 16 7 17 8 9 9 6 10 7 11 8 12 5 13
REMARK SMILES IDX 1 14 2 15 3 16 92 17 4 18 91 19 10 20 11 21 15 22 12 23
REMARK SMILES IDX 14 24 13 25 23 26 24 27 25 28 26 29 27 31 28 32 29 33 90 34
REMARK SMILES IDX 30 35 89 36 31 37 32 38 33 39 83 40 34 41 88 42 82 43 84 44
REMARK SMILES IDX 35 45 87 46 81 47 80 48 36 50 68 51 48 52 67 53 49 54 52 55
REMARK SMILES IDX 66 56 85 57 50 58 51 59 65 61 86 62 53 63 37 64 38 65 46 66
REMARK SMILES IDX 39 67 40 68 44 69 47 70 41 71 42 72 45 73 43 74 69 75 70 76
REMARK SMILES IDX 78 77 71 78 72 79 76 80 79 81 73 82 74 83 77 84 75 85 54 86
REMARK SMILES IDX 55 87 63 88 56 89 57 90 61 91 64 92 58 93 59 94 62 95 60 96
REMARK H PARENT 20 6 25 30 84 49 52 60
REMARK Flexibility Score: inf
ROOT
ATOM      1  C   UNL A   1      32.053  28.336  27.494  1.00  0.00     0.023 C 
ENDROOT
BRANCH   1   2
ATOM      2  C   UNL A   1      31.407  27.397  26.476  1.00  0.00     0.116 C 
BRANCH   2   3
ATOM      3  N   UNL A   1      31.142  26.046  26.935  1.00  0.00    -0.354 N 
ATOM      4  C   UNL A   1      31.410  24.842  26.338  1.00  0.00     0.243 C 
ATOM      5  O   UNL A   1      31.475  23.875  27.110  1.00  0.00    -0.273 OA
ATOM      6  H   UNL A   1      30.701  25.986  27.812  1.00  0.00     0.163 HD
BRANCH   4   7
ATOM      7  C   UNL A   1      31.588  24.630  24.822  1.00  0.00     0.185 C 
ATOM      8  C   UNL A   1      30.522  25.351  23.993  1.00  0.00     0.043 C 
BRANCH   7   9
ATOM      9  N   UNL A   1      32.994  24.768  24.289  1.00  0.00    -0.254 N 
BRANCH   9  10
ATOM     10  S   UNL A   1      33.714  23.301  23.785  1.00  0.00     0.265 S 
ATOM     11  O   UNL A   1      34.096  23.489  22.406  1.00  0.00    -0.201 OA
ATOM     12  O   UNL A   1      32.792  22.232  24.145  1.00  0.00    -0.201 OA
BRANCH  10  13
ATOM     13  C   UNL A   1      35.234  22.968  24.665  1.00  0.00     0.088 A 
ATOM     14  C   UNL A   1      39.160  22.027  26.173  1.00  0.00     0.044 C 
ATOM     15  C   UNL A   1      37.778  22.342  25.681  1.00  0.00    -0.051 A 
ATOM     16  C   UNL A   1      36.980  21.341  25.119  1.00  0.00     0.005 A 
ATOM     17  C   UNL A   1      37.253  23.632  25.817  1.00  0.00     0.005 A 
ATOM     18  C   UNL A   1      35.725  21.657  24.595  1.00  0.00     0.022 A 
ATOM     19  C   UNL A   1      35.970  23.936  25.345  1.00  0.00     0.022 A 
ENDBRANCH  10  13
ENDBRANCH   9  10
BRANCH   9  20
ATOM     20  C   UNL A   1      33.380  25.997  23.697  1.00  0.00     0.053 A 
ATOM     21  C   UNL A   1      33.892  26.965  24.567  1.00  0.00     0.027 A 
ATOM     22  C   UNL A   1      33.199  26.289  22.347  1.00  0.00     0.027 A 
ATOM     23  C   UNL A   1      34.188  28.239  24.099  1.00  0.00     0.002 A 
ATOM     24  C   UNL A   1      33.528  27.562  21.873  1.00  0.00     0.002 A 
ATOM     25  C   UNL A   1      34.009  28.539  22.750  1.00  0.00     0.000 A 
ENDBRANCH   9  20
ENDBRANCH   7   9
ENDBRANCH   4   7
ENDBRANCH   2   3
ENDBRANCH   1   2
BRANCH   1  26
ATOM     26  C   UNL A   1      32.017  29.824  27.138  1.00  0.00     0.023 C 
BRANCH  26  27
ATOM     27  C   UNL A   1      33.367  30.466  26.825  1.00  0.00     0.116 C 
BRANCH  27  28
ATOM     28  N   UNL A   1      33.833  31.474  27.761  1.00  0.00    -0.352 N 
ATOM     29  C   UNL A   1      34.862  31.430  28.689  1.00  0.00     0.251 C 
ATOM     30  H   UNL A   1      33.339  32.326  27.732  1.00  0.00     0.163 HD
ATOM     31  O   UNL A   1      34.976  32.362  29.480  1.00  0.00    -0.269 OA
BRANCH  29  32
ATOM     32  C   UNL A   1      35.907  30.361  28.673  1.00  0.00     0.039 A 
ATOM     33  C   UNL A   1      36.211  29.702  29.880  1.00  0.00     0.014 A 
ATOM     34  C   UNL A   1      36.688  30.091  27.557  1.00  0.00     0.014 A 
ATOM     35  C   UNL A   1      37.402  28.978  30.012  1.00  0.00     0.010 A 
ATOM     36  C   UNL A   1      37.913  29.478  27.708  1.00  0.00     0.010 A 
ATOM     37  C   UNL A   1      38.297  28.968  28.948  1.00  0.00    -0.014 A 
BRANCH  37  38
ATOM     38  C   UNL A   1      39.697  28.571  29.023  1.00  0.00     0.031 A 
ATOM     39  C   UNL A   1      40.128  27.215  28.628  1.00  0.00     0.074 A 
ATOM     40  C   UNL A   1      40.615  29.553  29.174  1.00  0.00     0.049 A 
ATOM     41  N   UNL A   1      41.310  26.749  28.845  1.00  0.00    -0.248 NA
ATOM     42  C   UNL A   1      39.249  26.262  27.959  1.00  0.00     0.031 C 
ATOM     43  C   UNL A   1      42.025  29.522  28.801  1.00  0.00     0.029 A 
ATOM     44  N   UNL A   1      40.465  30.765  29.860  1.00  0.00    -0.354 N 
ATOM     45  C   UNL A   1      41.438  25.577  28.141  1.00  0.00     0.074 A 
ATOM     46  C   UNL A   1      40.112  25.292  27.638  1.00  0.00     0.031 C 
ATOM     47  C   UNL A   1      42.671  30.494  29.466  1.00  0.00     0.029 A 
ATOM     48  C   UNL A   1      41.730  31.064  30.411  1.00  0.00     0.049 A 
ATOM     49  H   UNL A   1      39.642  31.302  29.940  1.00  0.00     0.167 HD
ATOM     50  C   UNL A   1      42.674  25.030  27.967  1.00  0.00     0.037 A 
ATOM     51  C   UNL A   1      41.882  31.090  31.767  1.00  0.00     0.037 A 
ATOM     52  C   UNL A   1      43.710  25.815  28.632  1.00  0.00     0.049 A 
ATOM     53  C   UNL A   1      42.812  30.026  32.304  1.00  0.00     0.074 A 
ATOM     54  C   UNL A   1      44.614  26.777  28.213  1.00  0.00     0.029 A 
ATOM     55  N   UNL A   1      43.702  25.878  30.012  1.00  0.00    -0.354 N 
ATOM     56  N   UNL A   1      43.371  29.100  31.575  1.00  0.00    -0.248 NA
ATOM     57  C   UNL A   1      43.103  29.865  33.728  1.00  0.00     0.031 C 
ATOM     58  C   UNL A   1      45.140  27.426  29.368  1.00  0.00     0.029 A 
ATOM     59  C   UNL A   1      44.561  26.852  30.484  1.00  0.00     0.049 A 
ATOM     60  H   UNL A   1      43.151  25.301  30.589  1.00  0.00     0.167 HD
ATOM     61  C   UNL A   1      44.020  28.215  32.387  1.00  0.00     0.074 A 
ATOM     62  C   UNL A   1      43.831  28.736  33.729  1.00  0.00     0.031 C 
ATOM     63  C   UNL A   1      44.630  27.093  31.913  1.00  0.00     0.037 A 
BRANCH  50  64
ATOM     64  C   UNL A   1      42.960  23.898  27.016  1.00  0.00     0.064 A 
ATOM     65  C   UNL A   1      42.615  22.571  27.346  1.00  0.00     0.173 A 
ATOM     66  C   UNL A   1      43.594  24.057  25.770  1.00  0.00     0.173 A 
ATOM     67  F   UNL A   1      41.930  22.282  28.459  1.00  0.00    -0.203 F 
ATOM     68  C   UNL A   1      42.972  21.484  26.543  1.00  0.00     0.198 A 
ATOM     69  C   UNL A   1      44.003  22.966  24.996  1.00  0.00     0.198 A 
ATOM     70  F   UNL A   1      43.796  25.275  25.247  1.00  0.00    -0.203 F 
ATOM     71  F   UNL A   1      42.617  20.244  26.909  1.00  0.00    -0.200 F 
ATOM     72  C   UNL A   1      43.699  21.679  25.388  1.00  0.00     0.200 A 
ATOM     73  F   UNL A   1      44.694  23.175  23.865  1.00  0.00    -0.200 F 
ATOM     74  F   UNL A   1      44.086  20.633  24.645  1.00  0.00    -0.200 F 
ENDBRANCH  50  64
BRANCH  51  75
ATOM     75  C   UNL A   1      40.655  31.579  32.455  1.00  0.00     0.064 A 
ATOM     76  C   UNL A   1      40.385  32.961  32.427  1.00  0.00     0.173 A 
ATOM     77  C   UNL A   1      39.587  30.714  32.724  1.00  0.00     0.173 A 
ATOM     78  F   UNL A   1      41.369  33.831  32.150  1.00  0.00    -0.203 F 
ATOM     79  C   UNL A   1      39.083  33.444  32.538  1.00  0.00     0.198 A 
ATOM     80  C   UNL A   1      38.287  31.205  32.848  1.00  0.00     0.198 A 
ATOM     81  F   UNL A   1      39.775  29.386  32.730  1.00  0.00    -0.203 F 
ATOM     82  F   UNL A   1      38.841  34.752  32.371  1.00  0.00    -0.200 F 
ATOM     83  C   UNL A   1      38.031  32.562  32.718  1.00  0.00     0.200 A 
ATOM     84  F   UNL A   1      37.263  30.349  32.989  1.00  0.00    -0.200 F 
ATOM     85  F   UNL A   1      36.769  33.013  32.716  1.00  0.00    -0.200 F 
ENDBRANCH  51  75
BRANCH  63  86
ATOM     86  C   UNL A   1      45.350  26.121  32.795  1.00  0.00     0.064 A 
ATOM     87  C   UNL A   1      46.744  25.979  32.756  1.00  0.00     0.173 A 
ATOM     88  C   UNL A   1      44.647  25.218  33.618  1.00  0.00     0.173 A 
ATOM     89  F   UNL A   1      47.491  26.762  31.963  1.00  0.00    -0.203 F 
ATOM     90  C   UNL A   1      47.399  25.016  33.525  1.00  0.00     0.198 A 
ATOM     91  C   UNL A   1      45.298  24.222  34.340  1.00  0.00     0.198 A 
ATOM     92  F   UNL A   1      43.316  25.293  33.761  1.00  0.00    -0.203 F 
ATOM     93  F   UNL A   1      48.737  24.946  33.503  1.00  0.00    -0.200 F 
ATOM     94  C   UNL A   1      46.676  24.129  34.304  1.00  0.00     0.200 A 
ATOM     95  F   UNL A   1      44.583  23.358  35.075  1.00  0.00    -0.200 F 
ATOM     96  F   UNL A   1      47.304  23.191  35.024  1.00  0.00    -0.200 F 
ENDBRANCH  63  86
ENDBRANCH  37  38
ENDBRANCH  29  32
ENDBRANCH  27  28
ENDBRANCH  26  27
ENDBRANCH   1  26
TORSDOF 15
ENDMDL
MODEL 2
REMARK VINA RESULT:     -13.6      1.663      2.625
REMARK SMILES Cc1ccc(S(=O)(=O)N(c2ccccc2)[C@H](C)C(=O)NCCCCNC(=O)c2ccc(-c3c4nc(c(-c5c(F)c(F)c(F)c(F)c5F)c5ccc([nH]5)c(-c5c(F)c(F)c(F)c(F)c5F)c5nc(c(-c6c(F)c(F)c(F)c(F)c6F)c6ccc3[nH]6)C=C5)C=C4)cc2)cc1
REMARK SMILES IDX 22 1 21 2 20 3 18 4 19 5 16 7 17 8 9 9 6 10 7 11 8 12 5 13
REMARK SMILES IDX 1 14 2 15 3 16 92 17 4 18 91 19 10 20 11 21 15 22 12 23
REMARK SMILES IDX 14 24 13 25 23 26 24 27 25 28 26 29 27 31 28 32 29 33 90 34
REMARK SMILES IDX 30 35 89 36 31 37 32 38 33 39 83 40 34 41 88 42 82 43 84 44
REMARK SMILES IDX 35 45 87 46 81 47 80 48 36 50 68 51 48 52 67 53 49 54 52 55
REMARK SMILES IDX 66 56 85 57 50 58 51 59 65 61 86 62 53 63 37 64 38 65 46 66
REMARK SMILES IDX 39 67 40 68 44 69 47 70 41 71 42 72 45 73 43 74 69 75 70 76
REMARK SMILES IDX 78 77 71 78 72 79 76 80 79 81 73 82 74 83 77 84 75 85 54 86
REMARK SMILES IDX 55 87 63 88 56 89 57 90 61 91 64 92 58 93 59 94 62 95 60 96
REMARK H PARENT 20 6 25 30 84 49 52 60
REMARK Flexibility Score: inf
ROOT
ATOM      1  C   UNL A   1      34.028  27.790  26.198  1.00  0.00     0.023 C 
ENDROOT
BRANCH   1   2
ATOM      2  C   UNL A   1      32.724  27.004  26.322  1.00  0.00     0.116 C 
BRANCH   2   3
ATOM      3  N   UNL A   1      31.745  27.228  25.275  1.00  0.00    -0.354 N 
ATOM      4  C   UNL A   1      31.464  26.490  24.155  1.00  0.00     0.243 C 
ATOM      5  O   UNL A   1      30.332  26.662  23.681  1.00  0.00    -0.273 OA
ATOM      6  H   UNL A   1      31.195  28.037  25.387  1.00  0.00     0.163 HD
BRANCH   4   7
ATOM      7  C   UNL A   1      32.451  25.530  23.463  1.00  0.00     0.185 C 
ATOM      8  C   UNL A   1      33.654  26.254  22.852  1.00  0.00     0.043 C 
BRANCH   7   9
ATOM      9  N   UNL A   1      32.797  24.270  24.217  1.00  0.00    -0.254 N 
BRANCH   9  10
ATOM     10  S   UNL A   1      31.532  23.123  24.313  1.00  0.00     0.265 S 
ATOM     11  O   UNL A   1      30.703  23.335  23.151  1.00  0.00    -0.201 OA
ATOM     12  O   UNL A   1      30.958  23.238  25.647  1.00  0.00    -0.201 OA
BRANCH  10  13
ATOM     13  C   UNL A   1      32.140  21.448  24.173  1.00  0.00     0.088 A 
ATOM     14  C   UNL A   1      33.076  17.241  24.233  1.00  0.00     0.044 C 
ATOM     15  C   UNL A   1      32.787  18.713  24.208  1.00  0.00    -0.051 A 
ATOM     16  C   UNL A   1      32.901  19.477  25.373  1.00  0.00     0.005 A 
ATOM     17  C   UNL A   1      32.442  19.350  23.011  1.00  0.00     0.005 A 
ATOM     18  C   UNL A   1      32.559  20.831  25.360  1.00  0.00     0.022 A 
ATOM     19  C   UNL A   1      32.156  20.720  22.985  1.00  0.00     0.022 A 
ENDBRANCH  10  13
ENDBRANCH   9  10
BRANCH   9  20
ATOM     20  C   UNL A   1      34.151  23.848  24.255  1.00  0.00     0.053 A 
ATOM     21  C   UNL A   1      34.845  24.114  25.439  1.00  0.00     0.027 A 
ATOM     22  C   UNL A   1      34.806  23.275  23.167  1.00  0.00     0.027 A 
ATOM     23  C   UNL A   1      36.206  23.844  25.526  1.00  0.00     0.002 A 
ATOM     24  C   UNL A   1      36.167  22.976  23.270  1.00  0.00     0.002 A 
ATOM     25  C   UNL A   1      36.868  23.271  24.443  1.00  0.00     0.000 A 
ENDBRANCH   9  20
ENDBRANCH   7   9
ENDBRANCH   4   7
ENDBRANCH   2   3
ENDBRANCH   1   2
BRANCH   1  26
ATOM     26  C   UNL A   1      33.892  29.313  26.265  1.00  0.00     0.023 C 
BRANCH  26  27
ATOM     27  C   UNL A   1      33.503  29.887  27.626  1.00  0.00     0.116 C 
BRANCH  27  28
ATOM     28  N   UNL A   1      34.239  31.061  28.063  1.00  0.00    -0.352 N 
ATOM     29  C   UNL A   1      35.485  31.166  28.663  1.00  0.00     0.251 C 
ATOM     30  H   UNL A   1      33.781  31.919  27.908  1.00  0.00     0.163 HD
ATOM     31  O   UNL A   1      35.842  32.265  29.081  1.00  0.00    -0.269 OA
BRANCH  29  32
ATOM     32  C   UNL A   1      36.454  30.029  28.699  1.00  0.00     0.039 A 
ATOM     33  C   UNL A   1      36.646  29.349  29.917  1.00  0.00     0.014 A 
ATOM     34  C   UNL A   1      37.274  29.707  27.626  1.00  0.00     0.014 A 
ATOM     35  C   UNL A   1      37.775  28.544  30.110  1.00  0.00     0.010 A 
ATOM     36  C   UNL A   1      38.444  29.011  27.840  1.00  0.00     0.010 A 
ATOM     37  C   UNL A   1      38.725  28.475  29.097  1.00  0.00    -0.014 A 
BRANCH  37  38
ATOM     38  C   UNL A   1      40.087  27.983  29.246  1.00  0.00     0.031 A 
ATOM     39  C   UNL A   1      40.496  26.681  28.680  1.00  0.00     0.074 A 
ATOM     40  C   UNL A   1      41.028  28.868  29.647  1.00  0.00     0.049 A 
ATOM     41  N   UNL A   1      41.624  26.113  28.936  1.00  0.00    -0.248 NA
ATOM     42  C   UNL A   1      39.652  25.904  27.779  1.00  0.00     0.031 C 
ATOM     43  C   UNL A   1      42.468  28.807  29.418  1.00  0.00     0.029 A 
ATOM     44  N   UNL A   1      40.860  29.964  30.504  1.00  0.00    -0.354 N 
ATOM     45  C   UNL A   1      41.773  25.061  28.065  1.00  0.00     0.074 A 
ATOM     46  C   UNL A   1      40.499  24.944  27.392  1.00  0.00     0.031 C 
ATOM     47  C   UNL A   1      43.082  29.618  30.295  1.00  0.00     0.029 A 
ATOM     48  C   UNL A   1      42.070  30.091  31.221  1.00  0.00     0.049 A 
ATOM     49  H   UNL A   1      40.060  30.532  30.588  1.00  0.00     0.167 HD
ATOM     50  C   UNL A   1      42.995  24.471  27.930  1.00  0.00     0.037 A 
ATOM     51  C   UNL A   1      42.075  29.893  32.571  1.00  0.00     0.037 A 
ATOM     52  C   UNL A   1      43.987  25.073  28.815  1.00  0.00     0.049 A 
ATOM     53  C   UNL A   1      42.889  28.700  33.017  1.00  0.00     0.074 A 
ATOM     54  C   UNL A   1      44.975  26.030  28.652  1.00  0.00     0.029 A 
ATOM     55  N   UNL A   1      43.831  24.918  30.179  1.00  0.00    -0.354 N 
ATOM     56  N   UNL A   1      43.481  27.868  32.207  1.00  0.00    -0.248 NA
ATOM     57  C   UNL A   1      43.015  28.298  34.418  1.00  0.00     0.031 C 
ATOM     58  C   UNL A   1      45.401  26.454  29.945  1.00  0.00     0.029 A 
ATOM     59  C   UNL A   1      44.677  25.748  30.887  1.00  0.00     0.049 A 
ATOM     60  H   UNL A   1      43.194  24.293  30.595  1.00  0.00     0.167 HD
ATOM     61  C   UNL A   1      43.995  26.825  32.924  1.00  0.00     0.074 A 
ATOM     62  C   UNL A   1      43.685  27.139  34.307  1.00  0.00     0.031 C 
ATOM     63  C   UNL A   1      44.600  25.756  32.337  1.00  0.00     0.037 A 
BRANCH  50  64
ATOM     64  C   UNL A   1      43.330  23.487  26.840  1.00  0.00     0.064 A 
ATOM     65  C   UNL A   1      42.964  22.130  26.952  1.00  0.00     0.173 A 
ATOM     66  C   UNL A   1      44.032  23.820  25.667  1.00  0.00     0.173 A 
ATOM     67  F   UNL A   1      42.218  21.688  27.972  1.00  0.00    -0.203 F 
ATOM     68  C   UNL A   1      43.362  21.169  26.019  1.00  0.00     0.198 A 
ATOM     69  C   UNL A   1      44.480  22.850  24.764  1.00  0.00     0.198 A 
ATOM     70  F   UNL A   1      44.266  25.099  25.340  1.00  0.00    -0.203 F 
ATOM     71  F   UNL A   1      42.984  19.892  26.179  1.00  0.00    -0.200 F 
ATOM     72  C   UNL A   1      44.153  21.523  24.946  1.00  0.00     0.200 A 
ATOM     73  F   UNL A   1      45.234  23.214  23.716  1.00  0.00    -0.200 F 
ATOM     74  F   UNL A   1      44.577  20.593  24.080  1.00  0.00    -0.200 F 
ENDBRANCH  50  64
BRANCH  51  75
ATOM     75  C   UNL A   1      40.804  30.344  33.203  1.00  0.00     0.064 A 
ATOM     76  C   UNL A   1      40.583  31.729  33.335  1.00  0.00     0.173 A 
ATOM     77  C   UNL A   1      39.686  29.501  33.256  1.00  0.00     0.173 A 
ATOM     78  F   UNL A   1      41.618  32.582  33.267  1.00  0.00    -0.203 F 
ATOM     79  C   UNL A   1      39.294  32.253  33.390  1.00  0.00     0.198 A 
ATOM     80  C   UNL A   1      38.397  30.030  33.325  1.00  0.00     0.198 A 
ATOM     81  F   UNL A   1      39.828  28.176  33.102  1.00  0.00    -0.203 F 
ATOM     82  F   UNL A   1      39.112  33.581  33.377  1.00  0.00    -0.200 F 
ATOM     83  C   UNL A   1      38.201  31.403  33.354  1.00  0.00     0.200 A 
ATOM     84  F   UNL A   1      37.337  29.211  33.256  1.00  0.00    -0.200 F 
ATOM     85  F   UNL A   1      36.960  31.908  33.296  1.00  0.00    -0.200 F 
ENDBRANCH  51  75
BRANCH  63  86
ATOM     86  C   UNL A   1      45.173  24.614  33.115  1.00  0.00     0.064 A 
ATOM     87  C   UNL A   1      44.391  23.519  33.509  1.00  0.00     0.173 A 
ATOM     88  C   UNL A   1      46.500  24.645  33.593  1.00  0.00     0.173 A 
ATOM     89  F   UNL A   1      43.103  23.430  33.143  1.00  0.00    -0.203 F 
ATOM     90  C   UNL A   1      44.916  22.497  34.301  1.00  0.00     0.198 A 
ATOM     91  C   UNL A   1      47.003  23.653  34.430  1.00  0.00     0.198 A 
ATOM     92  F   UNL A   1      47.346  25.624  33.242  1.00  0.00    -0.203 F 
ATOM     93  F   UNL A   1      44.153  21.440  34.613  1.00  0.00    -0.200 F 
ATOM     94  C   UNL A   1      46.215  22.571  34.773  1.00  0.00     0.200 A 
ATOM     95  F   UNL A   1      48.257  23.748  34.894  1.00  0.00    -0.200 F 
ATOM     96  F   UNL A   1      46.710  21.601  35.552  1.00  0.00    -0.200 F 
ENDBRANCH  63  86
ENDBRANCH  37  38
ENDBRANCH  29  32
ENDBRANCH  27  28
ENDBRANCH  26  27
ENDBRANCH   1  26
TORSDOF 15
ENDMDL
MODEL 3
REMARK VINA RESULT:     -13.6      3.182      9.512
REMARK SMILES Cc1ccc(S(=O)(=O)N(c2ccccc2)[C@H](C)C(=O)NCCCCNC(=O)c2ccc(-c3c4nc(c(-c5c(F)c(F)c(F)c(F)c5F)c5ccc([nH]5)c(-c5c(F)c(F)c(F)c(F)c5F)c5nc(c(-c6c(F)c(F)c(F)c(F)c6F)c6ccc3[nH]6)C=C5)C=C4)cc2)cc1
REMARK SMILES IDX 22 1 21 2 20 3 18 4 19 5 16 7 17 8 9 9 6 10 7 11 8 12 5 13
REMARK SMILES IDX 1 14 2 15 3 16 92 17 4 18 91 19 10 20 11 21 15 22 12 23
REMARK SMILES IDX 14 24 13 25 23 26 24 27 25 28 26 29 27 31 28 32 29 33 90 34
REMARK SMILES IDX 30 35 89 36 31 37 32 38 33 39 83 40 34 41 88 42 82 43 84 44
REMARK SMILES IDX 35 45 87 46 81 47 80 48 36 50 68 51 48 52 67 53 49 54 52 55
REMARK SMILES IDX 66 56 85 57 50 58 51 59 65 61 86 62 53 63 37 64 38 65 46 66
REMARK SMILES IDX 39 67 40 68 44 69 47 70 41 71 42 72 45 73 43 74 69 75 70 76
REMARK SMILES IDX 78 77 71 78 72 79 76 80 79 81 73 82 74 83 77 84 75 85 54 86
REMARK SMILES IDX 55 87 63 88 56 89 57 90 61 91 64 92 58 93 59 94 62 95 60 96
REMARK H PARENT 20 6 25 30 84 49 52 60
REMARK Flexibility Score: inf
ROOT
ATOM      1  C   UNL A   1      36.175  20.740  25.090  1.00  0.00     0.023 C 
ENDROOT
BRANCH   1   2
ATOM      2  C   UNL A   1      34.828  21.413  24.831  1.00  0.00     0.116 C 
BRANCH   2   3
ATOM      3  N   UNL A   1      34.807  22.411  23.779  1.00  0.00    -0.354 N 
ATOM      4  C   UNL A   1      34.340  23.700  23.793  1.00  0.00     0.243 C 
ATOM      5  O   UNL A   1      34.823  24.443  22.928  1.00  0.00    -0.273 OA
ATOM      6  H   UNL A   1      35.187  22.117  22.920  1.00  0.00     0.163 HD
BRANCH   4   7
ATOM      7  C   UNL A   1      33.266  24.237  24.759  1.00  0.00     0.185 C 
ATOM      8  C   UNL A   1      33.694  24.157  26.226  1.00  0.00     0.043 C 
BRANCH   7   9
ATOM      9  N   UNL A   1      32.609  25.539  24.369  1.00  0.00    -0.254 N 
BRANCH   9  10
ATOM     10  S   UNL A   1      31.347  25.388  23.225  1.00  0.00     0.265 S 
ATOM     11  O   UNL A   1      30.543  24.269  23.652  1.00  0.00    -0.201 OA
ATOM     12  O   UNL A   1      31.970  25.376  21.908  1.00  0.00    -0.201 OA
BRANCH  10  13
ATOM     13  C   UNL A   1      30.255  26.804  23.248  1.00  0.00     0.088 A 
ATOM     14  C   UNL A   1      27.651  30.181  22.622  1.00  0.00     0.044 C 
ATOM     15  C   UNL A   1      28.569  29.021  22.872  1.00  0.00    -0.051 A 
ATOM     16  C   UNL A   1      29.920  29.097  22.519  1.00  0.00     0.005 A 
ATOM     17  C   UNL A   1      28.098  27.864  23.502  1.00  0.00     0.005 A 
ATOM     18  C   UNL A   1      30.752  27.988  22.686  1.00  0.00     0.022 A 
ATOM     19  C   UNL A   1      28.946  26.772  23.724  1.00  0.00     0.022 A 
ENDBRANCH  10  13
ENDBRANCH   9  10
BRANCH   9  20
ATOM     20  C   UNL A   1      32.607  26.607  25.302  1.00  0.00     0.053 A 
ATOM     21  C   UNL A   1      33.714  27.460  25.264  1.00  0.00     0.027 A 
ATOM     22  C   UNL A   1      31.618  26.779  26.269  1.00  0.00     0.027 A 
ATOM     23  C   UNL A   1      33.857  28.462  26.215  1.00  0.00     0.002 A 
ATOM     24  C   UNL A   1      31.749  27.809  27.204  1.00  0.00     0.002 A 
ATOM     25  C   UNL A   1      32.873  28.641  27.185  1.00  0.00     0.000 A 
ENDBRANCH   9  20
ENDBRANCH   7   9
ENDBRANCH   4   7
ENDBRANCH   2   3
ENDBRANCH   1   2
BRANCH   1  26
ATOM     26  C   UNL A   1      37.409  21.568  24.722  1.00  0.00     0.023 C 
BRANCH  26  27
ATOM     27  C   UNL A   1      37.934  22.501  25.813  1.00  0.00     0.116 C 
BRANCH  27  28
ATOM     28  N   UNL A   1      39.337  22.359  26.159  1.00  0.00    -0.352 N 
ATOM     29  C   UNL A   1      40.276  23.318  26.507  1.00  0.00     0.251 C 
ATOM     30  H   UNL A   1      39.676  21.435  26.147  1.00  0.00     0.163 HD
ATOM     31  O   UNL A   1      41.450  22.974  26.616  1.00  0.00    -0.269 OA
BRANCH  29  32
ATOM     32  C   UNL A   1      39.894  24.715  26.878  1.00  0.00     0.039 A 
ATOM     33  C   UNL A   1      40.416  25.779  26.117  1.00  0.00     0.014 A 
ATOM     34  C   UNL A   1      39.166  25.015  28.022  1.00  0.00     0.014 A 
ATOM     35  C   UNL A   1      40.402  27.085  26.621  1.00  0.00     0.010 A 
ATOM     36  C   UNL A   1      39.247  26.274  28.577  1.00  0.00     0.010 A 
ATOM     37  C   UNL A   1      39.912  27.299  27.904  1.00  0.00    -0.014 A 
BRANCH  37  38
ATOM     38  C   UNL A   1      40.130  28.495  28.705  1.00  0.00     0.031 A 
ATOM     39  C   UNL A   1      39.064  29.504  28.877  1.00  0.00     0.074 A 
ATOM     40  C   UNL A   1      41.210  28.512  29.519  1.00  0.00     0.049 A 
ATOM     41  N   UNL A   1      39.254  30.661  29.413  1.00  0.00    -0.248 NA
ATOM     42  C   UNL A   1      37.688  29.291  28.443  1.00  0.00     0.031 C 
ATOM     43  C   UNL A   1      41.405  29.302  30.730  1.00  0.00     0.029 A 
ATOM     44  N   UNL A   1      42.449  27.894  29.306  1.00  0.00    -0.354 N 
ATOM     45  C   UNL A   1      38.024  31.230  29.634  1.00  0.00     0.074 A 
ATOM     46  C   UNL A   1      37.080  30.358  28.973  1.00  0.00     0.031 C 
ATOM     47  C   UNL A   1      42.717  29.350  31.011  1.00  0.00     0.029 A 
ATOM     48  C   UNL A   1      43.416  28.738  29.897  1.00  0.00     0.049 A 
ATOM     49  H   UNL A   1      42.613  27.042  28.840  1.00  0.00     0.167 HD
ATOM     50  C   UNL A   1      37.927  32.322  30.445  1.00  0.00     0.037 A 
ATOM     51  C   UNL A   1      44.344  29.351  29.107  1.00  0.00     0.037 A 
ATOM     52  C   UNL A   1      39.232  32.744  30.941  1.00  0.00     0.049 A 
ATOM     53  C   UNL A   1      44.235  30.859  29.086  1.00  0.00     0.074 A 
ATOM     54  C   UNL A   1      39.933  32.541  32.118  1.00  0.00     0.029 A 
ATOM     55  N   UNL A   1      40.151  33.240  30.035  1.00  0.00    -0.354 N 
ATOM     56  N   UNL A   1      43.301  31.539  29.691  1.00  0.00    -0.248 NA
ATOM     57  C   UNL A   1      45.120  31.712  28.293  1.00  0.00     0.031 C 
ATOM     58  C   UNL A   1      41.291  32.913  31.898  1.00  0.00     0.029 A 
ATOM     59  C   UNL A   1      41.410  33.348  30.592  1.00  0.00     0.049 A 
ATOM     60  H   UNL A   1      39.935  33.484  29.106  1.00  0.00     0.167 HD
ATOM     61  C   UNL A   1      43.403  32.856  29.343  1.00  0.00     0.074 A 
ATOM     62  C   UNL A   1      44.561  32.920  28.470  1.00  0.00     0.031 C 
ATOM     63  C   UNL A   1      42.509  33.797  29.757  1.00  0.00     0.037 A 
BRANCH  50  64
ATOM     64  C   UNL A   1      36.619  32.872  30.950  1.00  0.00     0.064 A 
ATOM     65  C   UNL A   1      35.820  33.702  30.137  1.00  0.00     0.173 A 
ATOM     66  C   UNL A   1      36.110  32.632  32.239  1.00  0.00     0.173 A 
ATOM     67  F   UNL A   1      36.137  33.944  28.859  1.00  0.00    -0.203 F 
ATOM     68  C   UNL A   1      34.664  34.326  30.613  1.00  0.00     0.198 A 
ATOM     69  C   UNL A   1      34.985  33.301  32.734  1.00  0.00     0.198 A 
ATOM     70  F   UNL A   1      36.661  31.710  33.041  1.00  0.00    -0.203 F 
ATOM     71  F   UNL A   1      33.945  35.106  29.793  1.00  0.00    -0.200 F 
ATOM     72  C   UNL A   1      34.268  34.155  31.923  1.00  0.00     0.200 A 
ATOM     73  F   UNL A   1      34.603  33.110  34.006  1.00  0.00    -0.200 F 
ATOM     74  F   UNL A   1      33.188  34.794  32.394  1.00  0.00    -0.200 F 
ENDBRANCH  50  64
BRANCH  51  75
ATOM     75  C   UNL A   1      44.730  28.506  27.944  1.00  0.00     0.064 A 
ATOM     76  C   UNL A   1      45.549  27.385  28.181  1.00  0.00     0.173 A 
ATOM     77  C   UNL A   1      43.982  28.524  26.759  1.00  0.00     0.173 A 
ATOM     78  F   UNL A   1      46.269  27.308  29.312  1.00  0.00    -0.203 F 
ATOM     79  C   UNL A   1      45.523  26.279  27.335  1.00  0.00     0.198 A 
ATOM     80  C   UNL A   1      43.970  27.419  25.908  1.00  0.00     0.198 A 
ATOM     81  F   UNL A   1      43.157  29.548  26.494  1.00  0.00    -0.203 F 
ATOM     82  F   UNL A   1      46.209  25.174  27.659  1.00  0.00    -0.200 F 
ATOM     83  C   UNL A   1      44.709  26.286  26.215  1.00  0.00     0.200 A 
ATOM     84  F   UNL A   1      43.156  27.410  24.841  1.00  0.00    -0.200 F 
ATOM     85  F   UNL A   1      44.599  25.184  25.459  1.00  0.00    -0.200 F 
ENDBRANCH  51  75
BRANCH  63  86
ATOM     86  C   UNL A   1      42.618  35.243  29.388  1.00  0.00     0.064 A 
ATOM     87  C   UNL A   1      42.003  35.763  28.241  1.00  0.00     0.173 A 
ATOM     88  C   UNL A   1      43.445  36.125  30.114  1.00  0.00     0.173 A 
ATOM     89  F   UNL A   1      41.238  34.984  27.461  1.00  0.00    -0.203 F 
ATOM     90  C   UNL A   1      42.174  37.095  27.863  1.00  0.00     0.198 A 
ATOM     91  C   UNL A   1      43.660  37.437  29.704  1.00  0.00     0.198 A 
ATOM     92  F   UNL A   1      44.047  35.743  31.250  1.00  0.00    -0.203 F 
ATOM     93  F   UNL A   1      41.527  37.570  26.790  1.00  0.00    -0.200 F 
ATOM     94  C   UNL A   1      43.013  37.927  28.585  1.00  0.00     0.200 A 
ATOM     95  F   UNL A   1      44.490  38.225  30.402  1.00  0.00    -0.200 F 
ATOM     96  F   UNL A   1      43.195  39.200  28.209  1.00  0.00    -0.200 F 
ENDBRANCH  63  86
ENDBRANCH  37  38
ENDBRANCH  29  32
ENDBRANCH  27  28
ENDBRANCH  26  27
ENDBRANCH   1  26
TORSDOF 15
ENDMDL
