MODEL 1
REMARK VINA RESULT:     -13.0      0.000      0.000
REMARK SMILES C[NH+]1CCC([NH+]2CCC(Oc3ccc4ccccc4c3)(C(=O)NCCCCNC(=O)c3ccc(-c4c5nc(c(-c6c(F)c(F)c(F)c(F)c6F)c6ccc([nH]6)c(-c6c(F)c(F)c(F)c(F)c6F)c6nc(c(-c7c(F)c(F)c(F)c(F)c7F)c7ccc4[nH]7)C=C6)C=C5)cc3)CC2)CC1
REMARK SMILES IDX 25 1 24 2 23 3 21 4 22 5 9 7 6 8 7 9 95 10 8 12 94 13 5 14
REMARK SMILES IDX 1 15 2 16 3 17 97 18 4 20 96 21 10 22 11 23 12 24 20 25
REMARK SMILES IDX 13 26 19 27 14 28 18 29 15 30 17 31 16 32 26 33 27 34 28 35
REMARK SMILES IDX 29 36 30 38 31 39 32 40 93 41 33 42 92 43 34 44 35 45 36 46
REMARK SMILES IDX 86 47 37 48 91 49 85 50 87 51 38 52 90 53 84 54 83 55 39 57
REMARK SMILES IDX 71 58 51 59 70 60 52 61 55 62 69 63 88 64 53 65 54 66 68 68
REMARK SMILES IDX 89 69 56 70 40 71 41 72 49 73 42 74 43 75 47 76 50 77 44 78
REMARK SMILES IDX 45 79 48 80 46 81 72 82 73 83 81 84 74 85 75 86 79 87 82 88
REMARK SMILES IDX 76 89 77 90 80 91 78 92 57 93 58 94 66 95 59 96 60 97 64 98
REMARK SMILES IDX 67 99 61 100 62 101 65 102 63 103
REMARK H PARENT 23 6 6 11 2 19 28 37 87 56 55 67
REMARK Flexibility Score: inf
ROOT
ATOM      1  C   UNL A   1      39.194  22.523  26.429  1.00  0.00     0.023 C 
ENDROOT
BRANCH   1   2
ATOM      2  C   UNL A   1      38.018  23.408  26.017  1.00  0.00     0.116 C 
BRANCH   2   3
ATOM      3  N   UNL A   1      37.671  23.211  24.624  1.00  0.00    -0.353 N 
ATOM      4  C   UNL A   1      36.452  23.244  24.005  1.00  0.00     0.264 C 
ATOM      5  O   UNL A   1      36.470  23.100  22.778  1.00  0.00    -0.270 OA
ATOM      6  H   UNL A   1      38.434  23.024  24.030  1.00  0.00     0.163 HD
BRANCH   4   7
ATOM      7  C   UNL A   1      35.134  23.451  24.810  1.00  0.00     0.197 C 
ATOM      8  N   UNL A   1      33.888  20.783  24.882  1.00  0.00    -0.332 N 
ATOM      9  C   UNL A   1      35.109  21.076  25.637  1.00  0.00     0.267 C 
ATOM     10  C   UNL A   1      33.814  21.587  23.648  1.00  0.00     0.267 C 
ATOM     11  H   UNL A   1      33.109  21.066  25.475  1.00  0.00     0.348 HD
ATOM     12  C   UNL A   1      35.086  22.539  26.040  1.00  0.00     0.120 C 
ATOM     13  C   UNL A   1      33.924  23.101  23.917  1.00  0.00     0.120 C 
BRANCH   8  14
ATOM     14  C   UNL A   1      33.672  19.335  24.643  1.00  0.00     0.195 C 
ATOM     15  C   UNL A   1      33.494  15.090  25.397  1.00  0.00     0.332 C 
ATOM     16  N   UNL A   1      33.713  16.533  25.490  1.00  0.00    -0.337 N 
ATOM     17  C   UNL A   1      32.437  17.256  25.432  1.00  0.00     0.268 C 
ATOM     18  C   UNL A   1      34.616  16.993  24.430  1.00  0.00     0.268 C 
ATOM     19  H   UNL A   1      34.152  16.728  26.389  1.00  0.00     0.347 HD
ATOM     20  C   UNL A   1      32.662  18.750  25.654  1.00  0.00     0.126 C 
ATOM     21  C   UNL A   1      34.949  18.475  24.613  1.00  0.00     0.126 C 
ENDBRANCH   8  14
BRANCH   7  22
ATOM     22  O   UNL A   1      35.216  24.872  25.091  1.00  0.00    -0.477 OA
BRANCH  22  23
ATOM     23  C   UNL A   1      34.086  25.630  25.054  1.00  0.00     0.121 A 
ATOM     24  C   UNL A   1      33.220  25.739  26.136  1.00  0.00     0.047 A 
ATOM     25  C   UNL A   1      33.904  26.445  23.937  1.00  0.00     0.055 A 
ATOM     26  C   UNL A   1      32.094  26.559  26.055  1.00  0.00     0.012 A 
ATOM     27  C   UNL A   1      32.802  27.311  23.856  1.00  0.00    -0.015 A 
ATOM     28  C   UNL A   1      31.868  27.345  24.919  1.00  0.00    -0.018 A 
ATOM     29  C   UNL A   1      32.608  28.153  22.750  1.00  0.00     0.009 A 
ATOM     30  C   UNL A   1      30.747  28.182  24.829  1.00  0.00     0.009 A 
ATOM     31  C   UNL A   1      31.498  28.996  22.684  1.00  0.00     0.001 A 
ATOM     32  C   UNL A   1      30.563  29.002  23.716  1.00  0.00     0.001 A 
ENDBRANCH  22  23
ENDBRANCH   7  22
ENDBRANCH   4   7
ENDBRANCH   2   3
ENDBRANCH   1   2
BRANCH   1  33
ATOM     33  C   UNL A   1      39.328  21.230  25.624  1.00  0.00     0.023 C 
BRANCH  33  34
ATOM     34  C   UNL A   1      39.655  19.995  26.452  1.00  0.00     0.116 C 
BRANCH  34  35
ATOM     35  N   UNL A   1      40.797  19.256  25.940  1.00  0.00    -0.352 N 
ATOM     36  C   UNL A   1      42.093  19.676  25.783  1.00  0.00     0.251 C 
ATOM     37  H   UNL A   1      40.616  18.327  25.669  1.00  0.00     0.163 HD
ATOM     38  O   UNL A   1      42.907  18.964  25.201  1.00  0.00    -0.269 OA
BRANCH  36  39
ATOM     39  C   UNL A   1      42.500  21.002  26.291  1.00  0.00     0.039 A 
ATOM     40  C   UNL A   1      42.805  22.009  25.374  1.00  0.00     0.014 A 
ATOM     41  C   UNL A   1      42.582  21.252  27.663  1.00  0.00     0.014 A 
ATOM     42  C   UNL A   1      43.157  23.278  25.835  1.00  0.00     0.010 A 
ATOM     43  C   UNL A   1      42.843  22.539  28.119  1.00  0.00     0.010 A 
ATOM     44  C   UNL A   1      43.158  23.559  27.211  1.00  0.00    -0.014 A 
BRANCH  44  45
ATOM     45  C   UNL A   1      43.537  24.902  27.716  1.00  0.00     0.031 A 
ATOM     46  C   UNL A   1      42.469  25.909  28.048  1.00  0.00     0.074 A 
ATOM     47  C   UNL A   1      44.837  25.229  27.840  1.00  0.00     0.049 A 
ATOM     48  N   UNL A   1      42.593  27.140  28.477  1.00  0.00    -0.248 NA
ATOM     49  C   UNL A   1      41.074  25.486  27.841  1.00  0.00     0.031 C 
ATOM     50  C   UNL A   1      45.965  24.361  27.499  1.00  0.00     0.029 A 
ATOM     51  N   UNL A   1      45.430  26.383  28.286  1.00  0.00    -0.354 N 
ATOM     52  C   UNL A   1      41.300  27.636  28.577  1.00  0.00     0.074 A 
ATOM     53  C   UNL A   1      40.410  26.601  28.099  1.00  0.00     0.031 C 
ATOM     54  C   UNL A   1      47.113  25.000  27.778  1.00  0.00     0.029 A 
ATOM     55  C   UNL A   1      46.803  26.334  28.284  1.00  0.00     0.049 A 
ATOM     56  H   UNL A   1      44.919  27.173  28.578  1.00  0.00     0.167 HD
ATOM     57  C   UNL A   1      40.886  28.834  29.056  1.00  0.00     0.037 A 
ATOM     58  C   UNL A   1      47.706  27.262  28.652  1.00  0.00     0.037 A 
ATOM     59  C   UNL A   1      41.774  29.852  29.554  1.00  0.00     0.049 A 
ATOM     60  C   UNL A   1      47.221  28.585  29.182  1.00  0.00     0.074 A 
ATOM     61  C   UNL A   1      41.457  31.079  30.108  1.00  0.00     0.029 A 
ATOM     62  N   UNL A   1      43.159  29.760  29.554  1.00  0.00    -0.354 N 
ATOM     63  N   UNL A   1      45.993  29.017  29.343  1.00  0.00    -0.248 NA
ATOM     64  C   UNL A   1      48.252  29.545  29.599  1.00  0.00     0.031 C 
ATOM     65  C   UNL A   1      42.650  31.751  30.396  1.00  0.00     0.029 A 
ATOM     66  C   UNL A   1      43.711  30.917  30.080  1.00  0.00     0.049 A 
ATOM     67  H   UNL A   1      43.673  28.985  29.228  1.00  0.00     0.167 HD
ATOM     68  C   UNL A   1      46.102  30.280  29.908  1.00  0.00     0.074 A 
ATOM     69  C   UNL A   1      47.517  30.535  30.083  1.00  0.00     0.031 C 
ATOM     70  C   UNL A   1      45.122  31.153  30.251  1.00  0.00     0.037 A 
BRANCH  57  71
ATOM     71  C   UNL A   1      39.409  29.105  29.065  1.00  0.00     0.064 A 
ATOM     72  C   UNL A   1      38.653  29.034  30.247  1.00  0.00     0.173 A 
ATOM     73  C   UNL A   1      38.741  29.461  27.884  1.00  0.00     0.173 A 
ATOM     74  F   UNL A   1      39.237  28.685  31.403  1.00  0.00    -0.203 F 
ATOM     75  C   UNL A   1      37.281  29.274  30.238  1.00  0.00     0.198 A 
ATOM     76  C   UNL A   1      37.375  29.736  27.885  1.00  0.00     0.198 A 
ATOM     77  F   UNL A   1      39.413  29.547  26.726  1.00  0.00    -0.203 F 
ATOM     78  F   UNL A   1      36.572  29.141  31.368  1.00  0.00    -0.200 F 
ATOM     79  C   UNL A   1      36.645  29.632  29.059  1.00  0.00     0.200 A 
ATOM     80  F   UNL A   1      36.766  30.096  26.748  1.00  0.00    -0.200 F 
ATOM     81  F   UNL A   1      35.327  29.870  29.053  1.00  0.00    -0.200 F 
ENDBRANCH  57  71
BRANCH  58  82
ATOM     82  C   UNL A   1      49.160  26.964  28.565  1.00  0.00     0.064 A 
ATOM     83  C   UNL A   1      49.872  27.187  27.378  1.00  0.00     0.173 A 
ATOM     84  C   UNL A   1      49.864  26.434  29.656  1.00  0.00     0.173 A 
ATOM     85  F   UNL A   1      49.240  27.674  26.300  1.00  0.00    -0.203 F 
ATOM     86  C   UNL A   1      51.223  26.862  27.276  1.00  0.00     0.198 A 
ATOM     87  C   UNL A   1      51.223  26.140  29.564  1.00  0.00     0.198 A 
ATOM     88  F   UNL A   1      49.232  26.209  30.818  1.00  0.00    -0.203 F 
ATOM     89  F   UNL A   1      51.865  27.031  26.112  1.00  0.00    -0.200 F 
ATOM     90  C   UNL A   1      51.899  26.344  28.370  1.00  0.00     0.200 A 
ATOM     91  F   UNL A   1      51.875  25.656  30.629  1.00  0.00    -0.200 F 
ATOM     92  F   UNL A   1      53.198  26.032  28.273  1.00  0.00    -0.200 F 
ENDBRANCH  58  82
BRANCH  70  93
ATOM     93  C   UNL A   1      45.548  32.443  30.893  1.00  0.00     0.064 A 
ATOM     94  C   UNL A   1      45.707  32.564  32.282  1.00  0.00     0.173 A 
ATOM     95  C   UNL A   1      45.813  33.573  30.103  1.00  0.00     0.173 A 
ATOM     96  F   UNL A   1      45.456  31.518  33.084  1.00  0.00    -0.203 F 
ATOM     97  C   UNL A   1      46.068  33.779  32.859  1.00  0.00     0.198 A 
ATOM     98  C   UNL A   1      46.210  34.775  30.680  1.00  0.00     0.198 A 
ATOM     99  F   UNL A   1      45.688  33.511  28.769  1.00  0.00    -0.203 F 
ATOM    100  F   UNL A   1      46.143  33.889  34.192  1.00  0.00    -0.200 F 
ATOM    101  C   UNL A   1      46.324  34.881  32.058  1.00  0.00     0.200 A 
ATOM    102  F   UNL A   1      46.476  35.834  29.903  1.00  0.00    -0.200 F 
ATOM    103  F   UNL A   1      46.671  36.050  32.615  1.00  0.00    -0.200 F 
ENDBRANCH  70  93
ENDBRANCH  44  45
ENDBRANCH  36  39
ENDBRANCH  34  35
ENDBRANCH  33  34
ENDBRANCH   1  33
TORSDOF 14
ENDMDL
MODEL 2
REMARK VINA RESULT:     -12.9      0.494      6.943
REMARK SMILES C[NH+]1CCC([NH+]2CCC(Oc3ccc4ccccc4c3)(C(=O)NCCCCNC(=O)c3ccc(-c4c5nc(c(-c6c(F)c(F)c(F)c(F)c6F)c6ccc([nH]6)c(-c6c(F)c(F)c(F)c(F)c6F)c6nc(c(-c7c(F)c(F)c(F)c(F)c7F)c7ccc4[nH]7)C=C6)C=C5)cc3)CC2)CC1
REMARK SMILES IDX 25 1 24 2 23 3 21 4 22 5 9 7 6 8 7 9 95 10 8 12 94 13 5 14
REMARK SMILES IDX 1 15 2 16 3 17 97 18 4 20 96 21 10 22 11 23 12 24 20 25
REMARK SMILES IDX 13 26 19 27 14 28 18 29 15 30 17 31 16 32 26 33 27 34 28 35
REMARK SMILES IDX 29 36 30 38 31 39 32 40 93 41 33 42 92 43 34 44 35 45 36 46
REMARK SMILES IDX 86 47 37 48 91 49 85 50 87 51 38 52 90 53 84 54 83 55 39 57
REMARK SMILES IDX 71 58 51 59 70 60 52 61 55 62 69 63 88 64 53 65 54 66 68 68
REMARK SMILES IDX 89 69 56 70 40 71 41 72 49 73 42 74 43 75 47 76 50 77 44 78
REMARK SMILES IDX 45 79 48 80 46 81 72 82 73 83 81 84 74 85 75 86 79 87 82 88
REMARK SMILES IDX 76 89 77 90 80 91 78 92 57 93 58 94 66 95 59 96 60 97 64 98
REMARK SMILES IDX 67 99 61 100 62 101 65 102 63 103
REMARK H PARENT 23 6 6 11 2 19 28 37 87 56 55 67
REMARK Flexibility Score: inf
ROOT
ATOM      1  C   UNL A   1      39.226  22.395  26.399  1.00  0.00     0.023 C 
ENDROOT
BRANCH   1   2
ATOM      2  C   UNL A   1      38.039  23.275  26.010  1.00  0.00     0.116 C 
BRANCH   2   3
ATOM      3  N   UNL A   1      37.698  23.114  24.611  1.00  0.00    -0.353 N 
ATOM      4  C   UNL A   1      36.485  23.188  23.984  1.00  0.00     0.264 C 
ATOM      5  O   UNL A   1      36.508  23.067  22.755  1.00  0.00    -0.270 OA
ATOM      6  H   UNL A   1      38.460  22.920  24.018  1.00  0.00     0.163 HD
BRANCH   4   7
ATOM      7  C   UNL A   1      35.165  23.411  24.784  1.00  0.00     0.197 C 
ATOM      8  N   UNL A   1      33.898  20.754  24.870  1.00  0.00    -0.332 N 
ATOM      9  C   UNL A   1      35.119  21.042  25.627  1.00  0.00     0.267 C 
ATOM     10  C   UNL A   1      33.834  21.550  23.631  1.00  0.00     0.267 C 
ATOM     11  H   UNL A   1      33.119  21.047  25.459  1.00  0.00     0.348 HD
ATOM     12  C   UNL A   1      35.107  22.508  26.019  1.00  0.00     0.120 C 
ATOM     13  C   UNL A   1      33.955  23.064  23.890  1.00  0.00     0.120 C 
BRANCH   8  14
ATOM     14  C   UNL A   1      33.671  19.305  24.640  1.00  0.00     0.195 C 
ATOM     15  C   UNL A   1      33.478  15.066  25.416  1.00  0.00     0.332 C 
ATOM     16  N   UNL A   1      33.706  16.507  25.499  1.00  0.00    -0.337 N 
ATOM     17  C   UNL A   1      32.433  17.237  25.454  1.00  0.00     0.268 C 
ATOM     18  C   UNL A   1      34.600  16.957  24.427  1.00  0.00     0.268 C 
ATOM     19  H   UNL A   1      34.156  16.704  26.392  1.00  0.00     0.347 HD
ATOM     20  C   UNL A   1      32.670  18.732  25.666  1.00  0.00     0.126 C 
ATOM     21  C   UNL A   1      34.942  18.439  24.599  1.00  0.00     0.126 C 
ENDBRANCH   8  14
BRANCH   7  22
ATOM     22  O   UNL A   1      35.259  24.833  25.055  1.00  0.00    -0.477 OA
BRANCH  22  23
ATOM     23  C   UNL A   1      34.131  25.596  25.033  1.00  0.00     0.121 A 
ATOM     24  C   UNL A   1      33.276  25.704  26.123  1.00  0.00     0.047 A 
ATOM     25  C   UNL A   1      33.940  26.415  23.920  1.00  0.00     0.055 A 
ATOM     26  C   UNL A   1      32.153  26.529  26.056  1.00  0.00     0.012 A 
ATOM     27  C   UNL A   1      32.842  27.286  23.853  1.00  0.00    -0.015 A 
ATOM     28  C   UNL A   1      31.919  27.320  24.925  1.00  0.00    -0.018 A 
ATOM     29  C   UNL A   1      32.639  28.132  22.752  1.00  0.00     0.009 A 
ATOM     30  C   UNL A   1      30.800  28.161  24.849  1.00  0.00     0.009 A 
ATOM     31  C   UNL A   1      31.532  28.980  22.700  1.00  0.00     0.001 A 
ATOM     32  C   UNL A   1      30.608  28.986  23.742  1.00  0.00     0.001 A 
ENDBRANCH  22  23
ENDBRANCH   7  22
ENDBRANCH   4   7
ENDBRANCH   2   3
ENDBRANCH   1   2
BRANCH   1  33
ATOM     33  C   UNL A   1      39.300  21.063  25.653  1.00  0.00     0.023 C 
BRANCH  33  34
ATOM     34  C   UNL A   1      39.788  19.890  26.491  1.00  0.00     0.116 C 
BRANCH  34  35
ATOM     35  N   UNL A   1      40.970  19.249  25.935  1.00  0.00    -0.352 N 
ATOM     36  C   UNL A   1      42.223  19.773  25.746  1.00  0.00     0.251 C 
ATOM     37  H   UNL A   1      40.854  18.312  25.656  1.00  0.00     0.163 HD
ATOM     38  O   UNL A   1      43.073  19.134  25.132  1.00  0.00    -0.269 OA
BRANCH  36  39
ATOM     39  C   UNL A   1      42.539  21.120  26.262  1.00  0.00     0.039 A 
ATOM     40  C   UNL A   1      42.779  22.149  25.350  1.00  0.00     0.014 A 
ATOM     41  C   UNL A   1      42.602  21.368  27.635  1.00  0.00     0.014 A 
ATOM     42  C   UNL A   1      43.045  23.437  25.818  1.00  0.00     0.010 A 
ATOM     43  C   UNL A   1      42.775  22.667  28.098  1.00  0.00     0.010 A 
ATOM     44  C   UNL A   1      43.023  23.711  27.196  1.00  0.00    -0.014 A 
BRANCH  44  45
ATOM     45  C   UNL A   1      43.311  25.073  27.708  1.00  0.00     0.031 A 
ATOM     46  C   UNL A   1      44.736  25.513  27.912  1.00  0.00     0.074 A 
ATOM     47  C   UNL A   1      42.296  25.899  28.025  1.00  0.00     0.049 A 
ATOM     48  N   UNL A   1      45.196  26.650  28.372  1.00  0.00    -0.248 NA
ATOM     49  C   UNL A   1      45.785  24.533  27.584  1.00  0.00     0.031 C 
ATOM     50  C   UNL A   1      40.874  25.570  27.924  1.00  0.00     0.029 A 
ATOM     51  N   UNL A   1      42.306  27.187  28.499  1.00  0.00    -0.354 N 
ATOM     52  C   UNL A   1      46.578  26.514  28.399  1.00  0.00     0.074 A 
ATOM     53  C   UNL A   1      46.880  25.164  27.977  1.00  0.00     0.031 C 
ATOM     54  C   UNL A   1      40.148  26.638  28.292  1.00  0.00     0.029 A 
ATOM     55  C   UNL A   1      41.052  27.714  28.688  1.00  0.00     0.049 A 
ATOM     56  H   UNL A   1      43.135  27.685  28.686  1.00  0.00     0.167 HD
ATOM     57  C   UNL A   1      47.515  27.440  28.714  1.00  0.00     0.037 A 
ATOM     58  C   UNL A   1      40.678  28.930  29.130  1.00  0.00     0.037 A 
ATOM     59  C   UNL A   1      47.211  28.790  29.110  1.00  0.00     0.049 A 
ATOM     60  C   UNL A   1      41.739  29.941  29.471  1.00  0.00     0.074 A 
ATOM     61  C   UNL A   1      48.085  29.822  29.401  1.00  0.00     0.029 A 
ATOM     62  N   UNL A   1      45.928  29.295  29.273  1.00  0.00    -0.354 N 
ATOM     63  N   UNL A   1      43.044  29.827  29.422  1.00  0.00    -0.248 NA
ATOM     64  C   UNL A   1      41.270  31.261  29.916  1.00  0.00     0.031 C 
ATOM     65  C   UNL A   1      47.333  30.936  29.790  1.00  0.00     0.029 A 
ATOM     66  C   UNL A   1      45.988  30.617  29.680  1.00  0.00     0.049 A 
ATOM     67  H   UNL A   1      45.099  28.786  29.121  1.00  0.00     0.167 HD
ATOM     68  C   UNL A   1      43.551  31.065  29.796  1.00  0.00     0.074 A 
ATOM     69  C   UNL A   1      42.410  31.921  30.047  1.00  0.00     0.031 C 
ATOM     70  C   UNL A   1      44.843  31.458  29.921  1.00  0.00     0.037 A 
BRANCH  57  71
ATOM     71  C   UNL A   1      48.956  27.022  28.640  1.00  0.00     0.064 A 
ATOM     72  C   UNL A   1      49.611  26.434  29.736  1.00  0.00     0.173 A 
ATOM     73  C   UNL A   1      49.688  27.188  27.455  1.00  0.00     0.173 A 
ATOM     74  F   UNL A   1      48.963  26.263  30.898  1.00  0.00    -0.203 F 
ATOM     75  C   UNL A   1      50.951  26.065  29.658  1.00  0.00     0.198 A 
ATOM     76  C   UNL A   1      51.019  26.783  27.369  1.00  0.00     0.198 A 
ATOM     77  F   UNL A   1      49.114  27.740  26.376  1.00  0.00    -0.203 F 
ATOM     78  F   UNL A   1      51.569  25.562  30.735  1.00  0.00    -0.200 F 
ATOM     79  C   UNL A   1      51.651  26.232  28.473  1.00  0.00     0.200 A 
ATOM     80  F   UNL A   1      51.689  26.933  26.219  1.00  0.00    -0.200 F 
ATOM     81  F   UNL A   1      52.939  25.869  28.397  1.00  0.00    -0.200 F 
ENDBRANCH  57  71
BRANCH  58  82
ATOM     82  C   UNL A   1      39.235  29.271  29.241  1.00  0.00     0.064 A 
ATOM     83  C   UNL A   1      38.485  29.613  28.107  1.00  0.00     0.173 A 
ATOM     84  C   UNL A   1      38.581  29.281  30.482  1.00  0.00     0.173 A 
ATOM     85  F   UNL A   1      39.070  29.638  26.900  1.00  0.00    -0.203 F 
ATOM     86  C   UNL A   1      37.146  29.983  28.213  1.00  0.00     0.198 A 
ATOM     87  C   UNL A   1      37.232  29.618  30.583  1.00  0.00     0.198 A 
ATOM     88  F   UNL A   1      39.250  28.954  31.598  1.00  0.00    -0.203 F 
ATOM     89  F   UNL A   1      36.469  30.361  27.121  1.00  0.00    -0.200 F 
ATOM     90  C   UNL A   1      36.518  29.980  29.450  1.00  0.00     0.200 A 
ATOM     91  F   UNL A   1      36.627  29.598  31.778  1.00  0.00    -0.200 F 
ATOM     92  F   UNL A   1      35.231  30.334  29.552  1.00  0.00    -0.200 F 
ENDBRANCH  58  82
BRANCH  70  93
ATOM     93  C   UNL A   1      45.088  32.891  30.304  1.00  0.00     0.064 A 
ATOM     94  C   UNL A   1      45.233  33.287  31.642  1.00  0.00     0.173 A 
ATOM     95  C   UNL A   1      45.191  33.880  29.313  1.00  0.00     0.173 A 
ATOM     96  F   UNL A   1      45.132  32.383  32.629  1.00  0.00    -0.203 F 
ATOM     97  C   UNL A   1      45.423  34.625  31.976  1.00  0.00     0.198 A 
ATOM     98  C   UNL A   1      45.419  35.211  29.649  1.00  0.00     0.198 A 
ATOM     99  F   UNL A   1      45.071  33.556  28.017  1.00  0.00    -0.203 F 
ATOM    100  F   UNL A   1      45.487  34.989  33.264  1.00  0.00    -0.200 F 
ATOM    101  C   UNL A   1      45.521  35.585  30.980  1.00  0.00     0.200 A 
ATOM    102  F   UNL A   1      45.532  36.135  28.684  1.00  0.00    -0.200 F 
ATOM    103  F   UNL A   1      45.704  36.872  31.304  1.00  0.00    -0.200 F 
ENDBRANCH  70  93
ENDBRANCH  44  45
ENDBRANCH  36  39
ENDBRANCH  34  35
ENDBRANCH  33  34
ENDBRANCH   1  33
TORSDOF 14
ENDMDL
MODEL 3
REMARK VINA RESULT:     -12.8      5.311     10.845
REMARK SMILES C[NH+]1CCC([NH+]2CCC(Oc3ccc4ccccc4c3)(C(=O)NCCCCNC(=O)c3ccc(-c4c5nc(c(-c6c(F)c(F)c(F)c(F)c6F)c6ccc([nH]6)c(-c6c(F)c(F)c(F)c(F)c6F)c6nc(c(-c7c(F)c(F)c(F)c(F)c7F)c7ccc4[nH]7)C=C6)C=C5)cc3)CC2)CC1
REMARK SMILES IDX 25 1 24 2 23 3 21 4 22 5 9 7 6 8 7 9 95 10 8 12 94 13 5 14
REMARK SMILES IDX 1 15 2 16 3 17 97 18 4 20 96 21 10 22 11 23 12 24 20 25
REMARK SMILES IDX 13 26 19 27 14 28 18 29 15 30 17 31 16 32 26 33 27 34 28 35
REMARK SMILES IDX 29 36 30 38 31 39 32 40 93 41 33 42 92 43 34 44 35 45 36 46
REMARK SMILES IDX 86 47 37 48 91 49 85 50 87 51 38 52 90 53 84 54 83 55 39 57
REMARK SMILES IDX 71 58 51 59 70 60 52 61 55 62 69 63 88 64 53 65 54 66 68 68
REMARK SMILES IDX 89 69 56 70 40 71 41 72 49 73 42 74 43 75 47 76 50 77 44 78
REMARK SMILES IDX 45 79 48 80 46 81 72 82 73 83 81 84 74 85 75 86 79 87 82 88
REMARK SMILES IDX 76 89 77 90 80 91 78 92 57 93 58 94 66 95 59 96 60 97 64 98
REMARK SMILES IDX 67 99 61 100 62 101 65 102 63 103
REMARK H PARENT 23 6 6 11 2 19 28 37 87 56 55 67
REMARK Flexibility Score: inf
ROOT
ATOM      1  C   UNL A   1      34.280  31.199  28.048  1.00  0.00     0.023 C 
ENDROOT
BRANCH   1   2
ATOM      2  C   UNL A   1      34.072  29.883  27.299  1.00  0.00     0.116 C 
BRANCH   2   3
ATOM      3  N   UNL A   1      32.873  29.204  27.748  1.00  0.00    -0.353 N 
ATOM      4  C   UNL A   1      32.192  28.156  27.193  1.00  0.00     0.264 C 
ATOM      5  O   UNL A   1      31.225  27.741  27.840  1.00  0.00    -0.270 OA
ATOM      6  H   UNL A   1      32.488  29.552  28.585  1.00  0.00     0.163 HD
BRANCH   4   7
ATOM      7  C   UNL A   1      32.621  27.535  25.829  1.00  0.00     0.197 C 
ATOM      8  N   UNL A   1      30.829  28.784  23.854  1.00  0.00    -0.332 N 
ATOM      9  C   UNL A   1      31.879  29.553  24.525  1.00  0.00     0.267 C 
ATOM     10  C   UNL A   1      30.317  27.705  24.719  1.00  0.00     0.267 C 
ATOM     11  H   UNL A   1      31.266  28.343  23.046  1.00  0.00     0.348 HD
ATOM     12  C   UNL A   1      33.036  28.621  24.832  1.00  0.00     0.120 C 
ATOM     13  C   UNL A   1      31.432  26.764  25.216  1.00  0.00     0.120 C 
BRANCH   8  14
ATOM     14  C   UNL A   1      29.749  29.627  23.283  1.00  0.00     0.195 C 
ATOM     15  C   UNL A   1      27.832  32.846  21.142  1.00  0.00     0.332 C 
ATOM     16  N   UNL A   1      28.796  31.961  21.795  1.00  0.00    -0.337 N 
ATOM     17  C   UNL A   1      28.810  30.643  21.148  1.00  0.00     0.268 C 
ATOM     18  C   UNL A   1      28.501  31.832  23.225  1.00  0.00     0.268 C 
ATOM     19  H   UNL A   1      29.722  32.376  21.696  1.00  0.00     0.347 HD
ATOM     20  C   UNL A   1      29.905  29.766  21.753  1.00  0.00     0.126 C 
ATOM     21  C   UNL A   1      29.589  31.016  23.927  1.00  0.00     0.126 C 
ENDBRANCH   8  14
BRANCH   7  22
ATOM     22  O   UNL A   1      33.684  26.649  26.265  1.00  0.00    -0.477 OA
BRANCH  22  23
ATOM     23  C   UNL A   1      33.823  25.429  25.679  1.00  0.00     0.121 A 
ATOM     24  C   UNL A   1      34.457  25.251  24.455  1.00  0.00     0.047 A 
ATOM     25  C   UNL A   1      33.453  24.316  26.434  1.00  0.00     0.055 A 
ATOM     26  C   UNL A   1      34.603  23.972  23.918  1.00  0.00     0.012 A 
ATOM     27  C   UNL A   1      33.635  23.018  25.931  1.00  0.00    -0.015 A 
ATOM     28  C   UNL A   1      34.190  22.847  24.641  1.00  0.00    -0.018 A 
ATOM     29  C   UNL A   1      33.286  21.883  26.679  1.00  0.00     0.009 A 
ATOM     30  C   UNL A   1      34.341  21.555  24.118  1.00  0.00     0.009 A 
ATOM     31  C   UNL A   1      33.462  20.602  26.153  1.00  0.00     0.001 A 
ATOM     32  C   UNL A   1      33.978  20.439  24.871  1.00  0.00     0.001 A 
ENDBRANCH  22  23
ENDBRANCH   7  22
ENDBRANCH   4   7
ENDBRANCH   2   3
ENDBRANCH   1   2
BRANCH   1  33
ATOM     33  C   UNL A   1      33.835  32.443  27.281  1.00  0.00     0.023 C 
BRANCH  33  34
ATOM     34  C   UNL A   1      32.468  32.981  27.677  1.00  0.00     0.116 C 
BRANCH  34  35
ATOM     35  N   UNL A   1      32.463  34.421  27.884  1.00  0.00    -0.352 N 
ATOM     36  C   UNL A   1      33.245  35.171  28.724  1.00  0.00     0.251 C 
ATOM     37  H   UNL A   1      31.810  34.926  27.346  1.00  0.00     0.163 HD
ATOM     38  O   UNL A   1      33.013  36.367  28.879  1.00  0.00    -0.269 OA
BRANCH  36  39
ATOM     39  C   UNL A   1      34.349  34.530  29.465  1.00  0.00     0.039 A 
ATOM     40  C   UNL A   1      34.059  33.845  30.646  1.00  0.00     0.014 A 
ATOM     41  C   UNL A   1      35.665  34.604  29.000  1.00  0.00     0.014 A 
ATOM     42  C   UNL A   1      35.085  33.202  31.340  1.00  0.00     0.010 A 
ATOM     43  C   UNL A   1      36.669  33.888  29.642  1.00  0.00     0.010 A 
ATOM     44  C   UNL A   1      36.395  33.200  30.832  1.00  0.00    -0.014 A 
BRANCH  44  45
ATOM     45  C   UNL A   1      37.497  32.528  31.564  1.00  0.00     0.031 A 
ATOM     46  C   UNL A   1      38.200  31.350  30.945  1.00  0.00     0.074 A 
ATOM     47  C   UNL A   1      37.839  32.949  32.796  1.00  0.00     0.049 A 
ATOM     48  N   UNL A   1      39.167  30.612  31.430  1.00  0.00    -0.248 NA
ATOM     49  C   UNL A   1      37.734  30.926  29.614  1.00  0.00     0.031 C 
ATOM     50  C   UNL A   1      37.197  34.044  33.525  1.00  0.00     0.029 A 
ATOM     51  N   UNL A   1      38.813  32.505  33.654  1.00  0.00    -0.354 N 
ATOM     52  C   UNL A   1      39.412  29.635  30.473  1.00  0.00     0.074 A 
ATOM     53  C   UNL A   1      38.448  29.830  29.412  1.00  0.00     0.031 C 
ATOM     54  C   UNL A   1      37.814  34.207  34.707  1.00  0.00     0.029 A 
ATOM     55  C   UNL A   1      38.871  33.208  34.833  1.00  0.00     0.049 A 
ATOM     56  H   UNL A   1      39.412  31.752  33.445  1.00  0.00     0.167 HD
ATOM     57  C   UNL A   1      40.374  28.683  30.461  1.00  0.00     0.037 A 
ATOM     58  C   UNL A   1      39.688  33.061  35.893  1.00  0.00     0.037 A 
ATOM     59  C   UNL A   1      41.346  28.508  31.508  1.00  0.00     0.049 A 
ATOM     60  C   UNL A   1      40.751  31.995  35.854  1.00  0.00     0.074 A 
ATOM     61  C   UNL A   1      42.396  27.608  31.572  1.00  0.00     0.029 A 
ATOM     62  N   UNL A   1      41.387  29.251  32.680  1.00  0.00    -0.354 N 
ATOM     63  N   UNL A   1      41.022  31.124  34.912  1.00  0.00    -0.248 NA
ATOM     64  C   UNL A   1      41.634  31.904  37.025  1.00  0.00     0.031 C 
ATOM     65  C   UNL A   1      43.038  27.771  32.803  1.00  0.00     0.029 A 
ATOM     66  C   UNL A   1      42.430  28.816  33.481  1.00  0.00     0.049 A 
ATOM     67  H   UNL A   1      40.765  29.980  32.907  1.00  0.00     0.167 HD
ATOM     68  C   UNL A   1      42.123  30.407  35.360  1.00  0.00     0.074 A 
ATOM     69  C   UNL A   1      42.482  30.960  36.649  1.00  0.00     0.031 C 
ATOM     70  C   UNL A   1      42.778  29.381  34.760  1.00  0.00     0.037 A 
BRANCH  57  71
ATOM     71  C   UNL A   1      40.421  27.758  29.278  1.00  0.00     0.064 A 
ATOM     72  C   UNL A   1      39.614  26.610  29.206  1.00  0.00     0.173 A 
ATOM     73  C   UNL A   1      41.265  28.032  28.191  1.00  0.00     0.173 A 
ATOM     74  F   UNL A   1      38.798  26.293  30.223  1.00  0.00    -0.203 F 
ATOM     75  C   UNL A   1      39.679  25.754  28.109  1.00  0.00     0.198 A 
ATOM     76  C   UNL A   1      41.300  27.192  27.079  1.00  0.00     0.198 A 
ATOM     77  F   UNL A   1      42.055  29.115  28.204  1.00  0.00    -0.203 F 
ATOM     78  F   UNL A   1      38.943  24.634  28.092  1.00  0.00    -0.200 F 
ATOM     79  C   UNL A   1      40.515  26.050  27.045  1.00  0.00     0.200 A 
ATOM     80  F   UNL A   1      42.098  27.488  26.045  1.00  0.00    -0.200 F 
ATOM     81  F   UNL A   1      40.570  25.230  25.986  1.00  0.00    -0.200 F 
ENDBRANCH  57  71
BRANCH  58  82
ATOM     82  C   UNL A   1      39.559  33.965  37.066  1.00  0.00     0.064 A 
ATOM     83  C   UNL A   1      38.803  33.590  38.185  1.00  0.00     0.173 A 
ATOM     84  C   UNL A   1      40.170  35.228  37.086  1.00  0.00     0.173 A 
ATOM     85  F   UNL A   1      38.182  32.401  38.206  1.00  0.00    -0.203 F 
ATOM     86  C   UNL A   1      38.637  34.454  39.265  1.00  0.00     0.198 A 
ATOM     87  C   UNL A   1      40.031  36.078  38.181  1.00  0.00     0.198 A 
ATOM     88  F   UNL A   1      40.911  35.633  36.044  1.00  0.00    -0.203 F 
ATOM     89  F   UNL A   1      37.861  34.094  40.297  1.00  0.00    -0.200 F 
ATOM     90  C   UNL A   1      39.256  35.696  39.265  1.00  0.00     0.200 A 
ATOM     91  F   UNL A   1      40.644  37.269  38.183  1.00  0.00    -0.200 F 
ATOM     92  F   UNL A   1      39.097  36.527  40.304  1.00  0.00    -0.200 F 
ENDBRANCH  58  82
BRANCH  70  93
ATOM     93  C   UNL A   1      43.978  28.825  35.474  1.00  0.00     0.064 A 
ATOM     94  C   UNL A   1      45.273  29.314  35.240  1.00  0.00     0.173 A 
ATOM     95  C   UNL A   1      43.828  27.795  36.415  1.00  0.00     0.173 A 
ATOM     96  F   UNL A   1      45.473  30.291  34.342  1.00  0.00    -0.203 F 
ATOM     97  C   UNL A   1      46.375  28.761  35.885  1.00  0.00     0.198 A 
ATOM     98  C   UNL A   1      44.928  27.270  37.087  1.00  0.00     0.198 A 
ATOM     99  F   UNL A   1      42.612  27.298  36.687  1.00  0.00    -0.203 F 
ATOM    100  F   UNL A   1      47.608  29.195  35.592  1.00  0.00    -0.200 F 
ATOM    101  C   UNL A   1      46.202  27.743  36.811  1.00  0.00     0.200 A 
ATOM    102  F   UNL A   1      44.756  26.300  37.995  1.00  0.00    -0.200 F 
ATOM    103  F   UNL A   1      47.264  27.211  37.431  1.00  0.00    -0.200 F 
ENDBRANCH  70  93
ENDBRANCH  44  45
ENDBRANCH  36  39
ENDBRANCH  34  35
ENDBRANCH  33  34
ENDBRANCH   1  33
TORSDOF 14
ENDMDL
