MODEL 1
REMARK VINA RESULT:     -12.5      0.000      0.000
REMARK SMILES C[C@@H](C(=O)NCc1ccc(F)cc1)n1cc(C(=O)NCCCCNC(=O)c2ccc(-c3c4nc(c(-c5c(F)c(F)c(F)c(F)c5F)c5ccc([nH]5)c(-c5c(F)c(F)c(F)c(F)c5F)c5nc(c(-c6c(F)c(F)c(F)c(F)c6F)c6ccc3[nH]6)C=C5)C=C4)cc2)cn1
REMARK SMILES IDX 20 1 19 2 17 3 18 4 16 6 14 7 15 8 91 9 90 10 2 11 1 12 3 13
REMARK SMILES IDX 4 14 5 15 6 17 7 18 8 19 13 20 9 21 12 22 10 23 11 24 21 25
REMARK SMILES IDX 22 26 23 27 24 28 25 29 26 31 27 32 28 33 89 34 29 35 88 36
REMARK SMILES IDX 30 37 31 38 32 39 82 40 33 41 87 42 81 43 83 44 34 45 86 46
REMARK SMILES IDX 80 47 79 48 35 50 67 51 47 52 66 53 48 54 51 55 65 56 84 57
REMARK SMILES IDX 49 58 50 59 64 61 85 62 52 63 36 64 37 65 45 66 38 67 39 68
REMARK SMILES IDX 43 69 46 70 40 71 41 72 44 73 42 74 68 75 69 76 77 77 70 78
REMARK SMILES IDX 71 79 75 80 78 81 72 82 73 83 76 84 74 85 53 86 54 87 62 88
REMARK SMILES IDX 55 89 56 90 60 91 63 92 57 93 58 94 61 95 59 96
REMARK H PARENT 19 5 5 16 24 30 83 49 51 60
REMARK Flexibility Score: inf
ROOT
ATOM      1  C   UNL A   1      39.456  21.017  26.073  1.00  0.00     0.116 C 
ENDROOT
BRANCH   1   2
ATOM      2  N   UNL A   1      39.216  22.449  26.106  1.00  0.00    -0.352 N 
ATOM      3  C   UNL A   1      38.057  23.196  26.064  1.00  0.00     0.254 C 
ATOM      4  O   UNL A   1      38.170  24.409  26.230  1.00  0.00    -0.269 OA
ATOM      5  H   UNL A   1      40.035  22.989  26.169  1.00  0.00     0.163 HD
BRANCH   3   6
ATOM      6  C   UNL A   1      36.754  22.579  25.879  1.00  0.00     0.077 A 
ATOM      7  N   UNL A   1      34.588  22.188  25.681  1.00  0.00    -0.260 N 
ATOM      8  C   UNL A   1      35.517  22.939  26.364  1.00  0.00     0.123 A 
ATOM      9  N   UNL A   1      35.155  21.101  25.130  1.00  0.00    -0.180 NA
ATOM     10  C   UNL A   1      36.464  21.383  25.173  1.00  0.00     0.149 A 
BRANCH   7  11
ATOM     11  C   UNL A   1      33.144  22.485  25.613  1.00  0.00     0.193 C 
ATOM     12  C   UNL A   1      32.378  21.173  25.397  1.00  0.00     0.044 C 
BRANCH  11  13
ATOM     13  C   UNL A   1      32.544  23.175  26.842  1.00  0.00     0.244 C 
ATOM     14  O   UNL A   1      32.298  22.611  27.909  1.00  0.00    -0.273 OA
ATOM     15  N   UNL A   1      32.175  24.497  26.765  1.00  0.00    -0.350 N 
ATOM     16  H   UNL A   1      31.906  24.891  27.626  1.00  0.00     0.163 HD
BRANCH  15  17
ATOM     17  C   UNL A   1      32.108  25.423  25.640  1.00  0.00     0.151 C 
BRANCH  17  18
ATOM     18  C   UNL A   1      32.406  26.840  26.093  1.00  0.00    -0.029 A 
ATOM     19  C   UNL A   1      33.720  27.338  26.041  1.00  0.00     0.008 A 
ATOM     20  C   UNL A   1      31.398  27.670  26.616  1.00  0.00     0.008 A 
ATOM     21  C   UNL A   1      34.021  28.607  26.543  1.00  0.00     0.039 A 
ATOM     22  C   UNL A   1      31.706  28.925  27.145  1.00  0.00     0.039 A 
ATOM     23  C   UNL A   1      33.016  29.381  27.107  1.00  0.00     0.123 A 
ATOM     24  F   UNL A   1      33.312  30.582  27.622  1.00  0.00    -0.207 F 
ENDBRANCH  17  18
ENDBRANCH  15  17
ENDBRANCH  11  13
ENDBRANCH   7  11
ENDBRANCH   3   6
ENDBRANCH   1   2
BRANCH   1  25
ATOM     25  C   UNL A   1      40.771  20.625  26.757  1.00  0.00     0.023 C 
BRANCH  25  26
ATOM     26  C   UNL A   1      41.556  19.484  26.088  1.00  0.00     0.023 C 
BRANCH  26  27
ATOM     27  C   UNL A   1      42.981  19.287  26.591  1.00  0.00     0.116 C 
BRANCH  27  28
ATOM     28  N   UNL A   1      43.981  19.230  25.519  1.00  0.00    -0.352 N 
ATOM     29  C   UNL A   1      44.391  20.259  24.683  1.00  0.00     0.251 C 
ATOM     30  H   UNL A   1      44.414  18.358  25.378  1.00  0.00     0.163 HD
ATOM     31  O   UNL A   1      44.899  20.035  23.598  1.00  0.00    -0.269 OA
BRANCH  29  32
ATOM     32  C   UNL A   1      44.222  21.643  25.158  1.00  0.00     0.039 A 
ATOM     33  C   UNL A   1      43.172  22.463  24.737  1.00  0.00     0.014 A 
ATOM     34  C   UNL A   1      45.141  22.086  26.101  1.00  0.00     0.014 A 
ATOM     35  C   UNL A   1      43.016  23.709  25.345  1.00  0.00     0.010 A 
ATOM     36  C   UNL A   1      44.869  23.206  26.833  1.00  0.00     0.010 A 
ATOM     37  C   UNL A   1      43.864  24.061  26.408  1.00  0.00    -0.014 A 
BRANCH  37  38
ATOM     38  C   UNL A   1      43.675  25.287  27.170  1.00  0.00     0.031 A 
ATOM     39  C   UNL A   1      44.642  26.372  26.852  1.00  0.00     0.074 A 
ATOM     40  C   UNL A   1      42.570  25.506  27.918  1.00  0.00     0.049 A 
ATOM     41  N   UNL A   1      45.535  26.885  27.630  1.00  0.00    -0.248 NA
ATOM     42  C   UNL A   1      44.711  26.861  25.465  1.00  0.00     0.031 C 
ATOM     43  C   UNL A   1      41.375  24.664  28.070  1.00  0.00     0.029 A 
ATOM     44  N   UNL A   1      42.241  26.605  28.644  1.00  0.00    -0.354 N 
ATOM     45  C   UNL A   1      46.156  27.891  26.897  1.00  0.00     0.074 A 
ATOM     46  C   UNL A   1      45.733  27.716  25.531  1.00  0.00     0.031 C 
ATOM     47  C   UNL A   1      40.379  25.379  28.639  1.00  0.00     0.029 A 
ATOM     48  C   UNL A   1      40.914  26.659  29.057  1.00  0.00     0.049 A 
ATOM     49  H   UNL A   1      42.893  27.311  28.864  1.00  0.00     0.167 HD
ATOM     50  C   UNL A   1      46.784  28.928  27.519  1.00  0.00     0.037 A 
ATOM     51  C   UNL A   1      40.308  27.701  29.679  1.00  0.00     0.037 A 
ATOM     52  C   UNL A   1      47.046  28.618  28.902  1.00  0.00     0.049 A 
ATOM     53  C   UNL A   1      41.390  28.530  30.272  1.00  0.00     0.074 A 
ATOM     54  C   UNL A   1      47.781  27.642  29.547  1.00  0.00     0.029 A 
ATOM     55  N   UNL A   1      46.189  29.120  29.851  1.00  0.00    -0.354 N 
ATOM     56  N   UNL A   1      42.166  28.119  31.238  1.00  0.00    -0.248 NA
ATOM     57  C   UNL A   1      41.917  29.614  29.456  1.00  0.00     0.031 C 
ATOM     58  C   UNL A   1      46.980  27.260  30.664  1.00  0.00     0.029 A 
ATOM     59  C   UNL A   1      45.852  28.081  30.683  1.00  0.00     0.049 A 
ATOM     60  H   UNL A   1      45.875  30.050  29.921  1.00  0.00     0.167 HD
ATOM     61  C   UNL A   1      43.428  28.587  30.898  1.00  0.00     0.074 A 
ATOM     62  C   UNL A   1      43.200  29.550  29.820  1.00  0.00     0.031 C 
ATOM     63  C   UNL A   1      44.557  27.941  31.308  1.00  0.00     0.037 A 
BRANCH  50  64
ATOM     64  C   UNL A   1      46.841  30.339  26.987  1.00  0.00     0.064 A 
ATOM     65  C   UNL A   1      45.700  31.124  26.717  1.00  0.00     0.173 A 
ATOM     66  C   UNL A   1      48.065  31.038  27.019  1.00  0.00     0.173 A 
ATOM     67  F   UNL A   1      44.461  30.621  26.763  1.00  0.00    -0.203 F 
ATOM     68  C   UNL A   1      45.773  32.499  26.504  1.00  0.00     0.198 A 
ATOM     69  C   UNL A   1      48.127  32.425  26.860  1.00  0.00     0.198 A 
ATOM     70  F   UNL A   1      49.211  30.398  27.293  1.00  0.00    -0.203 F 
ATOM     71  F   UNL A   1      44.646  33.191  26.281  1.00  0.00    -0.200 F 
ATOM     72  C   UNL A   1      46.981  33.155  26.606  1.00  0.00     0.200 A 
ATOM     73  F   UNL A   1      49.295  33.061  27.021  1.00  0.00    -0.200 F 
ATOM     74  F   UNL A   1      47.029  34.490  26.509  1.00  0.00    -0.200 F 
ENDBRANCH  50  64
BRANCH  51  75
ATOM     75  C   UNL A   1      38.935  28.225  29.466  1.00  0.00     0.064 A 
ATOM     76  C   UNL A   1      38.532  28.748  28.220  1.00  0.00     0.173 A 
ATOM     77  C   UNL A   1      38.097  28.508  30.558  1.00  0.00     0.173 A 
ATOM     78  F   UNL A   1      39.296  28.592  27.130  1.00  0.00    -0.203 F 
ATOM     79  C   UNL A   1      37.385  29.534  28.085  1.00  0.00     0.198 A 
ATOM     80  C   UNL A   1      36.950  29.299  30.422  1.00  0.00     0.198 A 
ATOM     81  F   UNL A   1      38.426  28.083  31.786  1.00  0.00    -0.203 F 
ATOM     82  F   UNL A   1      37.082  30.067  26.892  1.00  0.00    -0.200 F 
ATOM     83  C   UNL A   1      36.603  29.823  29.188  1.00  0.00     0.200 A 
ATOM     84  F   UNL A   1      36.216  29.605  31.501  1.00  0.00    -0.200 F 
ATOM     85  F   UNL A   1      35.547  30.640  29.069  1.00  0.00    -0.200 F 
ENDBRANCH  51  75
BRANCH  63  86
ATOM     86  C   UNL A   1      44.423  26.834  32.320  1.00  0.00     0.064 A 
ATOM     87  C   UNL A   1      44.605  27.152  33.672  1.00  0.00     0.173 A 
ATOM     88  C   UNL A   1      44.325  25.471  31.989  1.00  0.00     0.173 A 
ATOM     89  F   UNL A   1      44.754  28.434  34.044  1.00  0.00    -0.203 F 
ATOM     90  C   UNL A   1      44.708  26.159  34.643  1.00  0.00     0.198 A 
ATOM     91  C   UNL A   1      44.394  24.478  32.967  1.00  0.00     0.198 A 
ATOM     92  F   UNL A   1      44.235  25.074  30.715  1.00  0.00    -0.203 F 
ATOM     93  F   UNL A   1      44.956  26.498  35.915  1.00  0.00    -0.200 F 
ATOM     94  C   UNL A   1      44.599  24.824  34.292  1.00  0.00     0.200 A 
ATOM     95  F   UNL A   1      44.310  23.185  32.622  1.00  0.00    -0.200 F 
ATOM     96  F   UNL A   1      44.725  23.870  35.226  1.00  0.00    -0.200 F 
ENDBRANCH  63  86
ENDBRANCH  37  38
ENDBRANCH  29  32
ENDBRANCH  27  28
ENDBRANCH  26  27
ENDBRANCH  25  26
ENDBRANCH   1  25
TORSDOF 15
ENDMDL
MODEL 2
REMARK VINA RESULT:     -12.3      3.228      8.999
REMARK SMILES C[C@@H](C(=O)NCc1ccc(F)cc1)n1cc(C(=O)NCCCCNC(=O)c2ccc(-c3c4nc(c(-c5c(F)c(F)c(F)c(F)c5F)c5ccc([nH]5)c(-c5c(F)c(F)c(F)c(F)c5F)c5nc(c(-c6c(F)c(F)c(F)c(F)c6F)c6ccc3[nH]6)C=C5)C=C4)cc2)cn1
REMARK SMILES IDX 20 1 19 2 17 3 18 4 16 6 14 7 15 8 91 9 90 10 2 11 1 12 3 13
REMARK SMILES IDX 4 14 5 15 6 17 7 18 8 19 13 20 9 21 12 22 10 23 11 24 21 25
REMARK SMILES IDX 22 26 23 27 24 28 25 29 26 31 27 32 28 33 89 34 29 35 88 36
REMARK SMILES IDX 30 37 31 38 32 39 82 40 33 41 87 42 81 43 83 44 34 45 86 46
REMARK SMILES IDX 80 47 79 48 35 50 67 51 47 52 66 53 48 54 51 55 65 56 84 57
REMARK SMILES IDX 49 58 50 59 64 61 85 62 52 63 36 64 37 65 45 66 38 67 39 68
REMARK SMILES IDX 43 69 46 70 40 71 41 72 44 73 42 74 68 75 69 76 77 77 70 78
REMARK SMILES IDX 71 79 75 80 78 81 72 82 73 83 76 84 74 85 53 86 54 87 62 88
REMARK SMILES IDX 55 89 56 90 60 91 63 92 57 93 58 94 61 95 59 96
REMARK H PARENT 19 5 5 16 24 30 83 49 51 60
REMARK Flexibility Score: inf
ROOT
ATOM      1  C   UNL A   1      34.625  28.885  26.328  1.00  0.00     0.116 C 
ENDROOT
BRANCH   1   2
ATOM      2  N   UNL A   1      33.998  28.957  25.020  1.00  0.00    -0.352 N 
ATOM      3  C   UNL A   1      33.312  28.027  24.268  1.00  0.00     0.254 C 
ATOM      4  O   UNL A   1      32.789  28.425  23.230  1.00  0.00    -0.269 OA
ATOM      5  H   UNL A   1      34.079  29.837  24.587  1.00  0.00     0.163 HD
BRANCH   3   6
ATOM      6  C   UNL A   1      33.169  26.646  24.701  1.00  0.00     0.077 A 
ATOM      7  N   UNL A   1      33.517  24.525  25.217  1.00  0.00    -0.260 N 
ATOM      8  C   UNL A   1      33.853  25.514  24.320  1.00  0.00     0.123 A 
ATOM      9  N   UNL A   1      32.371  24.819  25.854  1.00  0.00    -0.180 NA
ATOM     10  C   UNL A   1      32.211  26.127  25.611  1.00  0.00     0.149 A 
BRANCH   7  11
ATOM     11  C   UNL A   1      34.267  23.270  25.413  1.00  0.00     0.193 C 
ATOM     12  C   UNL A   1      35.706  23.611  25.822  1.00  0.00     0.044 C 
BRANCH  11  13
ATOM     13  C   UNL A   1      33.703  22.308  26.462  1.00  0.00     0.244 C 
ATOM     14  O   UNL A   1      34.110  22.224  27.622  1.00  0.00    -0.273 OA
ATOM     15  N   UNL A   1      32.723  21.413  26.104  1.00  0.00    -0.350 N 
ATOM     16  H   UNL A   1      32.338  20.914  26.861  1.00  0.00     0.163 HD
BRANCH  15  17
ATOM     17  C   UNL A   1      32.148  21.068  24.810  1.00  0.00     0.151 C 
BRANCH  17  18
ATOM     18  C   UNL A   1      32.778  19.801  24.263  1.00  0.00    -0.029 A 
ATOM     19  C   UNL A   1      32.209  19.148  23.156  1.00  0.00     0.008 A 
ATOM     20  C   UNL A   1      33.908  19.222  24.870  1.00  0.00     0.008 A 
ATOM     21  C   UNL A   1      32.725  17.931  22.703  1.00  0.00     0.039 A 
ATOM     22  C   UNL A   1      34.403  17.991  24.436  1.00  0.00     0.039 A 
ATOM     23  C   UNL A   1      33.805  17.354  23.358  1.00  0.00     0.123 A 
ATOM     24  F   UNL A   1      34.275  16.170  22.947  1.00  0.00    -0.207 F 
ENDBRANCH  17  18
ENDBRANCH  15  17
ENDBRANCH  11  13
ENDBRANCH   7  11
ENDBRANCH   3   6
ENDBRANCH   1   2
BRANCH   1  25
ATOM     25  C   UNL A   1      33.695  29.355  27.453  1.00  0.00     0.023 C 
BRANCH  25  26
ATOM     26  C   UNL A   1      33.368  30.858  27.462  1.00  0.00     0.023 C 
BRANCH  26  27
ATOM     27  C   UNL A   1      34.529  31.777  27.821  1.00  0.00     0.116 C 
BRANCH  27  28
ATOM     28  N   UNL A   1      34.477  32.282  29.197  1.00  0.00    -0.352 N 
ATOM     29  C   UNL A   1      35.255  31.889  30.277  1.00  0.00     0.251 C 
ATOM     30  H   UNL A   1      33.812  32.985  29.375  1.00  0.00     0.163 HD
ATOM     31  O   UNL A   1      34.882  32.054  31.426  1.00  0.00    -0.269 OA
BRANCH  29  32
ATOM     32  C   UNL A   1      36.570  31.287  29.998  1.00  0.00     0.039 A 
ATOM     33  C   UNL A   1      37.732  32.047  29.844  1.00  0.00     0.014 A 
ATOM     34  C   UNL A   1      36.611  29.898  29.944  1.00  0.00     0.014 A 
ATOM     35  C   UNL A   1      38.951  31.381  29.719  1.00  0.00     0.010 A 
ATOM     36  C   UNL A   1      37.814  29.257  30.029  1.00  0.00     0.010 A 
ATOM     37  C   UNL A   1      38.980  29.981  29.831  1.00  0.00    -0.014 A 
BRANCH  37  38
ATOM     38  C   UNL A   1      40.229  29.234  29.840  1.00  0.00     0.031 A 
ATOM     39  C   UNL A   1      40.815  29.018  31.190  1.00  0.00     0.074 A 
ATOM     40  C   UNL A   1      40.684  28.581  28.747  1.00  0.00     0.049 A 
ATOM     41  N   UNL A   1      41.931  29.479  31.647  1.00  0.00    -0.248 NA
ATOM     42  C   UNL A   1      40.008  28.310  32.197  1.00  0.00     0.031 C 
ATOM     43  C   UNL A   1      40.049  28.428  27.430  1.00  0.00     0.029 A 
ATOM     44  N   UNL A   1      41.801  27.819  28.617  1.00  0.00    -0.354 N 
ATOM     45  C   UNL A   1      42.063  28.969  32.935  1.00  0.00     0.074 A 
ATOM     46  C   UNL A   1      40.782  28.406  33.279  1.00  0.00     0.031 C 
ATOM     47  C   UNL A   1      40.667  27.449  26.733  1.00  0.00     0.029 A 
ATOM     48  C   UNL A   1      41.845  27.036  27.468  1.00  0.00     0.049 A 
ATOM     49  H   UNL A   1      42.525  27.821  29.284  1.00  0.00     0.167 HD
ATOM     50  C   UNL A   1      43.287  28.845  33.519  1.00  0.00     0.037 A 
ATOM     51  C   UNL A   1      42.781  26.101  27.170  1.00  0.00     0.037 A 
ATOM     52  C   UNL A   1      44.270  29.645  32.833  1.00  0.00     0.049 A 
ATOM     53  C   UNL A   1      43.973  26.411  28.003  1.00  0.00     0.074 A 
ATOM     54  C   UNL A   1      44.405  30.996  32.580  1.00  0.00     0.029 A 
ATOM     55  N   UNL A   1      45.103  29.018  31.937  1.00  0.00    -0.354 N 
ATOM     56  N   UNL A   1      44.690  27.492  27.862  1.00  0.00    -0.248 NA
ATOM     57  C   UNL A   1      44.060  25.760  29.301  1.00  0.00     0.031 C 
ATOM     58  C   UNL A   1      44.887  31.070  31.238  1.00  0.00     0.029 A 
ATOM     59  C   UNL A   1      45.097  29.767  30.787  1.00  0.00     0.049 A 
ATOM     60  H   UNL A   1      45.607  28.187  32.091  1.00  0.00     0.167 HD
ATOM     61  C   UNL A   1      44.981  27.892  29.158  1.00  0.00     0.074 A 
ATOM     62  C   UNL A   1      44.616  26.753  30.001  1.00  0.00     0.031 C 
ATOM     63  C   UNL A   1      45.209  29.202  29.461  1.00  0.00     0.037 A 
BRANCH  50  64
ATOM     64  C   UNL A   1      43.673  27.745  34.476  1.00  0.00     0.064 A 
ATOM     65  C   UNL A   1      43.803  27.925  35.870  1.00  0.00     0.173 A 
ATOM     66  C   UNL A   1      43.628  26.405  34.040  1.00  0.00     0.173 A 
ATOM     67  F   UNL A   1      43.748  29.134  36.440  1.00  0.00    -0.203 F 
ATOM     68  C   UNL A   1      43.875  26.854  36.758  1.00  0.00     0.198 A 
ATOM     69  C   UNL A   1      43.645  25.334  34.939  1.00  0.00     0.198 A 
ATOM     70  F   UNL A   1      43.479  26.114  32.739  1.00  0.00    -0.203 F 
ATOM     71  F   UNL A   1      43.969  27.096  38.074  1.00  0.00    -0.200 F 
ATOM     72  C   UNL A   1      43.765  25.560  36.297  1.00  0.00     0.200 A 
ATOM     73  F   UNL A   1      43.476  24.085  34.487  1.00  0.00    -0.200 F 
ATOM     74  F   UNL A   1      43.725  24.541  37.165  1.00  0.00    -0.200 F 
ENDBRANCH  50  64
BRANCH  51  75
ATOM     75  C   UNL A   1      42.583  24.774  26.532  1.00  0.00     0.064 A 
ATOM     76  C   UNL A   1      41.936  23.721  27.210  1.00  0.00     0.173 A 
ATOM     77  C   UNL A   1      43.296  24.421  25.374  1.00  0.00     0.173 A 
ATOM     78  F   UNL A   1      41.286  23.942  28.361  1.00  0.00    -0.203 F 
ATOM     79  C   UNL A   1      42.028  22.396  26.777  1.00  0.00     0.198 A 
ATOM     80  C   UNL A   1      43.391  23.092  24.943  1.00  0.00     0.198 A 
ATOM     81  F   UNL A   1      43.974  25.354  24.690  1.00  0.00    -0.203 F 
ATOM     82  F   UNL A   1      41.453  21.421  27.496  1.00  0.00    -0.200 F 
ATOM     83  C   UNL A   1      42.769  22.079  25.653  1.00  0.00     0.200 A 
ATOM     84  F   UNL A   1      44.140  22.787  23.873  1.00  0.00    -0.200 F 
ATOM     85  F   UNL A   1      42.919  20.799  25.284  1.00  0.00    -0.200 F 
ENDBRANCH  51  75
BRANCH  63  86
ATOM     86  C   UNL A   1      45.356  30.185  28.330  1.00  0.00     0.064 A 
ATOM     87  C   UNL A   1      46.651  30.518  27.911  1.00  0.00     0.173 A 
ATOM     88  C   UNL A   1      44.296  30.940  27.798  1.00  0.00     0.173 A 
ATOM     89  F   UNL A   1      47.708  29.865  28.420  1.00  0.00    -0.203 F 
ATOM     90  C   UNL A   1      46.878  31.568  27.025  1.00  0.00     0.198 A 
ATOM     91  C   UNL A   1      44.523  31.969  26.884  1.00  0.00     0.198 A 
ATOM     92  F   UNL A   1      43.037  30.747  28.207  1.00  0.00    -0.203 F 
ATOM     93  F   UNL A   1      48.135  31.905  26.704  1.00  0.00    -0.200 F 
ATOM     94  C   UNL A   1      45.816  32.290  26.508  1.00  0.00     0.200 A 
ATOM     95  F   UNL A   1      43.493  32.682  26.402  1.00  0.00    -0.200 F 
ATOM     96  F   UNL A   1      46.041  33.317  25.676  1.00  0.00    -0.200 F 
ENDBRANCH  63  86
ENDBRANCH  37  38
ENDBRANCH  29  32
ENDBRANCH  27  28
ENDBRANCH  26  27
ENDBRANCH  25  26
ENDBRANCH   1  25
TORSDOF 15
ENDMDL
MODEL 3
REMARK VINA RESULT:     -12.1      3.324      9.090
REMARK SMILES C[C@@H](C(=O)NCc1ccc(F)cc1)n1cc(C(=O)NCCCCNC(=O)c2ccc(-c3c4nc(c(-c5c(F)c(F)c(F)c(F)c5F)c5ccc([nH]5)c(-c5c(F)c(F)c(F)c(F)c5F)c5nc(c(-c6c(F)c(F)c(F)c(F)c6F)c6ccc3[nH]6)C=C5)C=C4)cc2)cn1
REMARK SMILES IDX 20 1 19 2 17 3 18 4 16 6 14 7 15 8 91 9 90 10 2 11 1 12 3 13
REMARK SMILES IDX 4 14 5 15 6 17 7 18 8 19 13 20 9 21 12 22 10 23 11 24 21 25
REMARK SMILES IDX 22 26 23 27 24 28 25 29 26 31 27 32 28 33 89 34 29 35 88 36
REMARK SMILES IDX 30 37 31 38 32 39 82 40 33 41 87 42 81 43 83 44 34 45 86 46
REMARK SMILES IDX 80 47 79 48 35 50 67 51 47 52 66 53 48 54 51 55 65 56 84 57
REMARK SMILES IDX 49 58 50 59 64 61 85 62 52 63 36 64 37 65 45 66 38 67 39 68
REMARK SMILES IDX 43 69 46 70 40 71 41 72 44 73 42 74 68 75 69 76 77 77 70 78
REMARK SMILES IDX 71 79 75 80 78 81 72 82 73 83 76 84 74 85 53 86 54 87 62 88
REMARK SMILES IDX 55 89 56 90 60 91 63 92 57 93 58 94 61 95 59 96
REMARK H PARENT 19 5 5 16 24 30 83 49 51 60
REMARK Flexibility Score: inf
ROOT
ATOM      1  C   UNL A   1      31.907  27.038  26.079  1.00  0.00     0.116 C 
ENDROOT
BRANCH   1   2
ATOM      2  N   UNL A   1      31.339  25.852  26.696  1.00  0.00    -0.352 N 
ATOM      3  C   UNL A   1      31.546  24.506  26.479  1.00  0.00     0.254 C 
ATOM      4  O   UNL A   1      30.994  23.726  27.253  1.00  0.00    -0.269 OA
ATOM      5  H   UNL A   1      30.682  26.046  27.402  1.00  0.00     0.163 HD
BRANCH   3   6
ATOM      6  C   UNL A   1      32.411  24.025  25.416  1.00  0.00     0.077 A 
ATOM      7  N   UNL A   1      34.043  23.097  24.247  1.00  0.00    -0.260 N 
ATOM      8  C   UNL A   1      33.769  23.798  25.400  1.00  0.00     0.123 A 
ATOM      9  N   UNL A   1      33.056  23.244  23.347  1.00  0.00    -0.180 NA
ATOM     10  C   UNL A   1      32.041  23.723  24.079  1.00  0.00     0.149 A 
BRANCH   7  11
ATOM     11  C   UNL A   1      35.284  22.342  23.991  1.00  0.00     0.193 C 
ATOM     12  C   UNL A   1      36.436  23.335  23.788  1.00  0.00     0.044 C 
BRANCH  11  13
ATOM     13  C   UNL A   1      35.708  21.358  25.086  1.00  0.00     0.244 C 
ATOM     14  O   UNL A   1      36.733  21.464  25.761  1.00  0.00    -0.273 OA
ATOM     15  N   UNL A   1      34.956  20.230  25.311  1.00  0.00    -0.350 N 
ATOM     16  H   UNL A   1      35.232  19.714  26.103  1.00  0.00     0.163 HD
BRANCH  15  17
ATOM     17  C   UNL A   1      33.824  19.657  24.594  1.00  0.00     0.151 C 
BRANCH  17  18
ATOM     18  C   UNL A   1      33.675  18.181  24.914  1.00  0.00    -0.029 A 
ATOM     19  C   UNL A   1      34.666  17.267  24.516  1.00  0.00     0.008 A 
ATOM     20  C   UNL A   1      32.533  17.684  25.568  1.00  0.00     0.008 A 
ATOM     21  C   UNL A   1      34.494  15.896  24.723  1.00  0.00     0.039 A 
ATOM     22  C   UNL A   1      32.349  16.312  25.746  1.00  0.00     0.039 A 
ATOM     23  C   UNL A   1      33.330  15.429  25.318  1.00  0.00     0.123 A 
ATOM     24  F   UNL A   1      33.150  14.112  25.482  1.00  0.00    -0.207 F 
ENDBRANCH  17  18
ENDBRANCH  15  17
ENDBRANCH  11  13
ENDBRANCH   7  11
ENDBRANCH   3   6
ENDBRANCH   1   2
BRANCH   1  25
ATOM     25  C   UNL A   1      32.063  28.199  27.070  1.00  0.00     0.023 C 
BRANCH  25  26
ATOM     26  C   UNL A   1      33.006  29.330  26.627  1.00  0.00     0.023 C 
BRANCH  26  27
ATOM     27  C   UNL A   1      33.679  30.101  27.757  1.00  0.00     0.116 C 
BRANCH  27  28
ATOM     28  N   UNL A   1      34.259  31.380  27.333  1.00  0.00    -0.352 N 
ATOM     29  C   UNL A   1      35.487  31.918  27.693  1.00  0.00     0.251 C 
ATOM     30  H   UNL A   1      33.713  31.921  26.718  1.00  0.00     0.163 HD
ATOM     31  O   UNL A   1      35.702  33.116  27.630  1.00  0.00    -0.269 OA
BRANCH  29  32
ATOM     32  C   UNL A   1      36.545  30.991  28.130  1.00  0.00     0.039 A 
ATOM     33  C   UNL A   1      36.586  29.652  27.737  1.00  0.00     0.014 A 
ATOM     34  C   UNL A   1      37.548  31.534  28.925  1.00  0.00     0.014 A 
ATOM     35  C   UNL A   1      37.699  28.888  28.088  1.00  0.00     0.010 A 
ATOM     36  C   UNL A   1      38.719  30.852  29.089  1.00  0.00     0.010 A 
ATOM     37  C   UNL A   1      38.770  29.508  28.752  1.00  0.00    -0.014 A 
BRANCH  37  38
ATOM     38  C   UNL A   1      40.013  28.805  29.034  1.00  0.00     0.031 A 
ATOM     39  C   UNL A   1      40.317  28.634  30.480  1.00  0.00     0.074 A 
ATOM     40  C   UNL A   1      40.702  28.148  28.073  1.00  0.00     0.049 A 
ATOM     41  N   UNL A   1      41.302  29.140  31.143  1.00  0.00    -0.248 NA
ATOM     42  C   UNL A   1      39.342  27.916  31.318  1.00  0.00     0.031 C 
ATOM     43  C   UNL A   1      40.355  27.950  26.658  1.00  0.00     0.029 A 
ATOM     44  N   UNL A   1      41.844  27.423  28.192  1.00  0.00    -0.354 N 
ATOM     45  C   UNL A   1      41.182  28.658  32.443  1.00  0.00     0.074 A 
ATOM     46  C   UNL A   1      39.875  28.058  32.533  1.00  0.00     0.031 C 
ATOM     47  C   UNL A   1      41.132  26.981  26.126  1.00  0.00     0.029 A 
ATOM     48  C   UNL A   1      42.145  26.621  27.097  1.00  0.00     0.049 A 
ATOM     49  H   UNL A   1      42.416  27.462  28.993  1.00  0.00     0.167 HD
ATOM     50  C   UNL A   1      42.264  28.587  33.268  1.00  0.00     0.037 A 
ATOM     51  C   UNL A   1      43.151  25.714  27.018  1.00  0.00     0.037 A 
ATOM     52  C   UNL A   1      43.342  29.408  32.777  1.00  0.00     0.049 A 
ATOM     53  C   UNL A   1      44.137  26.080  28.069  1.00  0.00     0.074 A 
ATOM     54  C   UNL A   1      43.486  30.758  32.524  1.00  0.00     0.029 A 
ATOM     55  N   UNL A   1      44.359  28.794  32.085  1.00  0.00    -0.354 N 
ATOM     56  N   UNL A   1      44.835  27.182  28.051  1.00  0.00    -0.248 NA
ATOM     57  C   UNL A   1      43.976  25.455  29.374  1.00  0.00     0.031 C 
ATOM     58  C   UNL A   1      44.229  30.825  31.308  1.00  0.00     0.029 A 
ATOM     59  C   UNL A   1      44.566  29.522  30.941  1.00  0.00     0.049 A 
ATOM     60  H   UNL A   1      44.846  27.984  32.360  1.00  0.00     0.167 HD
ATOM     61  C   UNL A   1      44.842  27.615  29.369  1.00  0.00     0.074 A 
ATOM     62  C   UNL A   1      44.347  26.479  30.147  1.00  0.00     0.031 C 
ATOM     63  C   UNL A   1      44.964  28.937  29.680  1.00  0.00     0.037 A 
BRANCH  50  64
ATOM     64  C   UNL A   1      42.478  27.518  34.310  1.00  0.00     0.064 A 
ATOM     65  C   UNL A   1      41.816  27.492  35.556  1.00  0.00     0.173 A 
ATOM     66  C   UNL A   1      43.139  26.326  33.950  1.00  0.00     0.173 A 
ATOM     67  F   UNL A   1      41.056  28.508  35.982  1.00  0.00    -0.203 F 
ATOM     68  C   UNL A   1      41.807  26.363  36.374  1.00  0.00     0.198 A 
ATOM     69  C   UNL A   1      43.081  25.179  34.747  1.00  0.00     0.198 A 
ATOM     70  F   UNL A   1      43.778  26.227  32.775  1.00  0.00    -0.203 F 
ATOM     71  F   UNL A   1      41.134  26.396  37.534  1.00  0.00    -0.200 F 
ATOM     72  C   UNL A   1      42.413  25.198  35.957  1.00  0.00     0.200 A 
ATOM     73  F   UNL A   1      43.619  24.035  34.305  1.00  0.00    -0.200 F 
ATOM     74  F   UNL A   1      42.308  24.086  36.696  1.00  0.00    -0.200 F 
ENDBRANCH  50  64
BRANCH  51  75
ATOM     75  C   UNL A   1      43.128  24.370  26.387  1.00  0.00     0.064 A 
ATOM     76  C   UNL A   1      42.257  23.358  26.841  1.00  0.00     0.173 A 
ATOM     77  C   UNL A   1      44.169  23.957  25.537  1.00  0.00     0.173 A 
ATOM     78  F   UNL A   1      41.273  23.637  27.707  1.00  0.00    -0.203 F 
ATOM     79  C   UNL A   1      42.441  22.017  26.498  1.00  0.00     0.198 A 
ATOM     80  C   UNL A   1      44.354  22.612  25.198  1.00  0.00     0.198 A 
ATOM     81  F   UNL A   1      45.066  24.849  25.092  1.00  0.00    -0.203 F 
ATOM     82  F   UNL A   1      41.628  21.082  27.012  1.00  0.00    -0.200 F 
ATOM     83  C   UNL A   1      43.498  21.641  25.690  1.00  0.00     0.200 A 
ATOM     84  F   UNL A   1      45.402  22.250  24.443  1.00  0.00    -0.200 F 
ATOM     85  F   UNL A   1      43.717  20.345  25.425  1.00  0.00    -0.200 F 
ENDBRANCH  51  75
BRANCH  63  86
ATOM     86  C   UNL A   1      45.310  29.905  28.579  1.00  0.00     0.064 A 
ATOM     87  C   UNL A   1      46.643  30.322  28.463  1.00  0.00     0.173 A 
ATOM     88  C   UNL A   1      44.359  30.570  27.785  1.00  0.00     0.173 A 
ATOM     89  F   UNL A   1      47.590  29.758  29.231  1.00  0.00    -0.203 F 
ATOM     90  C   UNL A   1      47.004  31.366  27.616  1.00  0.00     0.198 A 
ATOM     91  C   UNL A   1      44.728  31.593  26.911  1.00  0.00     0.198 A 
ATOM     92  F   UNL A   1      43.055  30.294  27.894  1.00  0.00    -0.203 F 
ATOM     93  F   UNL A   1      48.276  31.787  27.587  1.00  0.00    -0.200 F 
ATOM     94  C   UNL A   1      46.049  31.999  26.838  1.00  0.00     0.200 A 
ATOM     95  F   UNL A   1      43.797  32.219  26.175  1.00  0.00    -0.200 F 
ATOM     96  F   UNL A   1      46.397  33.021  26.044  1.00  0.00    -0.200 F 
ENDBRANCH  63  86
ENDBRANCH  37  38
ENDBRANCH  29  32
ENDBRANCH  27  28
ENDBRANCH  26  27
ENDBRANCH  25  26
ENDBRANCH   1  25
TORSDOF 15
ENDMDL
