MODEL 1
REMARK VINA RESULT:     -13.6      0.000      0.000
REMARK SMILES Cc1coc2c(C)c3oc(=O)c(CC(=O)NCC(=O)N[C@H](C(=O)NCCCCNC(=O)c4ccc(-c5c6nc(c(-c7c(F)c(F)c(F)c(F)c7F)c7ccc([nH]7)c(-c7c(F)c(F)c(F)c(F)c7F)c7nc(c(-c8c(F)c(F)c(F)c(F)c8F)c8ccc5[nH]8)C=C7)C=C6)cc4)C(C)C)c(C)c3cc12
REMARK SMILES IDX 25 1 24 2 22 3 23 4 21 6 20 7 18 8 19 9 17 11 16 12 14 13
REMARK SMILES IDX 15 14 13 16 12 17 1 18 2 19 3 20 102 21 4 22 5 23 101 24
REMARK SMILES IDX 6 25 100 26 7 27 8 28 98 29 9 30 99 31 10 32 11 33 95 34
REMARK SMILES IDX 96 35 97 36 26 37 27 38 28 39 29 40 30 41 31 43 32 44 33 45
REMARK SMILES IDX 94 46 34 47 93 48 35 49 36 50 37 51 87 52 38 53 92 54 86 55
REMARK SMILES IDX 88 56 39 57 91 58 85 59 84 60 40 62 72 63 52 64 71 65 53 66
REMARK SMILES IDX 56 67 70 68 89 69 54 70 55 71 69 73 90 74 57 75 41 76 42 77
REMARK SMILES IDX 50 78 43 79 44 80 48 81 51 82 45 83 46 84 49 85 47 86 73 87
REMARK SMILES IDX 74 88 82 89 75 90 76 91 80 92 83 93 77 94 78 95 81 96 79 97
REMARK SMILES IDX 58 98 59 99 67 100 60 101 61 102 65 103 68 104 62 105 63 106
REMARK SMILES IDX 66 107 64 108
REMARK H PARENT 24 5 20 10 16 15 29 42 88 61 56 72
REMARK Flexibility Score: inf
ROOT
ATOM      1  C   UNL A   1      32.746  28.546  27.029  1.00  0.00     0.116 C 
ENDROOT
BRANCH   1   2
ATOM      2  N   UNL A   1      31.895  29.173  26.044  1.00  0.00    -0.354 N 
ATOM      3  C   UNL A   1      31.574  28.898  24.756  1.00  0.00     0.242 C 
ATOM      4  O   UNL A   1      30.871  29.771  24.220  1.00  0.00    -0.273 OA
ATOM      5  H   UNL A   1      31.448  29.983  26.384  1.00  0.00     0.163 HD
BRANCH   3   6
ATOM      6  C   UNL A   1      31.932  27.590  23.950  1.00  0.00     0.173 C 
BRANCH   6   7
ATOM      7  N   UNL A   1      30.603  26.973  23.750  1.00  0.00    -0.343 N 
ATOM      8  C   UNL A   1      29.704  26.290  24.491  1.00  0.00     0.240 C 
ATOM      9  O   UNL A   1      28.600  26.118  23.953  1.00  0.00    -0.273 OA
ATOM     10  H   UNL A   1      30.288  27.092  22.826  1.00  0.00     0.164 HD
BRANCH   8  11
ATOM     11  C   UNL A   1      29.878  25.839  25.950  1.00  0.00     0.216 C 
BRANCH  11  12
ATOM     12  N   UNL A   1      29.875  24.442  26.336  1.00  0.00    -0.347 N 
ATOM     13  C   UNL A   1      30.486  23.319  25.905  1.00  0.00     0.225 C 
ATOM     14  O   UNL A   1      30.360  22.338  26.653  1.00  0.00    -0.275 OA
ATOM     15  H   UNL A   1      29.281  24.270  27.102  1.00  0.00     0.164 HD
BRANCH  13  16
ATOM     16  C   UNL A   1      31.327  23.163  24.637  1.00  0.00     0.143 C 
BRANCH  16  17
ATOM     17  C   UNL A   1      32.782  22.773  24.751  1.00  0.00     0.051 A 
ATOM     18  C   UNL A   1      39.147  24.701  27.193  1.00  0.00     0.048 C 
ATOM     19  C   UNL A   1      38.776  23.433  26.522  1.00  0.00    -0.005 A 
ATOM     20  C   UNL A   1      39.599  22.344  26.317  1.00  0.00     0.199 A 
ATOM     21  C   UNL A   1      37.510  23.062  25.971  1.00  0.00     0.024 A 
ATOM     22  O   UNL A   1      38.920  21.321  25.746  1.00  0.00    -0.464 OA
ATOM     23  C   UNL A   1      37.640  21.743  25.557  1.00  0.00     0.140 A 
ATOM     24  C   UNL A   1      36.260  23.696  25.803  1.00  0.00     0.024 A 
ATOM     25  C   UNL A   1      36.605  20.968  25.033  1.00  0.00     0.036 A 
ATOM     26  C   UNL A   1      35.173  22.987  25.253  1.00  0.00     0.022 A 
ATOM     27  C   UNL A   1      36.797  19.538  24.632  1.00  0.00     0.052 C 
ATOM     28  C   UNL A   1      35.376  21.648  24.907  1.00  0.00     0.145 A 
ATOM     29  C   UNL A   1      33.819  23.579  25.088  1.00  0.00    -0.029 A 
ATOM     30  O   UNL A   1      34.308  20.888  24.396  1.00  0.00    -0.422 OA
ATOM     31  C   UNL A   1      33.702  25.064  25.339  1.00  0.00     0.046 C 
ATOM     32  C   UNL A   1      33.039  21.394  24.258  1.00  0.00     0.340 A 
ATOM     33  O   UNL A   1      32.154  20.725  23.732  1.00  0.00    -0.246 OA
ENDBRANCH  16  17
ENDBRANCH  13  16
ENDBRANCH  11  12
ENDBRANCH   8  11
ENDBRANCH   6   7
BRANCH   6  34
ATOM     34  C   UNL A   1      32.738  27.791  22.644  1.00  0.00     0.015 C 
ATOM     35  C   UNL A   1      34.030  28.584  22.901  1.00  0.00     0.010 C 
ATOM     36  C   UNL A   1      33.088  26.515  21.876  1.00  0.00     0.010 C 
ENDBRANCH   6  34
ENDBRANCH   3   6
ENDBRANCH   1   2
BRANCH   1  37
ATOM     37  C   UNL A   1      34.018  29.362  27.300  1.00  0.00     0.023 C 
BRANCH  37  38
ATOM     38  C   UNL A   1      33.825  30.880  27.232  1.00  0.00     0.023 C 
BRANCH  38  39
ATOM     39  C   UNL A   1      34.989  31.668  27.812  1.00  0.00     0.116 C 
BRANCH  39  40
ATOM     40  N   UNL A   1      34.798  32.069  29.205  1.00  0.00    -0.352 N 
ATOM     41  C   UNL A   1      35.537  31.619  30.282  1.00  0.00     0.251 C 
ATOM     42  H   UNL A   1      34.082  32.718  29.391  1.00  0.00     0.163 HD
ATOM     43  O   UNL A   1      35.161  31.737  31.442  1.00  0.00    -0.269 OA
BRANCH  41  44
ATOM     44  C   UNL A   1      36.837  31.014  29.972  1.00  0.00     0.039 A 
ATOM     45  C   UNL A   1      37.980  31.790  29.770  1.00  0.00     0.014 A 
ATOM     46  C   UNL A   1      36.896  29.626  30.074  1.00  0.00     0.014 A 
ATOM     47  C   UNL A   1      39.215  31.150  29.735  1.00  0.00     0.010 A 
ATOM     48  C   UNL A   1      38.119  29.025  30.197  1.00  0.00     0.010 A 
ATOM     49  C   UNL A   1      39.277  29.766  29.965  1.00  0.00    -0.014 A 
BRANCH  49  50
ATOM     50  C   UNL A   1      40.555  29.069  30.010  1.00  0.00     0.031 A 
ATOM     51  C   UNL A   1      41.157  28.856  31.361  1.00  0.00     0.074 A 
ATOM     52  C   UNL A   1      41.057  28.469  28.908  1.00  0.00     0.049 A 
ATOM     53  N   UNL A   1      42.297  29.280  31.799  1.00  0.00    -0.248 NA
ATOM     54  C   UNL A   1      40.365  28.143  32.377  1.00  0.00     0.031 C 
ATOM     55  C   UNL A   1      40.459  28.316  27.574  1.00  0.00     0.029 A 
ATOM     56  N   UNL A   1      42.209  27.763  28.792  1.00  0.00    -0.354 N 
ATOM     57  C   UNL A   1      42.443  28.775  33.092  1.00  0.00     0.074 A 
ATOM     58  C   UNL A   1      41.178  28.179  33.437  1.00  0.00     0.031 C 
ATOM     59  C   UNL A   1      41.125  27.367  26.882  1.00  0.00     0.029 A 
ATOM     60  C   UNL A   1      42.302  26.996  27.640  1.00  0.00     0.049 A 
ATOM     61  H   UNL A   1      42.922  27.792  29.470  1.00  0.00     0.167 HD
ATOM     62  C   UNL A   1      43.655  28.737  33.718  1.00  0.00     0.037 A 
ATOM     63  C   UNL A   1      43.271  26.093  27.361  1.00  0.00     0.037 A 
ATOM     64  C   UNL A   1      44.609  29.595  33.069  1.00  0.00     0.049 A 
ATOM     65  C   UNL A   1      44.435  26.431  28.223  1.00  0.00     0.074 A 
ATOM     66  C   UNL A   1      44.687  30.956  32.851  1.00  0.00     0.029 A 
ATOM     67  N   UNL A   1      45.501  29.033  32.188  1.00  0.00    -0.354 N 
ATOM     68  N   UNL A   1      45.123  27.534  28.100  1.00  0.00    -0.248 NA
ATOM     69  C   UNL A   1      44.513  25.784  29.525  1.00  0.00     0.031 C 
ATOM     70  C   UNL A   1      45.188  31.082  31.521  1.00  0.00     0.029 A 
ATOM     71  C   UNL A   1      45.454  29.797  31.047  1.00  0.00     0.049 A 
ATOM     72  H   UNL A   1      46.062  28.239  32.342  1.00  0.00     0.167 HD
ATOM     73  C   UNL A   1      45.385  27.938  29.401  1.00  0.00     0.074 A 
ATOM     74  C   UNL A   1      45.034  26.789  30.235  1.00  0.00     0.031 C 
ATOM     75  C   UNL A   1      45.582  29.252  29.716  1.00  0.00     0.037 A 
BRANCH  62  76
ATOM     76  C   UNL A   1      44.074  27.709  34.736  1.00  0.00     0.064 A 
ATOM     77  C   UNL A   1      44.003  26.336  34.420  1.00  0.00     0.173 A 
ATOM     78  C   UNL A   1      44.262  28.012  36.099  1.00  0.00     0.173 A 
ATOM     79  F   UNL A   1      43.804  25.936  33.155  1.00  0.00    -0.203 F 
ATOM     80  C   UNL A   1      44.051  25.348  35.408  1.00  0.00     0.198 A 
ATOM     81  C   UNL A   1      44.359  27.021  37.077  1.00  0.00     0.198 A 
ATOM     82  F   UNL A   1      44.247  29.273  36.550  1.00  0.00    -0.203 F 
ATOM     83  F   UNL A   1      43.863  24.063  35.075  1.00  0.00    -0.200 F 
ATOM     84  C   UNL A   1      44.223  25.692  36.735  1.00  0.00     0.200 A 
ATOM     85  F   UNL A   1      44.507  27.376  38.361  1.00  0.00    -0.200 F 
ATOM     86  F   UNL A   1      44.211  24.752  37.690  1.00  0.00    -0.200 F 
ENDBRANCH  62  76
BRANCH  63  87
ATOM     87  C   UNL A   1      43.085  24.762  26.738  1.00  0.00     0.064 A 
ATOM     88  C   UNL A   1      43.593  24.491  25.458  1.00  0.00     0.173 A 
ATOM     89  C   UNL A   1      42.658  23.652  27.494  1.00  0.00     0.173 A 
ATOM     90  F   UNL A   1      44.057  25.490  24.695  1.00  0.00    -0.203 F 
ATOM     91  C   UNL A   1      43.698  23.182  24.976  1.00  0.00     0.198 A 
ATOM     92  C   UNL A   1      42.759  22.347  27.009  1.00  0.00     0.198 A 
ATOM     93  F   UNL A   1      42.224  23.801  28.755  1.00  0.00    -0.203 F 
ATOM     94  F   UNL A   1      44.247  22.955  23.775  1.00  0.00    -0.200 F 
ATOM     95  C   UNL A   1      43.292  22.111  25.757  1.00  0.00     0.200 A 
ATOM     96  F   UNL A   1      42.395  21.319  27.790  1.00  0.00    -0.200 F 
ATOM     97  F   UNL A   1      43.455  20.854  25.321  1.00  0.00    -0.200 F 
ENDBRANCH  63  87
BRANCH  75  98
ATOM     98  C   UNL A   1      45.699  30.246  28.592  1.00  0.00     0.064 A 
ATOM     99  C   UNL A   1      44.611  30.965  28.064  1.00  0.00     0.173 A 
ATOM    100  C   UNL A   1      46.977  30.614  28.155  1.00  0.00     0.173 A 
ATOM    101  F   UNL A   1      43.366  30.751  28.503  1.00  0.00    -0.203 F 
ATOM    102  C   UNL A   1      44.793  31.974  27.120  1.00  0.00     0.198 A 
ATOM    103  C   UNL A   1      47.161  31.646  27.237  1.00  0.00     0.198 A 
ATOM    104  F   UNL A   1      48.061  30.007  28.666  1.00  0.00    -0.203 F 
ATOM    105  F   UNL A   1      43.735  32.642  26.636  1.00  0.00    -0.200 F 
ATOM    106  C   UNL A   1      46.069  32.320  26.714  1.00  0.00     0.200 A 
ATOM    107  F   UNL A   1      48.402  32.011  26.887  1.00  0.00    -0.200 F 
ATOM    108  F   UNL A   1      46.251  33.322  25.841  1.00  0.00    -0.200 F 
ENDBRANCH  75  98
ENDBRANCH  49  50
ENDBRANCH  41  44
ENDBRANCH  39  40
ENDBRANCH  38  39
ENDBRANCH  37  38
ENDBRANCH   1  37
TORSDOF 17
ENDMDL
MODEL 2
REMARK VINA RESULT:     -13.3      1.871      6.871
REMARK SMILES Cc1coc2c(C)c3oc(=O)c(CC(=O)NCC(=O)N[C@H](C(=O)NCCCCNC(=O)c4ccc(-c5c6nc(c(-c7c(F)c(F)c(F)c(F)c7F)c7ccc([nH]7)c(-c7c(F)c(F)c(F)c(F)c7F)c7nc(c(-c8c(F)c(F)c(F)c(F)c8F)c8ccc5[nH]8)C=C7)C=C6)cc4)C(C)C)c(C)c3cc12
REMARK SMILES IDX 25 1 24 2 22 3 23 4 21 6 20 7 18 8 19 9 17 11 16 12 14 13
REMARK SMILES IDX 15 14 13 16 12 17 1 18 2 19 3 20 102 21 4 22 5 23 101 24
REMARK SMILES IDX 6 25 100 26 7 27 8 28 98 29 9 30 99 31 10 32 11 33 95 34
REMARK SMILES IDX 96 35 97 36 26 37 27 38 28 39 29 40 30 41 31 43 32 44 33 45
REMARK SMILES IDX 94 46 34 47 93 48 35 49 36 50 37 51 87 52 38 53 92 54 86 55
REMARK SMILES IDX 88 56 39 57 91 58 85 59 84 60 40 62 72 63 52 64 71 65 53 66
REMARK SMILES IDX 56 67 70 68 89 69 54 70 55 71 69 73 90 74 57 75 41 76 42 77
REMARK SMILES IDX 50 78 43 79 44 80 48 81 51 82 45 83 46 84 49 85 47 86 73 87
REMARK SMILES IDX 74 88 82 89 75 90 76 91 80 92 83 93 77 94 78 95 81 96 79 97
REMARK SMILES IDX 58 98 59 99 67 100 60 101 61 102 65 103 68 104 62 105 63 106
REMARK SMILES IDX 66 107 64 108
REMARK H PARENT 24 5 20 10 16 15 29 42 88 61 56 72
REMARK Flexibility Score: inf
ROOT
ATOM      1  C   UNL A   1      32.468  28.477  27.225  1.00  0.00     0.116 C 
ENDROOT
BRANCH   1   2
ATOM      2  N   UNL A   1      31.706  29.163  26.207  1.00  0.00    -0.354 N 
ATOM      3  C   UNL A   1      31.474  28.946  24.889  1.00  0.00     0.242 C 
ATOM      4  O   UNL A   1      30.832  29.856  24.339  1.00  0.00    -0.273 OA
ATOM      5  H   UNL A   1      31.254  29.970  26.546  1.00  0.00     0.163 HD
BRANCH   3   6
ATOM      6  C   UNL A   1      31.861  27.660  24.060  1.00  0.00     0.173 C 
BRANCH   6   7
ATOM      7  N   UNL A   1      30.538  27.063  23.776  1.00  0.00    -0.343 N 
ATOM      8  C   UNL A   1      29.644  26.280  24.417  1.00  0.00     0.240 C 
ATOM      9  O   UNL A   1      28.544  26.170  23.857  1.00  0.00    -0.273 OA
ATOM     10  H   UNL A   1      30.224  27.300  22.874  1.00  0.00     0.164 HD
BRANCH   8  11
ATOM     11  C   UNL A   1      29.819  25.643  25.805  1.00  0.00     0.216 C 
BRANCH  11  12
ATOM     12  N   UNL A   1      30.015  24.218  25.986  1.00  0.00    -0.347 N 
ATOM     13  C   UNL A   1      30.872  23.292  25.507  1.00  0.00     0.225 C 
ATOM     14  O   UNL A   1      30.824  22.194  26.080  1.00  0.00    -0.275 OA
ATOM     15  H   UNL A   1      29.362  23.830  26.613  1.00  0.00     0.164 HD
BRANCH  13  16
ATOM     16  C   UNL A   1      31.893  23.483  24.384  1.00  0.00     0.143 C 
BRANCH  16  17
ATOM     17  C   UNL A   1      33.341  23.128  24.625  1.00  0.00     0.051 A 
ATOM     18  C   UNL A   1      39.369  25.105  27.781  1.00  0.00     0.048 C 
ATOM     19  C   UNL A   1      39.106  23.862  27.018  1.00  0.00    -0.005 A 
ATOM     20  C   UNL A   1      39.980  22.808  26.846  1.00  0.00     0.199 A 
ATOM     21  C   UNL A   1      37.913  23.484  26.326  1.00  0.00     0.024 A 
ATOM     22  O   UNL A   1      39.394  21.796  26.163  1.00  0.00    -0.464 OA
ATOM     23  C   UNL A   1      38.126  22.192  25.866  1.00  0.00     0.140 A 
ATOM     24  C   UNL A   1      36.667  24.092  26.063  1.00  0.00     0.024 A 
ATOM     25  C   UNL A   1      37.173  21.416  25.205  1.00  0.00     0.036 A 
ATOM     26  C   UNL A   1      35.663  23.382  25.374  1.00  0.00     0.022 A 
ATOM     27  C   UNL A   1      37.449  20.013  24.759  1.00  0.00     0.052 C 
ATOM     28  C   UNL A   1      35.942  22.068  24.988  1.00  0.00     0.145 A 
ATOM     29  C   UNL A   1      34.313  23.945  25.102  1.00  0.00    -0.029 A 
ATOM     30  O   UNL A   1      34.955  21.305  24.337  1.00  0.00    -0.422 OA
ATOM     31  C   UNL A   1      34.125  25.411  25.409  1.00  0.00     0.046 C 
ATOM     32  C   UNL A   1      33.689  21.782  24.097  1.00  0.00     0.340 A 
ATOM     33  O   UNL A   1      32.883  21.116  23.454  1.00  0.00    -0.246 OA
ENDBRANCH  16  17
ENDBRANCH  13  16
ENDBRANCH  11  12
ENDBRANCH   8  11
ENDBRANCH   6   7
BRANCH   6  34
ATOM     34  C   UNL A   1      32.732  27.896  22.802  1.00  0.00     0.015 C 
ATOM     35  C   UNL A   1      34.003  28.689  23.143  1.00  0.00     0.010 C 
ATOM     36  C   UNL A   1      33.128  26.639  22.024  1.00  0.00     0.010 C 
ENDBRANCH   6  34
ENDBRANCH   3   6
ENDBRANCH   1   2
BRANCH   1  37
ATOM     37  C   UNL A   1      33.981  28.633  27.020  1.00  0.00     0.023 C 
BRANCH  37  38
ATOM     38  C   UNL A   1      34.518  30.042  27.293  1.00  0.00     0.023 C 
BRANCH  38  39
ATOM     39  C   UNL A   1      35.815  30.055  28.087  1.00  0.00     0.116 C 
BRANCH  39  40
ATOM     40  N   UNL A   1      35.639  30.353  29.508  1.00  0.00    -0.352 N 
ATOM     41  C   UNL A   1      36.489  29.963  30.524  1.00  0.00     0.251 C 
ATOM     42  H   UNL A   1      34.845  30.877  29.761  1.00  0.00     0.163 HD
ATOM     43  O   UNL A   1      36.159  29.965  31.704  1.00  0.00    -0.269 OA
BRANCH  41  44
ATOM     44  C   UNL A   1      37.846  29.575  30.124  1.00  0.00     0.039 A 
ATOM     45  C   UNL A   1      38.787  30.517  29.703  1.00  0.00     0.014 A 
ATOM     46  C   UNL A   1      38.188  28.247  30.367  1.00  0.00     0.014 A 
ATOM     47  C   UNL A   1      40.114  30.117  29.587  1.00  0.00     0.010 A 
ATOM     48  C   UNL A   1      39.512  27.904  30.404  1.00  0.00     0.010 A 
ATOM     49  C   UNL A   1      40.472  28.810  29.955  1.00  0.00    -0.014 A 
BRANCH  49  50
ATOM     50  C   UNL A   1      41.861  28.374  29.917  1.00  0.00     0.031 A 
ATOM     51  C   UNL A   1      42.225  27.380  28.861  1.00  0.00     0.074 A 
ATOM     52  C   UNL A   1      42.804  28.993  30.662  1.00  0.00     0.049 A 
ATOM     53  N   UNL A   1      42.706  26.191  29.021  1.00  0.00    -0.248 NA
ATOM     54  C   UNL A   1      41.955  27.723  27.454  1.00  0.00     0.031 C 
ATOM     55  C   UNL A   1      42.683  30.179  31.522  1.00  0.00     0.029 A 
ATOM     56  N   UNL A   1      44.132  28.729  30.718  1.00  0.00    -0.354 N 
ATOM     57  C   UNL A   1      42.939  25.679  27.744  1.00  0.00     0.074 A 
ATOM     58  C   UNL A   1      42.355  26.617  26.820  1.00  0.00     0.031 C 
ATOM     59  C   UNL A   1      43.911  30.667  31.800  1.00  0.00     0.029 A 
ATOM     60  C   UNL A   1      44.894  29.724  31.310  1.00  0.00     0.049 A 
ATOM     61  H   UNL A   1      44.524  27.896  30.367  1.00  0.00     0.167 HD
ATOM     62  C   UNL A   1      43.749  24.600  27.538  1.00  0.00     0.037 A 
ATOM     63  C   UNL A   1      46.247  29.772  31.352  1.00  0.00     0.037 A 
ATOM     64  C   UNL A   1      43.981  23.876  28.758  1.00  0.00     0.049 A 
ATOM     65  C   UNL A   1      46.734  28.385  31.126  1.00  0.00     0.074 A 
ATOM     66  C   UNL A   1      43.169  23.186  29.637  1.00  0.00     0.029 A 
ATOM     67  N   UNL A   1      45.147  24.109  29.446  1.00  0.00    -0.354 N 
ATOM     68  N   UNL A   1      46.524  27.405  31.963  1.00  0.00    -0.248 NA
ATOM     69  C   UNL A   1      47.010  27.990  29.753  1.00  0.00     0.031 C 
ATOM     70  C   UNL A   1      43.666  23.524  30.931  1.00  0.00     0.029 A 
ATOM     71  C   UNL A   1      44.790  24.333  30.753  1.00  0.00     0.049 A 
ATOM     72  H   UNL A   1      46.059  24.117  29.075  1.00  0.00     0.167 HD
ATOM     73  C   UNL A   1      46.238  26.308  31.164  1.00  0.00     0.074 A 
ATOM     74  C   UNL A   1      46.610  26.716  29.809  1.00  0.00     0.031 C 
ATOM     75  C   UNL A   1      45.459  25.280  31.613  1.00  0.00     0.037 A 
BRANCH  62  76
ATOM     76  C   UNL A   1      44.573  24.357  26.300  1.00  0.00     0.064 A 
ATOM     77  C   UNL A   1      44.390  23.174  25.555  1.00  0.00     0.173 A 
ATOM     78  C   UNL A   1      45.730  25.101  25.991  1.00  0.00     0.173 A 
ATOM     79  F   UNL A   1      43.334  22.379  25.783  1.00  0.00    -0.203 F 
ATOM     80  C   UNL A   1      45.332  22.739  24.618  1.00  0.00     0.198 A 
ATOM     81  C   UNL A   1      46.643  24.688  25.020  1.00  0.00     0.198 A 
ATOM     82  F   UNL A   1      46.077  26.189  26.691  1.00  0.00    -0.203 F 
ATOM     83  F   UNL A   1      45.175  21.551  24.016  1.00  0.00    -0.200 F 
ATOM     84  C   UNL A   1      46.460  23.494  24.356  1.00  0.00     0.200 A 
ATOM     85  F   UNL A   1      47.741  25.424  24.795  1.00  0.00    -0.200 F 
ATOM     86  F   UNL A   1      47.393  23.051  23.502  1.00  0.00    -0.200 F 
ENDBRANCH  62  76
BRANCH  63  87
ATOM     87  C   UNL A   1      47.094  30.971  31.152  1.00  0.00     0.064 A 
ATOM     88  C   UNL A   1      47.067  31.676  29.940  1.00  0.00     0.173 A 
ATOM     89  C   UNL A   1      47.728  31.609  32.238  1.00  0.00     0.173 A 
ATOM     90  F   UNL A   1      46.445  31.153  28.874  1.00  0.00    -0.203 F 
ATOM     91  C   UNL A   1      47.613  32.959  29.827  1.00  0.00     0.198 A 
ATOM     92  C   UNL A   1      48.277  32.887  32.122  1.00  0.00     0.198 A 
ATOM     93  F   UNL A   1      47.744  31.047  33.456  1.00  0.00    -0.203 F 
ATOM     94  F   UNL A   1      47.512  33.629  28.671  1.00  0.00    -0.200 F 
ATOM     95  C   UNL A   1      48.207  33.568  30.922  1.00  0.00     0.200 A 
ATOM     96  F   UNL A   1      48.817  33.477  33.199  1.00  0.00    -0.200 F 
ATOM     97  F   UNL A   1      48.670  34.822  30.832  1.00  0.00    -0.200 F 
ENDBRANCH  63  87
BRANCH  75  98
ATOM     98  C   UNL A   1      45.066  25.264  33.066  1.00  0.00     0.064 A 
ATOM     99  C   UNL A   1      43.927  25.911  33.577  1.00  0.00     0.173 A 
ATOM    100  C   UNL A   1      45.764  24.420  33.938  1.00  0.00     0.173 A 
ATOM    101  F   UNL A   1      43.142  26.652  32.787  1.00  0.00    -0.203 F 
ATOM    102  C   UNL A   1      43.530  25.749  34.904  1.00  0.00     0.198 A 
ATOM    103  C   UNL A   1      45.347  24.232  35.253  1.00  0.00     0.198 A 
ATOM    104  F   UNL A   1      46.825  23.726  33.493  1.00  0.00    -0.203 F 
ATOM    105  F   UNL A   1      42.439  26.381  35.362  1.00  0.00    -0.200 F 
ATOM    106  C   UNL A   1      44.236  24.902  35.739  1.00  0.00     0.200 A 
ATOM    107  F   UNL A   1      46.005  23.370  36.042  1.00  0.00    -0.200 F 
ATOM    108  F   UNL A   1      43.830  24.708  37.002  1.00  0.00    -0.200 F 
ENDBRANCH  75  98
ENDBRANCH  49  50
ENDBRANCH  41  44
ENDBRANCH  39  40
ENDBRANCH  38  39
ENDBRANCH  37  38
ENDBRANCH   1  37
TORSDOF 17
ENDMDL
MODEL 3
REMARK VINA RESULT:     -12.9      3.513      8.191
REMARK SMILES Cc1coc2c(C)c3oc(=O)c(CC(=O)NCC(=O)N[C@H](C(=O)NCCCCNC(=O)c4ccc(-c5c6nc(c(-c7c(F)c(F)c(F)c(F)c7F)c7ccc([nH]7)c(-c7c(F)c(F)c(F)c(F)c7F)c7nc(c(-c8c(F)c(F)c(F)c(F)c8F)c8ccc5[nH]8)C=C7)C=C6)cc4)C(C)C)c(C)c3cc12
REMARK SMILES IDX 25 1 24 2 22 3 23 4 21 6 20 7 18 8 19 9 17 11 16 12 14 13
REMARK SMILES IDX 15 14 13 16 12 17 1 18 2 19 3 20 102 21 4 22 5 23 101 24
REMARK SMILES IDX 6 25 100 26 7 27 8 28 98 29 9 30 99 31 10 32 11 33 95 34
REMARK SMILES IDX 96 35 97 36 26 37 27 38 28 39 29 40 30 41 31 43 32 44 33 45
REMARK SMILES IDX 94 46 34 47 93 48 35 49 36 50 37 51 87 52 38 53 92 54 86 55
REMARK SMILES IDX 88 56 39 57 91 58 85 59 84 60 40 62 72 63 52 64 71 65 53 66
REMARK SMILES IDX 56 67 70 68 89 69 54 70 55 71 69 73 90 74 57 75 41 76 42 77
REMARK SMILES IDX 50 78 43 79 44 80 48 81 51 82 45 83 46 84 49 85 47 86 73 87
REMARK SMILES IDX 74 88 82 89 75 90 76 91 80 92 83 93 77 94 78 95 81 96 79 97
REMARK SMILES IDX 58 98 59 99 67 100 60 101 61 102 65 103 68 104 62 105 63 106
REMARK SMILES IDX 66 107 64 108
REMARK H PARENT 24 5 20 10 16 15 29 42 88 61 56 72
REMARK Flexibility Score: inf
ROOT
ATOM      1  C   UNL A   1      36.709  21.443  25.381  1.00  0.00     0.116 C 
ENDROOT
BRANCH   1   2
ATOM      2  N   UNL A   1      35.612  21.447  26.322  1.00  0.00    -0.354 N 
ATOM      3  C   UNL A   1      34.262  21.437  26.203  1.00  0.00     0.242 C 
ATOM      4  O   UNL A   1      33.665  21.557  27.286  1.00  0.00    -0.273 OA
ATOM      5  H   UNL A   1      35.913  21.461  27.260  1.00  0.00     0.163 HD
BRANCH   3   6
ATOM      6  C   UNL A   1      33.430  21.215  24.881  1.00  0.00     0.173 C 
BRANCH   6   7
ATOM      7  N   UNL A   1      34.125  22.102  23.923  1.00  0.00    -0.343 N 
ATOM      8  C   UNL A   1      33.789  22.916  22.900  1.00  0.00     0.240 C 
ATOM      9  O   UNL A   1      34.704  23.638  22.478  1.00  0.00    -0.273 OA
ATOM     10  H   UNL A   1      35.098  22.097  24.071  1.00  0.00     0.164 HD
BRANCH   8  11
ATOM     11  C   UNL A   1      32.379  23.118  22.320  1.00  0.00     0.216 C 
BRANCH  11  12
ATOM     12  N   UNL A   1      31.300  23.706  23.090  1.00  0.00    -0.347 N 
ATOM     13  C   UNL A   1      30.832  24.953  23.300  1.00  0.00     0.225 C 
ATOM     14  O   UNL A   1      29.739  25.007  23.884  1.00  0.00    -0.275 OA
ATOM     15  H   UNL A   1      30.782  23.027  23.580  1.00  0.00     0.164 HD
BRANCH  13  16
ATOM     16  C   UNL A   1      31.486  26.264  22.860  1.00  0.00     0.143 C 
BRANCH  16  17
ATOM     17  C   UNL A   1      31.861  27.295  23.899  1.00  0.00     0.051 A 
ATOM     18  C   UNL A   1      36.971  29.588  28.238  1.00  0.00     0.048 C 
ATOM     19  C   UNL A   1      35.639  30.192  28.002  1.00  0.00    -0.005 A 
ATOM     20  C   UNL A   1      35.172  31.376  28.535  1.00  0.00     0.199 A 
ATOM     21  C   UNL A   1      34.579  29.702  27.177  1.00  0.00     0.024 A 
ATOM     22  O   UNL A   1      33.943  31.677  28.052  1.00  0.00    -0.464 OA
ATOM     23  C   UNL A   1      33.588  30.673  27.203  1.00  0.00     0.140 A 
ATOM     24  C   UNL A   1      34.366  28.549  26.390  1.00  0.00     0.024 A 
ATOM     25  C   UNL A   1      32.408  30.626  26.460  1.00  0.00     0.036 A 
ATOM     26  C   UNL A   1      33.185  28.415  25.633  1.00  0.00     0.022 A 
ATOM     27  C   UNL A   1      31.387  31.720  26.504  1.00  0.00     0.052 C 
ATOM     28  C   UNL A   1      32.260  29.462  25.678  1.00  0.00     0.145 A 
ATOM     29  C   UNL A   1      32.916  27.249  24.750  1.00  0.00    -0.029 A 
ATOM     30  O   UNL A   1      31.087  29.391  24.905  1.00  0.00    -0.422 OA
ATOM     31  C   UNL A   1      33.878  26.090  24.859  1.00  0.00     0.046 C 
ATOM     32  C   UNL A   1      30.820  28.345  24.056  1.00  0.00     0.340 A 
ATOM     33  O   UNL A   1      29.749  28.281  23.462  1.00  0.00    -0.246 OA
ENDBRANCH  16  17
ENDBRANCH  13  16
ENDBRANCH  11  12
ENDBRANCH   8  11
ENDBRANCH   6   7
BRANCH   6  34
ATOM     34  C   UNL A   1      33.291  19.750  24.399  1.00  0.00     0.015 C 
ATOM     35  C   UNL A   1      32.853  18.824  25.546  1.00  0.00     0.010 C 
ATOM     36  C   UNL A   1      32.362  19.529  23.204  1.00  0.00     0.010 C 
ENDBRANCH   6  34
ENDBRANCH   3   6
ENDBRANCH   1   2
BRANCH   1  37
ATOM     37  C   UNL A   1      37.923  22.226  25.903  1.00  0.00     0.023 C 
BRANCH  37  38
ATOM     38  C   UNL A   1      37.710  23.740  25.997  1.00  0.00     0.023 C 
BRANCH  38  39
ATOM     39  C   UNL A   1      38.830  24.469  26.723  1.00  0.00     0.116 C 
BRANCH  39  40
ATOM     40  N   UNL A   1      40.075  24.553  25.960  1.00  0.00    -0.352 N 
ATOM     41  C   UNL A   1      40.960  25.613  25.977  1.00  0.00     0.251 C 
ATOM     42  H   UNL A   1      40.302  23.787  25.386  1.00  0.00     0.163 HD
ATOM     43  O   UNL A   1      41.814  25.780  25.116  1.00  0.00    -0.269 OA
BRANCH  41  44
ATOM     44  C   UNL A   1      40.855  26.530  27.118  1.00  0.00     0.039 A 
ATOM     45  C   UNL A   1      41.329  26.186  28.385  1.00  0.00     0.014 A 
ATOM     46  C   UNL A   1      40.426  27.820  26.816  1.00  0.00     0.014 A 
ATOM     47  C   UNL A   1      41.430  27.186  29.347  1.00  0.00     0.010 A 
ATOM     48  C   UNL A   1      40.675  28.825  27.711  1.00  0.00     0.010 A 
ATOM     49  C   UNL A   1      41.115  28.509  28.996  1.00  0.00    -0.014 A 
BRANCH  49  50
ATOM     50  C   UNL A   1      41.276  29.597  29.951  1.00  0.00     0.031 A 
ATOM     51  C   UNL A   1      40.023  30.216  30.481  1.00  0.00     0.074 A 
ATOM     52  C   UNL A   1      42.486  29.882  30.480  1.00  0.00     0.049 A 
ATOM     53  N   UNL A   1      39.640  31.447  30.380  1.00  0.00    -0.248 NA
ATOM     54  C   UNL A   1      39.037  29.346  31.145  1.00  0.00     0.031 C 
ATOM     55  C   UNL A   1      43.768  29.185  30.308  1.00  0.00     0.029 A 
ATOM     56  N   UNL A   1      42.795  30.836  31.394  1.00  0.00    -0.354 N 
ATOM     57  C   UNL A   1      38.441  31.553  31.085  1.00  0.00     0.074 A 
ATOM     58  C   UNL A   1      38.060  30.209  31.438  1.00  0.00     0.031 C 
ATOM     59  C   UNL A   1      44.633  29.577  31.268  1.00  0.00     0.029 A 
ATOM     60  C   UNL A   1      44.038  30.683  31.989  1.00  0.00     0.049 A 
ATOM     61  H   UNL A   1      42.186  31.577  31.616  1.00  0.00     0.167 HD
ATOM     62  C   UNL A   1      37.938  32.761  31.473  1.00  0.00     0.037 A 
ATOM     63  C   UNL A   1      44.516  31.404  33.030  1.00  0.00     0.037 A 
ATOM     64  C   UNL A   1      38.557  33.843  30.756  1.00  0.00     0.049 A 
ATOM     65  C   UNL A   1      43.728  32.665  33.078  1.00  0.00     0.074 A 
ATOM     66  C   UNL A   1      38.607  34.213  29.426  1.00  0.00     0.029 A 
ATOM     67  N   UNL A   1      39.580  34.529  31.364  1.00  0.00    -0.354 N 
ATOM     68  N   UNL A   1      43.773  33.575  32.143  1.00  0.00    -0.248 NA
ATOM     69  C   UNL A   1      42.532  32.673  33.906  1.00  0.00     0.031 C 
ATOM     70  C   UNL A   1      39.950  34.648  29.222  1.00  0.00     0.029 A 
ATOM     71  C   UNL A   1      40.605  34.588  30.453  1.00  0.00     0.049 A 
ATOM     72  H   UNL A   1      39.579  34.905  32.274  1.00  0.00     0.167 HD
ATOM     73  C   UNL A   1      42.460  34.000  31.997  1.00  0.00     0.074 A 
ATOM     74  C   UNL A   1      41.750  33.450  33.150  1.00  0.00     0.031 C 
ATOM     75  C   UNL A   1      42.001  34.508  30.815  1.00  0.00     0.037 A 
BRANCH  62  76
ATOM     76  C   UNL A   1      37.100  32.998  32.702  1.00  0.00     0.064 A 
ATOM     77  C   UNL A   1      35.834  33.608  32.584  1.00  0.00     0.173 A 
ATOM     78  C   UNL A   1      37.618  32.917  34.011  1.00  0.00     0.173 A 
ATOM     79  F   UNL A   1      35.258  33.757  31.381  1.00  0.00    -0.203 F 
ATOM     80  C   UNL A   1      35.171  34.153  33.687  1.00  0.00     0.198 A 
ATOM     81  C   UNL A   1      36.931  33.418  35.116  1.00  0.00     0.198 A 
ATOM     82  F   UNL A   1      38.851  32.454  34.254  1.00  0.00    -0.203 F 
ATOM     83  F   UNL A   1      34.024  34.825  33.511  1.00  0.00    -0.200 F 
ATOM     84  C   UNL A   1      35.723  34.062  34.951  1.00  0.00     0.200 A 
ATOM     85  F   UNL A   1      37.492  33.338  36.331  1.00  0.00    -0.200 F 
ATOM     86  F   UNL A   1      35.118  34.635  36.001  1.00  0.00    -0.200 F 
ENDBRANCH  62  76
BRANCH  63  87
ATOM     87  C   UNL A   1      45.284  30.885  34.185  1.00  0.00     0.064 A 
ATOM     88  C   UNL A   1      46.499  31.475  34.565  1.00  0.00     0.173 A 
ATOM     89  C   UNL A   1      44.704  29.989  35.107  1.00  0.00     0.173 A 
ATOM     90  F   UNL A   1      47.090  32.368  33.760  1.00  0.00    -0.203 F 
ATOM     91  C   UNL A   1      47.084  31.209  35.807  1.00  0.00     0.198 A 
ATOM     92  C   UNL A   1      45.293  29.721  36.344  1.00  0.00     0.198 A 
ATOM     93  F   UNL A   1      43.509  29.429  34.867  1.00  0.00    -0.203 F 
ATOM     94  F   UNL A   1      48.212  31.839  36.163  1.00  0.00    -0.200 F 
ATOM     95  C   UNL A   1      46.474  30.342  36.700  1.00  0.00     0.200 A 
ATOM     96  F   UNL A   1      44.672  28.908  37.211  1.00  0.00    -0.200 F 
ATOM     97  F   UNL A   1      47.000  30.140  37.916  1.00  0.00    -0.200 F 
ENDBRANCH  63  87
BRANCH  75  98
ATOM     98  C   UNL A   1      42.997  34.778  29.719  1.00  0.00     0.064 A 
ATOM     99  C   UNL A   1      43.369  33.831  28.747  1.00  0.00     0.173 A 
ATOM    100  C   UNL A   1      43.453  36.089  29.538  1.00  0.00     0.173 A 
ATOM    101  F   UNL A   1      42.893  32.582  28.784  1.00  0.00    -0.203 F 
ATOM    102  C   UNL A   1      44.187  34.173  27.671  1.00  0.00     0.198 A 
ATOM    103  C   UNL A   1      44.242  36.437  28.444  1.00  0.00     0.198 A 
ATOM    104  F   UNL A   1      43.083  37.052  30.397  1.00  0.00    -0.203 F 
ATOM    105  F   UNL A   1      44.525  33.247  26.761  1.00  0.00    -0.200 F 
ATOM    106  C   UNL A   1      44.616  35.479  27.516  1.00  0.00     0.200 A 
ATOM    107  F   UNL A   1      44.611  37.714  28.271  1.00  0.00    -0.200 F 
ATOM    108  F   UNL A   1      45.364  35.821  26.457  1.00  0.00    -0.200 F 
ENDBRANCH  75  98
ENDBRANCH  49  50
ENDBRANCH  41  44
ENDBRANCH  39  40
ENDBRANCH  38  39
ENDBRANCH  37  38
ENDBRANCH   1  37
TORSDOF 17
ENDMDL
