MODEL 1
REMARK VINA RESULT:     -12.4      0.000      0.000
REMARK SMILES O=C(C[C@@H](c1cccc([N+](=O)[O-])c1)N1Cc2ccccc2C1=O)NCCCCNC(=O)c1ccc(-c2c3nc(c(-c4c(F)c(F)c(F)c(F)c4F)c4ccc([nH]4)c(-c4c(F)c(F)c(F)c(F)c4F)c4nc(c(-c5c(F)c(F)c(F)c(F)c5F)c5ccc2[nH]5)C=C4)C=C3)cc1
REMARK SMILES IDX 26 1 25 2 24 3 1 4 2 5 3 7 4 8 5 9 6 10 13 11 7 12 9 13 8 14
REMARK SMILES IDX 10 15 11 16 12 17 14 18 15 19 22 20 16 21 21 22 23 23 17 24
REMARK SMILES IDX 20 25 18 26 19 27 27 28 28 29 29 30 30 31 31 33 32 34 33 35
REMARK SMILES IDX 94 36 34 37 93 38 35 39 36 40 37 41 87 42 38 43 92 44 86 45
REMARK SMILES IDX 88 46 39 47 91 48 85 49 84 50 40 52 72 53 52 54 71 55 53 56
REMARK SMILES IDX 56 57 70 58 89 59 54 60 55 61 69 63 90 64 57 65 41 66 42 67
REMARK SMILES IDX 50 68 43 69 44 70 48 71 51 72 45 73 46 74 49 75 47 76 73 77
REMARK SMILES IDX 74 78 82 79 75 80 76 81 80 82 83 83 77 84 78 85 81 86 79 87
REMARK SMILES IDX 58 88 59 89 67 90 60 91 61 92 65 93 68 94 62 95 63 96 66 97
REMARK SMILES IDX 64 98
REMARK H PARENT 24 6 29 32 88 51 56 62
REMARK Flexibility Score: inf
ROOT
ATOM      1  C   UNL A   1      32.845  28.912  24.834  1.00  0.00     0.023 C 
ENDROOT
BRANCH   1   2
ATOM      2  C   UNL A   1      31.411  28.450  25.104  1.00  0.00     0.116 C 
BRANCH   2   3
ATOM      3  N   UNL A   1      31.211  27.059  24.754  1.00  0.00    -0.356 N 
ATOM      4  O   UNL A   1      30.960  26.267  26.899  1.00  0.00    -0.275 OA
ATOM      5  C   UNL A   1      30.965  26.075  25.690  1.00  0.00     0.222 C 
ATOM      6  H   UNL A   1      31.251  26.805  23.805  1.00  0.00     0.163 HD
BRANCH   5   7
ATOM      7  C   UNL A   1      30.683  24.720  25.074  1.00  0.00     0.130 C 
BRANCH   7   8
ATOM      8  C   UNL A   1      31.698  23.661  25.534  1.00  0.00     0.125 C 
BRANCH   8   9
ATOM      9  C   UNL A   1      31.789  22.432  24.601  1.00  0.00    -0.018 A 
ATOM     10  C   UNL A   1      31.722  22.554  23.200  1.00  0.00     0.006 A 
ATOM     11  C   UNL A   1      32.156  21.187  25.150  1.00  0.00     0.091 A 
ATOM     12  C   UNL A   1      32.043  21.481  22.367  1.00  0.00     0.007 A 
ATOM     13  C   UNL A   1      32.490  20.119  24.308  1.00  0.00     0.269 A 
ATOM     14  C   UNL A   1      32.437  20.264  22.918  1.00  0.00     0.085 A 
BRANCH  13  15
ATOM     15  N   UNL A   1      32.947  18.846  24.880  1.00  0.00     0.062 N 
ATOM     16  O   UNL A   1      34.128  18.525  24.677  1.00  0.00    -0.258 OA
ATOM     17  O   UNL A   1      32.132  18.166  25.515  1.00  0.00    -0.258 OA
ENDBRANCH  13  15
ENDBRANCH   8   9
BRANCH   8  18
ATOM     18  N   UNL A   1      33.073  24.191  25.733  1.00  0.00    -0.327 N 
ATOM     19  C   UNL A   1      33.898  24.683  24.633  1.00  0.00     0.157 C 
ATOM     20  C   UNL A   1      33.886  23.455  26.622  1.00  0.00     0.255 C 
ATOM     21  C   UNL A   1      34.995  23.678  24.593  1.00  0.00    -0.016 A 
ATOM     22  C   UNL A   1      35.039  23.004  25.814  1.00  0.00     0.045 A 
ATOM     23  O   UNL A   1      33.603  23.028  27.720  1.00  0.00    -0.269 OA
ATOM     24  C   UNL A   1      35.765  23.264  23.521  1.00  0.00     0.006 A 
ATOM     25  C   UNL A   1      35.797  21.862  25.995  1.00  0.00     0.014 A 
ATOM     26  C   UNL A   1      36.537  22.110  23.683  1.00  0.00     0.000 A 
ATOM     27  C   UNL A   1      36.547  21.411  24.906  1.00  0.00     0.001 A 
ENDBRANCH   8  18
ENDBRANCH   7   8
ENDBRANCH   5   7
ENDBRANCH   2   3
ENDBRANCH   1   2
BRANCH   1  28
ATOM     28  C   UNL A   1      33.934  28.297  25.727  1.00  0.00     0.023 C 
BRANCH  28  29
ATOM     29  C   UNL A   1      33.759  28.499  27.232  1.00  0.00     0.116 C 
BRANCH  29  30
ATOM     30  N   UNL A   1      33.673  29.901  27.596  1.00  0.00    -0.352 N 
ATOM     31  C   UNL A   1      34.572  30.706  28.252  1.00  0.00     0.251 C 
ATOM     32  H   UNL A   1      32.836  30.346  27.331  1.00  0.00     0.163 HD
ATOM     33  O   UNL A   1      34.220  31.828  28.608  1.00  0.00    -0.269 OA
BRANCH  31  34
ATOM     34  C   UNL A   1      35.949  30.248  28.566  1.00  0.00     0.039 A 
ATOM     35  C   UNL A   1      36.922  30.338  27.563  1.00  0.00     0.014 A 
ATOM     36  C   UNL A   1      36.282  29.663  29.791  1.00  0.00     0.014 A 
ATOM     37  C   UNL A   1      38.229  29.898  27.802  1.00  0.00     0.010 A 
ATOM     38  C   UNL A   1      37.600  29.269  30.048  1.00  0.00     0.010 A 
ATOM     39  C   UNL A   1      38.588  29.384  29.057  1.00  0.00    -0.014 A 
BRANCH  39  40
ATOM     40  C   UNL A   1      39.991  28.977  29.341  1.00  0.00     0.031 A 
ATOM     41  C   UNL A   1      40.921  29.884  30.100  1.00  0.00     0.074 A 
ATOM     42  C   UNL A   1      40.450  27.797  28.879  1.00  0.00     0.049 A 
ATOM     43  N   UNL A   1      42.188  29.716  30.389  1.00  0.00    -0.248 NA
ATOM     44  C   UNL A   1      40.356  31.151  30.584  1.00  0.00     0.031 C 
ATOM     45  C   UNL A   1      39.670  26.831  28.107  1.00  0.00     0.029 A 
ATOM     46  N   UNL A   1      41.691  27.215  28.982  1.00  0.00    -0.354 N 
ATOM     47  C   UNL A   1      42.575  30.858  31.077  1.00  0.00     0.074 A 
ATOM     48  C   UNL A   1      41.418  31.728  31.132  1.00  0.00     0.031 C 
ATOM     49  C   UNL A   1      40.444  25.772  27.817  1.00  0.00     0.029 A 
ATOM     50  C   UNL A   1      41.783  25.998  28.353  1.00  0.00     0.049 A 
ATOM     51  H   UNL A   1      42.443  27.631  29.462  1.00  0.00     0.167 HD
ATOM     52  C   UNL A   1      43.779  31.151  31.626  1.00  0.00     0.037 A 
ATOM     53  C   UNL A   1      42.828  25.160  28.212  1.00  0.00     0.037 A 
ATOM     54  C   UNL A   1      44.930  30.286  31.598  1.00  0.00     0.049 A 
ATOM     55  C   UNL A   1      44.155  25.511  28.825  1.00  0.00     0.074 A 
ATOM     56  C   UNL A   1      46.173  30.483  32.172  1.00  0.00     0.029 A 
ATOM     57  N   UNL A   1      44.977  29.056  30.958  1.00  0.00    -0.354 N 
ATOM     58  N   UNL A   1      44.492  26.574  29.513  1.00  0.00    -0.248 NA
ATOM     59  C   UNL A   1      45.246  24.541  28.647  1.00  0.00     0.031 C 
ATOM     60  C   UNL A   1      46.985  29.389  31.853  1.00  0.00     0.029 A 
ATOM     61  C   UNL A   1      46.235  28.493  31.109  1.00  0.00     0.049 A 
ATOM     62  H   UNL A   1      44.229  28.644  30.469  1.00  0.00     0.167 HD
ATOM     63  C   UNL A   1      45.822  26.394  29.865  1.00  0.00     0.074 A 
ATOM     64  C   UNL A   1      46.231  25.114  29.326  1.00  0.00     0.031 C 
ATOM     65  C   UNL A   1      46.632  27.218  30.573  1.00  0.00     0.037 A 
BRANCH  52  66
ATOM     66  C   UNL A   1      43.918  32.476  32.315  1.00  0.00     0.064 A 
ATOM     67  C   UNL A   1      44.331  33.623  31.619  1.00  0.00     0.173 A 
ATOM     68  C   UNL A   1      43.588  32.613  33.672  1.00  0.00     0.173 A 
ATOM     69  F   UNL A   1      44.663  33.541  30.323  1.00  0.00    -0.203 F 
ATOM     70  C   UNL A   1      44.429  34.853  32.264  1.00  0.00     0.198 A 
ATOM     71  C   UNL A   1      43.665  33.849  34.306  1.00  0.00     0.198 A 
ATOM     72  F   UNL A   1      43.177  31.548  34.378  1.00  0.00    -0.203 F 
ATOM     73  F   UNL A   1      44.859  35.928  31.588  1.00  0.00    -0.200 F 
ATOM     74  C   UNL A   1      44.091  34.967  33.604  1.00  0.00     0.200 A 
ATOM     75  F   UNL A   1      43.325  33.961  35.597  1.00  0.00    -0.200 F 
ATOM     76  F   UNL A   1      44.177  36.154  34.219  1.00  0.00    -0.200 F 
ENDBRANCH  52  66
BRANCH  53  77
ATOM     77  C   UNL A   1      42.657  23.890  27.463  1.00  0.00     0.064 A 
ATOM     78  C   UNL A   1      42.115  22.756  28.082  1.00  0.00     0.173 A 
ATOM     79  C   UNL A   1      43.031  23.787  26.115  1.00  0.00     0.173 A 
ATOM     80  F   UNL A   1      41.767  22.804  29.376  1.00  0.00    -0.203 F 
ATOM     81  C   UNL A   1      41.964  21.560  27.384  1.00  0.00     0.198 A 
ATOM     82  C   UNL A   1      42.857  22.597  25.412  1.00  0.00     0.198 A 
ATOM     83  F   UNL A   1      43.551  24.846  25.479  1.00  0.00    -0.203 F 
ATOM     84  F   UNL A   1      41.476  20.480  28.008  1.00  0.00    -0.200 F 
ATOM     85  C   UNL A   1      42.330  21.484  26.048  1.00  0.00     0.200 A 
ATOM     86  F   UNL A   1      43.201  22.531  24.119  1.00  0.00    -0.200 F 
ATOM     87  F   UNL A   1      42.180  20.334  25.375  1.00  0.00    -0.200 F 
ENDBRANCH  53  77
BRANCH  65  88
ATOM     88  C   UNL A   1      48.035  26.755  30.827  1.00  0.00     0.064 A 
ATOM     89  C   UNL A   1      49.096  27.146  29.997  1.00  0.00     0.173 A 
ATOM     90  C   UNL A   1      48.326  25.938  31.929  1.00  0.00     0.173 A 
ATOM     91  F   UNL A   1      48.864  27.910  28.920  1.00  0.00    -0.203 F 
ATOM     92  C   UNL A   1      50.397  26.721  30.253  1.00  0.00     0.198 A 
ATOM     93  C   UNL A   1      49.632  25.533  32.195  1.00  0.00     0.198 A 
ATOM     94  F   UNL A   1      47.346  25.539  32.752  1.00  0.00    -0.203 F 
ATOM     95  F   UNL A   1      51.391  27.074  29.426  1.00  0.00    -0.200 F 
ATOM     96  C   UNL A   1      50.665  25.921  31.355  1.00  0.00     0.200 A 
ATOM     97  F   UNL A   1      49.890  24.765  33.262  1.00  0.00    -0.200 F 
ATOM     98  F   UNL A   1      51.918  25.515  31.600  1.00  0.00    -0.200 F 
ENDBRANCH  65  88
ENDBRANCH  39  40
ENDBRANCH  31  34
ENDBRANCH  29  30
ENDBRANCH  28  29
ENDBRANCH   1  28
TORSDOF 15
ENDMDL
MODEL 2
REMARK VINA RESULT:     -12.3      4.322      6.921
REMARK SMILES O=C(C[C@@H](c1cccc([N+](=O)[O-])c1)N1Cc2ccccc2C1=O)NCCCCNC(=O)c1ccc(-c2c3nc(c(-c4c(F)c(F)c(F)c(F)c4F)c4ccc([nH]4)c(-c4c(F)c(F)c(F)c(F)c4F)c4nc(c(-c5c(F)c(F)c(F)c(F)c5F)c5ccc2[nH]5)C=C4)C=C3)cc1
REMARK SMILES IDX 26 1 25 2 24 3 1 4 2 5 3 7 4 8 5 9 6 10 13 11 7 12 9 13 8 14
REMARK SMILES IDX 10 15 11 16 12 17 14 18 15 19 22 20 16 21 21 22 23 23 17 24
REMARK SMILES IDX 20 25 18 26 19 27 27 28 28 29 29 30 30 31 31 33 32 34 33 35
REMARK SMILES IDX 94 36 34 37 93 38 35 39 36 40 37 41 87 42 38 43 92 44 86 45
REMARK SMILES IDX 88 46 39 47 91 48 85 49 84 50 40 52 72 53 52 54 71 55 53 56
REMARK SMILES IDX 56 57 70 58 89 59 54 60 55 61 69 63 90 64 57 65 41 66 42 67
REMARK SMILES IDX 50 68 43 69 44 70 48 71 51 72 45 73 46 74 49 75 47 76 73 77
REMARK SMILES IDX 74 78 82 79 75 80 76 81 80 82 83 83 77 84 78 85 81 86 79 87
REMARK SMILES IDX 58 88 59 89 67 90 60 91 61 92 65 93 68 94 62 95 63 96 66 97
REMARK SMILES IDX 64 98
REMARK H PARENT 24 6 29 32 88 51 56 62
REMARK Flexibility Score: inf
ROOT
ATOM      1  C   UNL A   1      34.429  33.662  28.796  1.00  0.00     0.023 C 
ENDROOT
BRANCH   1   2
ATOM      2  C   UNL A   1      34.270  32.150  28.619  1.00  0.00     0.116 C 
BRANCH   2   3
ATOM      3  N   UNL A   1      33.452  31.817  27.473  1.00  0.00    -0.356 N 
ATOM      4  O   UNL A   1      33.637  29.532  27.653  1.00  0.00    -0.275 OA
ATOM      5  C   UNL A   1      33.171  30.519  27.099  1.00  0.00     0.222 C 
ATOM      6  H   UNL A   1      33.077  32.552  26.936  1.00  0.00     0.163 HD
BRANCH   5   7
ATOM      7  C   UNL A   1      32.207  30.426  25.933  1.00  0.00     0.130 C 
BRANCH   7   8
ATOM      8  C   UNL A   1      32.087  28.988  25.404  1.00  0.00     0.125 C 
BRANCH   8   9
ATOM      9  C   UNL A   1      30.898  28.770  24.440  1.00  0.00    -0.018 A 
ATOM     10  C   UNL A   1      30.339  27.497  24.225  1.00  0.00     0.006 A 
ATOM     11  C   UNL A   1      30.224  29.896  23.926  1.00  0.00     0.091 A 
ATOM     12  C   UNL A   1      29.128  27.347  23.547  1.00  0.00     0.007 A 
ATOM     13  C   UNL A   1      29.002  29.741  23.260  1.00  0.00     0.269 A 
ATOM     14  C   UNL A   1      28.451  28.468  23.072  1.00  0.00     0.085 A 
BRANCH  13  15
ATOM     15  N   UNL A   1      28.263  30.920  22.793  1.00  0.00     0.062 N 
ATOM     16  O   UNL A   1      27.245  31.238  23.427  1.00  0.00    -0.258 OA
ATOM     17  O   UNL A   1      28.686  31.516  21.795  1.00  0.00    -0.258 OA
ENDBRANCH  13  15
ENDBRANCH   8   9
BRANCH   8  18
ATOM     18  N   UNL A   1      33.318  28.486  24.738  1.00  0.00    -0.327 N 
ATOM     19  C   UNL A   1      33.585  28.685  23.317  1.00  0.00     0.157 C 
ATOM     20  C   UNL A   1      33.717  27.181  25.101  1.00  0.00     0.255 C 
ATOM     21  C   UNL A   1      33.519  27.295  22.789  1.00  0.00    -0.016 A 
ATOM     22  C   UNL A   1      33.682  26.399  23.846  1.00  0.00     0.045 A 
ATOM     23  O   UNL A   1      33.800  26.702  26.211  1.00  0.00    -0.269 OA
ATOM     24  C   UNL A   1      33.165  26.853  21.527  1.00  0.00     0.006 A 
ATOM     25  C   UNL A   1      33.438  25.046  23.706  1.00  0.00     0.014 A 
ATOM     26  C   UNL A   1      32.911  25.488  21.364  1.00  0.00     0.000 A 
ATOM     27  C   UNL A   1      33.040  24.594  22.445  1.00  0.00     0.001 A 
ENDBRANCH   8  18
ENDBRANCH   7   8
ENDBRANCH   5   7
ENDBRANCH   2   3
ENDBRANCH   1   2
BRANCH   1  28
ATOM     28  C   UNL A   1      33.134  34.488  28.753  1.00  0.00     0.023 C 
BRANCH  28  29
ATOM     29  C   UNL A   1      33.239  35.927  29.258  1.00  0.00     0.116 C 
BRANCH  29  30
ATOM     30  N   UNL A   1      32.456  36.150  30.459  1.00  0.00    -0.352 N 
ATOM     31  C   UNL A   1      32.650  35.705  31.743  1.00  0.00     0.251 C 
ATOM     32  H   UNL A   1      31.656  36.710  30.332  1.00  0.00     0.163 HD
ATOM     33  O   UNL A   1      31.763  35.876  32.576  1.00  0.00    -0.269 OA
BRANCH  31  34
ATOM     34  C   UNL A   1      33.893  35.000  32.148  1.00  0.00     0.039 A 
ATOM     35  C   UNL A   1      33.784  33.690  32.627  1.00  0.00     0.014 A 
ATOM     36  C   UNL A   1      35.144  35.624  32.139  1.00  0.00     0.014 A 
ATOM     37  C   UNL A   1      34.923  32.990  33.043  1.00  0.00     0.010 A 
ATOM     38  C   UNL A   1      36.289  34.909  32.508  1.00  0.00     0.010 A 
ATOM     39  C   UNL A   1      36.191  33.584  32.961  1.00  0.00    -0.014 A 
BRANCH  39  40
ATOM     40  C   UNL A   1      37.414  32.824  33.338  1.00  0.00     0.031 A 
ATOM     41  C   UNL A   1      38.138  33.112  34.625  1.00  0.00     0.074 A 
ATOM     42  C   UNL A   1      37.906  31.891  32.498  1.00  0.00     0.049 A 
ATOM     43  N   UNL A   1      39.247  32.588  35.087  1.00  0.00    -0.248 NA
ATOM     44  C   UNL A   1      37.545  34.134  35.500  1.00  0.00     0.031 C 
ATOM     45  C   UNL A   1      37.324  31.527  31.207  1.00  0.00     0.029 A 
ATOM     46  N   UNL A   1      39.016  31.087  32.601  1.00  0.00    -0.354 N 
ATOM     47  C   UNL A   1      39.491  33.222  36.298  1.00  0.00     0.074 A 
ATOM     48  C   UNL A   1      38.435  34.195  36.483  1.00  0.00     0.031 C 
ATOM     49  C   UNL A   1      38.073  30.565  30.643  1.00  0.00     0.029 A 
ATOM     50  C   UNL A   1      39.205  30.267  31.516  1.00  0.00     0.049 A 
ATOM     51  H   UNL A   1      39.619  31.098  33.379  1.00  0.00     0.167 HD
ATOM     52  C   UNL A   1      40.495  33.005  37.181  1.00  0.00     0.037 A 
ATOM     53  C   UNL A   1      40.183  29.381  31.246  1.00  0.00     0.037 A 
ATOM     54  C   UNL A   1      41.539  32.026  37.019  1.00  0.00     0.049 A 
ATOM     55  C   UNL A   1      41.289  29.163  32.241  1.00  0.00     0.074 A 
ATOM     56  C   UNL A   1      42.566  31.706  37.889  1.00  0.00     0.029 A 
ATOM     57  N   UNL A   1      41.688  31.208  35.909  1.00  0.00    -0.354 N 
ATOM     58  N   UNL A   1      41.481  29.738  33.402  1.00  0.00    -0.248 NA
ATOM     59  C   UNL A   1      42.313  28.169  31.888  1.00  0.00     0.031 C 
ATOM     60  C   UNL A   1      43.357  30.717  37.293  1.00  0.00     0.029 A 
ATOM     61  C   UNL A   1      42.800  30.397  36.066  1.00  0.00     0.049 A 
ATOM     62  H   UNL A   1      41.091  31.203  35.126  1.00  0.00     0.167 HD
ATOM     63  C   UNL A   1      42.630  29.163  33.926  1.00  0.00     0.074 A 
ATOM     64  C   UNL A   1      43.089  28.185  32.962  1.00  0.00     0.031 C 
ATOM     65  C   UNL A   1      43.249  29.424  35.104  1.00  0.00     0.037 A 
BRANCH  52  66
ATOM     66  C   UNL A   1      40.516  33.849  38.421  1.00  0.00     0.064 A 
ATOM     67  C   UNL A   1      39.795  33.481  39.568  1.00  0.00     0.173 A 
ATOM     68  C   UNL A   1      41.305  35.007  38.482  1.00  0.00     0.173 A 
ATOM     69  F   UNL A   1      39.022  32.386  39.555  1.00  0.00    -0.203 F 
ATOM     70  C   UNL A   1      39.845  34.258  40.723  1.00  0.00     0.198 A 
ATOM     71  C   UNL A   1      41.371  35.768  39.647  1.00  0.00     0.198 A 
ATOM     72  F   UNL A   1      42.022  35.394  37.416  1.00  0.00    -0.203 F 
ATOM     73  F   UNL A   1      39.122  33.907  41.795  1.00  0.00    -0.200 F 
ATOM     74  C   UNL A   1      40.637  35.396  40.764  1.00  0.00     0.200 A 
ATOM     75  F   UNL A   1      42.146  36.859  39.690  1.00  0.00    -0.200 F 
ATOM     76  F   UNL A   1      40.691  36.135  41.879  1.00  0.00    -0.200 F 
ENDBRANCH  52  66
BRANCH  53  77
ATOM     77  C   UNL A   1      40.153  28.619  29.973  1.00  0.00     0.064 A 
ATOM     78  C   UNL A   1      40.749  29.132  28.813  1.00  0.00     0.173 A 
ATOM     79  C   UNL A   1      39.531  27.365  29.892  1.00  0.00     0.173 A 
ATOM     80  F   UNL A   1      41.334  30.338  28.840  1.00  0.00    -0.203 F 
ATOM     81  C   UNL A   1      40.712  28.424  27.614  1.00  0.00     0.198 A 
ATOM     82  C   UNL A   1      39.515  26.648  28.699  1.00  0.00     0.198 A 
ATOM     83  F   UNL A   1      38.950  26.831  30.977  1.00  0.00    -0.203 F 
ATOM     84  F   UNL A   1      41.258  28.951  26.510  1.00  0.00    -0.200 F 
ATOM     85  C   UNL A   1      40.101  27.180  27.560  1.00  0.00     0.200 A 
ATOM     86  F   UNL A   1      38.934  25.442  28.652  1.00  0.00    -0.200 F 
ATOM     87  F   UNL A   1      40.070  26.496  26.407  1.00  0.00    -0.200 F 
ENDBRANCH  53  77
BRANCH  65  88
ATOM     88  C   UNL A   1      44.477  28.628  35.428  1.00  0.00     0.064 A 
ATOM     89  C   UNL A   1      45.756  29.075  35.065  1.00  0.00     0.173 A 
ATOM     90  C   UNL A   1      44.376  27.423  36.137  1.00  0.00     0.173 A 
ATOM     91  F   UNL A   1      45.901  30.212  34.369  1.00  0.00    -0.203 F 
ATOM     92  C   UNL A   1      46.889  28.333  35.386  1.00  0.00     0.198 A 
ATOM     93  C   UNL A   1      45.514  26.695  36.477  1.00  0.00     0.198 A 
ATOM     94  F   UNL A   1      43.175  26.955  36.508  1.00  0.00    -0.203 F 
ATOM     95  F   UNL A   1      48.099  28.759  34.996  1.00  0.00    -0.200 F 
ATOM     96  C   UNL A   1      46.768  27.148  36.097  1.00  0.00     0.200 A 
ATOM     97  F   UNL A   1      45.396  25.553  37.168  1.00  0.00    -0.200 F 
ATOM     98  F   UNL A   1      47.861  26.437  36.407  1.00  0.00    -0.200 F 
ENDBRANCH  65  88
ENDBRANCH  39  40
ENDBRANCH  31  34
ENDBRANCH  29  30
ENDBRANCH  28  29
ENDBRANCH   1  28
TORSDOF 15
ENDMDL
MODEL 3
REMARK VINA RESULT:     -12.3      3.750      8.841
REMARK SMILES O=C(C[C@@H](c1cccc([N+](=O)[O-])c1)N1Cc2ccccc2C1=O)NCCCCNC(=O)c1ccc(-c2c3nc(c(-c4c(F)c(F)c(F)c(F)c4F)c4ccc([nH]4)c(-c4c(F)c(F)c(F)c(F)c4F)c4nc(c(-c5c(F)c(F)c(F)c(F)c5F)c5ccc2[nH]5)C=C4)C=C3)cc1
REMARK SMILES IDX 26 1 25 2 24 3 1 4 2 5 3 7 4 8 5 9 6 10 13 11 7 12 9 13 8 14
REMARK SMILES IDX 10 15 11 16 12 17 14 18 15 19 22 20 16 21 21 22 23 23 17 24
REMARK SMILES IDX 20 25 18 26 19 27 27 28 28 29 29 30 30 31 31 33 32 34 33 35
REMARK SMILES IDX 94 36 34 37 93 38 35 39 36 40 37 41 87 42 38 43 92 44 86 45
REMARK SMILES IDX 88 46 39 47 91 48 85 49 84 50 40 52 72 53 52 54 71 55 53 56
REMARK SMILES IDX 56 57 70 58 89 59 54 60 55 61 69 63 90 64 57 65 41 66 42 67
REMARK SMILES IDX 50 68 43 69 44 70 48 71 51 72 45 73 46 74 49 75 47 76 73 77
REMARK SMILES IDX 74 78 82 79 75 80 76 81 80 82 83 83 77 84 78 85 81 86 79 87
REMARK SMILES IDX 58 88 59 89 67 90 60 91 61 92 65 93 68 94 62 95 63 96 66 97
REMARK SMILES IDX 64 98
REMARK H PARENT 24 6 29 32 88 51 56 62
REMARK Flexibility Score: inf
ROOT
ATOM      1  C   UNL A   1      31.188  31.196  26.005  1.00  0.00     0.023 C 
ENDROOT
BRANCH   1   2
ATOM      2  C   UNL A   1      32.294  30.298  26.566  1.00  0.00     0.116 C 
BRANCH   2   3
ATOM      3  N   UNL A   1      32.156  28.925  26.129  1.00  0.00    -0.356 N 
ATOM      4  O   UNL A   1      31.123  28.133  28.025  1.00  0.00    -0.275 OA
ATOM      5  C   UNL A   1      31.544  27.950  26.891  1.00  0.00     0.222 C 
ATOM      6  H   UNL A   1      32.515  28.676  25.248  1.00  0.00     0.163 HD
BRANCH   5   7
ATOM      7  C   UNL A   1      31.426  26.619  26.176  1.00  0.00     0.130 C 
BRANCH   7   8
ATOM      8  C   UNL A   1      32.481  26.471  25.068  1.00  0.00     0.125 C 
BRANCH   8   9
ATOM      9  C   UNL A   1      33.329  25.183  25.176  1.00  0.00    -0.018 A 
ATOM     10  C   UNL A   1      34.516  25.010  24.440  1.00  0.00     0.006 A 
ATOM     11  C   UNL A   1      33.023  24.250  26.187  1.00  0.00     0.091 A 
ATOM     12  C   UNL A   1      35.392  23.960  24.721  1.00  0.00     0.007 A 
ATOM     13  C   UNL A   1      33.912  23.207  26.473  1.00  0.00     0.269 A 
ATOM     14  C   UNL A   1      35.098  23.062  25.744  1.00  0.00     0.085 A 
BRANCH  13  15
ATOM     15  N   UNL A   1      33.631  22.281  27.578  1.00  0.00     0.062 N 
ATOM     16  O   UNL A   1      32.624  22.509  28.265  1.00  0.00    -0.258 OA
ATOM     17  O   UNL A   1      34.414  21.343  27.766  1.00  0.00    -0.258 OA
ENDBRANCH  13  15
ENDBRANCH   8   9
BRANCH   8  18
ATOM     18  N   UNL A   1      31.923  26.541  23.691  1.00  0.00    -0.327 N 
ATOM     19  C   UNL A   1      32.160  27.671  22.799  1.00  0.00     0.157 C 
ATOM     20  C   UNL A   1      30.582  26.122  23.556  1.00  0.00     0.255 C 
ATOM     21  C   UNL A   1      30.799  28.262  22.676  1.00  0.00    -0.016 A 
ATOM     22  C   UNL A   1      29.854  27.305  23.050  1.00  0.00     0.045 A 
ATOM     23  O   UNL A   1      30.056  25.129  24.007  1.00  0.00    -0.269 OA
ATOM     24  C   UNL A   1      30.431  29.573  22.437  1.00  0.00     0.006 A 
ATOM     25  C   UNL A   1      28.526  27.628  23.260  1.00  0.00     0.014 A 
ATOM     26  C   UNL A   1      29.093  29.921  22.646  1.00  0.00     0.000 A 
ATOM     27  C   UNL A   1      28.151  28.960  23.061  1.00  0.00     0.001 A 
ENDBRANCH   8  18
ENDBRANCH   7   8
ENDBRANCH   5   7
ENDBRANCH   2   3
ENDBRANCH   1   2
BRANCH   1  28
ATOM     28  C   UNL A   1      31.222  32.667  26.448  1.00  0.00     0.023 C 
BRANCH  28  29
ATOM     29  C   UNL A   1      32.438  33.092  27.271  1.00  0.00     0.116 C 
BRANCH  29  30
ATOM     30  N   UNL A   1      32.320  34.447  27.774  1.00  0.00    -0.352 N 
ATOM     31  C   UNL A   1      33.014  35.090  28.769  1.00  0.00     0.251 C 
ATOM     32  H   UNL A   1      31.631  34.994  27.331  1.00  0.00     0.163 HD
ATOM     33  O   UNL A   1      32.630  36.195  29.148  1.00  0.00    -0.269 OA
BRANCH  31  34
ATOM     34  C   UNL A   1      34.199  34.476  29.420  1.00  0.00     0.039 A 
ATOM     35  C   UNL A   1      34.013  33.799  30.631  1.00  0.00     0.014 A 
ATOM     36  C   UNL A   1      35.491  34.620  28.907  1.00  0.00     0.014 A 
ATOM     37  C   UNL A   1      35.102  33.224  31.295  1.00  0.00     0.010 A 
ATOM     38  C   UNL A   1      36.574  34.003  29.545  1.00  0.00     0.010 A 
ATOM     39  C   UNL A   1      36.390  33.296  30.744  1.00  0.00    -0.014 A 
BRANCH  39  40
ATOM     40  C   UNL A   1      37.543  32.629  31.410  1.00  0.00     0.031 A 
ATOM     41  C   UNL A   1      38.244  31.468  30.760  1.00  0.00     0.074 A 
ATOM     42  C   UNL A   1      37.940  33.042  32.630  1.00  0.00     0.049 A 
ATOM     43  N   UNL A   1      39.228  30.732  31.218  1.00  0.00    -0.248 NA
ATOM     44  C   UNL A   1      37.768  31.072  29.427  1.00  0.00     0.031 C 
ATOM     45  C   UNL A   1      37.336  34.136  33.389  1.00  0.00     0.029 A 
ATOM     46  N   UNL A   1      38.942  32.581  33.450  1.00  0.00    -0.354 N 
ATOM     47  C   UNL A   1      39.481  29.782  30.238  1.00  0.00     0.074 A 
ATOM     48  C   UNL A   1      38.525  30.011  29.175  1.00  0.00     0.031 C 
ATOM     49  C   UNL A   1      37.984  34.271  34.557  1.00  0.00     0.029 A 
ATOM     50  C   UNL A   1      39.028  33.254  34.645  1.00  0.00     0.049 A 
ATOM     51  H   UNL A   1      39.541  31.839  33.206  1.00  0.00     0.167 HD
ATOM     52  C   UNL A   1      40.431  28.817  30.217  1.00  0.00     0.037 A 
ATOM     53  C   UNL A   1      39.848  33.068  35.698  1.00  0.00     0.037 A 
ATOM     54  C   UNL A   1      41.401  28.594  31.258  1.00  0.00     0.049 A 
ATOM     55  C   UNL A   1      40.889  31.986  35.653  1.00  0.00     0.074 A 
ATOM     56  C   UNL A   1      42.431  27.669  31.295  1.00  0.00     0.029 A 
ATOM     57  N   UNL A   1      41.461  29.304  32.447  1.00  0.00    -0.354 N 
ATOM     58  N   UNL A   1      41.146  31.125  34.699  1.00  0.00    -0.248 NA
ATOM     59  C   UNL A   1      41.760  31.853  36.831  1.00  0.00     0.031 C 
ATOM     60  C   UNL A   1      43.094  27.797  32.521  1.00  0.00     0.029 A 
ATOM     61  C   UNL A   1      42.499  28.826  33.232  1.00  0.00     0.049 A 
ATOM     62  H   UNL A   1      40.856  30.039  32.697  1.00  0.00     0.167 HD
ATOM     63  C   UNL A   1      42.215  30.365  35.150  1.00  0.00     0.074 A 
ATOM     64  C   UNL A   1      42.569  30.871  36.460  1.00  0.00     0.031 C 
ATOM     65  C   UNL A   1      42.847  29.337  34.531  1.00  0.00     0.037 A 
BRANCH  52  66
ATOM     66  C   UNL A   1      40.473  27.916  29.019  1.00  0.00     0.064 A 
ATOM     67  C   UNL A   1      41.280  28.213  27.909  1.00  0.00     0.173 A 
ATOM     68  C   UNL A   1      39.741  26.720  28.999  1.00  0.00     0.173 A 
ATOM     69  F   UNL A   1      41.994  29.347  27.879  1.00  0.00    -0.203 F 
ATOM     70  C   UNL A   1      41.333  27.354  26.814  1.00  0.00     0.198 A 
ATOM     71  C   UNL A   1      39.814  25.853  27.912  1.00  0.00     0.198 A 
ATOM     72  F   UNL A   1      38.964  26.386  30.041  1.00  0.00    -0.203 F 
ATOM     73  F   UNL A   1      42.084  27.674  25.751  1.00  0.00    -0.200 F 
ATOM     74  C   UNL A   1      40.605  26.174  26.819  1.00  0.00     0.200 A 
ATOM     75  F   UNL A   1      39.122  24.706  27.923  1.00  0.00    -0.200 F 
ATOM     76  F   UNL A   1      40.666  25.344  25.768  1.00  0.00    -0.200 F 
ENDBRANCH  52  66
BRANCH  53  77
ATOM     77  C   UNL A   1      39.721  33.944  36.890  1.00  0.00     0.064 A 
ATOM     78  C   UNL A   1      38.928  33.564  37.981  1.00  0.00     0.173 A 
ATOM     79  C   UNL A   1      40.391  35.174  36.962  1.00  0.00     0.173 A 
ATOM     80  F   UNL A   1      38.251  32.407  37.944  1.00  0.00    -0.203 F 
ATOM     81  C   UNL A   1      38.798  34.389  39.095  1.00  0.00     0.198 A 
ATOM     82  C   UNL A   1      40.278  35.987  38.086  1.00  0.00     0.198 A 
ATOM     83  F   UNL A   1      41.164  35.578  35.944  1.00  0.00    -0.203 F 
ATOM     84  F   UNL A   1      38.006  34.020  40.111  1.00  0.00    -0.200 F 
ATOM     85  C   UNL A   1      39.478  35.597  39.150  1.00  0.00     0.200 A 
ATOM     86  F   UNL A   1      40.946  37.147  38.140  1.00  0.00    -0.200 F 
ATOM     87  F   UNL A   1      39.357  36.388  40.225  1.00  0.00    -0.200 F 
ENDBRANCH  53  77
BRANCH  65  88
ATOM     88  C   UNL A   1      44.000  28.704  35.251  1.00  0.00     0.064 A 
ATOM     89  C   UNL A   1      43.815  27.610  36.110  1.00  0.00     0.173 A 
ATOM     90  C   UNL A   1      45.306  29.175  35.054  1.00  0.00     0.173 A 
ATOM     91  F   UNL A   1      42.582  27.138  36.344  1.00  0.00    -0.203 F 
ATOM     92  C   UNL A   1      44.897  27.022  36.759  1.00  0.00     0.198 A 
ATOM     93  C   UNL A   1      46.388  28.569  35.689  1.00  0.00     0.198 A 
ATOM     94  F   UNL A   1      45.534  30.217  34.241  1.00  0.00    -0.203 F 
ATOM     95  F   UNL A   1      44.694  26.003  37.606  1.00  0.00    -0.200 F 
ATOM     96  C   UNL A   1      46.182  27.497  36.544  1.00  0.00     0.200 A 
ATOM     97  F   UNL A   1      47.630  29.026  35.474  1.00  0.00    -0.200 F 
ATOM     98  F   UNL A   1      47.222  26.927  37.168  1.00  0.00    -0.200 F 
ENDBRANCH  65  88
ENDBRANCH  39  40
ENDBRANCH  31  34
ENDBRANCH  29  30
ENDBRANCH  28  29
ENDBRANCH   1  28
TORSDOF 15
ENDMDL
