MODEL 1
REMARK VINA RESULT:     -12.3      0.000      0.000
REMARK SMILES CC(C)(C)C1CN(c2cccc(Cl)c2C(=O)NCCCCNC(=O)c2ccc(-c3c4nc(c(-c5c(F)c(F)c(F)c(F)c5F)c5ccc([nH]5)c(-c5c(F)c(F)c(F)c(F)c5F)c5nc(c(-c6c(F)c(F)c(F)c(F)c6F)c6ccc3[nH]6)C=C5)C=C4)cc2)C1
REMARK SMILES IDX 19 1 18 2 17 3 15 4 16 5 14 7 8 8 9 9 10 10 12 11 11 12
REMARK SMILES IDX 13 13 7 14 5 15 6 16 88 17 2 18 1 19 3 20 4 21 20 22 21 23
REMARK SMILES IDX 22 24 23 25 24 27 25 28 26 29 87 30 27 31 86 32 28 33 29 34
REMARK SMILES IDX 30 35 80 36 31 37 85 38 79 39 81 40 32 41 84 42 78 43 77 44
REMARK SMILES IDX 33 46 65 47 45 48 64 49 46 50 49 51 63 52 82 53 47 54 48 55
REMARK SMILES IDX 62 57 83 58 50 59 34 60 35 61 43 62 36 63 37 64 41 65 44 66
REMARK SMILES IDX 38 67 39 68 42 69 40 70 66 71 67 72 75 73 68 74 69 75 73 76
REMARK SMILES IDX 76 77 70 78 71 79 74 80 72 81 51 82 52 83 60 84 53 85 54 86
REMARK SMILES IDX 58 87 61 88 55 89 56 90 59 91 57 92
REMARK H PARENT 17 6 22 26 81 45 49 56
REMARK Flexibility Score: inf
ROOT
ATOM      1  C   UNL A   1      36.489  20.556  25.233  1.00  0.00     0.023 C 
ENDROOT
BRANCH   1   2
ATOM      2  C   UNL A   1      36.358  22.058  25.477  1.00  0.00     0.116 C 
BRANCH   2   3
ATOM      3  N   UNL A   1      35.332  22.465  26.424  1.00  0.00    -0.352 N 
ATOM      4  C   UNL A   1      33.951  22.331  26.367  1.00  0.00     0.254 C 
ATOM      5  O   UNL A   1      33.327  22.509  27.412  1.00  0.00    -0.269 OA
ATOM      6  H   UNL A   1      35.670  22.904  27.236  1.00  0.00     0.163 HD
BRANCH   4   7
ATOM      7  C   UNL A   1      33.236  22.057  25.084  1.00  0.00     0.081 A 
ATOM      8  C   UNL A   1      32.787  23.133  24.276  1.00  0.00     0.051 A 
ATOM      9  C   UNL A   1      32.284  22.854  22.987  1.00  0.00     0.027 A 
ATOM     10  C   UNL A   1      32.152  21.550  22.524  1.00  0.00     0.004 A 
ATOM     11  C   UNL A   1      32.917  20.750  24.673  1.00  0.00     0.055 A 
ATOM     12  C   UNL A   1      32.426  20.498  23.386  1.00  0.00     0.021 A 
ATOM     13  Cl  UNL A   1      32.910  19.392  25.751  1.00  0.00    -0.083 Cl
BRANCH   8  14
ATOM     14  N   UNL A   1      32.674  24.459  24.741  1.00  0.00    -0.370 N 
ATOM     15  C   UNL A   1      32.833  25.995  26.126  1.00  0.00     0.033 C 
ATOM     16  C   UNL A   1      31.710  25.071  25.590  1.00  0.00     0.122 C 
ATOM     17  C   UNL A   1      33.716  25.398  25.017  1.00  0.00     0.122 C 
BRANCH  15  18
ATOM     18  C   UNL A   1      32.648  27.525  26.235  1.00  0.00    -0.032 C 
ATOM     19  C   UNL A   1      34.029  28.175  26.444  1.00  0.00     0.011 C 
ATOM     20  C   UNL A   1      31.768  27.825  27.458  1.00  0.00     0.011 C 
ATOM     21  C   UNL A   1      32.000  28.130  24.982  1.00  0.00     0.011 C 
ENDBRANCH  15  18
ENDBRANCH   8  14
ENDBRANCH   4   7
ENDBRANCH   2   3
ENDBRANCH   1   2
BRANCH   1  22
ATOM     22  C   UNL A   1      37.862  20.032  24.813  1.00  0.00     0.023 C 
BRANCH  22  23
ATOM     23  C   UNL A   1      39.028  20.279  25.766  1.00  0.00     0.116 C 
BRANCH  23  24
ATOM     24  N   UNL A   1      40.008  19.204  25.807  1.00  0.00    -0.352 N 
ATOM     25  C   UNL A   1      41.362  19.235  26.055  1.00  0.00     0.251 C 
ATOM     26  H   UNL A   1      39.644  18.307  25.628  1.00  0.00     0.163 HD
ATOM     27  O   UNL A   1      42.020  18.200  25.980  1.00  0.00    -0.269 OA
BRANCH  25  28
ATOM     28  C   UNL A   1      42.052  20.510  26.363  1.00  0.00     0.039 A 
ATOM     29  C   UNL A   1      42.510  21.298  25.301  1.00  0.00     0.014 A 
ATOM     30  C   UNL A   1      42.248  20.939  27.676  1.00  0.00     0.014 A 
ATOM     31  C   UNL A   1      43.065  22.557  25.553  1.00  0.00     0.010 A 
ATOM     32  C   UNL A   1      42.723  22.227  27.923  1.00  0.00     0.010 A 
ATOM     33  C   UNL A   1      43.125  23.055  26.864  1.00  0.00    -0.014 A 
BRANCH  33  34
ATOM     34  C   UNL A   1      43.580  24.444  27.146  1.00  0.00     0.031 A 
ATOM     35  C   UNL A   1      42.611  25.476  27.654  1.00  0.00     0.074 A 
ATOM     36  C   UNL A   1      44.850  24.801  26.865  1.00  0.00     0.049 A 
ATOM     37  N   UNL A   1      42.796  26.755  27.869  1.00  0.00    -0.248 NA
ATOM     38  C   UNL A   1      41.242  25.014  27.930  1.00  0.00     0.031 C 
ATOM     39  C   UNL A   1      45.877  23.913  26.318  1.00  0.00     0.029 A 
ATOM     40  N   UNL A   1      45.491  26.010  26.987  1.00  0.00    -0.354 N 
ATOM     41  C   UNL A   1      41.568  27.251  28.284  1.00  0.00     0.074 A 
ATOM     42  C   UNL A   1      40.632  26.148  28.242  1.00  0.00     0.031 C 
ATOM     43  C   UNL A   1      47.021  24.599  26.171  1.00  0.00     0.029 A 
ATOM     44  C   UNL A   1      46.802  25.984  26.575  1.00  0.00     0.049 A 
ATOM     45  H   UNL A   1      45.052  26.818  27.337  1.00  0.00     0.167 HD
ATOM     46  C   UNL A   1      41.253  28.506  28.685  1.00  0.00     0.037 A 
ATOM     47  C   UNL A   1      47.721  26.966  26.521  1.00  0.00     0.037 A 
ATOM     48  C   UNL A   1      42.191  29.596  28.755  1.00  0.00     0.049 A 
ATOM     49  C   UNL A   1      47.347  28.352  26.976  1.00  0.00     0.074 A 
ATOM     50  C   UNL A   1      41.984  30.886  29.211  1.00  0.00     0.029 A 
ATOM     51  N   UNL A   1      43.518  29.522  28.354  1.00  0.00    -0.354 N 
ATOM     52  N   UNL A   1      46.200  28.791  27.433  1.00  0.00    -0.248 NA
ATOM     53  C   UNL A   1      48.399  29.377  26.912  1.00  0.00     0.031 C 
ATOM     54  C   UNL A   1      43.171  31.605  29.047  1.00  0.00     0.029 A 
ATOM     55  C   UNL A   1      44.135  30.750  28.535  1.00  0.00     0.049 A 
ATOM     56  H   UNL A   1      43.956  28.717  27.996  1.00  0.00     0.167 HD
ATOM     57  C   UNL A   1      46.398  30.131  27.738  1.00  0.00     0.074 A 
ATOM     58  C   UNL A   1      47.781  30.430  27.427  1.00  0.00     0.031 C 
ATOM     59  C   UNL A   1      45.515  31.031  28.231  1.00  0.00     0.037 A 
BRANCH  46  60
ATOM     60  C   UNL A   1      39.831  28.769  29.088  1.00  0.00     0.064 A 
ATOM     61  C   UNL A   1      39.403  28.617  30.416  1.00  0.00     0.173 A 
ATOM     62  C   UNL A   1      38.892  29.211  28.144  1.00  0.00     0.173 A 
ATOM     63  F   UNL A   1      40.258  28.187  31.356  1.00  0.00    -0.203 F 
ATOM     64  C   UNL A   1      38.081  28.867  30.777  1.00  0.00     0.198 A 
ATOM     65  C   UNL A   1      37.579  29.491  28.514  1.00  0.00     0.198 A 
ATOM     66  F   UNL A   1      39.250  29.381  26.862  1.00  0.00    -0.203 F 
ATOM     67  F   UNL A   1      37.685  28.666  32.040  1.00  0.00    -0.200 F 
ATOM     68  C   UNL A   1      37.173  29.310  29.828  1.00  0.00     0.200 A 
ATOM     69  F   UNL A   1      36.705  29.934  27.599  1.00  0.00    -0.200 F 
ATOM     70  F   UNL A   1      35.903  29.557  30.178  1.00  0.00    -0.200 F 
ENDBRANCH  46  60
BRANCH  47  71
ATOM     71  C   UNL A   1      49.097  26.672  26.040  1.00  0.00     0.064 A 
ATOM     72  C   UNL A   1      49.469  26.953  24.717  1.00  0.00     0.173 A 
ATOM     73  C   UNL A   1      50.062  26.103  26.882  1.00  0.00     0.173 A 
ATOM     74  F   UNL A   1      48.575  27.478  23.867  1.00  0.00    -0.203 F 
ATOM     75  C   UNL A   1      50.747  26.655  24.250  1.00  0.00     0.198 A 
ATOM     76  C   UNL A   1      51.349  25.831  26.422  1.00  0.00     0.198 A 
ATOM     77  F   UNL A   1      49.757  25.818  28.157  1.00  0.00    -0.203 F 
ATOM     78  F   UNL A   1      51.063  26.891  22.969  1.00  0.00    -0.200 F 
ATOM     79  C   UNL A   1      51.688  26.100  25.104  1.00  0.00     0.200 A 
ATOM     80  F   UNL A   1      52.258  25.306  27.254  1.00  0.00    -0.200 F 
ATOM     81  F   UNL A   1      52.919  25.817  24.656  1.00  0.00    -0.200 F 
ENDBRANCH  47  71
BRANCH  59  82
ATOM     82  C   UNL A   1      46.022  32.418  28.502  1.00  0.00     0.064 A 
ATOM     83  C   UNL A   1      46.616  32.760  29.726  1.00  0.00     0.173 A 
ATOM     84  C   UNL A   1      45.947  33.407  27.509  1.00  0.00     0.173 A 
ATOM     85  F   UNL A   1      46.697  31.854  30.714  1.00  0.00    -0.203 F 
ATOM     86  C   UNL A   1      47.097  34.046  29.953  1.00  0.00     0.198 A 
ATOM     87  C   UNL A   1      46.456  34.684  27.729  1.00  0.00     0.198 A 
ATOM     88  F   UNL A   1      45.393  33.130  26.319  1.00  0.00    -0.203 F 
ATOM     89  F   UNL A   1      47.619  34.363  31.145  1.00  0.00    -0.200 F 
ATOM     90  C   UNL A   1      47.023  35.004  28.953  1.00  0.00     0.200 A 
ATOM     91  F   UNL A   1      46.396  35.604  26.757  1.00  0.00    -0.200 F 
ATOM     92  F   UNL A   1      47.494  36.240  29.171  1.00  0.00    -0.200 F 
ENDBRANCH  59  82
ENDBRANCH  33  34
ENDBRANCH  25  28
ENDBRANCH  23  24
ENDBRANCH  22  23
ENDBRANCH   1  22
TORSDOF 13
ENDMDL
MODEL 2
REMARK VINA RESULT:     -12.3      5.850     11.244
REMARK SMILES CC(C)(C)C1CN(c2cccc(Cl)c2C(=O)NCCCCNC(=O)c2ccc(-c3c4nc(c(-c5c(F)c(F)c(F)c(F)c5F)c5ccc([nH]5)c(-c5c(F)c(F)c(F)c(F)c5F)c5nc(c(-c6c(F)c(F)c(F)c(F)c6F)c6ccc3[nH]6)C=C5)C=C4)cc2)C1
REMARK SMILES IDX 19 1 18 2 17 3 15 4 16 5 14 7 8 8 9 9 10 10 12 11 11 12
REMARK SMILES IDX 13 13 7 14 5 15 6 16 88 17 2 18 1 19 3 20 4 21 20 22 21 23
REMARK SMILES IDX 22 24 23 25 24 27 25 28 26 29 87 30 27 31 86 32 28 33 29 34
REMARK SMILES IDX 30 35 80 36 31 37 85 38 79 39 81 40 32 41 84 42 78 43 77 44
REMARK SMILES IDX 33 46 65 47 45 48 64 49 46 50 49 51 63 52 82 53 47 54 48 55
REMARK SMILES IDX 62 57 83 58 50 59 34 60 35 61 43 62 36 63 37 64 41 65 44 66
REMARK SMILES IDX 38 67 39 68 42 69 40 70 66 71 67 72 75 73 68 74 69 75 73 76
REMARK SMILES IDX 76 77 70 78 71 79 74 80 72 81 51 82 52 83 60 84 53 85 54 86
REMARK SMILES IDX 58 87 61 88 55 89 56 90 59 91 57 92
REMARK H PARENT 17 6 22 26 81 45 49 56
REMARK Flexibility Score: inf
ROOT
ATOM      1  C   UNL A   1      31.756  30.677  25.815  1.00  0.00     0.023 C 
ENDROOT
BRANCH   1   2
ATOM      2  C   UNL A   1      32.721  29.556  26.197  1.00  0.00     0.116 C 
BRANCH   2   3
ATOM      3  N   UNL A   1      33.577  29.059  25.132  1.00  0.00    -0.352 N 
ATOM      4  C   UNL A   1      33.274  28.281  24.022  1.00  0.00     0.254 C 
ATOM      5  O   UNL A   1      34.119  28.225  23.130  1.00  0.00    -0.269 OA
ATOM      6  H   UNL A   1      34.523  29.317  25.209  1.00  0.00     0.163 HD
BRANCH   4   7
ATOM      7  C   UNL A   1      32.013  27.484  23.937  1.00  0.00     0.081 A 
ATOM      8  C   UNL A   1      32.004  26.123  24.337  1.00  0.00     0.051 A 
ATOM      9  C   UNL A   1      30.769  25.446  24.424  1.00  0.00     0.027 A 
ATOM     10  C   UNL A   1      29.575  26.060  24.058  1.00  0.00     0.004 A 
ATOM     11  C   UNL A   1      30.831  28.017  23.394  1.00  0.00     0.055 A 
ATOM     12  C   UNL A   1      29.615  27.329  23.500  1.00  0.00     0.021 A 
ATOM     13  Cl  UNL A   1      30.798  29.435  22.397  1.00  0.00    -0.083 Cl
BRANCH   8  14
ATOM     14  N   UNL A   1      33.175  25.358  24.512  1.00  0.00    -0.370 N 
ATOM     15  C   UNL A   1      34.296  23.616  24.619  1.00  0.00     0.033 C 
ATOM     16  C   UNL A   1      33.634  24.595  25.622  1.00  0.00     0.122 C 
ATOM     17  C   UNL A   1      33.923  24.636  23.530  1.00  0.00     0.122 C 
BRANCH  15  18
ATOM     18  C   UNL A   1      35.758  23.147  24.780  1.00  0.00    -0.032 C 
ATOM     19  C   UNL A   1      36.403  23.053  23.383  1.00  0.00     0.011 C 
ATOM     20  C   UNL A   1      35.758  21.752  25.421  1.00  0.00     0.011 C 
ATOM     21  C   UNL A   1      36.590  24.104  25.645  1.00  0.00     0.011 C 
ENDBRANCH  15  18
ENDBRANCH   8  14
ENDBRANCH   4   7
ENDBRANCH   2   3
ENDBRANCH   1   2
BRANCH   1  22
ATOM     22  C   UNL A   1      31.530  31.786  26.842  1.00  0.00     0.023 C 
BRANCH  22  23
ATOM     23  C   UNL A   1      32.725  32.669  27.194  1.00  0.00     0.116 C 
BRANCH  23  24
ATOM     24  N   UNL A   1      32.373  34.024  27.594  1.00  0.00    -0.352 N 
ATOM     25  C   UNL A   1      32.953  34.863  28.519  1.00  0.00     0.251 C 
ATOM     26  H   UNL A   1      31.594  34.402  27.128  1.00  0.00     0.163 HD
ATOM     27  O   UNL A   1      32.450  35.962  28.745  1.00  0.00    -0.269 OA
BRANCH  25  28
ATOM     28  C   UNL A   1      34.149  34.443  29.286  1.00  0.00     0.039 A 
ATOM     29  C   UNL A   1      33.970  33.894  30.560  1.00  0.00     0.014 A 
ATOM     30  C   UNL A   1      35.438  34.579  28.767  1.00  0.00     0.014 A 
ATOM     31  C   UNL A   1      35.067  33.386  31.264  1.00  0.00     0.010 A 
ATOM     32  C   UNL A   1      36.519  33.999  29.430  1.00  0.00     0.010 A 
ATOM     33  C   UNL A   1      36.344  33.384  30.680  1.00  0.00    -0.014 A 
BRANCH  33  34
ATOM     34  C   UNL A   1      37.501  32.726  31.346  1.00  0.00     0.031 A 
ATOM     35  C   UNL A   1      38.194  31.561  30.695  1.00  0.00     0.074 A 
ATOM     36  C   UNL A   1      37.877  33.124  32.578  1.00  0.00     0.049 A 
ATOM     37  N   UNL A   1      39.155  30.801  31.159  1.00  0.00    -0.248 NA
ATOM     38  C   UNL A   1      37.723  31.179  29.354  1.00  0.00     0.031 C 
ATOM     39  C   UNL A   1      37.256  34.206  33.344  1.00  0.00     0.029 A 
ATOM     40  N   UNL A   1      38.865  32.655  33.410  1.00  0.00    -0.354 N 
ATOM     41  C   UNL A   1      39.388  29.845  30.180  1.00  0.00     0.074 A 
ATOM     42  C   UNL A   1      38.434  30.087  29.118  1.00  0.00     0.031 C 
ATOM     43  C   UNL A   1      37.887  34.331  34.522  1.00  0.00     0.029 A 
ATOM     44  C   UNL A   1      38.932  33.316  34.614  1.00  0.00     0.049 A 
ATOM     45  H   UNL A   1      39.467  31.916  33.167  1.00  0.00     0.167 HD
ATOM     46  C   UNL A   1      40.326  28.867  30.156  1.00  0.00     0.037 A 
ATOM     47  C   UNL A   1      39.738  33.121  35.675  1.00  0.00     0.037 A 
ATOM     48  C   UNL A   1      41.293  28.646  31.199  1.00  0.00     0.049 A 
ATOM     49  C   UNL A   1      40.774  32.030  35.622  1.00  0.00     0.074 A 
ATOM     50  C   UNL A   1      42.326  27.724  31.237  1.00  0.00     0.029 A 
ATOM     51  N   UNL A   1      41.347  29.354  32.391  1.00  0.00    -0.354 N 
ATOM     52  N   UNL A   1      41.030  31.178  34.660  1.00  0.00    -0.248 NA
ATOM     53  C   UNL A   1      41.637  31.879  36.803  1.00  0.00     0.031 C 
ATOM     54  C   UNL A   1      42.976  27.845  32.468  1.00  0.00     0.029 A 
ATOM     55  C   UNL A   1      42.382  28.876  33.179  1.00  0.00     0.049 A 
ATOM     56  H   UNL A   1      40.740  30.088  32.639  1.00  0.00     0.167 HD
ATOM     57  C   UNL A   1      42.099  30.411  35.104  1.00  0.00     0.074 A 
ATOM     58  C   UNL A   1      42.453  30.908  36.418  1.00  0.00     0.031 C 
ATOM     59  C   UNL A   1      42.730  29.387  34.480  1.00  0.00     0.037 A 
BRANCH  46  60
ATOM     60  C   UNL A   1      40.356  27.964  28.957  1.00  0.00     0.064 A 
ATOM     61  C   UNL A   1      41.126  28.271  27.825  1.00  0.00     0.173 A 
ATOM     62  C   UNL A   1      39.635  26.760  28.953  1.00  0.00     0.173 A 
ATOM     63  F   UNL A   1      41.827  29.414  27.773  1.00  0.00    -0.203 F 
ATOM     64  C   UNL A   1      41.148  27.423  26.721  1.00  0.00     0.198 A 
ATOM     65  C   UNL A   1      39.684  25.898  27.860  1.00  0.00     0.198 A 
ATOM     66  F   UNL A   1      38.889  26.414  30.013  1.00  0.00    -0.203 F 
ATOM     67  F   UNL A   1      41.849  27.761  25.632  1.00  0.00    -0.200 F 
ATOM     68  C   UNL A   1      40.433  26.234  26.741  1.00  0.00     0.200 A 
ATOM     69  F   UNL A   1      39.004  24.744  27.887  1.00  0.00    -0.200 F 
ATOM     70  F   UNL A   1      40.460  25.415  25.682  1.00  0.00    -0.200 F 
ENDBRANCH  46  60
BRANCH  47  71
ATOM     71  C   UNL A   1      39.616  33.993  36.872  1.00  0.00     0.064 A 
ATOM     72  C   UNL A   1      40.294  35.220  36.937  1.00  0.00     0.173 A 
ATOM     73  C   UNL A   1      38.832  33.622  37.973  1.00  0.00     0.173 A 
ATOM     74  F   UNL A   1      41.073  35.608  35.918  1.00  0.00    -0.203 F 
ATOM     75  C   UNL A   1      40.207  36.031  38.066  1.00  0.00     0.198 A 
ATOM     76  C   UNL A   1      38.724  34.448  39.091  1.00  0.00     0.198 A 
ATOM     77  F   UNL A   1      38.162  32.461  37.960  1.00  0.00    -0.203 F 
ATOM     78  F   UNL A   1      40.901  37.176  38.121  1.00  0.00    -0.200 F 
ATOM     79  C   UNL A   1      39.418  35.648  39.140  1.00  0.00     0.200 A 
ATOM     80  F   UNL A   1      37.950  34.079  40.120  1.00  0.00    -0.200 F 
ATOM     81  F   UNL A   1      39.332  36.430  40.225  1.00  0.00    -0.200 F 
ENDBRANCH  47  71
BRANCH  59  82
ATOM     82  C   UNL A   1      43.893  28.758  35.190  1.00  0.00     0.064 A 
ATOM     83  C   UNL A   1      45.205  29.222  35.012  1.00  0.00     0.173 A 
ATOM     84  C   UNL A   1      43.686  27.702  36.091  1.00  0.00     0.173 A 
ATOM     85  F   UNL A   1      45.457  30.218  34.149  1.00  0.00    -0.203 F 
ATOM     86  C   UNL A   1      46.269  28.638  35.693  1.00  0.00     0.198 A 
ATOM     87  C   UNL A   1      44.749  27.139  36.792  1.00  0.00     0.198 A 
ATOM     88  F   UNL A   1      42.450  27.224  36.301  1.00  0.00    -0.203 F 
ATOM     89  F   UNL A   1      47.519  29.066  35.473  1.00  0.00    -0.200 F 
ATOM     90  C   UNL A   1      46.039  27.603  36.587  1.00  0.00     0.200 A 
ATOM     91  F   UNL A   1      44.523  26.149  37.666  1.00  0.00    -0.200 F 
ATOM     92  F   UNL A   1      47.064  27.046  37.247  1.00  0.00    -0.200 F 
ENDBRANCH  59  82
ENDBRANCH  33  34
ENDBRANCH  25  28
ENDBRANCH  23  24
ENDBRANCH  22  23
ENDBRANCH   1  22
TORSDOF 13
ENDMDL
MODEL 3
REMARK VINA RESULT:     -12.3      5.849     11.263
REMARK SMILES CC(C)(C)C1CN(c2cccc(Cl)c2C(=O)NCCCCNC(=O)c2ccc(-c3c4nc(c(-c5c(F)c(F)c(F)c(F)c5F)c5ccc([nH]5)c(-c5c(F)c(F)c(F)c(F)c5F)c5nc(c(-c6c(F)c(F)c(F)c(F)c6F)c6ccc3[nH]6)C=C5)C=C4)cc2)C1
REMARK SMILES IDX 19 1 18 2 17 3 15 4 16 5 14 7 8 8 9 9 10 10 12 11 11 12
REMARK SMILES IDX 13 13 7 14 5 15 6 16 88 17 2 18 1 19 3 20 4 21 20 22 21 23
REMARK SMILES IDX 22 24 23 25 24 27 25 28 26 29 87 30 27 31 86 32 28 33 29 34
REMARK SMILES IDX 30 35 80 36 31 37 85 38 79 39 81 40 32 41 84 42 78 43 77 44
REMARK SMILES IDX 33 46 65 47 45 48 64 49 46 50 49 51 63 52 82 53 47 54 48 55
REMARK SMILES IDX 62 57 83 58 50 59 34 60 35 61 43 62 36 63 37 64 41 65 44 66
REMARK SMILES IDX 38 67 39 68 42 69 40 70 66 71 67 72 75 73 68 74 69 75 73 76
REMARK SMILES IDX 76 77 70 78 71 79 74 80 72 81 51 82 52 83 60 84 53 85 54 86
REMARK SMILES IDX 58 87 61 88 55 89 56 90 59 91 57 92
REMARK H PARENT 17 6 22 26 81 45 49 56
REMARK Flexibility Score: inf
ROOT
ATOM      1  C   UNL A   1      31.769  30.610  25.780  1.00  0.00     0.023 C 
ENDROOT
BRANCH   1   2
ATOM      2  C   UNL A   1      32.789  29.533  26.144  1.00  0.00     0.116 C 
BRANCH   2   3
ATOM      3  N   UNL A   1      33.600  29.025  25.049  1.00  0.00    -0.352 N 
ATOM      4  C   UNL A   1      33.246  28.255  23.949  1.00  0.00     0.254 C 
ATOM      5  O   UNL A   1      34.059  28.187  23.028  1.00  0.00    -0.269 OA
ATOM      6  H   UNL A   1      34.553  29.265  25.095  1.00  0.00     0.163 HD
BRANCH   4   7
ATOM      7  C   UNL A   1      31.970  27.481  23.905  1.00  0.00     0.081 A 
ATOM      8  C   UNL A   1      31.938  26.135  24.354  1.00  0.00     0.051 A 
ATOM      9  C   UNL A   1      30.691  25.486  24.477  1.00  0.00     0.027 A 
ATOM     10  C   UNL A   1      29.506  26.110  24.101  1.00  0.00     0.004 A 
ATOM     11  C   UNL A   1      30.792  28.017  23.355  1.00  0.00     0.055 A 
ATOM     12  C   UNL A   1      29.564  27.357  23.498  1.00  0.00     0.021 A 
ATOM     13  Cl  UNL A   1      30.775  29.399  22.309  1.00  0.00    -0.083 Cl
BRANCH   8  14
ATOM     14  N   UNL A   1      33.096  25.353  24.544  1.00  0.00    -0.370 N 
ATOM     15  C   UNL A   1      34.175  23.595  24.758  1.00  0.00     0.033 C 
ATOM     16  C   UNL A   1      33.588  24.680  25.697  1.00  0.00     0.122 C 
ATOM     17  C   UNL A   1      33.777  24.524  23.598  1.00  0.00     0.122 C 
BRANCH  15  18
ATOM     18  C   UNL A   1      35.631  23.099  24.894  1.00  0.00    -0.032 C 
ATOM     19  C   UNL A   1      36.213  22.884  23.483  1.00  0.00     0.011 C 
ATOM     20  C   UNL A   1      35.623  21.755  25.637  1.00  0.00     0.011 C 
ATOM     21  C   UNL A   1      36.522  24.093  25.651  1.00  0.00     0.011 C 
ENDBRANCH  15  18
ENDBRANCH   8  14
ENDBRANCH   4   7
ENDBRANCH   2   3
ENDBRANCH   1   2
BRANCH   1  22
ATOM     22  C   UNL A   1      31.523  31.716  26.805  1.00  0.00     0.023 C 
BRANCH  22  23
ATOM     23  C   UNL A   1      32.725  32.551  27.238  1.00  0.00     0.116 C 
BRANCH  23  24
ATOM     24  N   UNL A   1      32.406  33.926  27.595  1.00  0.00    -0.352 N 
ATOM     25  C   UNL A   1      32.998  34.777  28.500  1.00  0.00     0.251 C 
ATOM     26  H   UNL A   1      31.640  34.310  27.110  1.00  0.00     0.163 HD
ATOM     27  O   UNL A   1      32.522  35.894  28.689  1.00  0.00    -0.269 OA
BRANCH  25  28
ATOM     28  C   UNL A   1      34.176  34.349  29.291  1.00  0.00     0.039 A 
ATOM     29  C   UNL A   1      33.965  33.734  30.530  1.00  0.00     0.014 A 
ATOM     30  C   UNL A   1      35.479  34.541  28.828  1.00  0.00     0.014 A 
ATOM     31  C   UNL A   1      35.048  33.220  31.250  1.00  0.00     0.010 A 
ATOM     32  C   UNL A   1      36.549  33.956  29.504  1.00  0.00     0.010 A 
ATOM     33  C   UNL A   1      36.345  33.277  30.715  1.00  0.00    -0.014 A 
BRANCH  33  34
ATOM     34  C   UNL A   1      37.493  32.615  31.392  1.00  0.00     0.031 A 
ATOM     35  C   UNL A   1      38.190  31.450  30.747  1.00  0.00     0.074 A 
ATOM     36  C   UNL A   1      37.857  33.010  32.629  1.00  0.00     0.049 A 
ATOM     37  N   UNL A   1      39.144  30.686  31.220  1.00  0.00    -0.248 NA
ATOM     38  C   UNL A   1      37.732  31.071  29.401  1.00  0.00     0.031 C 
ATOM     39  C   UNL A   1      37.230  34.092  33.390  1.00  0.00     0.029 A 
ATOM     40  N   UNL A   1      38.835  32.538  33.472  1.00  0.00    -0.354 N 
ATOM     41  C   UNL A   1      39.386  29.731  30.242  1.00  0.00     0.074 A 
ATOM     42  C   UNL A   1      38.444  29.977  29.171  1.00  0.00     0.031 C 
ATOM     43  C   UNL A   1      37.849  34.215  34.575  1.00  0.00     0.029 A 
ATOM     44  C   UNL A   1      38.890  33.197  34.677  1.00  0.00     0.049 A 
ATOM     45  H   UNL A   1      39.438  31.798  33.234  1.00  0.00     0.167 HD
ATOM     46  C   UNL A   1      40.322  28.752  30.227  1.00  0.00     0.037 A 
ATOM     47  C   UNL A   1      39.684  32.998  35.746  1.00  0.00     0.037 A 
ATOM     48  C   UNL A   1      41.278  28.527  31.280  1.00  0.00     0.049 A 
ATOM     49  C   UNL A   1      40.718  31.905  35.703  1.00  0.00     0.074 A 
ATOM     50  C   UNL A   1      42.308  27.602  31.327  1.00  0.00     0.029 A 
ATOM     51  N   UNL A   1      41.320  29.233  32.473  1.00  0.00    -0.354 N 
ATOM     52  N   UNL A   1      40.983  31.054  34.742  1.00  0.00    -0.248 NA
ATOM     53  C   UNL A   1      41.569  31.751  36.892  1.00  0.00     0.031 C 
ATOM     54  C   UNL A   1      42.946  27.721  32.566  1.00  0.00     0.029 A 
ATOM     55  C   UNL A   1      42.346  28.752  33.272  1.00  0.00     0.049 A 
ATOM     56  H   UNL A   1      40.712  29.968  32.716  1.00  0.00     0.167 HD
ATOM     57  C   UNL A   1      42.046  30.284  35.196  1.00  0.00     0.074 A 
ATOM     58  C   UNL A   1      42.386  30.778  36.514  1.00  0.00     0.031 C 
ATOM     59  C   UNL A   1      42.681  29.260  34.577  1.00  0.00     0.037 A 
BRANCH  46  60
ATOM     60  C   UNL A   1      40.363  27.850  29.027  1.00  0.00     0.064 A 
ATOM     61  C   UNL A   1      41.135  28.164  27.898  1.00  0.00     0.173 A 
ATOM     62  C   UNL A   1      39.651  26.641  29.019  1.00  0.00     0.173 A 
ATOM     63  F   UNL A   1      41.827  29.312  27.850  1.00  0.00    -0.203 F 
ATOM     64  C   UNL A   1      41.166  27.318  26.793  1.00  0.00     0.198 A 
ATOM     65  C   UNL A   1      39.710  25.781  27.925  1.00  0.00     0.198 A 
ATOM     66  F   UNL A   1      38.904  26.288  30.076  1.00  0.00    -0.203 F 
ATOM     67  F   UNL A   1      41.869  27.663  25.707  1.00  0.00    -0.200 F 
ATOM     68  C   UNL A   1      40.460  26.124  26.810  1.00  0.00     0.200 A 
ATOM     69  F   UNL A   1      39.039  24.621  27.949  1.00  0.00    -0.200 F 
ATOM     70  F   UNL A   1      40.497  25.307  25.749  1.00  0.00    -0.200 F 
ENDBRANCH  46  60
BRANCH  47  71
ATOM     71  C   UNL A   1      39.552  33.870  36.943  1.00  0.00     0.064 A 
ATOM     72  C   UNL A   1      38.741  33.487  38.022  1.00  0.00     0.173 A 
ATOM     73  C   UNL A   1      40.222  35.098  37.033  1.00  0.00     0.173 A 
ATOM     74  F   UNL A   1      38.063  32.332  37.973  1.00  0.00    -0.203 F 
ATOM     75  C   UNL A   1      38.590  34.311  39.136  1.00  0.00     0.198 A 
ATOM     76  C   UNL A   1      40.092  35.907  38.160  1.00  0.00     0.198 A 
ATOM     77  F   UNL A   1      41.012  35.508  36.030  1.00  0.00    -0.203 F 
ATOM     78  F   UNL A   1      37.773  33.943  40.132  1.00  0.00    -0.200 F 
ATOM     79  C   UNL A   1      39.269  35.517  39.207  1.00  0.00     0.200 A 
ATOM     80  F   UNL A   1      40.760  37.067  38.230  1.00  0.00    -0.200 F 
ATOM     81  F   UNL A   1      39.126  36.308  40.280  1.00  0.00    -0.200 F 
ENDBRANCH  47  71
BRANCH  59  82
ATOM     82  C   UNL A   1      43.835  28.627  35.299  1.00  0.00     0.064 A 
ATOM     83  C   UNL A   1      43.659  27.521  36.142  1.00  0.00     0.173 A 
ATOM     84  C   UNL A   1      45.140  29.110  35.111  1.00  0.00     0.173 A 
ATOM     85  F   UNL A   1      42.430  27.031  36.367  1.00  0.00    -0.203 F 
ATOM     86  C   UNL A   1      44.744  26.934  36.789  1.00  0.00     0.198 A 
ATOM     87  C   UNL A   1      46.225  28.503  35.736  1.00  0.00     0.198 A 
ATOM     88  F   UNL A   1      45.362  30.163  34.310  1.00  0.00    -0.203 F 
ATOM     89  F   UNL A   1      44.547  25.908  37.626  1.00  0.00    -0.200 F 
ATOM     90  C   UNL A   1      46.025  27.421  36.580  1.00  0.00     0.200 A 
ATOM     91  F   UNL A   1      47.464  28.967  35.522  1.00  0.00    -0.200 F 
ATOM     92  F   UNL A   1      47.070  26.852  37.198  1.00  0.00    -0.200 F 
ENDBRANCH  59  82
ENDBRANCH  33  34
ENDBRANCH  25  28
ENDBRANCH  23  24
ENDBRANCH  22  23
ENDBRANCH   1  22
TORSDOF 13
ENDMDL
