MODEL 1
REMARK VINA RESULT:     -12.5      0.000      0.000
REMARK SMILES CCOc1ccc(OCC(=O)N2CCC[C@H](C(=O)NCCCCNC(=O)c3ccc(-c4c5nc(c(-c6c(F)c(F)c(F)c(F)c6F)c6ccc([nH]6)c(-c6c(F)c(F)c(F)c(F)c6F)c6nc(c(-c7c(F)c(F)c(F)c(F)c7F)c7ccc4[nH]7)C=C6)C=C5)cc3)C2)cc1
REMARK SMILES IDX 17 1 18 2 19 3 16 5 12 6 13 7 90 8 14 9 15 10 10 11 11 12
REMARK SMILES IDX 9 13 8 14 7 15 4 16 5 17 92 18 6 19 91 20 3 21 2 22 1 23
REMARK SMILES IDX 20 24 21 25 22 26 23 27 24 28 25 29 26 31 27 32 28 33 89 34
REMARK SMILES IDX 29 35 88 36 30 37 31 38 32 39 82 40 33 41 87 42 81 43 83 44
REMARK SMILES IDX 34 45 86 46 80 47 79 48 35 50 67 51 47 52 66 53 48 54 51 55
REMARK SMILES IDX 65 56 84 57 49 58 50 59 64 61 85 62 52 63 36 64 37 65 45 66
REMARK SMILES IDX 38 67 39 68 43 69 46 70 40 71 41 72 44 73 42 74 68 75 69 76
REMARK SMILES IDX 77 77 70 78 71 79 75 80 78 81 72 82 73 83 76 84 74 85 53 86
REMARK SMILES IDX 54 87 62 88 55 89 56 90 60 91 63 92 57 93 58 94 61 95 59 96
REMARK H PARENT 19 4 24 30 83 49 51 60
REMARK Flexibility Score: inf
ROOT
ATOM      1  C   UNL A   1      33.127  29.126  24.460  1.00  0.00     0.224 C 
ATOM      2  O   UNL A   1      33.686  29.281  23.365  1.00  0.00    -0.275 OA
ATOM      3  N   UNL A   1      33.727  29.734  25.514  1.00  0.00    -0.356 N 
ATOM      4  H   UNL A   1      34.602  30.132  25.301  1.00  0.00     0.163 HD
ENDROOT
BRANCH   1   5
ATOM      5  C   UNL A   1      31.854  28.270  24.532  1.00  0.00     0.098 C 
ATOM      6  N   UNL A   1      31.989  26.262  23.064  1.00  0.00    -0.339 N 
ATOM      7  C   UNL A   1      30.760  26.613  22.351  1.00  0.00     0.119 C 
ATOM      8  C   UNL A   1      32.068  26.758  24.432  1.00  0.00     0.133 C 
ATOM      9  C   UNL A   1      30.442  28.107  22.374  1.00  0.00     0.022 C 
ATOM     10  C   UNL A   1      30.659  28.778  23.727  1.00  0.00     0.017 C 
BRANCH   6  11
ATOM     11  C   UNL A   1      32.980  25.540  22.409  1.00  0.00     0.260 C 
ATOM     12  O   UNL A   1      33.653  26.063  21.512  1.00  0.00    -0.271 OA
BRANCH  11  13
ATOM     13  C   UNL A   1      33.162  24.024  22.678  1.00  0.00     0.329 C 
BRANCH  13  14
ATOM     14  O   UNL A   1      33.650  23.489  23.885  1.00  0.00    -0.484 OA
BRANCH  14  15
ATOM     15  C   UNL A   1      33.552  22.147  24.109  1.00  0.00     0.120 A 
ATOM     16  C   UNL A   1      33.672  19.414  24.655  1.00  0.00     0.119 A 
ATOM     17  C   UNL A   1      34.742  20.227  25.003  1.00  0.00     0.050 A 
ATOM     18  C   UNL A   1      32.530  19.960  24.070  1.00  0.00     0.050 A 
ATOM     19  C   UNL A   1      34.679  21.592  24.731  1.00  0.00     0.050 A 
ATOM     20  C   UNL A   1      32.474  21.328  23.782  1.00  0.00     0.050 A 
BRANCH  16  21
ATOM     21  O   UNL A   1      33.707  18.092  24.994  1.00  0.00    -0.494 OA
BRANCH  21  22
ATOM     22  C   UNL A   1      33.022  17.272  24.040  1.00  0.00     0.226 C 
ATOM     23  C   UNL A   1      34.028  16.587  23.129  1.00  0.00     0.049 C 
ENDBRANCH  21  22
ENDBRANCH  16  21
ENDBRANCH  14  15
ENDBRANCH  13  14
ENDBRANCH  11  13
ENDBRANCH   6  11
ENDBRANCH   1   5
BRANCH   3  24
ATOM     24  C   UNL A   1      33.323  29.907  26.890  1.00  0.00     0.116 C 
BRANCH  24  25
ATOM     25  C   UNL A   1      31.900  30.438  27.042  1.00  0.00     0.023 C 
BRANCH  25  26
ATOM     26  C   UNL A   1      31.744  31.930  26.768  1.00  0.00     0.023 C 
BRANCH  26  27
ATOM     27  C   UNL A   1      32.869  32.817  27.298  1.00  0.00     0.116 C 
BRANCH  27  28
ATOM     28  N   UNL A   1      32.470  34.178  27.625  1.00  0.00    -0.352 N 
ATOM     29  C   UNL A   1      33.008  35.011  28.585  1.00  0.00     0.251 C 
ATOM     30  H   UNL A   1      31.726  34.550  27.098  1.00  0.00     0.163 HD
ATOM     31  O   UNL A   1      32.531  36.114  28.813  1.00  0.00    -0.269 OA
BRANCH  29  32
ATOM     32  C   UNL A   1      34.154  34.520  29.378  1.00  0.00     0.039 A 
ATOM     33  C   UNL A   1      33.911  33.875  30.592  1.00  0.00     0.014 A 
ATOM     34  C   UNL A   1      35.451  34.611  28.866  1.00  0.00     0.014 A 
ATOM     35  C   UNL A   1      34.961  33.228  31.246  1.00  0.00     0.010 A 
ATOM     36  C   UNL A   1      36.477  33.900  29.477  1.00  0.00     0.010 A 
ATOM     37  C   UNL A   1      36.240  33.191  30.665  1.00  0.00    -0.014 A 
BRANCH  37  38
ATOM     38  C   UNL A   1      37.340  32.397  31.266  1.00  0.00     0.031 A 
ATOM     39  C   UNL A   1      37.833  32.722  32.647  1.00  0.00     0.074 A 
ATOM     40  C   UNL A   1      37.957  31.448  30.534  1.00  0.00     0.049 A 
ATOM     41  N   UNL A   1      38.844  32.216  33.306  1.00  0.00    -0.248 NA
ATOM     42  C   UNL A   1      37.114  33.783  33.369  1.00  0.00     0.031 C 
ATOM     43  C   UNL A   1      37.616  31.083  29.157  1.00  0.00     0.029 A 
ATOM     44  N   UNL A   1      39.013  30.627  30.841  1.00  0.00    -0.354 N 
ATOM     45  C   UNL A   1      38.897  32.915  34.504  1.00  0.00     0.074 A 
ATOM     46  C   UNL A   1      37.850  33.912  34.463  1.00  0.00     0.031 C 
ATOM     47  C   UNL A   1      38.428  30.094  28.750  1.00  0.00     0.029 A 
ATOM     48  C   UNL A   1      39.368  29.778  29.821  1.00  0.00     0.049 A 
ATOM     49  H   UNL A   1      39.473  30.643  31.712  1.00  0.00     0.167 HD
ATOM     50  C   UNL A   1      39.729  32.724  35.556  1.00  0.00     0.037 A 
ATOM     51  C   UNL A   1      40.342  28.851  29.758  1.00  0.00     0.037 A 
ATOM     52  C   UNL A   1      40.740  31.703  35.614  1.00  0.00     0.049 A 
ATOM     53  C   UNL A   1      41.231  28.637  30.952  1.00  0.00     0.074 A 
ATOM     54  C   UNL A   1      41.582  31.380  36.663  1.00  0.00     0.029 A 
ATOM     55  N   UNL A   1      41.041  30.833  34.577  1.00  0.00    -0.354 N 
ATOM     56  N   UNL A   1      41.226  29.255  32.108  1.00  0.00    -0.248 NA
ATOM     57  C   UNL A   1      42.257  27.592  30.835  1.00  0.00     0.031 C 
ATOM     58  C   UNL A   1      42.414  30.333  36.251  1.00  0.00     0.029 A 
ATOM     59  C   UNL A   1      42.065  29.981  34.957  1.00  0.00     0.049 A 
ATOM     60  H   UNL A   1      40.592  30.823  33.700  1.00  0.00     0.167 HD
ATOM     61  C   UNL A   1      42.225  28.659  32.864  1.00  0.00     0.074 A 
ATOM     62  C   UNL A   1      42.810  27.621  32.040  1.00  0.00     0.031 C 
ATOM     63  C   UNL A   1      42.623  28.945  34.127  1.00  0.00     0.037 A 
BRANCH  50  64
ATOM     64  C   UNL A   1      39.566  33.636  36.736  1.00  0.00     0.064 A 
ATOM     65  C   UNL A   1      38.744  33.293  37.820  1.00  0.00     0.173 A 
ATOM     66  C   UNL A   1      40.252  34.858  36.792  1.00  0.00     0.173 A 
ATOM     67  F   UNL A   1      38.056  32.141  37.808  1.00  0.00    -0.203 F 
ATOM     68  C   UNL A   1      38.590  34.154  38.903  1.00  0.00     0.198 A 
ATOM     69  C   UNL A   1      40.118  35.704  37.890  1.00  0.00     0.198 A 
ATOM     70  F   UNL A   1      41.053  35.231  35.784  1.00  0.00    -0.203 F 
ATOM     71  F   UNL A   1      37.759  33.828  39.902  1.00  0.00    -0.200 F 
ATOM     72  C   UNL A   1      39.281  35.356  38.940  1.00  0.00     0.200 A 
ATOM     73  F   UNL A   1      40.793  36.861  37.929  1.00  0.00    -0.200 F 
ATOM     74  F   UNL A   1      39.134  36.183  39.984  1.00  0.00    -0.200 F 
ENDBRANCH  50  64
BRANCH  51  75
ATOM     75  C   UNL A   1      40.503  28.025  28.535  1.00  0.00     0.064 A 
ATOM     76  C   UNL A   1      41.308  28.467  27.474  1.00  0.00     0.173 A 
ATOM     77  C   UNL A   1      39.860  26.788  28.394  1.00  0.00     0.173 A 
ATOM     78  F   UNL A   1      41.926  29.655  27.555  1.00  0.00    -0.203 F 
ATOM     79  C   UNL A   1      41.448  27.712  26.313  1.00  0.00     0.198 A 
ATOM     80  C   UNL A   1      40.020  26.022  27.241  1.00  0.00     0.198 A 
ATOM     81  F   UNL A   1      39.085  26.319  29.383  1.00  0.00    -0.203 F 
ATOM     82  F   UNL A   1      42.189  28.178  25.298  1.00  0.00    -0.200 F 
ATOM     83  C   UNL A   1      40.807  26.487  26.199  1.00  0.00     0.200 A 
ATOM     84  F   UNL A   1      39.409  24.834  27.139  1.00  0.00    -0.200 F 
ATOM     85  F   UNL A   1      40.943  25.760  25.082  1.00  0.00    -0.200 F 
ENDBRANCH  51  75
BRANCH  63  86
ATOM     86  C   UNL A   1      43.719  28.103  34.708  1.00  0.00     0.064 A 
ATOM     87  C   UNL A   1      45.064  28.492  34.628  1.00  0.00     0.173 A 
ATOM     88  C   UNL A   1      43.414  26.916  35.391  1.00  0.00     0.173 A 
ATOM     89  F   UNL A   1      45.405  29.610  33.971  1.00  0.00    -0.203 F 
ATOM     90  C   UNL A   1      46.067  27.711  35.195  1.00  0.00     0.198 A 
ATOM     91  C   UNL A   1      44.417  26.151  35.978  1.00  0.00     0.198 A 
ATOM     92  F   UNL A   1      42.141  26.506  35.498  1.00  0.00    -0.203 F 
ATOM     93  F   UNL A   1      47.350  28.080  35.073  1.00  0.00    -0.200 F 
ATOM     94  C   UNL A   1      45.743  26.546  35.875  1.00  0.00     0.200 A 
ATOM     95  F   UNL A   1      44.102  25.031  36.643  1.00  0.00    -0.200 F 
ATOM     96  F   UNL A   1      46.710  25.799  36.424  1.00  0.00    -0.200 F 
ENDBRANCH  63  86
ENDBRANCH  37  38
ENDBRANCH  29  32
ENDBRANCH  27  28
ENDBRANCH  26  27
ENDBRANCH  25  26
ENDBRANCH  24  25
ENDBRANCH   3  24
TORSDOF 17
ENDMDL
MODEL 2
REMARK VINA RESULT:     -12.5      0.600      7.292
REMARK SMILES CCOc1ccc(OCC(=O)N2CCC[C@H](C(=O)NCCCCNC(=O)c3ccc(-c4c5nc(c(-c6c(F)c(F)c(F)c(F)c6F)c6ccc([nH]6)c(-c6c(F)c(F)c(F)c(F)c6F)c6nc(c(-c7c(F)c(F)c(F)c(F)c7F)c7ccc4[nH]7)C=C6)C=C5)cc3)C2)cc1
REMARK SMILES IDX 17 1 18 2 19 3 16 5 12 6 13 7 90 8 14 9 15 10 10 11 11 12
REMARK SMILES IDX 9 13 8 14 7 15 4 16 5 17 92 18 6 19 91 20 3 21 2 22 1 23
REMARK SMILES IDX 20 24 21 25 22 26 23 27 24 28 25 29 26 31 27 32 28 33 89 34
REMARK SMILES IDX 29 35 88 36 30 37 31 38 32 39 82 40 33 41 87 42 81 43 83 44
REMARK SMILES IDX 34 45 86 46 80 47 79 48 35 50 67 51 47 52 66 53 48 54 51 55
REMARK SMILES IDX 65 56 84 57 49 58 50 59 64 61 85 62 52 63 36 64 37 65 45 66
REMARK SMILES IDX 38 67 39 68 43 69 46 70 40 71 41 72 44 73 42 74 68 75 69 76
REMARK SMILES IDX 77 77 70 78 71 79 75 80 78 81 72 82 73 83 76 84 74 85 53 86
REMARK SMILES IDX 54 87 62 88 55 89 56 90 60 91 63 92 57 93 58 94 61 95 59 96
REMARK H PARENT 19 4 24 30 83 49 51 60
REMARK Flexibility Score: inf
ROOT
ATOM      1  C   UNL A   1      33.302  28.907  24.488  1.00  0.00     0.224 C 
ATOM      2  O   UNL A   1      33.777  29.094  23.360  1.00  0.00    -0.275 OA
ATOM      3  N   UNL A   1      33.954  29.521  25.507  1.00  0.00    -0.356 N 
ATOM      4  H   UNL A   1      34.799  29.950  25.239  1.00  0.00     0.163 HD
ENDROOT
BRANCH   1   5
ATOM      5  C   UNL A   1      32.065  28.008  24.636  1.00  0.00     0.098 C 
ATOM      6  N   UNL A   1      32.092  26.103  23.033  1.00  0.00    -0.339 N 
ATOM      7  C   UNL A   1      30.785  26.460  22.477  1.00  0.00     0.119 C 
ATOM      8  C   UNL A   1      32.303  26.513  24.414  1.00  0.00     0.133 C 
ATOM      9  C   UNL A   1      30.435  27.939  22.631  1.00  0.00     0.022 C 
ATOM     10  C   UNL A   1      30.778  28.529  23.995  1.00  0.00     0.017 C 
BRANCH   6  11
ATOM     11  C   UNL A   1      33.025  25.454  22.230  1.00  0.00     0.260 C 
ATOM     12  O   UNL A   1      33.513  26.023  21.246  1.00  0.00    -0.271 OA
BRANCH  11  13
ATOM     13  C   UNL A   1      33.359  23.958  22.459  1.00  0.00     0.329 C 
BRANCH  13  14
ATOM     14  O   UNL A   1      33.869  23.439  23.663  1.00  0.00    -0.484 OA
BRANCH  14  15
ATOM     15  C   UNL A   1      33.674  22.121  23.959  1.00  0.00     0.120 A 
ATOM     16  C   UNL A   1      33.599  19.415  24.632  1.00  0.00     0.119 A 
ATOM     17  C   UNL A   1      34.748  20.150  24.889  1.00  0.00     0.050 A 
ATOM     18  C   UNL A   1      32.477  20.028  24.076  1.00  0.00     0.050 A 
ATOM     19  C   UNL A   1      34.782  21.502  24.553  1.00  0.00     0.050 A 
ATOM     20  C   UNL A   1      32.517  21.380  23.724  1.00  0.00     0.050 A 
BRANCH  16  21
ATOM     21  O   UNL A   1      33.544  18.111  25.035  1.00  0.00    -0.494 OA
BRANCH  21  22
ATOM     22  C   UNL A   1      34.564  17.314  24.421  1.00  0.00     0.226 C 
ATOM     23  C   UNL A   1      34.107  16.860  23.044  1.00  0.00     0.049 C 
ENDBRANCH  21  22
ENDBRANCH  16  21
ENDBRANCH  14  15
ENDBRANCH  13  14
ENDBRANCH  11  13
ENDBRANCH   6  11
ENDBRANCH   1   5
BRANCH   3  24
ATOM     24  C   UNL A   1      33.643  29.662  26.910  1.00  0.00     0.116 C 
BRANCH  24  25
ATOM     25  C   UNL A   1      32.219  30.149  27.169  1.00  0.00     0.023 C 
BRANCH  25  26
ATOM     26  C   UNL A   1      31.983  31.622  26.857  1.00  0.00     0.023 C 
BRANCH  26  27
ATOM     27  C   UNL A   1      33.005  32.592  27.447  1.00  0.00     0.116 C 
BRANCH  27  28
ATOM     28  N   UNL A   1      32.512  33.945  27.659  1.00  0.00    -0.352 N 
ATOM     29  C   UNL A   1      32.992  34.892  28.541  1.00  0.00     0.251 C 
ATOM     30  H   UNL A   1      31.744  34.218  27.107  1.00  0.00     0.163 HD
ATOM     31  O   UNL A   1      32.438  35.974  28.677  1.00  0.00    -0.269 OA
BRANCH  29  32
ATOM     32  C   UNL A   1      34.169  34.552  29.366  1.00  0.00     0.039 A 
ATOM     33  C   UNL A   1      33.974  34.071  30.661  1.00  0.00     0.014 A 
ATOM     34  C   UNL A   1      35.452  34.614  28.815  1.00  0.00     0.014 A 
ATOM     35  C   UNL A   1      35.058  33.555  31.372  1.00  0.00     0.010 A 
ATOM     36  C   UNL A   1      36.514  34.028  29.492  1.00  0.00     0.010 A 
ATOM     37  C   UNL A   1      36.326  33.480  30.771  1.00  0.00    -0.014 A 
BRANCH  37  38
ATOM     38  C   UNL A   1      37.465  32.813  31.447  1.00  0.00     0.031 A 
ATOM     39  C   UNL A   1      38.160  31.658  30.785  1.00  0.00     0.074 A 
ATOM     40  C   UNL A   1      37.812  33.185  32.695  1.00  0.00     0.049 A 
ATOM     41  N   UNL A   1      39.106  30.882  31.251  1.00  0.00    -0.248 NA
ATOM     42  C   UNL A   1      37.708  31.308  29.430  1.00  0.00     0.031 C 
ATOM     43  C   UNL A   1      37.172  34.248  33.473  1.00  0.00     0.029 A 
ATOM     44  N   UNL A   1      38.782  32.699  33.537  1.00  0.00    -0.354 N 
ATOM     45  C   UNL A   1      39.339  29.939  30.260  1.00  0.00     0.074 A 
ATOM     46  C   UNL A   1      38.405  30.207  29.188  1.00  0.00     0.031 C 
ATOM     47  C   UNL A   1      37.783  34.351  34.665  1.00  0.00     0.029 A 
ATOM     48  C   UNL A   1      38.833  33.341  34.750  1.00  0.00     0.049 A 
ATOM     49  H   UNL A   1      39.384  31.959  33.294  1.00  0.00     0.167 HD
ATOM     50  C   UNL A   1      40.266  28.952  30.235  1.00  0.00     0.037 A 
ATOM     51  C   UNL A   1      39.637  33.137  35.810  1.00  0.00     0.037 A 
ATOM     52  C   UNL A   1      41.224  28.714  31.282  1.00  0.00     0.049 A 
ATOM     53  C   UNL A   1      40.680  32.056  35.744  1.00  0.00     0.074 A 
ATOM     54  C   UNL A   1      42.252  27.790  31.318  1.00  0.00     0.029 A 
ATOM     55  N   UNL A   1      41.272  29.415  32.477  1.00  0.00    -0.354 N 
ATOM     56  N   UNL A   1      40.940  31.216  34.772  1.00  0.00    -0.248 NA
ATOM     57  C   UNL A   1      41.548  31.900  36.920  1.00  0.00     0.031 C 
ATOM     58  C   UNL A   1      42.906  27.910  32.549  1.00  0.00     0.029 A 
ATOM     59  C   UNL A   1      42.307  28.934  33.264  1.00  0.00     0.049 A 
ATOM     60  H   UNL A   1      40.663  30.146  32.729  1.00  0.00     0.167 HD
ATOM     61  C   UNL A   1      42.013  30.451  35.206  1.00  0.00     0.074 A 
ATOM     62  C   UNL A   1      42.366  30.933  36.525  1.00  0.00     0.031 C 
ATOM     63  C   UNL A   1      42.650  29.438  34.569  1.00  0.00     0.037 A 
BRANCH  50  64
ATOM     64  C   UNL A   1      40.294  28.065  29.026  1.00  0.00     0.064 A 
ATOM     65  C   UNL A   1      41.044  28.399  27.888  1.00  0.00     0.173 A 
ATOM     66  C   UNL A   1      39.579  26.858  29.010  1.00  0.00     0.173 A 
ATOM     67  F   UNL A   1      41.734  29.549  27.849  1.00  0.00    -0.203 F 
ATOM     68  C   UNL A   1      41.051  27.574  26.767  1.00  0.00     0.198 A 
ATOM     69  C   UNL A   1      39.612  26.022  27.898  1.00  0.00     0.198 A 
ATOM     70  F   UNL A   1      38.850  26.490  30.074  1.00  0.00    -0.203 F 
ATOM     71  F   UNL A   1      41.732  27.941  25.673  1.00  0.00    -0.200 F 
ATOM     72  C   UNL A   1      40.340  26.384  26.774  1.00  0.00     0.200 A 
ATOM     73  F   UNL A   1      38.931  24.867  27.910  1.00  0.00    -0.200 F 
ATOM     74  F   UNL A   1      40.349  25.590  25.695  1.00  0.00    -0.200 F 
ENDBRANCH  50  64
BRANCH  51  75
ATOM     75  C   UNL A   1      39.516  34.002  37.012  1.00  0.00     0.064 A 
ATOM     76  C   UNL A   1      40.164  35.244  37.066  1.00  0.00     0.173 A 
ATOM     77  C   UNL A   1      38.760  33.610  38.125  1.00  0.00     0.173 A 
ATOM     78  F   UNL A   1      40.917  35.651  36.033  1.00  0.00    -0.203 F 
ATOM     79  C   UNL A   1      40.077  36.053  38.197  1.00  0.00     0.198 A 
ATOM     80  C   UNL A   1      38.653  34.431  39.246  1.00  0.00     0.198 A 
ATOM     81  F   UNL A   1      38.116  32.434  38.119  1.00  0.00    -0.203 F 
ATOM     82  F   UNL A   1      40.742  37.216  38.239  1.00  0.00    -0.200 F 
ATOM     83  C   UNL A   1      39.318  35.647  39.284  1.00  0.00     0.200 A 
ATOM     84  F   UNL A   1      37.910  34.042  40.291  1.00  0.00    -0.200 F 
ATOM     85  F   UNL A   1      39.232  36.427  40.371  1.00  0.00    -0.200 F 
ENDBRANCH  51  75
BRANCH  63  86
ATOM     86  C   UNL A   1      43.814  28.809  35.273  1.00  0.00     0.064 A 
ATOM     87  C   UNL A   1      43.646  27.709  36.129  1.00  0.00     0.173 A 
ATOM     88  C   UNL A   1      45.116  29.283  35.055  1.00  0.00     0.173 A 
ATOM     89  F   UNL A   1      42.419  27.232  36.380  1.00  0.00    -0.203 F 
ATOM     90  C   UNL A   1      44.741  27.121  36.756  1.00  0.00     0.198 A 
ATOM     91  C   UNL A   1      46.209  28.677  35.665  1.00  0.00     0.198 A 
ATOM     92  F   UNL A   1      45.326  30.329  34.242  1.00  0.00    -0.203 F 
ATOM     93  F   UNL A   1      44.555  26.097  37.601  1.00  0.00    -0.200 F 
ATOM     94  C   UNL A   1      46.021  27.600  36.519  1.00  0.00     0.200 A 
ATOM     95  F   UNL A   1      47.447  29.133  35.427  1.00  0.00    -0.200 F 
ATOM     96  F   UNL A   1      47.073  27.028  37.119  1.00  0.00    -0.200 F 
ENDBRANCH  63  86
ENDBRANCH  37  38
ENDBRANCH  29  32
ENDBRANCH  27  28
ENDBRANCH  26  27
ENDBRANCH  25  26
ENDBRANCH  24  25
ENDBRANCH   3  24
TORSDOF 17
ENDMDL
MODEL 3
REMARK VINA RESULT:     -12.1      4.651      9.941
REMARK SMILES CCOc1ccc(OCC(=O)N2CCC[C@H](C(=O)NCCCCNC(=O)c3ccc(-c4c5nc(c(-c6c(F)c(F)c(F)c(F)c6F)c6ccc([nH]6)c(-c6c(F)c(F)c(F)c(F)c6F)c6nc(c(-c7c(F)c(F)c(F)c(F)c7F)c7ccc4[nH]7)C=C6)C=C5)cc3)C2)cc1
REMARK SMILES IDX 17 1 18 2 19 3 16 5 12 6 13 7 90 8 14 9 15 10 10 11 11 12
REMARK SMILES IDX 9 13 8 14 7 15 4 16 5 17 92 18 6 19 91 20 3 21 2 22 1 23
REMARK SMILES IDX 20 24 21 25 22 26 23 27 24 28 25 29 26 31 27 32 28 33 89 34
REMARK SMILES IDX 29 35 88 36 30 37 31 38 32 39 82 40 33 41 87 42 81 43 83 44
REMARK SMILES IDX 34 45 86 46 80 47 79 48 35 50 67 51 47 52 66 53 48 54 51 55
REMARK SMILES IDX 65 56 84 57 49 58 50 59 64 61 85 62 52 63 36 64 37 65 45 66
REMARK SMILES IDX 38 67 39 68 43 69 46 70 40 71 41 72 44 73 42 74 68 75 69 76
REMARK SMILES IDX 77 77 70 78 71 79 75 80 78 81 72 82 73 83 76 84 74 85 53 86
REMARK SMILES IDX 54 87 62 88 55 89 56 90 60 91 63 92 57 93 58 94 61 95 59 96
REMARK H PARENT 19 4 24 30 83 49 51 60
REMARK Flexibility Score: inf
ROOT
ATOM      1  C   UNL A   1      33.427  25.355  23.074  1.00  0.00     0.224 C 
ATOM      2  O   UNL A   1      32.535  25.217  22.225  1.00  0.00    -0.275 OA
ATOM      3  N   UNL A   1      34.041  24.211  23.468  1.00  0.00    -0.356 N 
ATOM      4  H   UNL A   1      33.624  23.392  23.116  1.00  0.00     0.163 HD
ENDROOT
BRANCH   1   5
ATOM      5  C   UNL A   1      33.738  26.762  23.607  1.00  0.00     0.098 C 
ATOM      6  N   UNL A   1      32.236  27.408  25.486  1.00  0.00    -0.339 N 
ATOM      7  C   UNL A   1      31.791  28.625  24.805  1.00  0.00     0.119 C 
ATOM      8  C   UNL A   1      33.569  26.950  25.116  1.00  0.00     0.133 C 
ATOM      9  C   UNL A   1      31.905  28.555  23.283  1.00  0.00     0.022 C 
ATOM     10  C   UNL A   1      33.199  27.926  22.776  1.00  0.00     0.017 C 
BRANCH   6  11
ATOM     11  C   UNL A   1      31.381  26.769  26.377  1.00  0.00     0.260 C 
ATOM     12  O   UNL A   1      31.030  27.327  27.424  1.00  0.00    -0.271 OA
BRANCH  11  13
ATOM     13  C   UNL A   1      30.972  25.290  26.157  1.00  0.00     0.329 C 
BRANCH  13  14
ATOM     14  O   UNL A   1      31.216  24.257  27.080  1.00  0.00    -0.484 OA
BRANCH  14  15
ATOM     15  C   UNL A   1      31.982  23.192  26.705  1.00  0.00     0.120 A 
ATOM     16  C   UNL A   1      33.317  20.955  25.709  1.00  0.00     0.119 A 
ATOM     17  C   UNL A   1      32.219  21.454  25.023  1.00  0.00     0.050 A 
ATOM     18  C   UNL A   1      33.775  21.583  26.866  1.00  0.00     0.050 A 
ATOM     19  C   UNL A   1      31.555  22.574  25.523  1.00  0.00     0.050 A 
ATOM     20  C   UNL A   1      33.098  22.696  27.376  1.00  0.00     0.050 A 
BRANCH  16  21
ATOM     21  O   UNL A   1      34.010  19.907  25.175  1.00  0.00    -0.494 OA
BRANCH  21  22
ATOM     22  C   UNL A   1      33.163  19.026  24.426  1.00  0.00     0.226 C 
ATOM     23  C   UNL A   1      33.899  17.730  24.127  1.00  0.00     0.049 C 
ENDBRANCH  21  22
ENDBRANCH  16  21
ENDBRANCH  14  15
ENDBRANCH  13  14
ENDBRANCH  11  13
ENDBRANCH   6  11
ENDBRANCH   1   5
BRANCH   3  24
ATOM     24  C   UNL A   1      35.191  23.970  24.309  1.00  0.00     0.116 C 
BRANCH  24  25
ATOM     25  C   UNL A   1      36.330  23.256  23.587  1.00  0.00     0.023 C 
BRANCH  25  26
ATOM     26  C   UNL A   1      36.654  21.866  24.126  1.00  0.00     0.023 C 
BRANCH  26  27
ATOM     27  C   UNL A   1      37.255  21.829  25.529  1.00  0.00     0.116 C 
BRANCH  27  28
ATOM     28  N   UNL A   1      38.326  20.859  25.709  1.00  0.00    -0.352 N 
ATOM     29  C   UNL A   1      39.574  21.070  26.258  1.00  0.00     0.251 C 
ATOM     30  H   UNL A   1      38.137  19.943  25.403  1.00  0.00     0.163 HD
ATOM     31  O   UNL A   1      40.417  20.184  26.284  1.00  0.00    -0.269 OA
BRANCH  29  32
ATOM     32  C   UNL A   1      39.898  22.416  26.773  1.00  0.00     0.039 A 
ATOM     33  C   UNL A   1      40.891  22.550  27.745  1.00  0.00     0.014 A 
ATOM     34  C   UNL A   1      39.291  23.544  26.215  1.00  0.00     0.014 A 
ATOM     35  C   UNL A   1      41.348  23.823  28.087  1.00  0.00     0.010 A 
ATOM     36  C   UNL A   1      39.802  24.805  26.499  1.00  0.00     0.010 A 
ATOM     37  C   UNL A   1      40.845  24.956  27.426  1.00  0.00    -0.014 A 
BRANCH  37  38
ATOM     38  C   UNL A   1      41.407  26.307  27.669  1.00  0.00     0.031 A 
ATOM     39  C   UNL A   1      42.797  26.637  27.207  1.00  0.00     0.074 A 
ATOM     40  C   UNL A   1      40.702  27.205  28.387  1.00  0.00     0.049 A 
ATOM     41  N   UNL A   1      43.503  27.721  27.409  1.00  0.00    -0.248 NA
ATOM     42  C   UNL A   1      43.501  25.594  26.445  1.00  0.00     0.031 C 
ATOM     43  C   UNL A   1      39.368  26.984  28.948  1.00  0.00     0.029 A 
ATOM     44  N   UNL A   1      41.018  28.482  28.780  1.00  0.00    -0.354 N 
ATOM     45  C   UNL A   1      44.738  27.478  26.826  1.00  0.00     0.074 A 
ATOM     46  C   UNL A   1      44.705  26.129  26.305  1.00  0.00     0.031 C 
ATOM     47  C   UNL A   1      38.970  28.095  29.589  1.00  0.00     0.029 A 
ATOM     48  C   UNL A   1      40.032  29.094  29.514  1.00  0.00     0.049 A 
ATOM     49  H   UNL A   1      41.872  28.919  28.557  1.00  0.00     0.167 HD
ATOM     50  C   UNL A   1      45.797  28.314  26.712  1.00  0.00     0.037 A 
ATOM     51  C   UNL A   1      39.990  30.321  30.065  1.00  0.00     0.037 A 
ATOM     52  C   UNL A   1      45.813  29.671  27.190  1.00  0.00     0.049 A 
ATOM     53  C   UNL A   1      41.167  31.243  29.896  1.00  0.00     0.074 A 
ATOM     54  C   UNL A   1      46.807  30.622  27.057  1.00  0.00     0.029 A 
ATOM     55  N   UNL A   1      44.777  30.269  27.892  1.00  0.00    -0.354 N 
ATOM     56  N   UNL A   1      42.303  31.028  29.279  1.00  0.00    -0.248 NA
ATOM     57  C   UNL A   1      41.052  32.581  30.494  1.00  0.00     0.031 C 
ATOM     58  C   UNL A   1      46.387  31.790  27.704  1.00  0.00     0.029 A 
ATOM     59  C   UNL A   1      45.114  31.575  28.209  1.00  0.00     0.049 A 
ATOM     60  H   UNL A   1      43.928  29.831  28.128  1.00  0.00     0.167 HD
ATOM     61  C   UNL A   1      43.027  32.207  29.391  1.00  0.00     0.074 A 
ATOM     62  C   UNL A   1      42.196  33.140  30.125  1.00  0.00     0.031 C 
ATOM     63  C   UNL A   1      44.268  32.492  28.927  1.00  0.00     0.037 A 
BRANCH  50  64
ATOM     64  C   UNL A   1      47.023  27.784  26.028  1.00  0.00     0.064 A 
ATOM     65  C   UNL A   1      48.114  27.290  26.759  1.00  0.00     0.173 A 
ATOM     66  C   UNL A   1      47.100  27.751  24.629  1.00  0.00     0.173 A 
ATOM     67  F   UNL A   1      48.094  27.313  28.100  1.00  0.00    -0.203 F 
ATOM     68  C   UNL A   1      49.251  26.813  26.114  1.00  0.00     0.198 A 
ATOM     69  C   UNL A   1      48.228  27.246  23.987  1.00  0.00     0.198 A 
ATOM     70  F   UNL A   1      46.083  28.206  23.884  1.00  0.00    -0.203 F 
ATOM     71  F   UNL A   1      50.302  26.396  26.834  1.00  0.00    -0.200 F 
ATOM     72  C   UNL A   1      49.306  26.786  24.729  1.00  0.00     0.200 A 
ATOM     73  F   UNL A   1      48.275  27.211  22.647  1.00  0.00    -0.200 F 
ATOM     74  F   UNL A   1      50.400  26.325  24.109  1.00  0.00    -0.200 F 
ENDBRANCH  50  64
BRANCH  51  75
ATOM     75  C   UNL A   1      38.776  30.768  30.794  1.00  0.00     0.064 A 
ATOM     76  C   UNL A   1      37.706  31.359  30.106  1.00  0.00     0.173 A 
ATOM     77  C   UNL A   1      38.657  30.620  32.182  1.00  0.00     0.173 A 
ATOM     78  F   UNL A   1      37.785  31.542  28.779  1.00  0.00    -0.203 F 
ATOM     79  C   UNL A   1      36.573  31.803  30.782  1.00  0.00     0.198 A 
ATOM     80  C   UNL A   1      37.511  31.042  32.854  1.00  0.00     0.198 A 
ATOM     81  F   UNL A   1      39.650  30.055  32.884  1.00  0.00    -0.203 F 
ATOM     82  F   UNL A   1      35.584  32.403  30.104  1.00  0.00    -0.200 F 
ATOM     83  C   UNL A   1      36.474  31.640  32.155  1.00  0.00     0.200 A 
ATOM     84  F   UNL A   1      37.414  30.873  34.180  1.00  0.00    -0.200 F 
ATOM     85  F   UNL A   1      35.382  32.065  32.805  1.00  0.00    -0.200 F 
ENDBRANCH  51  75
BRANCH  63  86
ATOM     86  C   UNL A   1      44.789  33.877  29.169  1.00  0.00     0.064 A 
ATOM     87  C   UNL A   1      45.523  34.194  30.321  1.00  0.00     0.173 A 
ATOM     88  C   UNL A   1      44.588  34.885  28.215  1.00  0.00     0.173 A 
ATOM     89  F   UNL A   1      45.725  33.266  31.268  1.00  0.00    -0.203 F 
ATOM     90  C   UNL A   1      46.021  35.479  30.518  1.00  0.00     0.198 A 
ATOM     91  C   UNL A   1      45.109  36.162  28.403  1.00  0.00     0.198 A 
ATOM     92  F   UNL A   1      43.896  34.628  27.094  1.00  0.00    -0.203 F 
ATOM     93  F   UNL A   1      46.686  35.771  31.644  1.00  0.00    -0.200 F 
ATOM     94  C   UNL A   1      45.820  36.459  29.557  1.00  0.00     0.200 A 
ATOM     95  F   UNL A   1      44.923  37.105  27.470  1.00  0.00    -0.200 F 
ATOM     96  F   UNL A   1      46.306  37.693  29.746  1.00  0.00    -0.200 F 
ENDBRANCH  63  86
ENDBRANCH  37  38
ENDBRANCH  29  32
ENDBRANCH  27  28
ENDBRANCH  26  27
ENDBRANCH  25  26
ENDBRANCH  24  25
ENDBRANCH   3  24
TORSDOF 17
ENDMDL
