MODEL 1
REMARK VINA RESULT:     -13.3      0.000      0.000
REMARK SMILES COC(=O)c1ccc(C)c2c1[C@H]1C=CC[C@H]1[C@@H](c1ccc(C(=O)NCCCCNC(=O)c3ccc(-c4c5nc(c(-c6c(F)c(F)c(F)c(F)c6F)c6ccc([nH]6)c(-c6c(F)c(F)c(F)c(F)c6F)c6nc(c(-c7c(F)c(F)c(F)c(F)c7F)c7ccc4[nH]7)C=C6)C=C5)cc3)cc1)N2
REMARK SMILES IDX 26 1 25 2 24 3 22 4 23 5 21 7 18 8 19 9 96 10 20 11 95 12
REMARK SMILES IDX 17 13 5 14 6 15 11 16 7 17 10 18 12 19 8 20 97 21 13 22
REMARK SMILES IDX 16 23 9 24 14 26 15 27 3 28 4 29 2 30 1 31 27 32 28 33 29 34
REMARK SMILES IDX 30 35 31 37 32 38 33 39 94 40 34 41 93 42 35 43 36 44 37 45
REMARK SMILES IDX 87 46 38 47 92 48 86 49 88 50 39 51 91 52 85 53 84 54 40 56
REMARK SMILES IDX 72 57 52 58 71 59 53 60 56 61 70 62 89 63 54 64 55 65 69 67
REMARK SMILES IDX 90 68 57 69 41 70 42 71 50 72 43 73 44 74 48 75 51 76 45 77
REMARK SMILES IDX 46 78 49 79 47 80 73 81 74 82 82 83 75 84 76 85 80 86 83 87
REMARK SMILES IDX 77 88 78 89 81 90 79 91 58 92 59 93 67 94 60 95 61 96 65 97
REMARK SMILES IDX 68 98 62 99 63 100 66 101 64 102
REMARK H PARENT 24 6 97 25 29 36 88 55 56 66
REMARK Flexibility Score: inf
ROOT
ATOM      1  C   UNL A   1      39.618  22.090  26.072  1.00  0.00     0.023 C 
ENDROOT
BRANCH   1   2
ATOM      2  C   UNL A   1      38.210  22.685  25.997  1.00  0.00     0.116 C 
BRANCH   2   3
ATOM      3  N   UNL A   1      37.778  22.743  24.622  1.00  0.00    -0.352 N 
ATOM      4  C   UNL A   1      36.569  23.055  24.065  1.00  0.00     0.251 C 
ATOM      5  O   UNL A   1      36.489  22.983  22.837  1.00  0.00    -0.269 OA
ATOM      6  H   UNL A   1      38.478  22.517  23.968  1.00  0.00     0.163 HD
BRANCH   4   7
ATOM      7  C   UNL A   1      35.383  23.501  24.853  1.00  0.00     0.039 A 
ATOM      8  C   UNL A   1      33.080  24.542  26.162  1.00  0.00    -0.025 A 
ATOM      9  C   UNL A   1      33.860  25.335  25.308  1.00  0.00     0.006 A 
ATOM     10  C   UNL A   1      33.511  23.231  26.392  1.00  0.00     0.006 A 
ATOM     11  C   UNL A   1      34.991  24.827  24.668  1.00  0.00     0.014 A 
ATOM     12  C   UNL A   1      34.614  22.709  25.711  1.00  0.00     0.014 A 
BRANCH   8  13
ATOM     13  C   UNL A   1      31.731  24.981  26.737  1.00  0.00     0.114 C 
ATOM     14  C   UNL A   1      30.896  28.112  23.977  1.00  0.00     0.065 A 
ATOM     15  C   UNL A   1      31.522  29.346  24.179  1.00  0.00     0.016 A 
ATOM     16  C   UNL A   1      30.955  27.103  24.964  1.00  0.00    -0.003 A 
ATOM     17  C   UNL A   1      32.187  29.600  25.373  1.00  0.00     0.006 A 
ATOM     18  C   UNL A   1      31.606  27.381  26.195  1.00  0.00     0.042 A 
ATOM     19  C   UNL A   1      30.358  25.730  24.709  1.00  0.00     0.050 C 
ATOM     20  C   UNL A   1      32.235  28.633  26.390  1.00  0.00    -0.028 A 
ATOM     21  N   UNL A   1      31.753  26.375  27.141  1.00  0.00    -0.377 N 
ATOM     22  C   UNL A   1      30.981  24.933  23.584  1.00  0.00    -0.023 C 
ATOM     23  C   UNL A   1      30.474  24.730  25.877  1.00  0.00     0.031 C 
ATOM     24  C   UNL A   1      33.020  28.993  27.626  1.00  0.00     0.046 C 
ATOM     25  H   UNL A   1      31.872  26.608  28.090  1.00  0.00     0.161 HD
ATOM     26  C   UNL A   1      31.001  23.622  23.856  1.00  0.00    -0.030 C 
ATOM     27  C   UNL A   1      30.422  23.346  25.205  1.00  0.00     0.034 C 
BRANCH  14  28
ATOM     28  C   UNL A   1      30.142  27.913  22.715  1.00  0.00     0.338 C 
ATOM     29  O   UNL A   1      30.653  27.647  21.643  1.00  0.00    -0.246 OA
BRANCH  28  30
ATOM     30  O   UNL A   1      28.820  28.116  22.948  1.00  0.00    -0.465 OA
ATOM     31  C   UNL A   1      28.323  29.329  22.383  1.00  0.00     0.282 C 
ENDBRANCH  28  30
ENDBRANCH  14  28
ENDBRANCH   8  13
ENDBRANCH   4   7
ENDBRANCH   2   3
ENDBRANCH   1   2
BRANCH   1  32
ATOM     32  C   UNL A   1      39.655  20.596  25.754  1.00  0.00     0.023 C 
BRANCH  32  33
ATOM     33  C   UNL A   1      40.402  19.766  26.787  1.00  0.00     0.116 C 
BRANCH  33  34
ATOM     34  N   UNL A   1      41.383  18.872  26.188  1.00  0.00    -0.352 N 
ATOM     35  C   UNL A   1      42.640  19.197  25.750  1.00  0.00     0.251 C 
ATOM     36  H   UNL A   1      41.112  17.930  26.085  1.00  0.00     0.163 HD
ATOM     37  O   UNL A   1      43.346  18.393  25.156  1.00  0.00    -0.269 OA
BRANCH  35  38
ATOM     38  C   UNL A   1      43.105  20.566  26.009  1.00  0.00     0.039 A 
ATOM     39  C   UNL A   1      43.376  21.404  24.928  1.00  0.00     0.014 A 
ATOM     40  C   UNL A   1      43.156  21.030  27.326  1.00  0.00     0.014 A 
ATOM     41  C   UNL A   1      43.683  22.740  25.171  1.00  0.00     0.010 A 
ATOM     42  C   UNL A   1      43.397  22.374  27.561  1.00  0.00     0.010 A 
ATOM     43  C   UNL A   1      43.688  23.229  26.486  1.00  0.00    -0.014 A 
BRANCH  43  44
ATOM     44  C   UNL A   1      44.119  24.611  26.781  1.00  0.00     0.031 A 
ATOM     45  C   UNL A   1      43.087  25.590  27.259  1.00  0.00     0.074 A 
ATOM     46  C   UNL A   1      45.394  24.986  26.590  1.00  0.00     0.049 A 
ATOM     47  N   UNL A   1      43.208  26.867  27.505  1.00  0.00    -0.248 NA
ATOM     48  C   UNL A   1      41.727  25.062  27.468  1.00  0.00     0.031 C 
ATOM     49  C   UNL A   1      46.473  24.117  26.123  1.00  0.00     0.029 A 
ATOM     50  N   UNL A   1      45.995  26.207  26.762  1.00  0.00    -0.354 N 
ATOM     51  C   UNL A   1      41.945  27.291  27.895  1.00  0.00     0.074 A 
ATOM     52  C   UNL A   1      41.057  26.156  27.788  1.00  0.00     0.031 C 
ATOM     53  C   UNL A   1      47.611  24.830  26.061  1.00  0.00     0.029 A 
ATOM     54  C   UNL A   1      47.331  26.210  26.449  1.00  0.00     0.049 A 
ATOM     55  H   UNL A   1      45.514  27.005  27.079  1.00  0.00     0.167 HD
ATOM     56  C   UNL A   1      41.570  28.512  28.338  1.00  0.00     0.037 A 
ATOM     57  C   UNL A   1      48.221  27.222  26.469  1.00  0.00     0.037 A 
ATOM     58  C   UNL A   1      42.464  29.631  28.454  1.00  0.00     0.049 A 
ATOM     59  C   UNL A   1      47.760  28.590  26.905  1.00  0.00     0.074 A 
ATOM     60  C   UNL A   1      42.192  30.905  28.917  1.00  0.00     0.029 A 
ATOM     61  N   UNL A   1      43.806  29.607  28.103  1.00  0.00    -0.354 N 
ATOM     62  N   UNL A   1      46.576  28.975  27.315  1.00  0.00    -0.248 NA
ATOM     63  C   UNL A   1      48.764  29.663  26.880  1.00  0.00     0.031 C 
ATOM     64  C   UNL A   1      43.357  31.667  28.797  1.00  0.00     0.029 A 
ATOM     65  C   UNL A   1      44.369  30.854  28.312  1.00  0.00     0.049 A 
ATOM     66  H   UNL A   1      44.286  28.819  27.757  1.00  0.00     0.167 HD
ATOM     67  C   UNL A   1      46.695  30.325  27.617  1.00  0.00     0.074 A 
ATOM     68  C   UNL A   1      48.075  30.686  27.367  1.00  0.00     0.031 C 
ATOM     69  C   UNL A   1      45.747  31.191  28.054  1.00  0.00     0.037 A 
BRANCH  56  70
ATOM     70  C   UNL A   1      40.137  28.694  28.737  1.00  0.00     0.064 A 
ATOM     71  C   UNL A   1      39.712  28.484  30.059  1.00  0.00     0.173 A 
ATOM     72  C   UNL A   1      39.184  29.123  27.802  1.00  0.00     0.173 A 
ATOM     73  F   UNL A   1      40.581  28.053  30.986  1.00  0.00    -0.203 F 
ATOM     74  C   UNL A   1      38.384  28.682  30.424  1.00  0.00     0.198 A 
ATOM     75  C   UNL A   1      37.864  29.351  28.178  1.00  0.00     0.198 A 
ATOM     76  F   UNL A   1      39.537  29.334  26.525  1.00  0.00    -0.203 F 
ATOM     77  F   UNL A   1      37.994  28.433  31.682  1.00  0.00    -0.200 F 
ATOM     78  C   UNL A   1      37.464  29.125  29.487  1.00  0.00     0.200 A 
ATOM     79  F   UNL A   1      36.977  29.790  27.274  1.00  0.00    -0.200 F 
ATOM     80  F   UNL A   1      36.189  29.332  29.846  1.00  0.00    -0.200 F 
ENDBRANCH  56  70
BRANCH  57  81
ATOM     81  C   UNL A   1      49.636  26.975  26.091  1.00  0.00     0.064 A 
ATOM     82  C   UNL A   1      50.054  27.102  24.759  1.00  0.00     0.173 A 
ATOM     83  C   UNL A   1      50.598  26.607  27.042  1.00  0.00     0.173 A 
ATOM     84  F   UNL A   1      49.166  27.429  23.807  1.00  0.00    -0.203 F 
ATOM     85  C   UNL A   1      51.376  26.858  24.391  1.00  0.00     0.198 A 
ATOM     86  C   UNL A   1      51.926  26.391  26.678  1.00  0.00     0.198 A 
ATOM     87  F   UNL A   1      50.252  26.471  28.331  1.00  0.00    -0.203 F 
ATOM     88  F   UNL A   1      51.738  26.946  23.104  1.00  0.00    -0.200 F 
ATOM     89  C   UNL A   1      52.313  26.510  25.352  1.00  0.00     0.200 A 
ATOM     90  F   UNL A   1      52.831  26.067  27.612  1.00  0.00    -0.200 F 
ATOM     91  F   UNL A   1      53.584  26.283  24.999  1.00  0.00    -0.200 F 
ENDBRANCH  57  81
BRANCH  69  92
ATOM     92  C   UNL A   1      46.166  32.614  28.295  1.00  0.00     0.064 A 
ATOM     93  C   UNL A   1      46.039  33.592  27.298  1.00  0.00     0.173 A 
ATOM     94  C   UNL A   1      46.639  33.016  29.554  1.00  0.00     0.173 A 
ATOM     95  F   UNL A   1      45.602  33.257  26.074  1.00  0.00    -0.203 F 
ATOM     96  C   UNL A   1      46.391  34.916  27.546  1.00  0.00     0.198 A 
ATOM     97  C   UNL A   1      46.957  34.347  29.808  1.00  0.00     0.198 A 
ATOM     98  F   UNL A   1      46.769  32.122  30.545  1.00  0.00    -0.203 F 
ATOM     99  F   UNL A   1      46.305  35.825  26.565  1.00  0.00    -0.200 F 
ATOM    100  C   UNL A   1      46.840  35.294  28.802  1.00  0.00     0.200 A 
ATOM    101  F   UNL A   1      47.369  34.714  31.029  1.00  0.00    -0.200 F 
ATOM    102  F   UNL A   1      47.163  36.572  29.043  1.00  0.00    -0.200 F 
ENDBRANCH  69  92
ENDBRANCH  43  44
ENDBRANCH  35  38
ENDBRANCH  33  34
ENDBRANCH  32  33
ENDBRANCH   1  32
TORSDOF 14
ENDMDL
MODEL 2
REMARK VINA RESULT:     -13.2      5.689     11.285
REMARK SMILES COC(=O)c1ccc(C)c2c1[C@H]1C=CC[C@H]1[C@@H](c1ccc(C(=O)NCCCCNC(=O)c3ccc(-c4c5nc(c(-c6c(F)c(F)c(F)c(F)c6F)c6ccc([nH]6)c(-c6c(F)c(F)c(F)c(F)c6F)c6nc(c(-c7c(F)c(F)c(F)c(F)c7F)c7ccc4[nH]7)C=C6)C=C5)cc3)cc1)N2
REMARK SMILES IDX 26 1 25 2 24 3 22 4 23 5 21 7 18 8 19 9 96 10 20 11 95 12
REMARK SMILES IDX 17 13 5 14 6 15 11 16 7 17 10 18 12 19 8 20 97 21 13 22
REMARK SMILES IDX 16 23 9 24 14 26 15 27 3 28 4 29 2 30 1 31 27 32 28 33 29 34
REMARK SMILES IDX 30 35 31 37 32 38 33 39 94 40 34 41 93 42 35 43 36 44 37 45
REMARK SMILES IDX 87 46 38 47 92 48 86 49 88 50 39 51 91 52 85 53 84 54 40 56
REMARK SMILES IDX 72 57 52 58 71 59 53 60 56 61 70 62 89 63 54 64 55 65 69 67
REMARK SMILES IDX 90 68 57 69 41 70 42 71 50 72 43 73 44 74 48 75 51 76 45 77
REMARK SMILES IDX 46 78 49 79 47 80 73 81 74 82 82 83 75 84 76 85 80 86 83 87
REMARK SMILES IDX 77 88 78 89 81 90 79 91 58 92 59 93 67 94 60 95 61 96 65 97
REMARK SMILES IDX 68 98 62 99 63 100 66 101 64 102
REMARK H PARENT 24 6 97 25 29 36 88 55 56 66
REMARK Flexibility Score: inf
ROOT
ATOM      1  C   UNL A   1      31.977  31.274  26.144  1.00  0.00     0.023 C 
ENDROOT
BRANCH   1   2
ATOM      2  C   UNL A   1      32.840  30.387  27.044  1.00  0.00     0.116 C 
BRANCH   2   3
ATOM      3  N   UNL A   1      32.022  29.363  27.649  1.00  0.00    -0.352 N 
ATOM      4  C   UNL A   1      31.779  28.067  27.287  1.00  0.00     0.251 C 
ATOM      5  O   UNL A   1      30.993  27.433  27.993  1.00  0.00    -0.269 OA
ATOM      6  H   UNL A   1      31.556  29.649  28.467  1.00  0.00     0.163 HD
BRANCH   4   7
ATOM      7  C   UNL A   1      32.431  27.393  26.127  1.00  0.00     0.039 A 
ATOM      8  C   UNL A   1      33.654  25.872  24.055  1.00  0.00    -0.025 A 
ATOM      9  C   UNL A   1      33.700  25.459  25.395  1.00  0.00     0.006 A 
ATOM     10  C   UNL A   1      33.030  27.094  23.783  1.00  0.00     0.006 A 
ATOM     11  C   UNL A   1      33.104  26.205  26.412  1.00  0.00     0.014 A 
ATOM     12  C   UNL A   1      32.390  27.815  24.795  1.00  0.00     0.014 A 
BRANCH   8  13
ATOM     13  C   UNL A   1      34.118  25.008  22.880  1.00  0.00     0.114 C 
ATOM     14  C   UNL A   1      33.670  21.199  24.726  1.00  0.00     0.065 A 
ATOM     15  C   UNL A   1      34.677  20.771  25.596  1.00  0.00     0.016 A 
ATOM     16  C   UNL A   1      33.852  22.344  23.918  1.00  0.00    -0.003 A 
ATOM     17  C   UNL A   1      35.885  21.458  25.652  1.00  0.00     0.006 A 
ATOM     18  C   UNL A   1      35.100  23.020  23.954  1.00  0.00     0.042 A 
ATOM     19  C   UNL A   1      32.726  22.864  23.043  1.00  0.00     0.050 C 
ATOM     20  C   UNL A   1      36.113  22.579  24.837  1.00  0.00    -0.028 A 
ATOM     21  N   UNL A   1      35.268  24.197  23.237  1.00  0.00    -0.377 N 
ATOM     22  C   UNL A   1      31.486  23.339  23.768  1.00  0.00    -0.023 C 
ATOM     23  C   UNL A   1      33.065  24.109  22.198  1.00  0.00     0.031 C 
ATOM     24  C   UNL A   1      37.439  23.278  25.008  1.00  0.00     0.046 C 
ATOM     25  H   UNL A   1      36.171  24.483  22.968  1.00  0.00     0.161 HD
ATOM     26  C   UNL A   1      30.921  24.387  23.155  1.00  0.00    -0.030 C 
ATOM     27  C   UNL A   1      31.706  24.787  21.948  1.00  0.00     0.034 C 
BRANCH  14  28
ATOM     28  C   UNL A   1      32.426  20.394  24.654  1.00  0.00     0.338 C 
ATOM     29  O   UNL A   1      31.490  20.502  25.425  1.00  0.00    -0.246 OA
BRANCH  28  30
ATOM     30  O   UNL A   1      32.527  19.507  23.630  1.00  0.00    -0.465 OA
ATOM     31  C   UNL A   1      32.525  18.145  24.056  1.00  0.00     0.282 C 
ENDBRANCH  28  30
ENDBRANCH  14  28
ENDBRANCH   8  13
ENDBRANCH   4   7
ENDBRANCH   2   3
ENDBRANCH   1   2
BRANCH   1  32
ATOM     32  C   UNL A   1      31.603  32.605  26.795  1.00  0.00     0.023 C 
BRANCH  32  33
ATOM     33  C   UNL A   1      32.728  33.231  27.603  1.00  0.00     0.116 C 
BRANCH  33  34
ATOM     34  N   UNL A   1      32.502  34.643  27.881  1.00  0.00    -0.352 N 
ATOM     35  C   UNL A   1      33.137  35.413  28.820  1.00  0.00     0.251 C 
ATOM     36  H   UNL A   1      31.818  35.094  27.334  1.00  0.00     0.163 HD
ATOM     37  O   UNL A   1      32.793  36.564  29.053  1.00  0.00    -0.269 OA
BRANCH  35  38
ATOM     38  C   UNL A   1      34.245  34.792  29.558  1.00  0.00     0.039 A 
ATOM     39  C   UNL A   1      33.988  34.204  30.796  1.00  0.00     0.014 A 
ATOM     40  C   UNL A   1      35.501  34.703  28.951  1.00  0.00     0.014 A 
ATOM     41  C   UNL A   1      35.005  33.496  31.430  1.00  0.00     0.010 A 
ATOM     42  C   UNL A   1      36.491  33.943  29.554  1.00  0.00     0.010 A 
ATOM     43  C   UNL A   1      36.256  33.358  30.808  1.00  0.00    -0.014 A 
BRANCH  43  44
ATOM     44  C   UNL A   1      37.384  32.710  31.506  1.00  0.00     0.031 A 
ATOM     45  C   UNL A   1      38.051  31.540  30.844  1.00  0.00     0.074 A 
ATOM     46  C   UNL A   1      37.776  33.136  32.718  1.00  0.00     0.049 A 
ATOM     47  N   UNL A   1      39.003  30.766  31.293  1.00  0.00    -0.248 NA
ATOM     48  C   UNL A   1      37.565  31.180  29.500  1.00  0.00     0.031 C 
ATOM     49  C   UNL A   1      37.192  34.258  33.452  1.00  0.00     0.029 A 
ATOM     50  N   UNL A   1      38.760  32.665  33.549  1.00  0.00    -0.354 N 
ATOM     51  C   UNL A   1      39.226  29.833  30.291  1.00  0.00     0.074 A 
ATOM     52  C   UNL A   1      38.268  30.090  29.240  1.00  0.00     0.031 C 
ATOM     53  C   UNL A   1      37.841  34.399  34.620  1.00  0.00     0.029 A 
ATOM     54  C   UNL A   1      38.859  33.357  34.730  1.00  0.00     0.049 A 
ATOM     55  H   UNL A   1      39.340  31.903  33.321  1.00  0.00     0.167 HD
ATOM     56  C   UNL A   1      40.172  28.868  30.238  1.00  0.00     0.037 A 
ATOM     57  C   UNL A   1      39.680  33.160  35.780  1.00  0.00     0.037 A 
ATOM     58  C   UNL A   1      41.129  28.628  31.281  1.00  0.00     0.049 A 
ATOM     59  C   UNL A   1      40.682  32.036  35.722  1.00  0.00     0.074 A 
ATOM     60  C   UNL A   1      42.148  27.694  31.316  1.00  0.00     0.029 A 
ATOM     61  N   UNL A   1      41.185  29.331  32.476  1.00  0.00    -0.354 N 
ATOM     62  N   UNL A   1      40.919  31.184  34.753  1.00  0.00    -0.248 NA
ATOM     63  C   UNL A   1      41.532  31.848  36.906  1.00  0.00     0.031 C 
ATOM     64  C   UNL A   1      42.787  27.796  32.555  1.00  0.00     0.029 A 
ATOM     65  C   UNL A   1      42.204  28.831  33.269  1.00  0.00     0.049 A 
ATOM     66  H   UNL A   1      40.589  30.075  32.723  1.00  0.00     0.167 HD
ATOM     67  C   UNL A   1      41.955  30.374  35.199  1.00  0.00     0.074 A 
ATOM     68  C   UNL A   1      42.319  30.854  36.517  1.00  0.00     0.031 C 
ATOM     69  C   UNL A   1      42.547  29.324  34.580  1.00  0.00     0.037 A 
BRANCH  56  70
ATOM     70  C   UNL A   1      40.220  28.012  29.008  1.00  0.00     0.064 A 
ATOM     71  C   UNL A   1      40.979  28.383  27.887  1.00  0.00     0.173 A 
ATOM     72  C   UNL A   1      39.537  26.787  28.963  1.00  0.00     0.173 A 
ATOM     73  F   UNL A   1      41.633  29.554  27.872  1.00  0.00    -0.203 F 
ATOM     74  C   UNL A   1      41.038  27.567  26.761  1.00  0.00     0.198 A 
ATOM     75  C   UNL A   1      39.625  25.960  27.849  1.00  0.00     0.198 A 
ATOM     76  F   UNL A   1      38.795  26.389  30.007  1.00  0.00    -0.203 F 
ATOM     77  F   UNL A   1      41.734  27.963  25.685  1.00  0.00    -0.200 F 
ATOM     78  C   UNL A   1      40.371  26.352  26.746  1.00  0.00     0.200 A 
ATOM     79  F   UNL A   1      38.989  24.780  27.840  1.00  0.00    -0.200 F 
ATOM     80  F   UNL A   1      40.443  25.560  25.667  1.00  0.00    -0.200 F 
ENDBRANCH  56  70
BRANCH  57  81
ATOM     81  C   UNL A   1      39.606  34.061  36.961  1.00  0.00     0.064 A 
ATOM     82  C   UNL A   1      38.826  33.719  38.073  1.00  0.00     0.173 A 
ATOM     83  C   UNL A   1      40.306  35.275  37.004  1.00  0.00     0.173 A 
ATOM     84  F   UNL A   1      38.119  32.579  38.071  1.00  0.00    -0.203 F 
ATOM     85  C   UNL A   1      38.737  34.563  39.179  1.00  0.00     0.198 A 
ATOM     86  C   UNL A   1      40.240  36.104  38.122  1.00  0.00     0.198 A 
ATOM     87  F   UNL A   1      41.067  35.650  35.965  1.00  0.00    -0.203 F 
ATOM     88  F   UNL A   1      37.951  34.231  40.212  1.00  0.00    -0.200 F 
ATOM     89  C   UNL A   1      39.451  35.752  39.205  1.00  0.00     0.200 A 
ATOM     90  F   UNL A   1      40.941  37.246  38.148  1.00  0.00    -0.200 F 
ATOM     91  F   UNL A   1      39.372  36.559  40.271  1.00  0.00    -0.200 F 
ENDBRANCH  57  81
BRANCH  69  92
ATOM     92  C   UNL A   1      43.655  28.621  35.313  1.00  0.00     0.064 A 
ATOM     93  C   UNL A   1      44.997  28.990  35.137  1.00  0.00     0.173 A 
ATOM     94  C   UNL A   1      43.368  27.614  36.247  1.00  0.00     0.173 A 
ATOM     95  F   UNL A   1      45.325  29.939  34.247  1.00  0.00    -0.203 F 
ATOM     96  C   UNL A   1      46.012  28.360  35.851  1.00  0.00     0.198 A 
ATOM     97  C   UNL A   1      44.382  27.012  36.986  1.00  0.00     0.198 A 
ATOM     98  F   UNL A   1      42.100  27.232  36.462  1.00  0.00    -0.203 F 
ATOM     99  F   UNL A   1      47.290  28.697  35.633  1.00  0.00    -0.200 F 
ATOM    100  C   UNL A   1      45.703  27.380  36.783  1.00  0.00     0.200 A 
ATOM    101  F   UNL A   1      44.080  26.080  37.901  1.00  0.00    -0.200 F 
ATOM    102  F   UNL A   1      46.680  26.786  37.482  1.00  0.00    -0.200 F 
ENDBRANCH  69  92
ENDBRANCH  43  44
ENDBRANCH  35  38
ENDBRANCH  33  34
ENDBRANCH  32  33
ENDBRANCH   1  32
TORSDOF 14
ENDMDL
MODEL 3
REMARK VINA RESULT:     -13.1      0.691      7.032
REMARK SMILES COC(=O)c1ccc(C)c2c1[C@H]1C=CC[C@H]1[C@@H](c1ccc(C(=O)NCCCCNC(=O)c3ccc(-c4c5nc(c(-c6c(F)c(F)c(F)c(F)c6F)c6ccc([nH]6)c(-c6c(F)c(F)c(F)c(F)c6F)c6nc(c(-c7c(F)c(F)c(F)c(F)c7F)c7ccc4[nH]7)C=C6)C=C5)cc3)cc1)N2
REMARK SMILES IDX 26 1 25 2 24 3 22 4 23 5 21 7 18 8 19 9 96 10 20 11 95 12
REMARK SMILES IDX 17 13 5 14 6 15 11 16 7 17 10 18 12 19 8 20 97 21 13 22
REMARK SMILES IDX 16 23 9 24 14 26 15 27 3 28 4 29 2 30 1 31 27 32 28 33 29 34
REMARK SMILES IDX 30 35 31 37 32 38 33 39 94 40 34 41 93 42 35 43 36 44 37 45
REMARK SMILES IDX 87 46 38 47 92 48 86 49 88 50 39 51 91 52 85 53 84 54 40 56
REMARK SMILES IDX 72 57 52 58 71 59 53 60 56 61 70 62 89 63 54 64 55 65 69 67
REMARK SMILES IDX 90 68 57 69 41 70 42 71 50 72 43 73 44 74 48 75 51 76 45 77
REMARK SMILES IDX 46 78 49 79 47 80 73 81 74 82 82 83 75 84 76 85 80 86 83 87
REMARK SMILES IDX 77 88 78 89 81 90 79 91 58 92 59 93 67 94 60 95 61 96 65 97
REMARK SMILES IDX 68 98 62 99 63 100 66 101 64 102
REMARK H PARENT 24 6 97 25 29 36 88 55 56 66
REMARK Flexibility Score: inf
ROOT
ATOM      1  C   UNL A   1      39.608  21.993  26.120  1.00  0.00     0.023 C 
ENDROOT
BRANCH   1   2
ATOM      2  C   UNL A   1      38.192  22.569  26.052  1.00  0.00     0.116 C 
BRANCH   2   3
ATOM      3  N   UNL A   1      37.778  22.686  24.675  1.00  0.00    -0.352 N 
ATOM      4  C   UNL A   1      36.583  23.045  24.115  1.00  0.00     0.251 C 
ATOM      5  O   UNL A   1      36.517  23.019  22.885  1.00  0.00    -0.269 OA
ATOM      6  H   UNL A   1      38.481  22.467  24.022  1.00  0.00     0.163 HD
BRANCH   4   7
ATOM      7  C   UNL A   1      35.398  23.489  24.905  1.00  0.00     0.039 A 
ATOM      8  C   UNL A   1      33.102  24.535  26.223  1.00  0.00    -0.025 A 
ATOM      9  C   UNL A   1      33.906  25.338  25.401  1.00  0.00     0.006 A 
ATOM     10  C   UNL A   1      33.505  23.209  26.416  1.00  0.00     0.006 A 
ATOM     11  C   UNL A   1      35.034  24.828  24.756  1.00  0.00     0.014 A 
ATOM     12  C   UNL A   1      34.606  22.687  25.731  1.00  0.00     0.014 A 
BRANCH   8  13
ATOM     13  C   UNL A   1      31.756  24.982  26.797  1.00  0.00     0.114 C 
ATOM     14  C   UNL A   1      30.909  28.075  23.999  1.00  0.00     0.065 A 
ATOM     15  C   UNL A   1      31.536  29.312  24.181  1.00  0.00     0.016 A 
ATOM     16  C   UNL A   1      30.973  27.080  24.999  1.00  0.00    -0.003 A 
ATOM     17  C   UNL A   1      32.207  29.582  25.368  1.00  0.00     0.006 A 
ATOM     18  C   UNL A   1      31.629  27.375  26.223  1.00  0.00     0.042 A 
ATOM     19  C   UNL A   1      30.374  25.704  24.766  1.00  0.00     0.050 C 
ATOM     20  C   UNL A   1      32.260  28.629  26.398  1.00  0.00    -0.028 A 
ATOM     21  N   UNL A   1      31.780  26.382  27.182  1.00  0.00    -0.377 N 
ATOM     22  C   UNL A   1      30.992  24.891  23.649  1.00  0.00    -0.023 C 
ATOM     23  C   UNL A   1      30.495  24.720  25.946  1.00  0.00     0.031 C 
ATOM     24  C   UNL A   1      33.050  29.006  27.626  1.00  0.00     0.046 C 
ATOM     25  H   UNL A   1      31.903  26.628  28.127  1.00  0.00     0.161 HD
ATOM     26  C   UNL A   1      31.013  23.584  23.939  1.00  0.00    -0.030 C 
ATOM     27  C   UNL A   1      30.439  23.327  25.294  1.00  0.00     0.034 C 
BRANCH  14  28
ATOM     28  C   UNL A   1      30.150  27.860  22.743  1.00  0.00     0.338 C 
ATOM     29  O   UNL A   1      30.653  27.548  21.679  1.00  0.00    -0.246 OA
BRANCH  28  30
ATOM     30  O   UNL A   1      28.834  28.104  22.970  1.00  0.00    -0.465 OA
ATOM     31  C   UNL A   1      28.371  29.317  22.376  1.00  0.00     0.282 C 
ENDBRANCH  28  30
ENDBRANCH  14  28
ENDBRANCH   8  13
ENDBRANCH   4   7
ENDBRANCH   2   3
ENDBRANCH   1   2
BRANCH   1  32
ATOM     32  C   UNL A   1      39.670  20.511  25.751  1.00  0.00     0.023 C 
BRANCH  32  33
ATOM     33  C   UNL A   1      40.403  19.654  26.772  1.00  0.00     0.116 C 
BRANCH  33  34
ATOM     34  N   UNL A   1      41.495  18.890  26.184  1.00  0.00    -0.352 N 
ATOM     35  C   UNL A   1      42.711  19.367  25.771  1.00  0.00     0.251 C 
ATOM     36  H   UNL A   1      41.342  17.923  26.070  1.00  0.00     0.163 HD
ATOM     37  O   UNL A   1      43.519  18.660  25.184  1.00  0.00    -0.269 OA
BRANCH  35  38
ATOM     38  C   UNL A   1      43.004  20.780  26.047  1.00  0.00     0.039 A 
ATOM     39  C   UNL A   1      43.106  21.671  24.980  1.00  0.00     0.014 A 
ATOM     40  C   UNL A   1      43.060  21.217  27.374  1.00  0.00     0.014 A 
ATOM     41  C   UNL A   1      43.245  23.030  25.247  1.00  0.00     0.010 A 
ATOM     42  C   UNL A   1      43.133  22.575  27.637  1.00  0.00     0.010 A 
ATOM     43  C   UNL A   1      43.253  23.486  26.575  1.00  0.00    -0.014 A 
BRANCH  43  44
ATOM     44  C   UNL A   1      43.511  24.905  26.889  1.00  0.00     0.031 A 
ATOM     45  C   UNL A   1      44.882  25.455  26.619  1.00  0.00     0.074 A 
ATOM     46  C   UNL A   1      42.553  25.671  27.436  1.00  0.00     0.049 A 
ATOM     47  N   UNL A   1      45.366  26.639  26.882  1.00  0.00    -0.248 NA
ATOM     48  C   UNL A   1      45.844  24.537  25.984  1.00  0.00     0.031 C 
ATOM     49  C   UNL A   1      41.192  25.235  27.746  1.00  0.00     0.029 A 
ATOM     50  N   UNL A   1      42.586  26.983  27.836  1.00  0.00    -0.354 N 
ATOM     51  C   UNL A   1      46.683  26.606  26.447  1.00  0.00     0.074 A 
ATOM     52  C   UNL A   1      46.946  25.269  25.967  1.00  0.00     0.031 C 
ATOM     53  C   UNL A   1      40.513  26.268  28.273  1.00  0.00     0.029 A 
ATOM     54  C   UNL A   1      41.401  27.423  28.370  1.00  0.00     0.049 A 
ATOM     55  H   UNL A   1      43.383  27.554  27.748  1.00  0.00     0.167 HD
ATOM     56  C   UNL A   1      47.583  27.615  26.419  1.00  0.00     0.037 A 
ATOM     57  C   UNL A   1      41.080  28.627  28.885  1.00  0.00     0.037 A 
ATOM     58  C   UNL A   1      47.308  28.945  26.886  1.00  0.00     0.049 A 
ATOM     59  C   UNL A   1      42.124  29.715  28.901  1.00  0.00     0.074 A 
ATOM     60  C   UNL A   1      48.140  30.049  26.878  1.00  0.00     0.029 A 
ATOM     61  N   UNL A   1      46.105  29.351  27.446  1.00  0.00    -0.354 N 
ATOM     62  N   UNL A   1      43.354  29.692  28.448  1.00  0.00    -0.248 NA
ATOM     63  C   UNL A   1      41.730  30.998  29.500  1.00  0.00     0.031 C 
ATOM     64  C   UNL A   1      47.460  31.110  27.481  1.00  0.00     0.029 A 
ATOM     65  C   UNL A   1      46.184  30.683  27.814  1.00  0.00     0.049 A 
ATOM     66  H   UNL A   1      45.314  28.777  27.564  1.00  0.00     0.167 HD
ATOM     67  C   UNL A   1      43.874  30.957  28.687  1.00  0.00     0.074 A 
ATOM     68  C   UNL A   1      42.816  31.732  29.302  1.00  0.00     0.031 C 
ATOM     69  C   UNL A   1      45.117  31.434  28.428  1.00  0.00     0.037 A 
BRANCH  56  70
ATOM     70  C   UNL A   1      48.940  27.318  25.855  1.00  0.00     0.064 A 
ATOM     71  C   UNL A   1      49.999  26.903  26.677  1.00  0.00     0.173 A 
ATOM     72  C   UNL A   1      49.175  27.408  24.476  1.00  0.00     0.173 A 
ATOM     73  F   UNL A   1      49.831  26.822  28.006  1.00  0.00    -0.203 F 
ATOM     74  C   UNL A   1      51.248  26.604  26.140  1.00  0.00     0.198 A 
ATOM     75  C   UNL A   1      50.415  27.078  23.939  1.00  0.00     0.198 A 
ATOM     76  F   UNL A   1      48.197  27.804  23.647  1.00  0.00    -0.203 F 
ATOM     77  F   UNL A   1      52.257  26.253  26.950  1.00  0.00    -0.200 F 
ATOM     78  C   UNL A   1      51.452  26.681  24.771  1.00  0.00     0.200 A 
ATOM     79  F   UNL A   1      50.608  27.141  22.614  1.00  0.00    -0.200 F 
ATOM     80  F   UNL A   1      52.651  26.377  24.254  1.00  0.00    -0.200 F 
ENDBRANCH  56  70
BRANCH  57  81
ATOM     81  C   UNL A   1      39.709  28.872  29.403  1.00  0.00     0.064 A 
ATOM     82  C   UNL A   1      39.383  28.578  30.734  1.00  0.00     0.173 A 
ATOM     83  C   UNL A   1      38.699  29.400  28.587  1.00  0.00     0.173 A 
ATOM     84  F   UNL A   1      40.308  28.050  31.549  1.00  0.00    -0.203 F 
ATOM     85  C   UNL A   1      38.096  28.790  31.225  1.00  0.00     0.198 A 
ATOM     86  C   UNL A   1      37.420  29.639  29.086  1.00  0.00     0.198 A 
ATOM     87  F   UNL A   1      38.958  29.699  27.304  1.00  0.00    -0.203 F 
ATOM     88  F   UNL A   1      37.801  28.462  32.490  1.00  0.00    -0.200 F 
ATOM     89  C   UNL A   1      37.117  29.328  30.403  1.00  0.00     0.200 A 
ATOM     90  F   UNL A   1      36.481  30.171  28.292  1.00  0.00    -0.200 F 
ATOM     91  F   UNL A   1      35.883  29.539  30.877  1.00  0.00    -0.200 F 
ENDBRANCH  57  81
BRANCH  69  92
ATOM     92  C   UNL A   1      45.404  32.861  28.804  1.00  0.00     0.064 A 
ATOM     93  C   UNL A   1      45.117  33.918  27.928  1.00  0.00     0.173 A 
ATOM     94  C   UNL A   1      45.910  33.178  30.073  1.00  0.00     0.173 A 
ATOM     95  F   UNL A   1      44.642  33.668  26.698  1.00  0.00    -0.203 F 
ATOM     96  C   UNL A   1      45.348  35.239  28.301  1.00  0.00     0.198 A 
ATOM     97  C   UNL A   1      46.106  34.501  30.456  1.00  0.00     0.198 A 
ATOM     98  F   UNL A   1      46.190  32.204  30.953  1.00  0.00    -0.203 F 
ATOM     99  F   UNL A   1      45.110  36.231  27.432  1.00  0.00    -0.200 F 
ATOM    100  C   UNL A   1      45.832  35.530  29.568  1.00  0.00     0.200 A 
ATOM    101  F   UNL A   1      46.554  34.782  31.688  1.00  0.00    -0.200 F 
ATOM    102  F   UNL A   1      46.039  36.803  29.932  1.00  0.00    -0.200 F 
ENDBRANCH  69  92
ENDBRANCH  43  44
ENDBRANCH  35  38
ENDBRANCH  33  34
ENDBRANCH  32  33
ENDBRANCH   1  32
TORSDOF 14
ENDMDL
