MODEL 1
REMARK VINA RESULT:     -12.5      0.000      0.000
REMARK SMILES COc1ccc(/C=C2/SC(=S)N(NC(=O)c3ccc(C(C)(C)C)cc3)C2=O)c(C(=O)NCCCCNC(=O)c2ccc(-c3c4nc(c(-c5c(F)c(F)c(F)c(F)c5F)c5ccc([nH]5)c(-c5c(F)c(F)c(F)c(F)c5F)c5nc(c(-c6c(F)c(F)c(F)c(F)c6F)c6ccc3[nH]6)C=C5)C=C4)cc2)c1OC
REMARK SMILES IDX 32 1 31 2 29 3 30 4 28 6 3 7 4 8 102 9 5 10 6 11 2 12 1 13
REMARK SMILES IDX 103 14 104 15 7 16 8 17 9 18 26 19 10 20 12 21 27 22 11 23
REMARK SMILES IDX 13 24 14 25 15 27 16 28 17 29 25 30 18 31 24 32 19 33 20 34
REMARK SMILES IDX 21 35 22 36 23 37 33 38 34 39 35 40 36 41 37 42 38 44 39 45
REMARK SMILES IDX 40 46 101 47 41 48 100 49 42 50 43 51 44 52 94 53 45 54
REMARK SMILES IDX 99 55 93 56 95 57 46 58 98 59 92 60 91 61 47 63 79 64 59 65
REMARK SMILES IDX 78 66 60 67 63 68 77 69 96 70 61 71 62 72 76 74 97 75 64 76
REMARK SMILES IDX 48 77 49 78 57 79 50 80 51 81 55 82 58 83 52 84 53 85 56 86
REMARK SMILES IDX 54 87 80 88 81 89 89 90 82 91 83 92 87 93 90 94 84 95 85 96
REMARK SMILES IDX 88 97 86 98 65 99 66 100 74 101 67 102 68 103 72 104 75 105
REMARK SMILES IDX 69 106 70 107 73 108 71 109
REMARK H PARENT 31 5 13 26 36 43 95 62 63 73
REMARK Flexibility Score: inf
ROOT
ATOM      1  C   UNL A   1      36.364  21.209  24.913  1.00  0.00     0.116 C 
ENDROOT
BRANCH   1   2
ATOM      2  N   UNL A   1      35.603  21.050  26.129  1.00  0.00    -0.352 N 
ATOM      3  C   UNL A   1      34.239  20.830  26.243  1.00  0.00     0.255 C 
ATOM      4  O   UNL A   1      33.745  20.669  27.358  1.00  0.00    -0.269 OA
ATOM      5  H   UNL A   1      36.109  21.103  26.972  1.00  0.00     0.163 HD
BRANCH   3   6
ATOM      6  C   UNL A   1      33.354  20.892  25.041  1.00  0.00     0.092 A 
ATOM      7  C   UNL A   1      32.442  19.878  23.008  1.00  0.00     0.161 A 
ATOM      8  C   UNL A   1      31.708  21.043  22.766  1.00  0.00     0.051 A 
ATOM      9  C   UNL A   1      33.270  19.793  24.146  1.00  0.00     0.174 A 
ATOM     10  C   UNL A   1      31.742  22.096  23.682  1.00  0.00     0.013 A 
ATOM     11  C   UNL A   1      32.532  22.027  24.845  1.00  0.00    -0.007 A 
BRANCH   7  12
ATOM     12  O   UNL A   1      32.110  18.776  22.263  1.00  0.00    -0.493 OA
ATOM     13  C   UNL A   1      32.015  19.016  20.861  1.00  0.00     0.278 C 
ENDBRANCH   7  12
BRANCH   9  14
ATOM     14  O   UNL A   1      33.851  18.613  24.550  1.00  0.00    -0.492 OA
ATOM     15  C   UNL A   1      33.007  17.706  25.248  1.00  0.00     0.278 C 
ENDBRANCH   9  14
BRANCH  11  16
ATOM     16  C   UNL A   1      32.250  23.086  25.840  1.00  0.00     0.030 C 
ATOM     17  C   UNL A   1      32.625  24.371  25.885  1.00  0.00     0.082 C 
ATOM     18  S   UNL A   1      32.029  25.452  27.103  1.00  0.00    -0.052 SA
ATOM     19  C   UNL A   1      33.487  25.119  24.927  1.00  0.00     0.285 C 
ATOM     20  C   UNL A   1      32.690  26.870  26.308  1.00  0.00     0.168 C 
ATOM     21  N   UNL A   1      33.339  26.483  25.151  1.00  0.00    -0.198 N 
ATOM     22  O   UNL A   1      34.208  24.595  24.103  1.00  0.00    -0.266 OA
ATOM     23  S   UNL A   1      32.544  28.415  26.922  1.00  0.00    -0.050 S 
BRANCH  21  24
ATOM     24  N   UNL A   1      34.014  27.440  24.371  1.00  0.00    -0.255 N 
ATOM     25  C   UNL A   1      33.489  28.453  23.593  1.00  0.00     0.270 C 
ATOM     26  H   UNL A   1      34.997  27.381  24.382  1.00  0.00     0.192 HD
ATOM     27  O   UNL A   1      34.259  29.151  22.933  1.00  0.00    -0.267 OA
BRANCH  25  28
ATOM     28  C   UNL A   1      32.032  28.689  23.458  1.00  0.00     0.041 A 
ATOM     29  C   UNL A   1      31.491  29.755  24.180  1.00  0.00     0.014 A 
ATOM     30  C   UNL A   1      31.206  27.956  22.607  1.00  0.00     0.014 A 
ATOM     31  C   UNL A   1      30.180  30.178  23.942  1.00  0.00     0.005 A 
ATOM     32  C   UNL A   1      29.893  28.393  22.363  1.00  0.00     0.005 A 
ATOM     33  C   UNL A   1      29.371  29.547  22.981  1.00  0.00    -0.043 A 
BRANCH  33  34
ATOM     34  C   UNL A   1      28.006  30.155  22.612  1.00  0.00    -0.013 C 
ATOM     35  C   UNL A   1      27.987  30.621  21.147  1.00  0.00     0.016 C 
ATOM     36  C   UNL A   1      26.899  29.095  22.778  1.00  0.00     0.016 C 
ATOM     37  C   UNL A   1      27.602  31.352  23.501  1.00  0.00     0.016 C 
ENDBRANCH  33  34
ENDBRANCH  25  28
ENDBRANCH  21  24
ENDBRANCH  11  16
ENDBRANCH   3   6
ENDBRANCH   1   2
BRANCH   1  38
ATOM     38  C   UNL A   1      37.871  21.376  25.031  1.00  0.00     0.023 C 
BRANCH  38  39
ATOM     39  C   UNL A   1      38.698  20.104  25.078  1.00  0.00     0.023 C 
BRANCH  39  40
ATOM     40  C   UNL A   1      39.714  20.009  26.205  1.00  0.00     0.116 C 
BRANCH  40  41
ATOM     41  N   UNL A   1      40.723  18.971  26.021  1.00  0.00    -0.352 N 
ATOM     42  C   UNL A   1      42.097  19.076  26.065  1.00  0.00     0.251 C 
ATOM     43  H   UNL A   1      40.373  18.069  25.841  1.00  0.00     0.163 HD
ATOM     44  O   UNL A   1      42.805  18.105  25.818  1.00  0.00    -0.269 OA
BRANCH  42  45
ATOM     45  C   UNL A   1      42.714  20.388  26.360  1.00  0.00     0.039 A 
ATOM     46  C   UNL A   1      43.214  21.158  25.308  1.00  0.00     0.014 A 
ATOM     47  C   UNL A   1      42.709  20.893  27.660  1.00  0.00     0.014 A 
ATOM     48  C   UNL A   1      43.606  22.477  25.548  1.00  0.00     0.010 A 
ATOM     49  C   UNL A   1      42.979  22.239  27.871  1.00  0.00     0.010 A 
ATOM     50  C   UNL A   1      43.435  23.048  26.820  1.00  0.00    -0.014 A 
BRANCH  50  51
ATOM     51  C   UNL A   1      43.728  24.482  27.080  1.00  0.00     0.031 A 
ATOM     52  C   UNL A   1      45.115  25.017  26.852  1.00  0.00     0.074 A 
ATOM     53  C   UNL A   1      42.773  25.282  27.594  1.00  0.00     0.049 A 
ATOM     54  N   UNL A   1      45.593  26.213  27.086  1.00  0.00    -0.248 NA
ATOM     55  C   UNL A   1      46.111  24.068  26.326  1.00  0.00     0.031 C 
ATOM     56  C   UNL A   1      41.406  24.872  27.918  1.00  0.00     0.029 A 
ATOM     57  N   UNL A   1      42.809  26.611  27.943  1.00  0.00    -0.354 N 
ATOM     58  C   UNL A   1      46.941  26.151  26.758  1.00  0.00     0.074 A 
ATOM     59  C   UNL A   1      47.222  24.784  26.380  1.00  0.00     0.031 C 
ATOM     60  C   UNL A   1      40.723  25.933  28.379  1.00  0.00     0.029 A 
ATOM     61  C   UNL A   1      41.615  27.087  28.429  1.00  0.00     0.049 A 
ATOM     62  H   UNL A   1      43.615  27.169  27.852  1.00  0.00     0.167 HD
ATOM     63  C   UNL A   1      47.856  27.149  26.742  1.00  0.00     0.037 A 
ATOM     64  C   UNL A   1      41.280  28.315  28.868  1.00  0.00     0.037 A 
ATOM     65  C   UNL A   1      47.564  28.512  27.095  1.00  0.00     0.049 A 
ATOM     66  C   UNL A   1      42.317  29.407  28.853  1.00  0.00     0.074 A 
ATOM     67  C   UNL A   1      48.399  29.614  27.046  1.00  0.00     0.029 A 
ATOM     68  N   UNL A   1      46.340  28.958  27.574  1.00  0.00    -0.354 N 
ATOM     69  N   UNL A   1      43.567  29.357  28.459  1.00  0.00    -0.248 NA
ATOM     70  C   UNL A   1      41.894  30.727  29.339  1.00  0.00     0.031 C 
ATOM     71  C   UNL A   1      47.701  30.713  27.556  1.00  0.00     0.029 A 
ATOM     72  C   UNL A   1      46.409  30.313  27.856  1.00  0.00     0.049 A 
ATOM     73  H   UNL A   1      45.542  28.395  27.696  1.00  0.00     0.167 HD
ATOM     74  C   UNL A   1      44.070  30.642  28.619  1.00  0.00     0.074 A 
ATOM     75  C   UNL A   1      42.985  31.452  29.132  1.00  0.00     0.031 C 
ATOM     76  C   UNL A   1      45.318  31.108  28.362  1.00  0.00     0.037 A 
BRANCH  63  77
ATOM     77  C   UNL A   1      49.259  26.794  26.334  1.00  0.00     0.064 A 
ATOM     78  C   UNL A   1      49.703  26.931  25.009  1.00  0.00     0.173 A 
ATOM     79  C   UNL A   1      50.177  26.320  27.284  1.00  0.00     0.173 A 
ATOM     80  F   UNL A   1      48.865  27.369  24.057  1.00  0.00    -0.203 F 
ATOM     81  C   UNL A   1      50.996  26.563  24.643  1.00  0.00     0.198 A 
ATOM     82  C   UNL A   1      51.481  25.992  26.921  1.00  0.00     0.198 A 
ATOM     83  F   UNL A   1      49.812  26.177  28.567  1.00  0.00    -0.203 F 
ATOM     84  F   UNL A   1      51.372  26.636  23.358  1.00  0.00    -0.200 F 
ATOM     85  C   UNL A   1      51.885  26.101  25.599  1.00  0.00     0.200 A 
ATOM     86  F   UNL A   1      52.345  25.562  27.851  1.00  0.00    -0.200 F 
ATOM     87  F   UNL A   1      53.130  25.752  25.246  1.00  0.00    -0.200 F 
ENDBRANCH  63  77
BRANCH  64  88
ATOM     88  C   UNL A   1      39.890  28.589  29.323  1.00  0.00     0.064 A 
ATOM     89  C   UNL A   1      39.511  28.361  30.654  1.00  0.00     0.173 A 
ATOM     90  C   UNL A   1      38.914  29.083  28.446  1.00  0.00     0.173 A 
ATOM     91  F   UNL A   1      40.402  27.868  31.527  1.00  0.00    -0.203 F 
ATOM     92  C   UNL A   1      38.207  28.597  31.085  1.00  0.00     0.198 A 
ATOM     93  C   UNL A   1      37.618  29.350  28.885  1.00  0.00     0.198 A 
ATOM     94  F   UNL A   1      39.223  29.324  27.162  1.00  0.00    -0.203 F 
ATOM     95  F   UNL A   1      37.863  28.327  32.351  1.00  0.00    -0.200 F 
ATOM     96  C   UNL A   1      37.264  29.099  30.202  1.00  0.00     0.200 A 
ATOM     97  F   UNL A   1      36.713  29.849  28.033  1.00  0.00    -0.200 F 
ATOM     98  F   UNL A   1      36.012  29.334  30.619  1.00  0.00    -0.200 F 
ENDBRANCH  64  88
BRANCH  76  99
ATOM     99  C   UNL A   1      45.569  32.571  28.593  1.00  0.00     0.064 A 
ATOM    100  C   UNL A   1      46.096  33.053  29.800  1.00  0.00     0.173 A 
ATOM    101  C   UNL A   1      45.319  33.501  27.570  1.00  0.00     0.173 A 
ATOM    102  F   UNL A   1      46.341  32.209  30.814  1.00  0.00    -0.203 F 
ATOM    103  C   UNL A   1      46.336  34.412  29.985  1.00  0.00     0.198 A 
ATOM    104  C   UNL A   1      45.595  34.853  27.747  1.00  0.00     0.198 A 
ATOM    105  F   UNL A   1      44.823  33.094  26.392  1.00  0.00    -0.203 F 
ATOM    106  F   UNL A   1      46.789  34.855  31.167  1.00  0.00    -0.200 F 
ATOM    107  C   UNL A   1      46.093  35.310  28.957  1.00  0.00     0.200 A 
ATOM    108  F   UNL A   1      45.378  35.716  26.743  1.00  0.00    -0.200 F 
ATOM    109  F   UNL A   1      46.336  36.615  29.133  1.00  0.00    -0.200 F 
ENDBRANCH  76  99
ENDBRANCH  50  51
ENDBRANCH  42  45
ENDBRANCH  40  41
ENDBRANCH  39  40
ENDBRANCH  38  39
ENDBRANCH   1  38
TORSDOF 17
ENDMDL
MODEL 2
REMARK VINA RESULT:     -12.5      0.426      6.701
REMARK SMILES COc1ccc(/C=C2/SC(=S)N(NC(=O)c3ccc(C(C)(C)C)cc3)C2=O)c(C(=O)NCCCCNC(=O)c2ccc(-c3c4nc(c(-c5c(F)c(F)c(F)c(F)c5F)c5ccc([nH]5)c(-c5c(F)c(F)c(F)c(F)c5F)c5nc(c(-c6c(F)c(F)c(F)c(F)c6F)c6ccc3[nH]6)C=C5)C=C4)cc2)c1OC
REMARK SMILES IDX 32 1 31 2 29 3 30 4 28 6 3 7 4 8 102 9 5 10 6 11 2 12 1 13
REMARK SMILES IDX 103 14 104 15 7 16 8 17 9 18 26 19 10 20 12 21 27 22 11 23
REMARK SMILES IDX 13 24 14 25 15 27 16 28 17 29 25 30 18 31 24 32 19 33 20 34
REMARK SMILES IDX 21 35 22 36 23 37 33 38 34 39 35 40 36 41 37 42 38 44 39 45
REMARK SMILES IDX 40 46 101 47 41 48 100 49 42 50 43 51 44 52 94 53 45 54
REMARK SMILES IDX 99 55 93 56 95 57 46 58 98 59 92 60 91 61 47 63 79 64 59 65
REMARK SMILES IDX 78 66 60 67 63 68 77 69 96 70 61 71 62 72 76 74 97 75 64 76
REMARK SMILES IDX 48 77 49 78 57 79 50 80 51 81 55 82 58 83 52 84 53 85 56 86
REMARK SMILES IDX 54 87 80 88 81 89 89 90 82 91 83 92 87 93 90 94 84 95 85 96
REMARK SMILES IDX 88 97 86 98 65 99 66 100 74 101 67 102 68 103 72 104 75 105
REMARK SMILES IDX 69 106 70 107 73 108 71 109
REMARK H PARENT 31 5 13 26 36 43 95 62 63 73
REMARK Flexibility Score: inf
ROOT
ATOM      1  C   UNL A   1      36.309  22.055  25.057  1.00  0.00     0.116 C 
ENDROOT
BRANCH   1   2
ATOM      2  N   UNL A   1      35.646  21.611  26.260  1.00  0.00    -0.352 N 
ATOM      3  C   UNL A   1      34.356  21.116  26.374  1.00  0.00     0.255 C 
ATOM      4  O   UNL A   1      33.949  20.735  27.470  1.00  0.00    -0.269 OA
ATOM      5  H   UNL A   1      36.168  21.666  27.093  1.00  0.00     0.163 HD
BRANCH   3   6
ATOM      6  C   UNL A   1      33.425  21.141  25.205  1.00  0.00     0.092 A 
ATOM      7  C   UNL A   1      32.453  20.072  23.229  1.00  0.00     0.161 A 
ATOM      8  C   UNL A   1      31.691  21.220  22.993  1.00  0.00     0.051 A 
ATOM      9  C   UNL A   1      33.324  20.022  24.336  1.00  0.00     0.174 A 
ATOM     10  C   UNL A   1      31.743  22.292  23.886  1.00  0.00     0.013 A 
ATOM     11  C   UNL A   1      32.578  22.259  25.019  1.00  0.00    -0.007 A 
BRANCH   7  12
ATOM     12  O   UNL A   1      32.110  18.950  22.519  1.00  0.00    -0.493 OA
ATOM     13  C   UNL A   1      32.101  19.125  21.105  1.00  0.00     0.278 C 
ENDBRANCH   7  12
BRANCH   9  14
ATOM     14  O   UNL A   1      33.940  18.860  24.740  1.00  0.00    -0.492 OA
ATOM     15  C   UNL A   1      33.104  17.893  25.364  1.00  0.00     0.278 C 
ENDBRANCH   9  14
BRANCH  11  16
ATOM     16  C   UNL A   1      32.317  23.332  26.003  1.00  0.00     0.030 C 
ATOM     17  C   UNL A   1      32.694  24.618  26.021  1.00  0.00     0.082 C 
ATOM     18  S   UNL A   1      32.123  25.718  27.234  1.00  0.00    -0.052 SA
ATOM     19  C   UNL A   1      33.538  25.349  25.036  1.00  0.00     0.285 C 
ATOM     20  C   UNL A   1      32.771  27.122  26.405  1.00  0.00     0.168 C 
ATOM     21  N   UNL A   1      33.397  26.717  25.241  1.00  0.00    -0.198 N 
ATOM     22  O   UNL A   1      34.243  24.812  24.206  1.00  0.00    -0.266 OA
ATOM     23  S   UNL A   1      32.639  28.678  26.999  1.00  0.00    -0.050 S 
BRANCH  21  24
ATOM     24  N   UNL A   1      34.058  27.661  24.434  1.00  0.00    -0.255 N 
ATOM     25  C   UNL A   1      33.517  28.628  23.610  1.00  0.00     0.270 C 
ATOM     26  H   UNL A   1      35.041  27.629  24.461  1.00  0.00     0.192 HD
ATOM     27  O   UNL A   1      34.278  29.321  22.934  1.00  0.00    -0.267 OA
BRANCH  25  28
ATOM     28  C   UNL A   1      32.057  28.819  23.446  1.00  0.00     0.041 A 
ATOM     29  C   UNL A   1      31.449  29.790  24.246  1.00  0.00     0.014 A 
ATOM     30  C   UNL A   1      31.290  28.140  22.500  1.00  0.00     0.014 A 
ATOM     31  C   UNL A   1      30.130  30.182  24.001  1.00  0.00     0.005 A 
ATOM     32  C   UNL A   1      29.968  28.548  22.251  1.00  0.00     0.005 A 
ATOM     33  C   UNL A   1      29.379  29.615  22.957  1.00  0.00    -0.043 A 
BRANCH  33  34
ATOM     34  C   UNL A   1      28.002  30.203  22.599  1.00  0.00    -0.013 C 
ATOM     35  C   UNL A   1      27.944  30.611  21.117  1.00  0.00     0.016 C 
ATOM     36  C   UNL A   1      26.905  29.146  22.833  1.00  0.00     0.016 C 
ATOM     37  C   UNL A   1      27.613  31.432  23.450  1.00  0.00     0.016 C 
ENDBRANCH  33  34
ENDBRANCH  25  28
ENDBRANCH  21  24
ENDBRANCH  11  16
ENDBRANCH   3   6
ENDBRANCH   1   2
BRANCH   1  38
ATOM     38  C   UNL A   1      37.826  21.964  25.005  1.00  0.00     0.023 C 
BRANCH  38  39
ATOM     39  C   UNL A   1      38.433  20.577  25.117  1.00  0.00     0.023 C 
BRANCH  39  40
ATOM     40  C   UNL A   1      39.439  20.377  26.239  1.00  0.00     0.116 C 
BRANCH  40  41
ATOM     41  N   UNL A   1      40.346  19.251  26.041  1.00  0.00    -0.352 N 
ATOM     42  C   UNL A   1      41.723  19.221  26.103  1.00  0.00     0.251 C 
ATOM     43  H   UNL A   1      39.913  18.392  25.835  1.00  0.00     0.163 HD
ATOM     44  O   UNL A   1      42.336  18.192  25.842  1.00  0.00    -0.269 OA
BRANCH  42  45
ATOM     45  C   UNL A   1      42.459  20.460  26.437  1.00  0.00     0.039 A 
ATOM     46  C   UNL A   1      43.166  21.124  25.433  1.00  0.00     0.014 A 
ATOM     47  C   UNL A   1      42.370  21.010  27.716  1.00  0.00     0.014 A 
ATOM     48  C   UNL A   1      43.689  22.395  25.685  1.00  0.00     0.010 A 
ATOM     49  C   UNL A   1      42.779  22.321  27.925  1.00  0.00     0.010 A 
ATOM     50  C   UNL A   1      43.447  23.029  26.915  1.00  0.00    -0.014 A 
BRANCH  50  51
ATOM     51  C   UNL A   1      43.883  24.426  27.174  1.00  0.00     0.031 A 
ATOM     52  C   UNL A   1      42.893  25.439  27.681  1.00  0.00     0.074 A 
ATOM     53  C   UNL A   1      45.143  24.805  26.879  1.00  0.00     0.049 A 
ATOM     54  N   UNL A   1      43.054  26.719  27.901  1.00  0.00    -0.248 NA
ATOM     55  C   UNL A   1      41.528  24.955  27.941  1.00  0.00     0.031 C 
ATOM     56  C   UNL A   1      46.183  23.936  26.324  1.00  0.00     0.029 A 
ATOM     57  N   UNL A   1      45.764  26.025  26.998  1.00  0.00    -0.354 N 
ATOM     58  C   UNL A   1      41.810  27.192  28.299  1.00  0.00     0.074 A 
ATOM     59  C   UNL A   1      40.890  26.080  28.221  1.00  0.00     0.031 C 
ATOM     60  C   UNL A   1      47.320  24.637  26.189  1.00  0.00     0.029 A 
ATOM     61  C   UNL A   1      47.080  26.016  26.601  1.00  0.00     0.049 A 
ATOM     62  H   UNL A   1      45.308  26.829  27.336  1.00  0.00     0.167 HD
ATOM     63  C   UNL A   1      41.471  28.432  28.723  1.00  0.00     0.037 A 
ATOM     64  C   UNL A   1      47.988  27.010  26.571  1.00  0.00     0.037 A 
ATOM     65  C   UNL A   1      42.396  29.529  28.822  1.00  0.00     0.049 A 
ATOM     66  C   UNL A   1      47.585  28.385  27.036  1.00  0.00     0.074 A 
ATOM     67  C   UNL A   1      42.173  30.805  29.306  1.00  0.00     0.029 A 
ATOM     68  N   UNL A   1      43.724  29.479  28.420  1.00  0.00    -0.354 N 
ATOM     69  N   UNL A   1      46.428  28.799  27.492  1.00  0.00    -0.248 NA
ATOM     70  C   UNL A   1      48.617  29.429  26.984  1.00  0.00     0.031 C 
ATOM     71  C   UNL A   1      43.346  31.547  29.135  1.00  0.00     0.029 A 
ATOM     72  C   UNL A   1      44.322  30.713  28.613  1.00  0.00     0.049 A 
ATOM     73  H   UNL A   1      44.173  28.685  28.052  1.00  0.00     0.167 HD
ATOM     74  C   UNL A   1      46.600  30.140  27.812  1.00  0.00     0.074 A 
ATOM     75  C   UNL A   1      47.979  30.465  27.511  1.00  0.00     0.031 C 
ATOM     76  C   UNL A   1      45.698  31.021  28.312  1.00  0.00     0.037 A 
BRANCH  63  77
ATOM     77  C   UNL A   1      40.034  28.664  29.104  1.00  0.00     0.064 A 
ATOM     78  C   UNL A   1      39.086  29.128  28.179  1.00  0.00     0.173 A 
ATOM     79  C   UNL A   1      39.598  28.408  30.413  1.00  0.00     0.173 A 
ATOM     80  F   UNL A   1      39.451  29.400  26.916  1.00  0.00    -0.203 F 
ATOM     81  C   UNL A   1      37.769  29.371  28.560  1.00  0.00     0.198 A 
ATOM     82  C   UNL A   1      38.270  28.614  30.780  1.00  0.00     0.198 A 
ATOM     83  F   UNL A   1      40.457  27.956  31.339  1.00  0.00    -0.203 F 
ATOM     84  F   UNL A   1      36.901  29.882  27.674  1.00  0.00    -0.200 F 
ATOM     85  C   UNL A   1      37.360  29.107  29.857  1.00  0.00     0.200 A 
ATOM     86  F   UNL A   1      37.872  28.342  32.030  1.00  0.00    -0.200 F 
ATOM     87  F   UNL A   1      36.092  29.338  30.221  1.00  0.00    -0.200 F 
ENDBRANCH  63  77
BRANCH  64  88
ATOM     88  C   UNL A   1      49.378  26.734  26.120  1.00  0.00     0.064 A 
ATOM     89  C   UNL A   1      50.329  26.205  27.004  1.00  0.00     0.173 A 
ATOM     90  C   UNL A   1      49.788  26.991  24.803  1.00  0.00     0.173 A 
ATOM     91  F   UNL A   1      49.994  25.962  28.280  1.00  0.00    -0.203 F 
ATOM     92  C   UNL A   1      51.639  25.960  26.595  1.00  0.00     0.198 A 
ATOM     93  C   UNL A   1      51.089  26.715  24.386  1.00  0.00     0.198 A 
ATOM     94  F   UNL A   1      48.917  27.494  23.915  1.00  0.00    -0.203 F 
ATOM     95  F   UNL A   1      52.538  25.496  27.474  1.00  0.00    -0.200 F 
ATOM     96  C   UNL A   1      52.016  26.208  25.284  1.00  0.00     0.200 A 
ATOM     97  F   UNL A   1      51.445  26.943  23.115  1.00  0.00    -0.200 F 
ATOM     98  F   UNL A   1      53.273  25.965  24.889  1.00  0.00    -0.200 F 
ENDBRANCH  64  88
BRANCH  76  99
ATOM     99  C   UNL A   1      46.182  32.413  28.605  1.00  0.00     0.064 A 
ATOM    100  C   UNL A   1      46.759  32.754  29.837  1.00  0.00     0.173 A 
ATOM    101  C   UNL A   1      46.109  33.409  27.618  1.00  0.00     0.173 A 
ATOM    102  F   UNL A   1      46.842  31.842  30.819  1.00  0.00    -0.203 F 
ATOM    103  C   UNL A   1      47.216  34.046  30.081  1.00  0.00     0.198 A 
ATOM    104  C   UNL A   1      46.600  34.690  27.854  1.00  0.00     0.198 A 
ATOM    105  F   UNL A   1      45.574  33.135  26.419  1.00  0.00    -0.203 F 
ATOM    106  F   UNL A   1      47.714  34.363  31.285  1.00  0.00    -0.200 F 
ATOM    107  C   UNL A   1      47.144  35.011  29.087  1.00  0.00     0.200 A 
ATOM    108  F   UNL A   1      46.547  35.614  26.884  1.00  0.00    -0.200 F 
ATOM    109  F   UNL A   1      47.595  36.250  29.320  1.00  0.00    -0.200 F 
ENDBRANCH  76  99
ENDBRANCH  50  51
ENDBRANCH  42  45
ENDBRANCH  40  41
ENDBRANCH  39  40
ENDBRANCH  38  39
ENDBRANCH   1  38
TORSDOF 17
ENDMDL
MODEL 3
REMARK VINA RESULT:     -12.3      1.691      7.255
REMARK SMILES COc1ccc(/C=C2/SC(=S)N(NC(=O)c3ccc(C(C)(C)C)cc3)C2=O)c(C(=O)NCCCCNC(=O)c2ccc(-c3c4nc(c(-c5c(F)c(F)c(F)c(F)c5F)c5ccc([nH]5)c(-c5c(F)c(F)c(F)c(F)c5F)c5nc(c(-c6c(F)c(F)c(F)c(F)c6F)c6ccc3[nH]6)C=C5)C=C4)cc2)c1OC
REMARK SMILES IDX 32 1 31 2 29 3 30 4 28 6 3 7 4 8 102 9 5 10 6 11 2 12 1 13
REMARK SMILES IDX 103 14 104 15 7 16 8 17 9 18 26 19 10 20 12 21 27 22 11 23
REMARK SMILES IDX 13 24 14 25 15 27 16 28 17 29 25 30 18 31 24 32 19 33 20 34
REMARK SMILES IDX 21 35 22 36 23 37 33 38 34 39 35 40 36 41 37 42 38 44 39 45
REMARK SMILES IDX 40 46 101 47 41 48 100 49 42 50 43 51 44 52 94 53 45 54
REMARK SMILES IDX 99 55 93 56 95 57 46 58 98 59 92 60 91 61 47 63 79 64 59 65
REMARK SMILES IDX 78 66 60 67 63 68 77 69 96 70 61 71 62 72 76 74 97 75 64 76
REMARK SMILES IDX 48 77 49 78 57 79 50 80 51 81 55 82 58 83 52 84 53 85 56 86
REMARK SMILES IDX 54 87 80 88 81 89 89 90 82 91 83 92 87 93 90 94 84 95 85 96
REMARK SMILES IDX 88 97 86 98 65 99 66 100 74 101 67 102 68 103 72 104 75 105
REMARK SMILES IDX 69 106 70 107 73 108 71 109
REMARK H PARENT 31 5 13 26 36 43 95 62 63 73
REMARK Flexibility Score: inf
ROOT
ATOM      1  C   UNL A   1      36.080  21.613  24.599  1.00  0.00     0.116 C 
ENDROOT
BRANCH   1   2
ATOM      2  N   UNL A   1      35.200  21.564  25.742  1.00  0.00    -0.352 N 
ATOM      3  C   UNL A   1      34.062  20.786  25.892  1.00  0.00     0.255 C 
ATOM      4  O   UNL A   1      33.440  20.825  26.952  1.00  0.00    -0.269 OA
ATOM      5  H   UNL A   1      35.433  22.149  26.499  1.00  0.00     0.163 HD
BRANCH   3   6
ATOM      6  C   UNL A   1      33.528  19.987  24.748  1.00  0.00     0.092 A 
ATOM      7  C   UNL A   1      33.536  17.963  23.371  1.00  0.00     0.161 A 
ATOM      8  C   UNL A   1      32.533  18.514  22.569  1.00  0.00     0.051 A 
ATOM      9  C   UNL A   1      34.041  18.693  24.466  1.00  0.00     0.174 A 
ATOM     10  C   UNL A   1      31.984  19.758  22.888  1.00  0.00     0.013 A 
ATOM     11  C   UNL A   1      32.444  20.497  23.995  1.00  0.00    -0.007 A 
BRANCH   7  12
ATOM     12  O   UNL A   1      33.788  16.625  23.208  1.00  0.00    -0.493 OA
ATOM     13  C   UNL A   1      33.279  15.796  24.249  1.00  0.00     0.278 C 
ENDBRANCH   7  12
BRANCH   9  14
ATOM     14  O   UNL A   1      34.872  18.132  25.409  1.00  0.00    -0.492 OA
ATOM     15  C   UNL A   1      36.215  17.899  25.001  1.00  0.00     0.278 C 
ENDBRANCH   9  14
BRANCH  11  16
ATOM     16  C   UNL A   1      31.588  21.647  24.362  1.00  0.00     0.030 C 
ATOM     17  C   UNL A   1      31.597  22.918  23.940  1.00  0.00     0.082 C 
ATOM     18  S   UNL A   1      30.374  24.048  24.425  1.00  0.00    -0.052 SA
ATOM     19  C   UNL A   1      32.523  23.566  22.969  1.00  0.00     0.285 C 
ATOM     20  C   UNL A   1      30.898  25.261  23.270  1.00  0.00     0.168 C 
ATOM     21  N   UNL A   1      31.978  24.776  22.557  1.00  0.00    -0.198 N 
ATOM     22  O   UNL A   1      33.588  23.097  22.623  1.00  0.00    -0.266 OA
ATOM     23  S   UNL A   1      30.176  26.760  23.126  1.00  0.00    -0.050 S 
BRANCH  21  24
ATOM     24  N   UNL A   1      32.622  25.598  21.614  1.00  0.00    -0.255 N 
ATOM     25  C   UNL A   1      33.274  26.799  21.812  1.00  0.00     0.270 C 
ATOM     26  H   UNL A   1      32.607  25.272  20.685  1.00  0.00     0.192 HD
ATOM     27  O   UNL A   1      33.722  27.397  20.832  1.00  0.00    -0.267 OA
BRANCH  25  28
ATOM     28  C   UNL A   1      33.393  27.439  23.143  1.00  0.00     0.041 A 
ATOM     29  C   UNL A   1      32.980  28.769  23.248  1.00  0.00     0.014 A 
ATOM     30  C   UNL A   1      33.822  26.768  24.288  1.00  0.00     0.014 A 
ATOM     31  C   UNL A   1      32.855  29.374  24.502  1.00  0.00     0.005 A 
ATOM     32  C   UNL A   1      33.682  27.377  25.546  1.00  0.00     0.005 A 
ATOM     33  C   UNL A   1      33.142  28.671  25.685  1.00  0.00    -0.043 A 
BRANCH  33  34
ATOM     34  C   UNL A   1      32.813  29.304  27.049  1.00  0.00    -0.013 C 
ATOM     35  C   UNL A   1      32.240  30.721  26.876  1.00  0.00     0.016 C 
ATOM     36  C   UNL A   1      31.750  28.458  27.777  1.00  0.00     0.016 C 
ATOM     37  C   UNL A   1      34.028  29.392  27.999  1.00  0.00     0.016 C 
ENDBRANCH  33  34
ENDBRANCH  25  28
ENDBRANCH  21  24
ENDBRANCH  11  16
ENDBRANCH   3   6
ENDBRANCH   1   2
BRANCH   1  38
ATOM     38  C   UNL A   1      37.575  21.721  24.854  1.00  0.00     0.023 C 
BRANCH  38  39
ATOM     39  C   UNL A   1      38.340  20.418  25.006  1.00  0.00     0.023 C 
BRANCH  39  40
ATOM     40  C   UNL A   1      39.453  20.413  26.041  1.00  0.00     0.116 C 
BRANCH  40  41
ATOM     41  N   UNL A   1      40.329  19.248  25.978  1.00  0.00    -0.352 N 
ATOM     42  C   UNL A   1      41.698  19.179  26.128  1.00  0.00     0.251 C 
ATOM     43  H   UNL A   1      39.879  18.390  25.804  1.00  0.00     0.163 HD
ATOM     44  O   UNL A   1      42.289  18.115  25.976  1.00  0.00    -0.269 OA
BRANCH  42  45
ATOM     45  C   UNL A   1      42.457  20.414  26.422  1.00  0.00     0.039 A 
ATOM     46  C   UNL A   1      43.084  21.093  25.377  1.00  0.00     0.014 A 
ATOM     47  C   UNL A   1      42.465  20.946  27.712  1.00  0.00     0.014 A 
ATOM     48  C   UNL A   1      43.624  22.362  25.607  1.00  0.00     0.010 A 
ATOM     49  C   UNL A   1      42.888  22.255  27.908  1.00  0.00     0.010 A 
ATOM     50  C   UNL A   1      43.476  22.978  26.860  1.00  0.00    -0.014 A 
BRANCH  50  51
ATOM     51  C   UNL A   1      43.930  24.372  27.104  1.00  0.00     0.031 A 
ATOM     52  C   UNL A   1      42.959  25.396  27.628  1.00  0.00     0.074 A 
ATOM     53  C   UNL A   1      45.187  24.739  26.783  1.00  0.00     0.049 A 
ATOM     54  N   UNL A   1      43.136  26.675  27.839  1.00  0.00    -0.248 NA
ATOM     55  C   UNL A   1      41.595  24.924  27.918  1.00  0.00     0.031 C 
ATOM     56  C   UNL A   1      46.207  23.858  26.210  1.00  0.00     0.029 A 
ATOM     57  N   UNL A   1      45.821  25.954  26.884  1.00  0.00    -0.354 N 
ATOM     58  C   UNL A   1      41.905  27.160  28.262  1.00  0.00     0.074 A 
ATOM     59  C   UNL A   1      40.973  26.056  28.207  1.00  0.00     0.031 C 
ATOM     60  C   UNL A   1      47.347  24.549  26.049  1.00  0.00     0.029 A 
ATOM     61  C   UNL A   1      47.128  25.932  26.461  1.00  0.00     0.049 A 
ATOM     62  H   UNL A   1      45.378  26.763  27.228  1.00  0.00     0.167 HD
ATOM     63  C   UNL A   1      41.585  28.405  28.687  1.00  0.00     0.037 A 
ATOM     64  C   UNL A   1      48.044  26.918  26.408  1.00  0.00     0.037 A 
ATOM     65  C   UNL A   1      42.522  29.494  28.763  1.00  0.00     0.049 A 
ATOM     66  C   UNL A   1      47.663  28.298  26.876  1.00  0.00     0.074 A 
ATOM     67  C   UNL A   1      42.319  30.774  29.247  1.00  0.00     0.029 A 
ATOM     68  N   UNL A   1      43.840  29.430  28.334  1.00  0.00    -0.354 N 
ATOM     69  N   UNL A   1      46.519  28.724  27.354  1.00  0.00    -0.248 NA
ATOM     70  C   UNL A   1      48.703  29.333  26.799  1.00  0.00     0.031 C 
ATOM     71  C   UNL A   1      43.495  31.505  29.050  1.00  0.00     0.029 A 
ATOM     72  C   UNL A   1      44.453  30.660  28.510  1.00  0.00     0.049 A 
ATOM     73  H   UNL A   1      44.275  28.631  27.960  1.00  0.00     0.167 HD
ATOM     74  C   UNL A   1      46.709  30.064  27.666  1.00  0.00     0.074 A 
ATOM     75  C   UNL A   1      48.084  30.376  27.335  1.00  0.00     0.031 C 
ATOM     76  C   UNL A   1      45.825  30.954  28.181  1.00  0.00     0.037 A 
BRANCH  63  77
ATOM     77  C   UNL A   1      40.159  28.651  29.097  1.00  0.00     0.064 A 
ATOM     78  C   UNL A   1      39.720  28.446  30.415  1.00  0.00     0.173 A 
ATOM     79  C   UNL A   1      39.219  29.108  28.160  1.00  0.00     0.173 A 
ATOM     80  F   UNL A   1      40.573  27.999  31.350  1.00  0.00    -0.203 F 
ATOM     81  C   UNL A   1      38.387  28.645  30.768  1.00  0.00     0.198 A 
ATOM     82  C   UNL A   1      37.897  29.344  28.526  1.00  0.00     0.198 A 
ATOM     83  F   UNL A   1      39.583  29.329  26.888  1.00  0.00    -0.203 F 
ATOM     84  F   UNL A   1      37.979  28.374  32.016  1.00  0.00    -0.200 F 
ATOM     85  C   UNL A   1      37.478  29.100  29.826  1.00  0.00     0.200 A 
ATOM     86  F   UNL A   1      37.023  29.801  27.618  1.00  0.00    -0.200 F 
ATOM     87  F   UNL A   1      36.198  29.295  30.167  1.00  0.00    -0.200 F 
ENDBRANCH  63  77
BRANCH  64  88
ATOM     88  C   UNL A   1      49.422  26.628  25.930  1.00  0.00     0.064 A 
ATOM     89  C   UNL A   1      49.804  26.926  24.614  1.00  0.00     0.173 A 
ATOM     90  C   UNL A   1      50.385  26.051  26.770  1.00  0.00     0.173 A 
ATOM     91  F   UNL A   1      48.913  27.458  23.763  1.00  0.00    -0.203 F 
ATOM     92  C   UNL A   1      51.088  26.642  24.151  1.00  0.00     0.198 A 
ATOM     93  C   UNL A   1      51.678  25.796  26.317  1.00  0.00     0.198 A 
ATOM     94  F   UNL A   1      50.075  25.749  28.040  1.00  0.00    -0.203 F 
ATOM     95  F   UNL A   1      51.409  26.896  22.876  1.00  0.00    -0.200 F 
ATOM     96  C   UNL A   1      52.026  26.084  25.005  1.00  0.00     0.200 A 
ATOM     97  F   UNL A   1      52.587  25.270  27.149  1.00  0.00    -0.200 F 
ATOM     98  F   UNL A   1      53.262  25.817  24.563  1.00  0.00    -0.200 F 
ENDBRANCH  64  88
BRANCH  76  99
ATOM     99  C   UNL A   1      46.328  32.343  28.458  1.00  0.00     0.064 A 
ATOM    100  C   UNL A   1      46.233  33.371  27.508  1.00  0.00     0.173 A 
ATOM    101  C   UNL A   1      46.872  32.661  29.713  1.00  0.00     0.173 A 
ATOM    102  F   UNL A   1      45.732  33.118  26.289  1.00  0.00    -0.203 F 
ATOM    103  C   UNL A   1      46.690  34.655  27.793  1.00  0.00     0.198 A 
ATOM    104  C   UNL A   1      47.294  33.954  30.007  1.00  0.00     0.198 A 
ATOM    105  F   UNL A   1      46.979  31.718  30.662  1.00  0.00    -0.203 F 
ATOM    106  F   UNL A   1      46.638  35.607  26.851  1.00  0.00    -0.200 F 
ATOM    107  C   UNL A   1      47.212  34.947  29.044  1.00  0.00     0.200 A 
ATOM    108  F   UNL A   1      47.780  34.238  31.223  1.00  0.00    -0.200 F 
ATOM    109  F   UNL A   1      47.640  36.186  29.320  1.00  0.00    -0.200 F 
ENDBRANCH  76  99
ENDBRANCH  50  51
ENDBRANCH  42  45
ENDBRANCH  40  41
ENDBRANCH  39  40
ENDBRANCH  38  39
ENDBRANCH   1  38
TORSDOF 17
ENDMDL
