MODEL 1
REMARK VINA RESULT:     -12.4      0.000      0.000
REMARK SMILES Cc1cc(N(C)[C@H](C)C(=O)NCCCCNC(=O)c2ccc(-c3c4nc(c(-c5c(F)c(F)c(F)c(F)c5F)c5ccc([nH]5)c(-c5c(F)c(F)c(F)c(F)c5F)c5nc(c(-c6c(F)c(F)c(F)c(F)c6F)c6ccc3[nH]6)C=C5)C=C4)cc2)ncc1[N+](=O)[O-]
REMARK SMILES IDX 13 1 12 2 11 3 9 4 10 5 7 7 8 8 5 9 6 10 4 11 1 12 2 13 3 14
REMARK SMILES IDX 84 15 83 16 82 17 85 18 86 19 87 20 14 21 15 22 16 23 17 24
REMARK SMILES IDX 18 26 19 27 20 28 81 29 21 30 80 31 22 32 23 33 24 34 74 35
REMARK SMILES IDX 25 36 79 37 73 38 75 39 26 40 78 41 72 42 71 43 27 45 59 46
REMARK SMILES IDX 39 47 58 48 40 49 43 50 57 51 76 52 41 53 42 54 56 56 77 57
REMARK SMILES IDX 44 58 28 59 29 60 37 61 30 62 31 63 35 64 38 65 32 66 33 67
REMARK SMILES IDX 36 68 34 69 60 70 61 71 69 72 62 73 63 74 67 75 70 76 64 77
REMARK SMILES IDX 65 78 68 79 66 80 45 81 46 82 54 83 47 84 48 85 52 86 55 87
REMARK SMILES IDX 49 88 50 89 53 90 51 91
REMARK H PARENT 11 6 16 25 75 44 43 55
REMARK Flexibility Score: inf
ROOT
ATOM      1  C   UNL A   1      31.883  30.599  26.245  1.00  0.00     0.023 C 
ENDROOT
BRANCH   1   2
ATOM      2  C   UNL A   1      32.320  29.522  27.232  1.00  0.00     0.116 C 
BRANCH   2   3
ATOM      3  N   UNL A   1      31.462  28.355  27.194  1.00  0.00    -0.354 N 
ATOM      4  C   UNL A   1      31.465  27.266  26.371  1.00  0.00     0.242 C 
ATOM      5  O   UNL A   1      30.750  26.323  26.738  1.00  0.00    -0.273 OA
ATOM      6  H   UNL A   1      30.755  28.346  27.878  1.00  0.00     0.163 HD
BRANCH   4   7
ATOM      7  C   UNL A   1      32.284  27.170  25.061  1.00  0.00     0.169 C 
ATOM      8  C   UNL A   1      33.571  26.362  25.241  1.00  0.00     0.042 C 
BRANCH   7   9
ATOM      9  N   UNL A   1      31.522  26.765  23.845  1.00  0.00    -0.348 N 
ATOM     10  C   UNL A   1      31.471  25.388  23.388  1.00  0.00     0.146 C 
BRANCH   9  11
ATOM     11  C   UNL A   1      30.624  27.691  23.318  1.00  0.00     0.129 A 
ATOM     12  C   UNL A   1      26.903  28.436  23.488  1.00  0.00     0.052 C 
ATOM     13  C   UNL A   1      28.350  28.608  23.126  1.00  0.00     0.032 A 
ATOM     14  C   UNL A   1      29.242  27.594  23.532  1.00  0.00     0.057 A 
ATOM     15  C   UNL A   1      28.892  29.682  22.419  1.00  0.00     0.290 A 
ATOM     16  C   UNL A   1      30.256  29.703  22.186  1.00  0.00     0.199 A 
ATOM     17  N   UNL A   1      31.108  28.736  22.615  1.00  0.00    -0.232 NA
BRANCH  15  18
ATOM     18  N   UNL A   1      28.107  30.789  21.901  1.00  0.00     0.064 N 
ATOM     19  O   UNL A   1      27.846  30.782  20.689  1.00  0.00    -0.258 OA
ATOM     20  O   UNL A   1      27.724  31.654  22.698  1.00  0.00    -0.258 OA
ENDBRANCH  15  18
ENDBRANCH   9  11
ENDBRANCH   7   9
ENDBRANCH   4   7
ENDBRANCH   2   3
ENDBRANCH   1   2
BRANCH   1  21
ATOM     21  C   UNL A   1      31.566  31.958  26.876  1.00  0.00     0.023 C 
BRANCH  21  22
ATOM     22  C   UNL A   1      32.772  32.782  27.324  1.00  0.00     0.116 C 
BRANCH  22  23
ATOM     23  N   UNL A   1      32.444  34.167  27.628  1.00  0.00    -0.352 N 
ATOM     24  C   UNL A   1      32.996  35.013  28.563  1.00  0.00     0.251 C 
ATOM     25  H   UNL A   1      31.720  34.557  27.085  1.00  0.00     0.163 HD
ATOM     26  O   UNL A   1      32.527  36.128  28.751  1.00  0.00    -0.269 OA
BRANCH  24  27
ATOM     27  C   UNL A   1      34.135  34.542  29.376  1.00  0.00     0.039 A 
ATOM     28  C   UNL A   1      33.882  33.999  30.637  1.00  0.00     0.014 A 
ATOM     29  C   UNL A   1      35.433  34.574  28.862  1.00  0.00     0.014 A 
ATOM     30  C   UNL A   1      34.918  33.382  31.340  1.00  0.00     0.010 A 
ATOM     31  C   UNL A   1      36.449  33.901  29.532  1.00  0.00     0.010 A 
ATOM     32  C   UNL A   1      36.195  33.276  30.765  1.00  0.00    -0.014 A 
BRANCH  32  33
ATOM     33  C   UNL A   1      37.266  32.469  31.397  1.00  0.00     0.031 A 
ATOM     34  C   UNL A   1      37.772  32.824  32.764  1.00  0.00     0.074 A 
ATOM     35  C   UNL A   1      37.853  31.480  30.695  1.00  0.00     0.049 A 
ATOM     36  N   UNL A   1      38.786  32.328  33.426  1.00  0.00    -0.248 NA
ATOM     37  C   UNL A   1      37.058  33.898  33.470  1.00  0.00     0.031 C 
ATOM     38  C   UNL A   1      37.477  31.065  29.342  1.00  0.00     0.029 A 
ATOM     39  N   UNL A   1      38.903  30.656  31.014  1.00  0.00    -0.354 N 
ATOM     40  C   UNL A   1      38.841  33.038  34.617  1.00  0.00     0.074 A 
ATOM     41  C   UNL A   1      37.789  34.030  34.567  1.00  0.00     0.031 C 
ATOM     42  C   UNL A   1      38.271  30.054  28.954  1.00  0.00     0.029 A 
ATOM     43  C   UNL A   1      39.241  29.780  30.011  1.00  0.00     0.049 A 
ATOM     44  H   UNL A   1      39.371  30.689  31.880  1.00  0.00     0.167 HD
ATOM     45  C   UNL A   1      39.683  32.865  35.664  1.00  0.00     0.037 A 
ATOM     46  C   UNL A   1      40.231  28.870  29.944  1.00  0.00     0.037 A 
ATOM     47  C   UNL A   1      40.715  31.863  35.719  1.00  0.00     0.049 A 
ATOM     48  C   UNL A   1      41.172  28.720  31.107  1.00  0.00     0.074 A 
ATOM     49  C   UNL A   1      41.576  31.567  36.760  1.00  0.00     0.029 A 
ATOM     50  N   UNL A   1      41.026  30.995  34.683  1.00  0.00    -0.354 N 
ATOM     51  N   UNL A   1      41.182  29.360  32.250  1.00  0.00    -0.248 NA
ATOM     52  C   UNL A   1      42.246  27.727  30.965  1.00  0.00     0.031 C 
ATOM     53  C   UNL A   1      42.436  30.546  36.341  1.00  0.00     0.029 A 
ATOM     54  C   UNL A   1      42.084  30.179  35.051  1.00  0.00     0.049 A 
ATOM     55  H   UNL A   1      40.565  30.963  33.814  1.00  0.00     0.167 HD
ATOM     56  C   UNL A   1      42.241  28.833  32.973  1.00  0.00     0.074 A 
ATOM     57  C   UNL A   1      42.848  27.812  32.144  1.00  0.00     0.031 C 
ATOM     58  C   UNL A   1      42.673  29.165  34.214  1.00  0.00     0.037 A 
BRANCH  45  59
ATOM     59  C   UNL A   1      39.517  33.781  36.840  1.00  0.00     0.064 A 
ATOM     60  C   UNL A   1      38.731  33.420  37.945  1.00  0.00     0.173 A 
ATOM     61  C   UNL A   1      40.166  35.024  36.873  1.00  0.00     0.173 A 
ATOM     62  F   UNL A   1      38.080  32.247  37.955  1.00  0.00    -0.203 F 
ATOM     63  C   UNL A   1      38.577  34.282  39.026  1.00  0.00     0.198 A 
ATOM     64  C   UNL A   1      40.031  35.872  37.969  1.00  0.00     0.198 A 
ATOM     65  F   UNL A   1      40.932  35.416  35.844  1.00  0.00    -0.203 F 
ATOM     66  F   UNL A   1      37.780  33.937  40.048  1.00  0.00    -0.200 F 
ATOM     67  C   UNL A   1      39.231  35.505  39.040  1.00  0.00     0.200 A 
ATOM     68  F   UNL A   1      40.671  37.050  37.985  1.00  0.00    -0.200 F 
ATOM     69  F   UNL A   1      39.082  36.335  40.082  1.00  0.00    -0.200 F 
ENDBRANCH  45  59
BRANCH  46  70
ATOM     70  C   UNL A   1      40.371  28.016  28.737  1.00  0.00     0.064 A 
ATOM     71  C   UNL A   1      39.735  26.769  28.668  1.00  0.00     0.173 A 
ATOM     72  C   UNL A   1      41.134  28.423  27.633  1.00  0.00     0.173 A 
ATOM     73  F   UNL A   1      39.013  26.328  29.709  1.00  0.00    -0.203 F 
ATOM     74  C   UNL A   1      39.867  25.956  27.545  1.00  0.00     0.198 A 
ATOM     75  C   UNL A   1      41.245  27.620  26.501  1.00  0.00     0.198 A 
ATOM     76  F   UNL A   1      41.760  29.610  27.650  1.00  0.00    -0.203 F 
ATOM     77  F   UNL A   1      39.277  24.752  27.518  1.00  0.00    -0.200 F 
ATOM     78  C   UNL A   1      40.616  26.384  26.459  1.00  0.00     0.200 A 
ATOM     79  F   UNL A   1      41.961  28.043  25.449  1.00  0.00    -0.200 F 
ATOM     80  F   UNL A   1      40.738  25.604  25.376  1.00  0.00    -0.200 F 
ENDBRANCH  46  70
BRANCH  58  81
ATOM     81  C   UNL A   1      43.841  28.402  34.762  1.00  0.00     0.064 A 
ATOM     82  C   UNL A   1      43.668  27.185  35.437  1.00  0.00     0.173 A 
ATOM     83  C   UNL A   1      45.150  28.869  34.569  1.00  0.00     0.173 A 
ATOM     84  F   UNL A   1      42.435  26.707  35.662  1.00  0.00    -0.203 F 
ATOM     85  C   UNL A   1      44.765  26.469  35.911  1.00  0.00     0.198 A 
ATOM     86  C   UNL A   1      46.244  28.137  35.022  1.00  0.00     0.198 A 
ATOM     87  F   UNL A   1      45.367  30.026  33.927  1.00  0.00    -0.203 F 
ATOM     88  F   UNL A   1      44.575  25.326  36.585  1.00  0.00    -0.200 F 
ATOM     89  C   UNL A   1      46.050  26.941  35.696  1.00  0.00     0.200 A 
ATOM     90  F   UNL A   1      47.487  28.591  34.805  1.00  0.00    -0.200 F 
ATOM     91  F   UNL A   1      47.105  26.246  36.144  1.00  0.00    -0.200 F 
ENDBRANCH  58  81
ENDBRANCH  32  33
ENDBRANCH  24  27
ENDBRANCH  22  23
ENDBRANCH  21  22
ENDBRANCH   1  21
TORSDOF 14
ENDMDL
MODEL 2
REMARK VINA RESULT:     -12.3      6.626     10.971
REMARK SMILES Cc1cc(N(C)[C@H](C)C(=O)NCCCCNC(=O)c2ccc(-c3c4nc(c(-c5c(F)c(F)c(F)c(F)c5F)c5ccc([nH]5)c(-c5c(F)c(F)c(F)c(F)c5F)c5nc(c(-c6c(F)c(F)c(F)c(F)c6F)c6ccc3[nH]6)C=C5)C=C4)cc2)ncc1[N+](=O)[O-]
REMARK SMILES IDX 13 1 12 2 11 3 9 4 10 5 7 7 8 8 5 9 6 10 4 11 1 12 2 13 3 14
REMARK SMILES IDX 84 15 83 16 82 17 85 18 86 19 87 20 14 21 15 22 16 23 17 24
REMARK SMILES IDX 18 26 19 27 20 28 81 29 21 30 80 31 22 32 23 33 24 34 74 35
REMARK SMILES IDX 25 36 79 37 73 38 75 39 26 40 78 41 72 42 71 43 27 45 59 46
REMARK SMILES IDX 39 47 58 48 40 49 43 50 57 51 76 52 41 53 42 54 56 56 77 57
REMARK SMILES IDX 44 58 28 59 29 60 37 61 30 62 31 63 35 64 38 65 32 66 33 67
REMARK SMILES IDX 36 68 34 69 60 70 61 71 69 72 62 73 63 74 67 75 70 76 64 77
REMARK SMILES IDX 65 78 68 79 66 80 45 81 46 82 54 83 47 84 48 85 52 86 55 87
REMARK SMILES IDX 49 88 50 89 53 90 51 91
REMARK H PARENT 11 6 16 25 75 44 43 55
REMARK Flexibility Score: inf
ROOT
ATOM      1  C   UNL A   1      37.061  21.829  25.010  1.00  0.00     0.023 C 
ENDROOT
BRANCH   1   2
ATOM      2  C   UNL A   1      35.571  21.504  24.991  1.00  0.00     0.116 C 
BRANCH   2   3
ATOM      3  N   UNL A   1      34.746  22.694  24.933  1.00  0.00    -0.354 N 
ATOM      4  C   UNL A   1      33.418  22.878  25.190  1.00  0.00     0.242 C 
ATOM      5  O   UNL A   1      33.055  24.059  25.279  1.00  0.00    -0.273 OA
ATOM      6  H   UNL A   1      35.225  23.509  24.661  1.00  0.00     0.163 HD
BRANCH   4   7
ATOM      7  C   UNL A   1      32.400  21.725  25.363  1.00  0.00     0.169 C 
ATOM      8  C   UNL A   1      31.053  22.218  25.897  1.00  0.00     0.042 C 
BRANCH   7   9
ATOM      9  N   UNL A   1      32.249  20.809  24.196  1.00  0.00    -0.348 N 
ATOM     10  C   UNL A   1      32.102  21.303  22.839  1.00  0.00     0.146 C 
BRANCH   9  11
ATOM     11  C   UNL A   1      32.541  19.463  24.403  1.00  0.00     0.129 A 
ATOM     12  C   UNL A   1      34.304  16.637  22.574  1.00  0.00     0.052 C 
ATOM     13  C   UNL A   1      33.581  17.355  23.678  1.00  0.00     0.032 A 
ATOM     14  C   UNL A   1      33.153  18.673  23.419  1.00  0.00     0.057 A 
ATOM     15  C   UNL A   1      33.292  16.832  24.939  1.00  0.00     0.290 A 
ATOM     16  C   UNL A   1      32.637  17.635  25.857  1.00  0.00     0.199 A 
ATOM     17  N   UNL A   1      32.262  18.915  25.604  1.00  0.00    -0.232 NA
BRANCH  15  18
ATOM     18  N   UNL A   1      33.633  15.482  25.354  1.00  0.00     0.064 N 
ATOM     19  O   UNL A   1      32.695  14.714  25.613  1.00  0.00    -0.258 OA
ATOM     20  O   UNL A   1      34.829  15.171  25.396  1.00  0.00    -0.258 OA
ENDBRANCH  15  18
ENDBRANCH   9  11
ENDBRANCH   7   9
ENDBRANCH   4   7
ENDBRANCH   2   3
ENDBRANCH   1   2
BRANCH   1  21
ATOM     21  C   UNL A   1      37.985  20.607  25.001  1.00  0.00     0.023 C 
BRANCH  21  22
ATOM     22  C   UNL A   1      39.163  20.657  25.972  1.00  0.00     0.116 C 
BRANCH  22  23
ATOM     23  N   UNL A   1      40.007  19.473  25.917  1.00  0.00    -0.352 N 
ATOM     24  C   UNL A   1      41.369  19.360  26.077  1.00  0.00     0.251 C 
ATOM     25  H   UNL A   1      39.535  18.627  25.739  1.00  0.00     0.163 HD
ATOM     26  O   UNL A   1      41.932  18.288  25.900  1.00  0.00    -0.269 OA
BRANCH  24  27
ATOM     27  C   UNL A   1      42.156  20.562  26.419  1.00  0.00     0.039 A 
ATOM     28  C   UNL A   1      42.687  21.334  25.384  1.00  0.00     0.014 A 
ATOM     29  C   UNL A   1      42.303  20.957  27.751  1.00  0.00     0.014 A 
ATOM     30  C   UNL A   1      43.272  22.567  25.678  1.00  0.00     0.010 A 
ATOM     31  C   UNL A   1      42.825  22.215  28.035  1.00  0.00     0.010 A 
ATOM     32  C   UNL A   1      43.290  23.042  26.999  1.00  0.00    -0.014 A 
BRANCH  32  33
ATOM     33  C   UNL A   1      43.732  24.420  27.323  1.00  0.00     0.031 A 
ATOM     34  C   UNL A   1      42.743  25.435  27.817  1.00  0.00     0.074 A 
ATOM     35  C   UNL A   1      45.005  24.784  27.072  1.00  0.00     0.049 A 
ATOM     36  N   UNL A   1      42.905  26.716  28.025  1.00  0.00    -0.248 NA
ATOM     37  C   UNL A   1      41.383  24.947  28.089  1.00  0.00     0.031 C 
ATOM     38  C   UNL A   1      46.050  23.900  26.554  1.00  0.00     0.029 A 
ATOM     39  N   UNL A   1      45.631  25.998  27.201  1.00  0.00    -0.354 N 
ATOM     40  C   UNL A   1      41.667  27.190  28.436  1.00  0.00     0.074 A 
ATOM     41  C   UNL A   1      40.753  26.069  28.404  1.00  0.00     0.031 C 
ATOM     42  C   UNL A   1      47.192  24.595  26.427  1.00  0.00     0.029 A 
ATOM     43  C   UNL A   1      46.948  25.983  26.810  1.00  0.00     0.049 A 
ATOM     44  H   UNL A   1      45.180  26.804  27.542  1.00  0.00     0.167 HD
ATOM     45  C   UNL A   1      41.331  28.443  28.824  1.00  0.00     0.037 A 
ATOM     46  C   UNL A   1      47.852  26.978  26.750  1.00  0.00     0.037 A 
ATOM     47  C   UNL A   1      42.248  29.552  28.875  1.00  0.00     0.049 A 
ATOM     48  C   UNL A   1      47.443  28.368  27.154  1.00  0.00     0.074 A 
ATOM     49  C   UNL A   1      42.018  30.843  29.313  1.00  0.00     0.029 A 
ATOM     50  N   UNL A   1      43.573  29.497  28.469  1.00  0.00    -0.354 N 
ATOM     51  N   UNL A   1      46.285  28.794  27.592  1.00  0.00    -0.248 NA
ATOM     52  C   UNL A   1      48.468  29.417  27.045  1.00  0.00     0.031 C 
ATOM     53  C   UNL A   1      43.193  31.582  29.136  1.00  0.00     0.029 A 
ATOM     54  C   UNL A   1      44.167  30.739  28.624  1.00  0.00     0.049 A 
ATOM     55  H   UNL A   1      44.026  28.694  28.123  1.00  0.00     0.167 HD
ATOM     56  C   UNL A   1      46.445  30.150  27.836  1.00  0.00     0.074 A 
ATOM     57  C   UNL A   1      47.816  30.477  27.505  1.00  0.00     0.031 C 
ATOM     58  C   UNL A   1      45.536  31.045  28.293  1.00  0.00     0.037 A 
BRANCH  45  59
ATOM     59  C   UNL A   1      39.906  28.680  29.226  1.00  0.00     0.064 A 
ATOM     60  C   UNL A   1      38.949  29.132  28.303  1.00  0.00     0.173 A 
ATOM     61  C   UNL A   1      39.484  28.433  30.541  1.00  0.00     0.173 A 
ATOM     62  F   UNL A   1      39.306  29.395  27.037  1.00  0.00    -0.203 F 
ATOM     63  C   UNL A   1      37.632  29.358  28.690  1.00  0.00     0.198 A 
ATOM     64  C   UNL A   1      38.159  28.634  30.917  1.00  0.00     0.198 A 
ATOM     65  F   UNL A   1      40.357  27.996  31.460  1.00  0.00    -0.203 F 
ATOM     66  F   UNL A   1      36.748  29.840  27.804  1.00  0.00    -0.200 F 
ATOM     67  C   UNL A   1      37.236  29.104  29.995  1.00  0.00     0.200 A 
ATOM     68  F   UNL A   1      37.775  28.379  32.175  1.00  0.00    -0.200 F 
ATOM     69  F   UNL A   1      35.967  29.321  30.366  1.00  0.00    -0.200 F 
ENDBRANCH  45  59
BRANCH  46  70
ATOM     70  C   UNL A   1      49.240  26.693  26.306  1.00  0.00     0.064 A 
ATOM     71  C   UNL A   1      49.615  26.885  24.969  1.00  0.00     0.173 A 
ATOM     72  C   UNL A   1      50.217  26.230  27.198  1.00  0.00     0.173 A 
ATOM     73  F   UNL A   1      48.708  27.306  24.074  1.00  0.00    -0.203 F 
ATOM     74  C   UNL A   1      50.912  26.613  24.539  1.00  0.00     0.198 A 
ATOM     75  C   UNL A   1      51.520  25.981  26.772  1.00  0.00     0.198 A 
ATOM     76  F   UNL A   1      49.909  26.033  28.489  1.00  0.00    -0.203 F 
ATOM     77  F   UNL A   1      51.234  26.772  23.248  1.00  0.00    -0.200 F 
ATOM     78  C   UNL A   1      51.865  26.168  25.442  1.00  0.00     0.200 A 
ATOM     79  F   UNL A   1      52.442  25.562  27.651  1.00  0.00    -0.200 F 
ATOM     80  F   UNL A   1      53.114  25.912  25.029  1.00  0.00    -0.200 F 
ENDBRANCH  46  70
BRANCH  58  81
ATOM     81  C   UNL A   1      45.999  32.457  28.487  1.00  0.00     0.064 A 
ATOM     82  C   UNL A   1      46.625  32.865  29.674  1.00  0.00     0.173 A 
ATOM     83  C   UNL A   1      45.860  33.400  27.458  1.00  0.00     0.173 A 
ATOM     84  F   UNL A   1      46.766  32.004  30.693  1.00  0.00    -0.203 F 
ATOM     85  C   UNL A   1      47.083  34.171  29.828  1.00  0.00     0.198 A 
ATOM     86  C   UNL A   1      46.340  34.698  27.607  1.00  0.00     0.198 A 
ATOM     87  F   UNL A   1      45.270  33.057  26.303  1.00  0.00    -0.203 F 
ATOM     88  F   UNL A   1      47.645  34.550  30.984  1.00  0.00    -0.200 F 
ATOM     89  C   UNL A   1      46.947  35.083  28.793  1.00  0.00     0.200 A 
ATOM     90  F   UNL A   1      46.218  35.575  26.600  1.00  0.00    -0.200 F 
ATOM     91  F   UNL A   1      47.397  36.337  28.939  1.00  0.00    -0.200 F 
ENDBRANCH  58  81
ENDBRANCH  32  33
ENDBRANCH  24  27
ENDBRANCH  22  23
ENDBRANCH  21  22
ENDBRANCH   1  21
TORSDOF 14
ENDMDL
MODEL 3
REMARK VINA RESULT:     -12.3      6.561     11.946
REMARK SMILES Cc1cc(N(C)[C@H](C)C(=O)NCCCCNC(=O)c2ccc(-c3c4nc(c(-c5c(F)c(F)c(F)c(F)c5F)c5ccc([nH]5)c(-c5c(F)c(F)c(F)c(F)c5F)c5nc(c(-c6c(F)c(F)c(F)c(F)c6F)c6ccc3[nH]6)C=C5)C=C4)cc2)ncc1[N+](=O)[O-]
REMARK SMILES IDX 13 1 12 2 11 3 9 4 10 5 7 7 8 8 5 9 6 10 4 11 1 12 2 13 3 14
REMARK SMILES IDX 84 15 83 16 82 17 85 18 86 19 87 20 14 21 15 22 16 23 17 24
REMARK SMILES IDX 18 26 19 27 20 28 81 29 21 30 80 31 22 32 23 33 24 34 74 35
REMARK SMILES IDX 25 36 79 37 73 38 75 39 26 40 78 41 72 42 71 43 27 45 59 46
REMARK SMILES IDX 39 47 58 48 40 49 43 50 57 51 76 52 41 53 42 54 56 56 77 57
REMARK SMILES IDX 44 58 28 59 29 60 37 61 30 62 31 63 35 64 38 65 32 66 33 67
REMARK SMILES IDX 36 68 34 69 60 70 61 71 69 72 62 73 63 74 67 75 70 76 64 77
REMARK SMILES IDX 65 78 68 79 66 80 45 81 46 82 54 83 47 84 48 85 52 86 55 87
REMARK SMILES IDX 49 88 50 89 53 90 51 91
REMARK H PARENT 11 6 16 25 75 44 43 55
REMARK Flexibility Score: inf
ROOT
ATOM      1  C   UNL A   1      37.026  21.047  24.691  1.00  0.00     0.023 C 
ENDROOT
BRANCH   1   2
ATOM      2  C   UNL A   1      35.630  21.071  25.304  1.00  0.00     0.116 C 
BRANCH   2   3
ATOM      3  N   UNL A   1      34.970  22.349  25.129  1.00  0.00    -0.354 N 
ATOM      4  C   UNL A   1      33.659  22.706  25.257  1.00  0.00     0.242 C 
ATOM      5  O   UNL A   1      33.441  23.925  25.269  1.00  0.00    -0.273 OA
ATOM      6  H   UNL A   1      35.570  23.086  24.872  1.00  0.00     0.163 HD
BRANCH   4   7
ATOM      7  C   UNL A   1      32.492  21.696  25.377  1.00  0.00     0.169 C 
ATOM      8  C   UNL A   1      31.189  22.367  25.817  1.00  0.00     0.042 C 
BRANCH   7   9
ATOM      9  N   UNL A   1      32.298  20.784  24.213  1.00  0.00    -0.348 N 
ATOM     10  C   UNL A   1      32.127  21.282  22.860  1.00  0.00     0.146 C 
BRANCH   9  11
ATOM     11  C   UNL A   1      32.572  19.432  24.411  1.00  0.00     0.129 A 
ATOM     12  C   UNL A   1      34.355  16.611  22.596  1.00  0.00     0.052 C 
ATOM     13  C   UNL A   1      33.611  17.323  23.689  1.00  0.00     0.032 A 
ATOM     14  C   UNL A   1      33.201  18.648  23.435  1.00  0.00     0.057 A 
ATOM     15  C   UNL A   1      33.284  16.788  24.936  1.00  0.00     0.290 A 
ATOM     16  C   UNL A   1      32.613  17.587  25.846  1.00  0.00     0.199 A 
ATOM     17  N   UNL A   1      32.257  18.873  25.598  1.00  0.00    -0.232 NA
BRANCH  15  18
ATOM     18  N   UNL A   1      33.602  15.430  25.344  1.00  0.00     0.064 N 
ATOM     19  O   UNL A   1      32.654  14.698  25.665  1.00  0.00    -0.258 OA
ATOM     20  O   UNL A   1      34.787  15.078  25.318  1.00  0.00    -0.258 OA
ENDBRANCH  15  18
ENDBRANCH   9  11
ENDBRANCH   7   9
ENDBRANCH   4   7
ENDBRANCH   2   3
ENDBRANCH   1   2
BRANCH   1  21
ATOM     21  C   UNL A   1      37.921  19.901  25.173  1.00  0.00     0.023 C 
BRANCH  21  22
ATOM     22  C   UNL A   1      39.285  20.309  25.725  1.00  0.00     0.116 C 
BRANCH  22  23
ATOM     23  N   UNL A   1      40.216  19.197  25.844  1.00  0.00    -0.352 N 
ATOM     24  C   UNL A   1      41.568  19.210  26.101  1.00  0.00     0.251 C 
ATOM     25  H   UNL A   1      39.821  18.303  25.723  1.00  0.00     0.163 HD
ATOM     26  O   UNL A   1      42.220  18.174  26.070  1.00  0.00    -0.269 OA
BRANCH  24  27
ATOM     27  C   UNL A   1      42.238  20.498  26.368  1.00  0.00     0.039 A 
ATOM     28  C   UNL A   1      42.765  21.218  25.293  1.00  0.00     0.014 A 
ATOM     29  C   UNL A   1      42.279  21.020  27.662  1.00  0.00     0.014 A 
ATOM     30  C   UNL A   1      43.234  22.516  25.499  1.00  0.00     0.010 A 
ATOM     31  C   UNL A   1      42.685  22.337  27.855  1.00  0.00     0.010 A 
ATOM     32  C   UNL A   1      43.140  23.106  26.770  1.00  0.00    -0.014 A 
BRANCH  32  33
ATOM     33  C   UNL A   1      43.454  24.539  26.985  1.00  0.00     0.031 A 
ATOM     34  C   UNL A   1      44.844  25.052  26.749  1.00  0.00     0.074 A 
ATOM     35  C   UNL A   1      42.510  25.355  27.493  1.00  0.00     0.049 A 
ATOM     36  N   UNL A   1      45.347  26.233  27.007  1.00  0.00    -0.248 NA
ATOM     37  C   UNL A   1      45.805  24.101  26.170  1.00  0.00     0.031 C 
ATOM     38  C   UNL A   1      41.133  24.966  27.802  1.00  0.00     0.029 A 
ATOM     39  N   UNL A   1      42.570  26.677  27.856  1.00  0.00    -0.354 N 
ATOM     40  C   UNL A   1      46.682  26.162  26.636  1.00  0.00     0.074 A 
ATOM     41  C   UNL A   1      46.924  24.810  26.180  1.00  0.00     0.031 C 
ATOM     42  C   UNL A   1      40.474  26.029  28.291  1.00  0.00     0.029 A 
ATOM     43  C   UNL A   1      41.392  27.161  28.373  1.00  0.00     0.049 A 
ATOM     44  H   UNL A   1      43.381  27.228  27.757  1.00  0.00     0.167 HD
ATOM     45  C   UNL A   1      47.615  27.143  26.657  1.00  0.00     0.037 A 
ATOM     46  C   UNL A   1      41.092  28.374  28.872  1.00  0.00     0.037 A 
ATOM     47  C   UNL A   1      47.366  28.492  27.092  1.00  0.00     0.049 A 
ATOM     48  C   UNL A   1      42.156  29.436  28.916  1.00  0.00     0.074 A 
ATOM     49  C   UNL A   1      48.229  29.574  27.092  1.00  0.00     0.029 A 
ATOM     50  N   UNL A   1      46.160  28.943  27.609  1.00  0.00    -0.354 N 
ATOM     51  N   UNL A   1      43.401  29.375  28.512  1.00  0.00    -0.248 NA
ATOM     52  C   UNL A   1      41.774  30.733  29.492  1.00  0.00     0.031 C 
ATOM     53  C   UNL A   1      47.559  30.670  27.645  1.00  0.00     0.029 A 
ATOM     54  C   UNL A   1      46.264  30.282  27.954  1.00  0.00     0.049 A 
ATOM     55  H   UNL A   1      45.350  28.394  27.715  1.00  0.00     0.167 HD
ATOM     56  C   UNL A   1      43.944  30.627  28.761  1.00  0.00     0.074 A 
ATOM     57  C   UNL A   1      42.890  31.433  29.343  1.00  0.00     0.031 C 
ATOM     58  C   UNL A   1      45.204  31.069  28.529  1.00  0.00     0.037 A 
BRANCH  45  59
ATOM     59  C   UNL A   1      48.997  26.789  26.193  1.00  0.00     0.064 A 
ATOM     60  C   UNL A   1      49.401  27.003  24.866  1.00  0.00     0.173 A 
ATOM     61  C   UNL A   1      49.934  26.250  27.087  1.00  0.00     0.173 A 
ATOM     62  F   UNL A   1      48.537  27.504  23.971  1.00  0.00    -0.203 F 
ATOM     63  C   UNL A   1      50.682  26.662  24.444  1.00  0.00     0.198 A 
ATOM     64  C   UNL A   1      51.224  25.935  26.666  1.00  0.00     0.198 A 
ATOM     65  F   UNL A   1      49.600  26.030  28.367  1.00  0.00    -0.203 F 
ATOM     66  F   UNL A   1      51.029  26.827  23.159  1.00  0.00    -0.200 F 
ATOM     67  C   UNL A   1      51.594  26.134  25.345  1.00  0.00     0.200 A 
ATOM     68  F   UNL A   1      52.108  25.434  27.540  1.00  0.00    -0.200 F 
ATOM     69  F   UNL A   1      52.828  25.806  24.938  1.00  0.00    -0.200 F 
ENDBRANCH  45  59
BRANCH  46  70
ATOM     70  C   UNL A   1      39.716  28.657  29.354  1.00  0.00     0.064 A 
ATOM     71  C   UNL A   1      38.758  29.210  28.494  1.00  0.00     0.173 A 
ATOM     72  C   UNL A   1      39.328  28.380  30.673  1.00  0.00     0.173 A 
ATOM     73  F   UNL A   1      39.090  29.513  27.230  1.00  0.00    -0.203 F 
ATOM     74  C   UNL A   1      37.467  29.487  28.938  1.00  0.00     0.198 A 
ATOM     75  C   UNL A   1      38.030  28.635  31.109  1.00  0.00     0.198 A 
ATOM     76  F   UNL A   1      40.209  27.847  31.534  1.00  0.00    -0.203 F 
ATOM     77  F   UNL A   1      36.580  30.049  28.105  1.00  0.00    -0.200 F 
ATOM     78  C   UNL A   1      37.101  29.193  30.243  1.00  0.00     0.200 A 
ATOM     79  F   UNL A   1      37.678  28.338  32.368  1.00  0.00    -0.200 F 
ATOM     80  F   UNL A   1      35.858  29.454  30.668  1.00  0.00    -0.200 F 
ENDBRANCH  46  70
BRANCH  58  81
ATOM     81  C   UNL A   1      45.507  32.495  28.879  1.00  0.00     0.064 A 
ATOM     82  C   UNL A   1      46.042  32.844  30.127  1.00  0.00     0.173 A 
ATOM     83  C   UNL A   1      45.306  33.516  27.938  1.00  0.00     0.173 A 
ATOM     84  F   UNL A   1      46.236  31.905  31.065  1.00  0.00    -0.203 F 
ATOM     85  C   UNL A   1      46.352  34.168  30.426  1.00  0.00     0.198 A 
ATOM     86  C   UNL A   1      45.640  34.835  28.233  1.00  0.00     0.198 A 
ATOM     87  F   UNL A   1      44.799  33.232  26.730  1.00  0.00    -0.203 F 
ATOM     88  F   UNL A   1      46.829  34.485  31.638  1.00  0.00    -0.200 F 
ATOM     89  C   UNL A   1      46.159  35.160  29.477  1.00  0.00     0.200 A 
ATOM     90  F   UNL A   1      45.462  35.791  27.310  1.00  0.00    -0.200 F 
ATOM     91  F   UNL A   1      46.467  36.433  29.763  1.00  0.00    -0.200 F 
ENDBRANCH  58  81
ENDBRANCH  32  33
ENDBRANCH  24  27
ENDBRANCH  22  23
ENDBRANCH  21  22
ENDBRANCH   1  21
TORSDOF 14
ENDMDL
