MODEL 1
REMARK VINA RESULT:     -13.7      0.000      0.000
REMARK SMILES CS(=O)(=O)c1ccc(-c2cc(Cl)cc3c2O[C@H](C(F)(F)F)C(C(=O)NCCCCNC(=O)c2ccc(-c4c5nc(c(-c6c(F)c(F)c(F)c(F)c6F)c6ccc([nH]6)c(-c6c(F)c(F)c(F)c(F)c6F)c6nc(c(-c7c(F)c(F)c(F)c(F)c7F)c7ccc4[nH]7)C=C6)C=C5)cc2)=C3)cc1
REMARK SMILES IDX 27 1 26 2 25 3 23 4 24 5 22 7 9 8 10 9 15 10 11 11 14 12
REMARK SMILES IDX 16 13 12 14 13 15 96 16 17 17 8 18 5 19 6 20 98 21 7 22
REMARK SMILES IDX 97 23 2 24 1 25 3 26 4 27 18 28 19 29 20 30 21 31 28 32
REMARK SMILES IDX 29 33 30 34 31 35 32 37 33 38 34 39 95 40 35 41 94 42 36 43
REMARK SMILES IDX 37 44 38 45 88 46 39 47 93 48 87 49 89 50 40 51 92 52 86 53
REMARK SMILES IDX 85 54 41 56 73 57 53 58 72 59 54 60 57 61 71 62 90 63 55 64
REMARK SMILES IDX 56 65 70 67 91 68 58 69 42 70 43 71 51 72 44 73 45 74 49 75
REMARK SMILES IDX 52 76 46 77 47 78 50 79 48 80 74 81 75 82 83 83 76 84 77 85
REMARK SMILES IDX 81 86 84 87 78 88 79 89 82 90 80 91 59 92 60 93 68 94 61 95
REMARK SMILES IDX 62 96 66 97 69 98 63 99 64 100 67 101 65 102
REMARK H PARENT 25 6 30 36 89 55 57 66
REMARK Flexibility Score: inf
ROOT
ATOM      1  C   UNL A   1      31.721  30.160  26.458  1.00  0.00     0.023 C 
ENDROOT
BRANCH   1   2
ATOM      2  C   UNL A   1      32.482  29.639  25.230  1.00  0.00     0.116 C 
BRANCH   2   3
ATOM      3  N   UNL A   1      33.371  28.571  25.629  1.00  0.00    -0.352 N 
ATOM      4  C   UNL A   1      33.163  27.236  25.654  1.00  0.00     0.251 C 
ATOM      5  O   UNL A   1      33.760  26.583  26.504  1.00  0.00    -0.270 OA
ATOM      6  H   UNL A   1      34.264  28.860  25.928  1.00  0.00     0.163 HD
BRANCH   4   7
ATOM      7  C   UNL A   1      32.333  26.614  24.579  1.00  0.00     0.067 C 
ATOM      8  C   UNL A   1      33.475  22.718  24.964  1.00  0.00     0.026 A 
ATOM      9  C   UNL A   1      34.882  22.733  25.150  1.00  0.00     0.033 A 
ATOM     10  C   UNL A   1      32.893  23.923  24.536  1.00  0.00     0.135 A 
ATOM     11  C   UNL A   1      35.678  23.795  24.730  1.00  0.00     0.042 A 
ATOM     12  C   UNL A   1      33.722  24.933  23.995  1.00  0.00     0.019 A 
ATOM     13  O   UNL A   1      31.541  24.207  24.669  1.00  0.00    -0.475 OA
ATOM     14  Cl  UNL A   1      37.375  23.752  25.000  1.00  0.00    -0.084 Cl
ATOM     15  C   UNL A   1      35.110  24.864  24.067  1.00  0.00     0.032 A 
ATOM     16  C   UNL A   1      33.074  26.184  23.538  1.00  0.00     0.025 C 
ATOM     17  C   UNL A   1      31.270  25.628  25.061  1.00  0.00     0.314 C 
BRANCH   8  18
ATOM     18  C   UNL A   1      32.865  21.358  24.951  1.00  0.00    -0.015 A 
ATOM     19  C   UNL A   1      32.898  18.562  24.528  1.00  0.00     0.067 A 
ATOM     20  C   UNL A   1      33.128  19.071  25.807  1.00  0.00     0.021 A 
ATOM     21  C   UNL A   1      32.536  19.419  23.488  1.00  0.00     0.021 A 
ATOM     22  C   UNL A   1      33.086  20.458  26.019  1.00  0.00     0.010 A 
ATOM     23  C   UNL A   1      32.499  20.805  23.708  1.00  0.00     0.010 A 
BRANCH  19  24
ATOM     24  S   UNL A   1      33.266  16.854  24.173  1.00  0.00     0.175 S 
ATOM     25  C   UNL A   1      34.848  16.571  24.912  1.00  0.00     0.163 C 
ATOM     26  O   UNL A   1      33.418  16.719  22.742  1.00  0.00    -0.224 OA
ATOM     27  O   UNL A   1      32.285  16.054  24.895  1.00  0.00    -0.224 OA
ENDBRANCH  19  24
ENDBRANCH   8  18
BRANCH  17  28
ATOM     28  C   UNL A   1      29.894  26.107  24.543  1.00  0.00     0.429 C 
ATOM     29  F   UNL A   1      29.883  27.417  24.218  1.00  0.00    -0.167 F 
ATOM     30  F   UNL A   1      29.514  25.407  23.447  1.00  0.00    -0.167 F 
ATOM     31  F   UNL A   1      28.906  25.930  25.462  1.00  0.00    -0.167 F 
ENDBRANCH  17  28
ENDBRANCH   4   7
ENDBRANCH   2   3
ENDBRANCH   1   2
BRANCH   1  32
ATOM     32  C   UNL A   1      31.583  31.687  26.542  1.00  0.00     0.023 C 
BRANCH  32  33
ATOM     33  C   UNL A   1      32.735  32.396  27.242  1.00  0.00     0.116 C 
BRANCH  33  34
ATOM     34  N   UNL A   1      32.438  33.796  27.491  1.00  0.00    -0.352 N 
ATOM     35  C   UNL A   1      32.994  34.647  28.416  1.00  0.00     0.251 C 
ATOM     36  H   UNL A   1      31.741  34.191  26.917  1.00  0.00     0.163 HD
ATOM     37  O   UNL A   1      32.490  35.745  28.631  1.00  0.00    -0.269 OA
BRANCH  35  38
ATOM     38  C   UNL A   1      34.191  34.221  29.170  1.00  0.00     0.039 A 
ATOM     39  C   UNL A   1      34.029  33.621  30.421  1.00  0.00     0.014 A 
ATOM     40  C   UNL A   1      35.468  34.396  28.632  1.00  0.00     0.014 A 
ATOM     41  C   UNL A   1      35.145  33.127  31.100  1.00  0.00     0.010 A 
ATOM     42  C   UNL A   1      36.569  33.836  29.272  1.00  0.00     0.010 A 
ATOM     43  C   UNL A   1      36.419  33.192  30.511  1.00  0.00    -0.014 A 
BRANCH  43  44
ATOM     44  C   UNL A   1      37.612  32.592  31.164  1.00  0.00     0.031 A 
ATOM     45  C   UNL A   1      38.336  31.455  30.499  1.00  0.00     0.074 A 
ATOM     46  C   UNL A   1      37.988  33.009  32.388  1.00  0.00     0.049 A 
ATOM     47  N   UNL A   1      39.314  30.714  30.957  1.00  0.00    -0.248 NA
ATOM     48  C   UNL A   1      37.881  31.082  29.151  1.00  0.00     0.031 C 
ATOM     49  C   UNL A   1      37.345  34.079  33.152  1.00  0.00     0.029 A 
ATOM     50  N   UNL A   1      38.990  32.567  33.217  1.00  0.00    -0.354 N 
ATOM     51  C   UNL A   1      39.574  29.779  29.964  1.00  0.00     0.074 A 
ATOM     52  C   UNL A   1      38.621  30.012  28.902  1.00  0.00     0.031 C 
ATOM     53  C   UNL A   1      37.975  34.220  34.330  1.00  0.00     0.029 A 
ATOM     54  C   UNL A   1      39.033  33.219  34.426  1.00  0.00     0.049 A 
ATOM     55  H   UNL A   1      39.617  31.850  32.968  1.00  0.00     0.167 HD
ATOM     56  C   UNL A   1      40.537  28.826  29.934  1.00  0.00     0.037 A 
ATOM     57  C   UNL A   1      39.823  33.017  35.499  1.00  0.00     0.037 A 
ATOM     58  C   UNL A   1      41.496  28.613  30.984  1.00  0.00     0.049 A 
ATOM     59  C   UNL A   1      40.865  31.931  35.451  1.00  0.00     0.074 A 
ATOM     60  C   UNL A   1      42.546  27.713  31.023  1.00  0.00     0.029 A 
ATOM     61  N   UNL A   1      41.518  29.305  32.187  1.00  0.00    -0.354 N 
ATOM     62  N   UNL A   1      41.147  31.097  34.481  1.00  0.00    -0.248 NA
ATOM     63  C   UNL A   1      41.703  31.761  36.648  1.00  0.00     0.031 C 
ATOM     64  C   UNL A   1      43.167  27.818  32.271  1.00  0.00     0.029 A 
ATOM     65  C   UNL A   1      42.546  28.830  32.986  1.00  0.00     0.049 A 
ATOM     66  H   UNL A   1      40.895  30.026  32.436  1.00  0.00     0.167 HD
ATOM     67  C   UNL A   1      42.212  30.329  34.934  1.00  0.00     0.074 A 
ATOM     68  C   UNL A   1      42.532  30.802  36.263  1.00  0.00     0.031 C 
ATOM     69  C   UNL A   1      42.866  29.324  34.301  1.00  0.00     0.037 A 
BRANCH  56  70
ATOM     70  C   UNL A   1      40.598  27.935  28.726  1.00  0.00     0.064 A 
ATOM     71  C   UNL A   1      39.895  26.721  28.667  1.00  0.00     0.173 A 
ATOM     72  C   UNL A   1      41.336  28.319  27.596  1.00  0.00     0.173 A 
ATOM     73  F   UNL A   1      39.182  26.302  29.723  1.00  0.00    -0.203 F 
ATOM     74  C   UNL A   1      39.955  25.911  27.536  1.00  0.00     0.198 A 
ATOM     75  C   UNL A   1      41.366  27.523  26.453  1.00  0.00     0.198 A 
ATOM     76  F   UNL A   1      42.021  29.472  27.595  1.00  0.00    -0.203 F 
ATOM     77  F   UNL A   1      39.320  24.731  27.524  1.00  0.00    -0.200 F 
ATOM     78  C   UNL A   1      40.684  26.317  26.428  1.00  0.00     0.200 A 
ATOM     79  F   UNL A   1      42.058  27.924  25.377  1.00  0.00    -0.200 F 
ATOM     80  F   UNL A   1      40.733  25.541  25.337  1.00  0.00    -0.200 F 
ENDBRANCH  56  70
BRANCH  57  81
ATOM     81  C   UNL A   1      39.664  33.867  36.710  1.00  0.00     0.064 A 
ATOM     82  C   UNL A   1      38.858  33.451  37.780  1.00  0.00     0.173 A 
ATOM     83  C   UNL A   1      40.302  35.111  36.821  1.00  0.00     0.173 A 
ATOM     84  F   UNL A   1      38.210  32.279  37.714  1.00  0.00    -0.203 F 
ATOM     85  C   UNL A   1      38.679  34.257  38.903  1.00  0.00     0.198 A 
ATOM     86  C   UNL A   1      40.148  35.901  37.958  1.00  0.00     0.198 A 
ATOM     87  F   UNL A   1      41.088  35.553  35.829  1.00  0.00    -0.203 F 
ATOM     88  F   UNL A   1      37.863  33.858  39.887  1.00  0.00    -0.200 F 
ATOM     89  C   UNL A   1      39.328  35.479  38.994  1.00  0.00     0.200 A 
ATOM     90  F   UNL A   1      40.790  37.074  38.048  1.00  0.00    -0.200 F 
ATOM     91  F   UNL A   1      39.159  36.252  40.074  1.00  0.00    -0.200 F 
ENDBRANCH  57  81
BRANCH  69  92
ATOM     92  C   UNL A   1      44.030  28.696  35.011  1.00  0.00     0.064 A 
ATOM     93  C   UNL A   1      45.332  29.203  34.892  1.00  0.00     0.173 A 
ATOM     94  C   UNL A   1      43.824  27.611  35.880  1.00  0.00     0.173 A 
ATOM     95  F   UNL A   1      45.584  30.228  34.065  1.00  0.00    -0.203 F 
ATOM     96  C   UNL A   1      46.387  28.639  35.605  1.00  0.00     0.198 A 
ATOM     97  C   UNL A   1      44.875  27.071  36.615  1.00  0.00     0.198 A 
ATOM     98  F   UNL A   1      42.597  27.092  36.034  1.00  0.00    -0.203 F 
ATOM     99  F   UNL A   1      47.630  29.114  35.447  1.00  0.00    -0.200 F 
ATOM    100  C   UNL A   1      46.157  27.581  36.473  1.00  0.00     0.200 A 
ATOM    101  F   UNL A   1      44.646  26.062  37.466  1.00  0.00    -0.200 F 
ATOM    102  F   UNL A   1      47.170  27.053  37.171  1.00  0.00    -0.200 F 
ENDBRANCH  69  92
ENDBRANCH  43  44
ENDBRANCH  35  38
ENDBRANCH  33  34
ENDBRANCH  32  33
ENDBRANCH   1  32
TORSDOF 14
ENDMDL
MODEL 2
REMARK VINA RESULT:     -13.6      5.593     10.735
REMARK SMILES CS(=O)(=O)c1ccc(-c2cc(Cl)cc3c2O[C@H](C(F)(F)F)C(C(=O)NCCCCNC(=O)c2ccc(-c4c5nc(c(-c6c(F)c(F)c(F)c(F)c6F)c6ccc([nH]6)c(-c6c(F)c(F)c(F)c(F)c6F)c6nc(c(-c7c(F)c(F)c(F)c(F)c7F)c7ccc4[nH]7)C=C6)C=C5)cc2)=C3)cc1
REMARK SMILES IDX 27 1 26 2 25 3 23 4 24 5 22 7 9 8 10 9 15 10 11 11 14 12
REMARK SMILES IDX 16 13 12 14 13 15 96 16 17 17 8 18 5 19 6 20 98 21 7 22
REMARK SMILES IDX 97 23 2 24 1 25 3 26 4 27 18 28 19 29 20 30 21 31 28 32
REMARK SMILES IDX 29 33 30 34 31 35 32 37 33 38 34 39 95 40 35 41 94 42 36 43
REMARK SMILES IDX 37 44 38 45 88 46 39 47 93 48 87 49 89 50 40 51 92 52 86 53
REMARK SMILES IDX 85 54 41 56 73 57 53 58 72 59 54 60 57 61 71 62 90 63 55 64
REMARK SMILES IDX 56 65 70 67 91 68 58 69 42 70 43 71 51 72 44 73 45 74 49 75
REMARK SMILES IDX 52 76 46 77 47 78 50 79 48 80 74 81 75 82 83 83 76 84 77 85
REMARK SMILES IDX 81 86 84 87 78 88 79 89 82 90 80 91 59 92 60 93 68 94 61 95
REMARK SMILES IDX 62 96 66 97 69 98 63 99 64 100 67 101 65 102
REMARK H PARENT 25 6 30 36 89 55 57 66
REMARK Flexibility Score: inf
ROOT
ATOM      1  C   UNL A   1      36.621  20.704  25.367  1.00  0.00     0.023 C 
ENDROOT
BRANCH   1   2
ATOM      2  C   UNL A   1      36.027  21.758  24.422  1.00  0.00     0.116 C 
BRANCH   2   3
ATOM      3  N   UNL A   1      35.864  23.007  25.132  1.00  0.00    -0.352 N 
ATOM      4  C   UNL A   1      34.909  23.955  25.006  1.00  0.00     0.251 C 
ATOM      5  O   UNL A   1      35.226  25.116  25.244  1.00  0.00    -0.270 OA
ATOM      6  H   UNL A   1      36.553  23.196  25.809  1.00  0.00     0.163 HD
BRANCH   4   7
ATOM      7  C   UNL A   1      33.505  23.533  24.718  1.00  0.00     0.067 C 
ATOM      8  C   UNL A   1      31.782  27.178  24.097  1.00  0.00     0.026 A 
ATOM      9  C   UNL A   1      32.299  28.037  25.101  1.00  0.00     0.033 A 
ATOM     10  C   UNL A   1      32.021  25.804  24.274  1.00  0.00     0.135 A 
ATOM     11  C   UNL A   1      32.817  27.556  26.301  1.00  0.00     0.042 A 
ATOM     12  C   UNL A   1      32.424  25.334  25.546  1.00  0.00     0.019 A 
ATOM     13  O   UNL A   1      31.939  24.876  23.245  1.00  0.00    -0.475 OA
ATOM     14  Cl  UNL A   1      33.438  28.655  27.467  1.00  0.00    -0.084 Cl
ATOM     15  C   UNL A   1      32.799  26.202  26.566  1.00  0.00     0.032 A 
ATOM     16  C   UNL A   1      32.651  23.878  25.701  1.00  0.00     0.025 C 
ATOM     17  C   UNL A   1      33.010  23.830  23.303  1.00  0.00     0.314 C 
BRANCH   8  18
ATOM     18  C   UNL A   1      30.806  27.819  23.171  1.00  0.00    -0.015 A 
ATOM     19  C   UNL A   1      28.983  29.840  22.404  1.00  0.00     0.067 A 
ATOM     20  C   UNL A   1      30.307  29.900  21.966  1.00  0.00     0.021 A 
ATOM     21  C   UNL A   1      28.531  28.729  23.116  1.00  0.00     0.021 A 
ATOM     22  C   UNL A   1      31.203  28.882  22.329  1.00  0.00     0.010 A 
ATOM     23  C   UNL A   1      29.434  27.717  23.476  1.00  0.00     0.010 A 
BRANCH  19  24
ATOM     24  S   UNL A   1      27.927  31.267  22.235  1.00  0.00     0.175 S 
ATOM     25  C   UNL A   1      28.983  32.649  22.555  1.00  0.00     0.163 C 
ATOM     26  O   UNL A   1      26.937  31.216  23.287  1.00  0.00    -0.224 OA
ATOM     27  O   UNL A   1      27.523  31.327  20.837  1.00  0.00    -0.224 OA
ENDBRANCH  19  24
ENDBRANCH   8  18
BRANCH  17  28
ATOM     28  C   UNL A   1      32.542  22.502  22.664  1.00  0.00     0.429 C 
ATOM     29  F   UNL A   1      32.931  22.374  21.377  1.00  0.00    -0.167 F 
ATOM     30  F   UNL A   1      33.023  21.435  23.348  1.00  0.00    -0.167 F 
ATOM     31  F   UNL A   1      31.188  22.374  22.673  1.00  0.00    -0.167 F 
ENDBRANCH  17  28
ENDBRANCH   4   7
ENDBRANCH   2   3
ENDBRANCH   1   2
BRANCH   1  32
ATOM     32  C   UNL A   1      37.955  20.095  24.911  1.00  0.00     0.023 C 
BRANCH  32  33
ATOM     33  C   UNL A   1      39.147  20.429  25.798  1.00  0.00     0.116 C 
BRANCH  33  34
ATOM     34  N   UNL A   1      40.091  19.327  25.875  1.00  0.00    -0.352 N 
ATOM     35  C   UNL A   1      41.447  19.364  26.099  1.00  0.00     0.251 C 
ATOM     36  H   UNL A   1      39.707  18.429  25.749  1.00  0.00     0.163 HD
ATOM     37  O   UNL A   1      42.130  18.358  25.934  1.00  0.00    -0.269 OA
BRANCH  35  38
ATOM     38  C   UNL A   1      42.082  20.630  26.516  1.00  0.00     0.039 A 
ATOM     39  C   UNL A   1      42.532  21.521  25.537  1.00  0.00     0.014 A 
ATOM     40  C   UNL A   1      42.214  20.946  27.870  1.00  0.00     0.014 A 
ATOM     41  C   UNL A   1      43.045  22.763  25.917  1.00  0.00     0.010 A 
ATOM     42  C   UNL A   1      42.653  22.212  28.244  1.00  0.00     0.010 A 
ATOM     43  C   UNL A   1      43.071  23.135  27.271  1.00  0.00    -0.014 A 
BRANCH  43  44
ATOM     44  C   UNL A   1      43.522  24.484  27.702  1.00  0.00     0.031 A 
ATOM     45  C   UNL A   1      42.509  25.537  28.053  1.00  0.00     0.074 A 
ATOM     46  C   UNL A   1      44.835  24.788  27.690  1.00  0.00     0.049 A 
ATOM     47  N   UNL A   1      42.690  26.804  28.327  1.00  0.00    -0.248 NA
ATOM     48  C   UNL A   1      41.099  25.114  28.070  1.00  0.00     0.031 C 
ATOM     49  C   UNL A   1      45.914  23.864  27.335  1.00  0.00     0.029 A 
ATOM     50  N   UNL A   1      45.485  25.966  27.965  1.00  0.00    -0.354 N 
ATOM     51  C   UNL A   1      41.421  27.331  28.528  1.00  0.00     0.074 A 
ATOM     52  C   UNL A   1      40.476  26.261  28.296  1.00  0.00     0.031 C 
ATOM     53  C   UNL A   1      47.090  24.506  27.425  1.00  0.00     0.029 A 
ATOM     54  C   UNL A   1      46.847  25.896  27.796  1.00  0.00     0.049 A 
ATOM     55  H   UNL A   1      45.019  26.783  28.255  1.00  0.00     0.167 HD
ATOM     56  C   UNL A   1      41.078  28.589  28.895  1.00  0.00     0.037 A 
ATOM     57  C   UNL A   1      47.790  26.852  27.907  1.00  0.00     0.037 A 
ATOM     58  C   UNL A   1      42.024  29.643  29.147  1.00  0.00     0.049 A 
ATOM     59  C   UNL A   1      47.379  28.250  28.287  1.00  0.00     0.074 A 
ATOM     60  C   UNL A   1      41.781  30.935  29.579  1.00  0.00     0.029 A 
ATOM     61  N   UNL A   1      43.397  29.529  28.980  1.00  0.00    -0.354 N 
ATOM     62  N   UNL A   1      46.183  28.721  28.540  1.00  0.00    -0.248 NA
ATOM     63  C   UNL A   1      48.452  29.250  28.400  1.00  0.00     0.031 C 
ATOM     64  C   UNL A   1      42.998  31.621  29.618  1.00  0.00     0.029 A 
ATOM     65  C   UNL A   1      44.009  30.738  29.274  1.00  0.00     0.049 A 
ATOM     66  H   UNL A   1      43.866  28.712  28.696  1.00  0.00     0.167 HD
ATOM     67  C   UNL A   1      46.361  30.057  28.875  1.00  0.00     0.074 A 
ATOM     68  C   UNL A   1      47.781  30.321  28.801  1.00  0.00     0.031 C 
ATOM     69  C   UNL A   1      45.428  30.981  29.215  1.00  0.00     0.037 A 
BRANCH  56  70
ATOM     70  C   UNL A   1      39.615  28.898  29.042  1.00  0.00     0.064 A 
ATOM     71  C   UNL A   1      38.961  28.804  30.280  1.00  0.00     0.173 A 
ATOM     72  C   UNL A   1      38.866  29.333  27.938  1.00  0.00     0.173 A 
ATOM     73  F   UNL A   1      39.628  28.384  31.366  1.00  0.00    -0.203 F 
ATOM     74  C   UNL A   1      37.607  29.103  30.401  1.00  0.00     0.198 A 
ATOM     75  C   UNL A   1      37.519  29.665  28.069  1.00  0.00     0.198 A 
ATOM     76  F   UNL A   1      39.442  29.448  26.732  1.00  0.00    -0.203 F 
ATOM     77  F   UNL A   1      36.992  28.953  31.583  1.00  0.00    -0.200 F 
ATOM     78  C   UNL A   1      36.890  29.540  29.298  1.00  0.00     0.200 A 
ATOM     79  F   UNL A   1      36.832  30.103  27.005  1.00  0.00    -0.200 F 
ATOM     80  F   UNL A   1      35.588  29.836  29.417  1.00  0.00    -0.200 F 
ENDBRANCH  56  70
BRANCH  57  81
ATOM     81  C   UNL A   1      49.219  26.519  27.662  1.00  0.00     0.064 A 
ATOM     82  C   UNL A   1      50.108  26.332  28.731  1.00  0.00     0.173 A 
ATOM     83  C   UNL A   1      49.730  26.389  26.362  1.00  0.00     0.173 A 
ATOM     84  F   UNL A   1      49.674  26.465  29.994  1.00  0.00    -0.203 F 
ATOM     85  C   UNL A   1      51.455  26.051  28.508  1.00  0.00     0.198 A 
ATOM     86  C   UNL A   1      51.069  26.076  26.141  1.00  0.00     0.198 A 
ATOM     87  F   UNL A   1      48.921  26.552  25.304  1.00  0.00    -0.203 F 
ATOM     88  F   UNL A   1      52.291  25.929  29.547  1.00  0.00    -0.200 F 
ATOM     89  C   UNL A   1      51.933  25.919  27.214  1.00  0.00     0.200 A 
ATOM     90  F   UNL A   1      51.523  25.933  24.888  1.00  0.00    -0.200 F 
ATOM     91  F   UNL A   1      53.227  25.646  26.999  1.00  0.00    -0.200 F 
ENDBRANCH  57  81
BRANCH  69  92
ATOM     92  C   UNL A   1      45.911  32.353  29.586  1.00  0.00     0.064 A 
ATOM     93  C   UNL A   1      46.022  33.382  28.640  1.00  0.00     0.173 A 
ATOM     94  C   UNL A   1      46.198  32.661  30.927  1.00  0.00     0.173 A 
ATOM     95  F   UNL A   1      45.773  33.136  27.345  1.00  0.00    -0.203 F 
ATOM     96  C   UNL A   1      46.418  34.662  29.017  1.00  0.00     0.198 A 
ATOM     97  C   UNL A   1      46.562  33.949  31.305  1.00  0.00     0.198 A 
ATOM     98  F   UNL A   1      46.101  31.715  31.873  1.00  0.00    -0.203 F 
ATOM     99  F   UNL A   1      46.555  35.619  28.090  1.00  0.00    -0.200 F 
ATOM    100  C   UNL A   1      46.676  34.948  30.350  1.00  0.00     0.200 A 
ATOM    101  F   UNL A   1      46.793  34.227  32.595  1.00  0.00    -0.200 F 
ATOM    102  F   UNL A   1      47.039  36.185  30.713  1.00  0.00    -0.200 F 
ENDBRANCH  69  92
ENDBRANCH  43  44
ENDBRANCH  35  38
ENDBRANCH  33  34
ENDBRANCH  32  33
ENDBRANCH   1  32
TORSDOF 14
ENDMDL
MODEL 3
REMARK VINA RESULT:     -13.2      0.517      6.985
REMARK SMILES CS(=O)(=O)c1ccc(-c2cc(Cl)cc3c2O[C@H](C(F)(F)F)C(C(=O)NCCCCNC(=O)c2ccc(-c4c5nc(c(-c6c(F)c(F)c(F)c(F)c6F)c6ccc([nH]6)c(-c6c(F)c(F)c(F)c(F)c6F)c6nc(c(-c7c(F)c(F)c(F)c(F)c7F)c7ccc4[nH]7)C=C6)C=C5)cc2)=C3)cc1
REMARK SMILES IDX 27 1 26 2 25 3 23 4 24 5 22 7 9 8 10 9 15 10 11 11 14 12
REMARK SMILES IDX 16 13 12 14 13 15 96 16 17 17 8 18 5 19 6 20 98 21 7 22
REMARK SMILES IDX 97 23 2 24 1 25 3 26 4 27 18 28 19 29 20 30 21 31 28 32
REMARK SMILES IDX 29 33 30 34 31 35 32 37 33 38 34 39 95 40 35 41 94 42 36 43
REMARK SMILES IDX 37 44 38 45 88 46 39 47 93 48 87 49 89 50 40 51 92 52 86 53
REMARK SMILES IDX 85 54 41 56 73 57 53 58 72 59 54 60 57 61 71 62 90 63 55 64
REMARK SMILES IDX 56 65 70 67 91 68 58 69 42 70 43 71 51 72 44 73 45 74 49 75
REMARK SMILES IDX 52 76 46 77 47 78 50 79 48 80 74 81 75 82 83 83 76 84 77 85
REMARK SMILES IDX 81 86 84 87 78 88 79 89 82 90 80 91 59 92 60 93 68 94 61 95
REMARK SMILES IDX 62 96 66 97 69 98 63 99 64 100 67 101 65 102
REMARK H PARENT 25 6 30 36 89 55 57 66
REMARK Flexibility Score: inf
ROOT
ATOM      1  C   UNL A   1      31.395  30.349  26.427  1.00  0.00     0.023 C 
ENDROOT
BRANCH   1   2
ATOM      2  C   UNL A   1      32.085  29.697  25.221  1.00  0.00     0.116 C 
BRANCH   2   3
ATOM      3  N   UNL A   1      32.986  28.663  25.680  1.00  0.00    -0.352 N 
ATOM      4  C   UNL A   1      32.830  27.320  25.686  1.00  0.00     0.251 C 
ATOM      5  O   UNL A   1      33.392  26.687  26.574  1.00  0.00    -0.270 OA
ATOM      6  H   UNL A   1      33.843  28.985  26.042  1.00  0.00     0.163 HD
BRANCH   4   7
ATOM      7  C   UNL A   1      32.103  26.671  24.553  1.00  0.00     0.067 C 
ATOM      8  C   UNL A   1      33.336  22.814  25.037  1.00  0.00     0.026 A 
ATOM      9  C   UNL A   1      34.723  22.873  25.328  1.00  0.00     0.033 A 
ATOM     10  C   UNL A   1      32.750  24.000  24.562  1.00  0.00     0.135 A 
ATOM     11  C   UNL A   1      35.515  23.960  24.965  1.00  0.00     0.042 A 
ATOM     12  C   UNL A   1      33.586  25.035  24.081  1.00  0.00     0.019 A 
ATOM     13  O   UNL A   1      31.383  24.241  24.592  1.00  0.00    -0.475 OA
ATOM     14  Cl  UNL A   1      37.188  23.971  25.362  1.00  0.00    -0.084 Cl
ATOM     15  C   UNL A   1      34.965  25.010  24.258  1.00  0.00     0.032 A 
ATOM     16  C   UNL A   1      32.934  26.265  23.573  1.00  0.00     0.025 C 
ATOM     17  C   UNL A   1      31.039  25.653  24.957  1.00  0.00     0.314 C 
BRANCH   8  18
ATOM     18  C   UNL A   1      32.771  21.435  24.982  1.00  0.00    -0.015 A 
ATOM     19  C   UNL A   1      32.888  18.662  24.445  1.00  0.00     0.067 A 
ATOM     20  C   UNL A   1      33.131  19.127  25.738  1.00  0.00     0.021 A 
ATOM     21  C   UNL A   1      32.473  19.546  23.449  1.00  0.00     0.021 A 
ATOM     22  C   UNL A   1      33.048  20.502  26.007  1.00  0.00     0.010 A 
ATOM     23  C   UNL A   1      32.395  20.920  23.725  1.00  0.00     0.010 A 
BRANCH  19  24
ATOM     24  S   UNL A   1      33.305  16.983  24.012  1.00  0.00     0.175 S 
ATOM     25  C   UNL A   1      34.900  16.716  24.729  1.00  0.00     0.163 C 
ATOM     26  O   UNL A   1      33.450  16.915  22.576  1.00  0.00    -0.224 OA
ATOM     27  O   UNL A   1      32.354  16.122  24.704  1.00  0.00    -0.224 OA
ENDBRANCH  19  24
ENDBRANCH   8  18
BRANCH  17  28
ATOM     28  C   UNL A   1      29.691  26.087  24.336  1.00  0.00     0.429 C 
ATOM     29  F   UNL A   1      29.693  27.374  23.927  1.00  0.00    -0.167 F 
ATOM     30  F   UNL A   1      29.375  25.316  23.268  1.00  0.00    -0.167 F 
ATOM     31  F   UNL A   1      28.656  25.962  25.209  1.00  0.00    -0.167 F 
ENDBRANCH  17  28
ENDBRANCH   4   7
ENDBRANCH   2   3
ENDBRANCH   1   2
BRANCH   1  32
ATOM     32  C   UNL A   1      31.466  31.882  26.471  1.00  0.00     0.023 C 
BRANCH  32  33
ATOM     33  C   UNL A   1      32.678  32.446  27.199  1.00  0.00     0.116 C 
BRANCH  33  34
ATOM     34  N   UNL A   1      32.514  33.856  27.512  1.00  0.00    -0.352 N 
ATOM     35  C   UNL A   1      33.138  34.605  28.482  1.00  0.00     0.251 C 
ATOM     36  H   UNL A   1      31.866  34.343  26.953  1.00  0.00     0.163 HD
ATOM     37  O   UNL A   1      32.740  35.735  28.745  1.00  0.00    -0.269 OA
BRANCH  35  38
ATOM     38  C   UNL A   1      34.278  34.030  29.224  1.00  0.00     0.039 A 
ATOM     39  C   UNL A   1      34.028  33.192  30.314  1.00  0.00     0.014 A 
ATOM     40  C   UNL A   1      35.591  34.302  28.832  1.00  0.00     0.014 A 
ATOM     41  C   UNL A   1      35.094  32.566  30.964  1.00  0.00     0.010 A 
ATOM     42  C   UNL A   1      36.645  33.619  29.429  1.00  0.00     0.010 A 
ATOM     43  C   UNL A   1      36.408  32.741  30.499  1.00  0.00    -0.014 A 
BRANCH  43  44
ATOM     44  C   UNL A   1      37.554  32.016  31.108  1.00  0.00     0.031 A 
ATOM     45  C   UNL A   1      38.056  32.415  32.467  1.00  0.00     0.074 A 
ATOM     46  C   UNL A   1      38.196  31.064  30.403  1.00  0.00     0.049 A 
ATOM     47  N   UNL A   1      39.114  31.997  33.116  1.00  0.00    -0.248 NA
ATOM     48  C   UNL A   1      37.279  33.441  33.181  1.00  0.00     0.031 C 
ATOM     49  C   UNL A   1      37.828  30.612  29.060  1.00  0.00     0.029 A 
ATOM     50  N   UNL A   1      39.308  30.318  30.710  1.00  0.00    -0.354 N 
ATOM     51  C   UNL A   1      39.140  32.723  34.300  1.00  0.00     0.074 A 
ATOM     52  C   UNL A   1      38.023  33.641  34.259  1.00  0.00     0.031 C 
ATOM     53  C   UNL A   1      38.689  29.661  28.665  1.00  0.00     0.029 A 
ATOM     54  C   UNL A   1      39.697  29.470  29.702  1.00  0.00     0.049 A 
ATOM     55  H   UNL A   1      39.781  30.387  31.570  1.00  0.00     0.167 HD
ATOM     56  C   UNL A   1      40.006  32.616  35.336  1.00  0.00     0.037 A 
ATOM     57  C   UNL A   1      40.760  28.646  29.616  1.00  0.00     0.037 A 
ATOM     58  C   UNL A   1      41.102  31.685  35.380  1.00  0.00     0.049 A 
ATOM     59  C   UNL A   1      41.725  28.568  30.769  1.00  0.00     0.074 A 
ATOM     60  C   UNL A   1      42.000  31.459  36.408  1.00  0.00     0.029 A 
ATOM     61  N   UNL A   1      41.454  30.829  34.346  1.00  0.00    -0.354 N 
ATOM     62  N   UNL A   1      41.703  29.210  31.912  1.00  0.00    -0.248 NA
ATOM     63  C   UNL A   1      42.862  27.647  30.623  1.00  0.00     0.031 C 
ATOM     64  C   UNL A   1      42.931  30.510  35.976  1.00  0.00     0.029 A 
ATOM     65  C   UNL A   1      42.575  30.096  34.703  1.00  0.00     0.049 A 
ATOM     66  H   UNL A   1      40.979  30.755  33.487  1.00  0.00     0.167 HD
ATOM     67  C   UNL A   1      42.797  28.747  32.632  1.00  0.00     0.074 A 
ATOM     68  C   UNL A   1      43.458  27.765  31.801  1.00  0.00     0.031 C 
ATOM     69  C   UNL A   1      43.212  29.106  33.872  1.00  0.00     0.037 A 
BRANCH  56  70
ATOM     70  C   UNL A   1      39.807  33.534  36.508  1.00  0.00     0.064 A 
ATOM     71  C   UNL A   1      40.446  34.780  36.588  1.00  0.00     0.173 A 
ATOM     72  C   UNL A   1      38.934  33.179  37.548  1.00  0.00     0.173 A 
ATOM     73  F   UNL A   1      41.300  35.164  35.626  1.00  0.00    -0.203 F 
ATOM     74  C   UNL A   1      40.244  35.623  37.677  1.00  0.00     0.198 A 
ATOM     75  C   UNL A   1      38.706  34.040  38.620  1.00  0.00     0.198 A 
ATOM     76  F   UNL A   1      38.290  32.002  37.521  1.00  0.00    -0.203 F 
ATOM     77  F   UNL A   1      40.908  36.785  37.757  1.00  0.00    -0.200 F 
ATOM     78  C   UNL A   1      39.368  35.255  38.688  1.00  0.00     0.200 A 
ATOM     79  F   UNL A   1      37.847  33.690  39.587  1.00  0.00    -0.200 F 
ATOM     80  F   UNL A   1      39.167  36.072  39.731  1.00  0.00    -0.200 F 
ENDBRANCH  56  70
BRANCH  57  81
ATOM     81  C   UNL A   1      40.966  27.822  28.394  1.00  0.00     0.064 A 
ATOM     82  C   UNL A   1      40.365  26.561  28.267  1.00  0.00     0.173 A 
ATOM     83  C   UNL A   1      41.771  28.268  27.336  1.00  0.00     0.173 A 
ATOM     84  F   UNL A   1      39.602  26.080  29.260  1.00  0.00    -0.203 F 
ATOM     85  C   UNL A   1      40.580  25.770  27.140  1.00  0.00     0.198 A 
ATOM     86  C   UNL A   1      41.959  27.491  26.195  1.00  0.00     0.198 A 
ATOM     87  F   UNL A   1      42.365  29.469  27.405  1.00  0.00    -0.203 F 
ATOM     88  F   UNL A   1      40.034  24.549  27.068  1.00  0.00    -0.200 F 
ATOM     89  C   UNL A   1      41.372  26.238  26.102  1.00  0.00     0.200 A 
ATOM     90  F   UNL A   1      42.713  27.954  25.189  1.00  0.00    -0.200 F 
ATOM     91  F   UNL A   1      41.577  25.480  25.017  1.00  0.00    -0.200 F 
ENDBRANCH  57  81
BRANCH  69  92
ATOM     92  C   UNL A   1      44.410  28.398  34.436  1.00  0.00     0.064 A 
ATOM     93  C   UNL A   1      45.703  28.932  34.336  1.00  0.00     0.173 A 
ATOM     94  C   UNL A   1      44.249  27.198  35.150  1.00  0.00     0.173 A 
ATOM     95  F   UNL A   1      45.912  30.067  33.653  1.00  0.00    -0.203 F 
ATOM     96  C   UNL A   1      46.791  28.286  34.916  1.00  0.00     0.198 A 
ATOM     97  C   UNL A   1      45.334  26.572  35.755  1.00  0.00     0.198 A 
ATOM     98  F   UNL A   1      43.033  26.648  35.281  1.00  0.00    -0.203 F 
ATOM     99  F   UNL A   1      48.022  28.795  34.775  1.00  0.00    -0.200 F 
ATOM    100  C   UNL A   1      46.605  27.114  35.634  1.00  0.00     0.200 A 
ATOM    101  F   UNL A   1      45.149  25.450  36.464  1.00  0.00    -0.200 F 
ATOM    102  F   UNL A   1      47.651  26.504  36.207  1.00  0.00    -0.200 F 
ENDBRANCH  69  92
ENDBRANCH  43  44
ENDBRANCH  35  38
ENDBRANCH  33  34
ENDBRANCH  32  33
ENDBRANCH   1  32
TORSDOF 14
ENDMDL
