MODEL 1
REMARK VINA RESULT:     -13.8      0.000      0.000
REMARK SMILES CC(=O)Nc1ccc(/C=C2/CCc3oc(C(=O)NCCCCNC(=O)c4ccc(-c5c6nc(c(-c7c(F)c(F)c(F)c(F)c7F)c7ccc([nH]7)c(-c7c(F)c(F)c(F)c(F)c7F)c7nc(c(-c8c(F)c(F)c(F)c(F)c8F)c8ccc5[nH]8)C=C7)C=C6)cc4)c(C)c3C2=O)cc1
REMARK SMILES IDX 20 1 19 2 18 3 16 4 17 5 15 7 9 8 10 9 11 10 92 11 12 12
REMARK SMILES IDX 91 13 93 14 13 15 89 16 14 17 90 18 8 19 5 20 6 21 95 22
REMARK SMILES IDX 7 23 94 24 4 25 1 26 2 27 3 28 21 30 22 31 23 32 24 33 25 35
REMARK SMILES IDX 26 36 27 37 88 38 28 39 87 40 29 41 30 42 31 43 81 44 32 45
REMARK SMILES IDX 86 46 80 47 82 48 33 49 85 50 79 51 78 52 34 54 66 55 46 56
REMARK SMILES IDX 65 57 47 58 50 59 64 60 83 61 48 62 49 63 63 65 84 66 51 67
REMARK SMILES IDX 35 68 36 69 44 70 37 71 38 72 42 73 45 74 39 75 40 76 43 77
REMARK SMILES IDX 41 78 67 79 68 80 76 81 69 82 70 83 74 84 77 85 71 86 72 87
REMARK SMILES IDX 75 88 73 89 52 90 53 91 61 92 54 93 55 94 59 95 62 96 56 97
REMARK SMILES IDX 57 98 60 99 58 100
REMARK H PARENT 18 6 4 29 23 34 82 53 50 64
REMARK Flexibility Score: inf
ROOT
ATOM      1  C   UNL A   1      39.160  24.041  27.173  1.00  0.00     0.023 C 
ENDROOT
BRANCH   1   2
ATOM      2  C   UNL A   1      37.997  23.982  26.176  1.00  0.00     0.116 C 
BRANCH   2   3
ATOM      3  N   UNL A   1      37.912  22.710  25.475  1.00  0.00    -0.349 N 
ATOM      4  C   UNL A   1      36.842  22.000  24.964  1.00  0.00     0.287 C 
ATOM      5  O   UNL A   1      37.133  20.948  24.387  1.00  0.00    -0.266 OA
ATOM      6  H   UNL A   1      38.783  22.270  25.339  1.00  0.00     0.163 HD
BRANCH   4   7
ATOM      7  C   UNL A   1      35.470  22.468  25.105  1.00  0.00     0.195 A 
ATOM      8  C   UNL A   1      30.649  25.402  25.936  1.00  0.00     0.016 C 
ATOM      9  C   UNL A   1      31.272  24.219  25.762  1.00  0.00     0.001 C 
ATOM     10  C   UNL A   1      31.301  23.178  26.878  1.00  0.00     0.048 C 
ATOM     11  C   UNL A   1      32.066  23.811  24.541  1.00  0.00     0.192 C 
ATOM     12  C   UNL A   1      32.738  22.951  27.381  1.00  0.00     0.081 C 
ATOM     13  C   UNL A   1      33.367  23.281  24.916  1.00  0.00     0.067 A 
ATOM     14  O   UNL A   1      31.644  23.851  23.403  1.00  0.00    -0.289 OA
ATOM     15  C   UNL A   1      33.625  22.887  26.203  1.00  0.00     0.116 A 
ATOM     16  C   UNL A   1      34.575  23.038  24.188  1.00  0.00     0.012 A 
ATOM     17  O   UNL A   1      34.860  22.386  26.327  1.00  0.00    -0.455 OA
ATOM     18  C   UNL A   1      34.794  23.364  22.752  1.00  0.00     0.049 C 
BRANCH   8  19
ATOM     19  C   UNL A   1      30.564  26.631  25.119  1.00  0.00    -0.025 A 
ATOM     20  C   UNL A   1      30.196  28.928  23.490  1.00  0.00     0.041 A 
ATOM     21  C   UNL A   1      31.137  28.923  24.515  1.00  0.00     0.027 A 
ATOM     22  C   UNL A   1      29.461  27.771  23.250  1.00  0.00     0.027 A 
ATOM     23  C   UNL A   1      31.289  27.802  25.340  1.00  0.00     0.010 A 
ATOM     24  C   UNL A   1      29.651  26.635  24.049  1.00  0.00     0.010 A 
BRANCH  20  25
ATOM     25  N   UNL A   1      30.089  30.097  22.727  1.00  0.00    -0.326 N 
ATOM     26  C   UNL A   1      27.869  30.895  23.499  1.00  0.00     0.114 C 
ATOM     27  C   UNL A   1      29.044  30.959  22.562  1.00  0.00     0.221 C 
ATOM     28  O   UNL A   1      29.118  31.835  21.699  1.00  0.00    -0.275 OA
ATOM     29  H   UNL A   1      30.902  30.338  22.227  1.00  0.00     0.169 HD
ENDBRANCH  20  25
ENDBRANCH   8  19
ENDBRANCH   4   7
ENDBRANCH   2   3
ENDBRANCH   1   2
BRANCH   1  30
ATOM     30  C   UNL A   1      40.000  22.760  27.297  1.00  0.00     0.023 C 
BRANCH  30  31
ATOM     31  C   UNL A   1      41.437  22.968  27.761  1.00  0.00     0.116 C 
BRANCH  31  32
ATOM     32  N   UNL A   1      42.422  22.957  26.674  1.00  0.00    -0.352 N 
ATOM     33  C   UNL A   1      42.808  24.006  25.854  1.00  0.00     0.251 C 
ATOM     34  H   UNL A   1      42.865  22.094  26.504  1.00  0.00     0.163 HD
ATOM     35  O   UNL A   1      43.322  23.805  24.760  1.00  0.00    -0.269 OA
BRANCH  33  36
ATOM     36  C   UNL A   1      42.602  25.386  26.331  1.00  0.00     0.039 A 
ATOM     37  C   UNL A   1      41.630  26.237  25.799  1.00  0.00     0.014 A 
ATOM     38  C   UNL A   1      43.405  25.803  27.384  1.00  0.00     0.014 A 
ATOM     39  C   UNL A   1      41.427  27.480  26.402  1.00  0.00     0.010 A 
ATOM     40  C   UNL A   1      43.054  26.906  28.107  1.00  0.00     0.010 A 
ATOM     41  C   UNL A   1      42.136  27.797  27.571  1.00  0.00    -0.014 A 
BRANCH  41  42
ATOM     42  C   UNL A   1      41.888  29.018  28.327  1.00  0.00     0.031 A 
ATOM     43  C   UNL A   1      42.881  30.099  28.093  1.00  0.00     0.074 A 
ATOM     44  C   UNL A   1      40.724  29.241  28.979  1.00  0.00     0.049 A 
ATOM     45  N   UNL A   1      43.711  30.603  28.943  1.00  0.00    -0.248 NA
ATOM     46  C   UNL A   1      43.063  30.593  26.718  1.00  0.00     0.031 C 
ATOM     47  C   UNL A   1      39.519  28.400  29.015  1.00  0.00     0.029 A 
ATOM     48  N   UNL A   1      40.327  30.341  29.672  1.00  0.00    -0.354 N 
ATOM     49  C   UNL A   1      44.384  31.618  28.266  1.00  0.00     0.074 A 
ATOM     50  C   UNL A   1      44.085  31.437  26.871  1.00  0.00     0.031 C 
ATOM     51  C   UNL A   1      38.472  29.116  29.481  1.00  0.00     0.029 A 
ATOM     52  C   UNL A   1      38.962  30.398  29.945  1.00  0.00     0.049 A 
ATOM     53  H   UNL A   1      40.954  31.043  29.958  1.00  0.00     0.167 HD
ATOM     54  C   UNL A   1      44.915  32.672  28.947  1.00  0.00     0.037 A 
ATOM     55  C   UNL A   1      38.289  31.439  30.497  1.00  0.00     0.037 A 
ATOM     56  C   UNL A   1      45.035  32.368  30.353  1.00  0.00     0.049 A 
ATOM     57  C   UNL A   1      39.295  32.297  31.169  1.00  0.00     0.074 A 
ATOM     58  C   UNL A   1      45.698  31.401  31.086  1.00  0.00     0.029 A 
ATOM     59  N   UNL A   1      44.090  32.885  31.204  1.00  0.00    -0.354 N 
ATOM     60  N   UNL A   1      39.963  31.937  32.228  1.00  0.00    -0.248 NA
ATOM     61  C   UNL A   1      39.889  33.370  30.387  1.00  0.00     0.031 C 
ATOM     62  C   UNL A   1      44.797  31.051  32.137  1.00  0.00     0.029 A 
ATOM     63  C   UNL A   1      43.676  31.873  32.030  1.00  0.00     0.049 A 
ATOM     64  H   UNL A   1      43.768  33.816  31.219  1.00  0.00     0.167 HD
ATOM     65  C   UNL A   1      41.248  32.406  32.006  1.00  0.00     0.074 A 
ATOM     66  C   UNL A   1      41.121  33.356  30.902  1.00  0.00     0.031 C 
ATOM     67  C   UNL A   1      42.328  31.762  32.537  1.00  0.00     0.037 A 
BRANCH  54  68
ATOM     68  C   UNL A   1      44.948  34.094  28.431  1.00  0.00     0.064 A 
ATOM     69  C   UNL A   1      46.179  34.783  28.416  1.00  0.00     0.173 A 
ATOM     70  C   UNL A   1      43.804  34.903  28.250  1.00  0.00     0.173 A 
ATOM     71  F   UNL A   1      47.334  34.120  28.585  1.00  0.00    -0.203 F 
ATOM     72  C   UNL A   1      46.249  36.176  28.330  1.00  0.00     0.198 A 
ATOM     73  C   UNL A   1      43.882  36.288  28.109  1.00  0.00     0.198 A 
ATOM     74  F   UNL A   1      42.561  34.415  28.315  1.00  0.00    -0.203 F 
ATOM     75  F   UNL A   1      47.432  36.791  28.464  1.00  0.00    -0.200 F 
ATOM     76  C   UNL A   1      45.099  36.928  28.187  1.00  0.00     0.200 A 
ATOM     77  F   UNL A   1      42.752  37.001  27.987  1.00  0.00    -0.200 F 
ATOM     78  F   UNL A   1      45.155  38.266  28.175  1.00  0.00    -0.200 F 
ENDBRANCH  54  68
BRANCH  55  79
ATOM     79  C   UNL A   1      36.908  31.910  30.242  1.00  0.00     0.064 A 
ATOM     80  C   UNL A   1      35.984  32.027  31.295  1.00  0.00     0.173 A 
ATOM     81  C   UNL A   1      36.563  32.548  29.035  1.00  0.00     0.173 A 
ATOM     82  F   UNL A   1      36.251  31.478  32.490  1.00  0.00    -0.203 F 
ATOM     83  C   UNL A   1      34.811  32.777  31.166  1.00  0.00     0.198 A 
ATOM     84  C   UNL A   1      35.388  33.293  28.906  1.00  0.00     0.198 A 
ATOM     85  F   UNL A   1      37.406  32.547  27.993  1.00  0.00    -0.203 F 
ATOM     86  F   UNL A   1      33.994  32.929  32.218  1.00  0.00    -0.200 F 
ATOM     87  C   UNL A   1      34.523  33.424  29.976  1.00  0.00     0.200 A 
ATOM     88  F   UNL A   1      35.137  33.942  27.760  1.00  0.00    -0.200 F 
ATOM     89  F   UNL A   1      33.438  34.205  29.874  1.00  0.00    -0.200 F 
ENDBRANCH  55  79
BRANCH  67  90
ATOM     90  C   UNL A   1      42.066  30.706  33.577  1.00  0.00     0.064 A 
ATOM     91  C   UNL A   1      41.765  29.362  33.291  1.00  0.00     0.173 A 
ATOM     92  C   UNL A   1      42.230  31.050  34.926  1.00  0.00     0.173 A 
ATOM     93  F   UNL A   1      41.694  28.923  32.029  1.00  0.00    -0.203 F 
ATOM     94  C   UNL A   1      41.579  28.425  34.308  1.00  0.00     0.198 A 
ATOM     95  C   UNL A   1      42.083  30.105  35.938  1.00  0.00     0.198 A 
ATOM     96  F   UNL A   1      42.572  32.303  35.262  1.00  0.00    -0.203 F 
ATOM     97  F   UNL A   1      41.268  27.156  34.004  1.00  0.00    -0.200 F 
ATOM     98  C   UNL A   1      41.742  28.798  35.630  1.00  0.00     0.200 A 
ATOM     99  F   UNL A   1      42.291  30.459  37.214  1.00  0.00    -0.200 F 
ATOM    100  F   UNL A   1      41.595  27.892  36.608  1.00  0.00    -0.200 F 
ENDBRANCH  67  90
ENDBRANCH  41  42
ENDBRANCH  33  36
ENDBRANCH  31  32
ENDBRANCH  30  31
ENDBRANCH   1  30
TORSDOF 13
ENDMDL
MODEL 2
REMARK VINA RESULT:     -13.4      2.482      3.429
REMARK SMILES CC(=O)Nc1ccc(/C=C2/CCc3oc(C(=O)NCCCCNC(=O)c4ccc(-c5c6nc(c(-c7c(F)c(F)c(F)c(F)c7F)c7ccc([nH]7)c(-c7c(F)c(F)c(F)c(F)c7F)c7nc(c(-c8c(F)c(F)c(F)c(F)c8F)c8ccc5[nH]8)C=C7)C=C6)cc4)c(C)c3C2=O)cc1
REMARK SMILES IDX 20 1 19 2 18 3 16 4 17 5 15 7 9 8 10 9 11 10 92 11 12 12
REMARK SMILES IDX 91 13 93 14 13 15 89 16 14 17 90 18 8 19 5 20 6 21 95 22
REMARK SMILES IDX 7 23 94 24 4 25 1 26 2 27 3 28 21 30 22 31 23 32 24 33 25 35
REMARK SMILES IDX 26 36 27 37 88 38 28 39 87 40 29 41 30 42 31 43 81 44 32 45
REMARK SMILES IDX 86 46 80 47 82 48 33 49 85 50 79 51 78 52 34 54 66 55 46 56
REMARK SMILES IDX 65 57 47 58 50 59 64 60 83 61 48 62 49 63 63 65 84 66 51 67
REMARK SMILES IDX 35 68 36 69 44 70 37 71 38 72 42 73 45 74 39 75 40 76 43 77
REMARK SMILES IDX 41 78 67 79 68 80 76 81 69 82 70 83 74 84 77 85 71 86 72 87
REMARK SMILES IDX 75 88 73 89 52 90 53 91 61 92 54 93 55 94 59 95 62 96 56 97
REMARK SMILES IDX 57 98 60 99 58 100
REMARK H PARENT 18 6 4 29 23 34 82 53 50 64
REMARK Flexibility Score: inf
ROOT
ATOM      1  C   UNL A   1      36.547  21.030  24.606  1.00  0.00     0.023 C 
ENDROOT
BRANCH   1   2
ATOM      2  C   UNL A   1      35.319  20.599  25.415  1.00  0.00     0.116 C 
BRANCH   2   3
ATOM      3  N   UNL A   1      34.342  19.870  24.621  1.00  0.00    -0.349 N 
ATOM      4  C   UNL A   1      33.065  20.187  24.199  1.00  0.00     0.287 C 
ATOM      5  O   UNL A   1      32.514  19.335  23.496  1.00  0.00    -0.266 OA
ATOM      6  H   UNL A   1      34.649  18.981  24.328  1.00  0.00     0.163 HD
BRANCH   4   7
ATOM      7  C   UNL A   1      32.421  21.440  24.568  1.00  0.00     0.195 A 
ATOM      8  C   UNL A   1      30.850  26.431  26.839  1.00  0.00     0.016 C 
ATOM      9  C   UNL A   1      30.563  25.371  26.058  1.00  0.00     0.001 C 
ATOM     10  C   UNL A   1      29.454  24.393  26.439  1.00  0.00     0.048 C 
ATOM     11  C   UNL A   1      31.316  24.966  24.810  1.00  0.00     0.192 C 
ATOM     12  C   UNL A   1      30.030  23.000  26.744  1.00  0.00     0.081 C 
ATOM     13  C   UNL A   1      31.662  23.554  24.843  1.00  0.00     0.067 A 
ATOM     14  O   UNL A   1      31.536  25.704  23.871  1.00  0.00    -0.289 OA
ATOM     15  C   UNL A   1      31.047  22.696  25.717  1.00  0.00     0.116 A 
ATOM     16  C   UNL A   1      32.585  22.752  24.100  1.00  0.00     0.012 A 
ATOM     17  O   UNL A   1      31.472  21.437  25.554  1.00  0.00    -0.455 OA
ATOM     18  C   UNL A   1      33.527  23.261  23.064  1.00  0.00     0.049 C 
BRANCH   8  19
ATOM     19  C   UNL A   1      31.920  27.450  26.811  1.00  0.00    -0.025 A 
ATOM     20  C   UNL A   1      33.860  29.522  26.905  1.00  0.00     0.041 A 
ATOM     21  C   UNL A   1      34.196  28.249  26.453  1.00  0.00     0.027 A 
ATOM     22  C   UNL A   1      32.543  29.775  27.275  1.00  0.00     0.027 A 
ATOM     23  C   UNL A   1      33.247  27.221  26.444  1.00  0.00     0.010 A 
ATOM     24  C   UNL A   1      31.585  28.753  27.219  1.00  0.00     0.010 A 
BRANCH  20  25
ATOM     25  N   UNL A   1      34.874  30.488  26.906  1.00  0.00    -0.326 N 
ATOM     26  C   UNL A   1      36.100  29.800  28.952  1.00  0.00     0.114 C 
ATOM     27  C   UNL A   1      35.828  30.775  27.838  1.00  0.00     0.221 C 
ATOM     28  O   UNL A   1      36.514  31.790  27.704  1.00  0.00    -0.275 OA
ATOM     29  H   UNL A   1      34.904  31.053  26.100  1.00  0.00     0.169 HD
ENDBRANCH  20  25
ENDBRANCH   8  19
ENDBRANCH   4   7
ENDBRANCH   2   3
ENDBRANCH   1   2
BRANCH   1  30
ATOM     30  C   UNL A   1      36.723  22.545  24.415  1.00  0.00     0.023 C 
BRANCH  30  31
ATOM     31  C   UNL A   1      37.691  23.214  25.385  1.00  0.00     0.116 C 
BRANCH  31  32
ATOM     32  N   UNL A   1      38.462  22.271  26.202  1.00  0.00    -0.352 N 
ATOM     33  C   UNL A   1      39.621  22.511  26.926  1.00  0.00     0.251 C 
ATOM     34  H   UNL A   1      38.114  21.351  26.241  1.00  0.00     0.163 HD
ATOM     35  O   UNL A   1      40.378  21.599  27.238  1.00  0.00    -0.269 OA
BRANCH  33  36
ATOM     36  C   UNL A   1      39.922  23.894  27.335  1.00  0.00     0.039 A 
ATOM     37  C   UNL A   1      38.965  24.913  27.331  1.00  0.00     0.014 A 
ATOM     38  C   UNL A   1      41.216  24.143  27.775  1.00  0.00     0.014 A 
ATOM     39  C   UNL A   1      39.314  26.159  27.856  1.00  0.00     0.010 A 
ATOM     40  C   UNL A   1      41.481  25.275  28.489  1.00  0.00     0.010 A 
ATOM     41  C   UNL A   1      40.574  26.324  28.451  1.00  0.00    -0.014 A 
BRANCH  41  42
ATOM     42  C   UNL A   1      40.963  27.553  29.129  1.00  0.00     0.031 A 
ATOM     43  C   UNL A   1      42.003  28.345  28.422  1.00  0.00     0.074 A 
ATOM     44  C   UNL A   1      40.260  28.057  30.170  1.00  0.00     0.049 A 
ATOM     45  N   UNL A   1      43.203  28.602  28.820  1.00  0.00    -0.248 NA
ATOM     46  C   UNL A   1      41.719  28.801  27.051  1.00  0.00     0.031 C 
ATOM     47  C   UNL A   1      39.011  27.554  30.761  1.00  0.00     0.029 A 
ATOM     48  N   UNL A   1      40.462  29.209  30.863  1.00  0.00    -0.354 N 
ATOM     49  C   UNL A   1      43.764  29.421  27.843  1.00  0.00     0.074 A 
ATOM     50  C   UNL A   1      42.885  29.349  26.706  1.00  0.00     0.031 C 
ATOM     51  C   UNL A   1      38.456  28.508  31.541  1.00  0.00     0.029 A 
ATOM     52  C   UNL A   1      39.388  29.611  31.653  1.00  0.00     0.049 A 
ATOM     53  H   UNL A   1      41.302  29.720  30.810  1.00  0.00     0.167 HD
ATOM     54  C   UNL A   1      44.765  30.290  28.156  1.00  0.00     0.037 A 
ATOM     55  C   UNL A   1      39.275  30.780  32.333  1.00  0.00     0.037 A 
ATOM     56  C   UNL A   1      45.373  29.939  29.418  1.00  0.00     0.049 A 
ATOM     57  C   UNL A   1      40.643  31.337  32.467  1.00  0.00     0.074 A 
ATOM     58  C   UNL A   1      46.022  28.820  29.907  1.00  0.00     0.029 A 
ATOM     59  N   UNL A   1      45.017  30.667  30.526  1.00  0.00    -0.354 N 
ATOM     60  N   UNL A   1      41.578  30.797  33.197  1.00  0.00    -0.248 NA
ATOM     61  C   UNL A   1      41.106  32.235  31.420  1.00  0.00     0.031 C 
ATOM     62  C   UNL A   1      45.576  28.695  31.258  1.00  0.00     0.029 A 
ATOM     63  C   UNL A   1      44.745  29.781  31.536  1.00  0.00     0.049 A 
ATOM     64  H   UNL A   1      44.966  31.649  30.585  1.00  0.00     0.167 HD
ATOM     65  C   UNL A   1      42.730  30.923  32.438  1.00  0.00     0.074 A 
ATOM     66  C   UNL A   1      42.397  31.894  31.397  1.00  0.00     0.031 C 
ATOM     67  C   UNL A   1      43.741  30.012  32.547  1.00  0.00     0.037 A 
BRANCH  54  68
ATOM     68  C   UNL A   1      44.928  31.664  27.545  1.00  0.00     0.064 A 
ATOM     69  C   UNL A   1      46.104  31.950  26.819  1.00  0.00     0.173 A 
ATOM     70  C   UNL A   1      44.149  32.790  27.895  1.00  0.00     0.173 A 
ATOM     71  F   UNL A   1      46.928  30.961  26.438  1.00  0.00    -0.203 F 
ATOM     72  C   UNL A   1      46.514  33.260  26.558  1.00  0.00     0.198 A 
ATOM     73  C   UNL A   1      44.535  34.093  27.584  1.00  0.00     0.198 A 
ATOM     74  F   UNL A   1      43.048  32.696  28.647  1.00  0.00    -0.203 F 
ATOM     75  F   UNL A   1      47.708  33.481  25.991  1.00  0.00    -0.200 F 
ATOM     76  C   UNL A   1      45.735  34.331  26.949  1.00  0.00     0.200 A 
ATOM     77  F   UNL A   1      43.770  35.118  27.986  1.00  0.00    -0.200 F 
ATOM     78  F   UNL A   1      46.157  35.588  26.763  1.00  0.00    -0.200 F 
ENDBRANCH  54  68
BRANCH  55  79
ATOM     79  C   UNL A   1      38.071  31.597  32.611  1.00  0.00     0.064 A 
ATOM     80  C   UNL A   1      37.684  31.878  33.933  1.00  0.00     0.173 A 
ATOM     81  C   UNL A   1      37.463  32.372  31.605  1.00  0.00     0.173 A 
ATOM     82  F   UNL A   1      38.240  31.209  34.954  1.00  0.00    -0.203 F 
ATOM     83  C   UNL A   1      36.784  32.904  34.235  1.00  0.00     0.198 A 
ATOM     84  C   UNL A   1      36.559  33.394  31.907  1.00  0.00     0.198 A 
ATOM     85  F   UNL A   1      37.811  32.222  30.319  1.00  0.00    -0.203 F 
ATOM     86  F   UNL A   1      36.501  33.192  35.513  1.00  0.00    -0.200 F 
ATOM     87  C   UNL A   1      36.235  33.672  33.222  1.00  0.00     0.200 A 
ATOM     88  F   UNL A   1      36.061  34.153  30.920  1.00  0.00    -0.200 F 
ATOM     89  F   UNL A   1      35.432  34.705  33.513  1.00  0.00    -0.200 F 
ENDBRANCH  55  79
BRANCH  67  90
ATOM     90  C   UNL A   1      43.680  29.040  33.696  1.00  0.00     0.064 A 
ATOM     91  C   UNL A   1      43.035  27.791  33.650  1.00  0.00     0.173 A 
ATOM     92  C   UNL A   1      44.397  29.345  34.860  1.00  0.00     0.173 A 
ATOM     93  F   UNL A   1      42.416  27.373  32.540  1.00  0.00    -0.203 F 
ATOM     94  C   UNL A   1      43.059  26.919  34.739  1.00  0.00     0.198 A 
ATOM     95  C   UNL A   1      44.453  28.458  35.931  1.00  0.00     0.198 A 
ATOM     96  F   UNL A   1      45.081  30.497  34.945  1.00  0.00    -0.203 F 
ATOM     97  F   UNL A   1      42.412  25.745  34.674  1.00  0.00    -0.200 F 
ATOM     98  C   UNL A   1      43.771  27.253  35.877  1.00  0.00     0.200 A 
ATOM     99  F   UNL A   1      45.185  28.764  37.012  1.00  0.00    -0.200 F 
ATOM    100  F   UNL A   1      43.821  26.404  36.913  1.00  0.00    -0.200 F 
ENDBRANCH  67  90
ENDBRANCH  41  42
ENDBRANCH  33  36
ENDBRANCH  31  32
ENDBRANCH  30  31
ENDBRANCH   1  30
TORSDOF 13
ENDMDL
MODEL 3
REMARK VINA RESULT:     -13.3      4.092      9.613
REMARK SMILES CC(=O)Nc1ccc(/C=C2/CCc3oc(C(=O)NCCCCNC(=O)c4ccc(-c5c6nc(c(-c7c(F)c(F)c(F)c(F)c7F)c7ccc([nH]7)c(-c7c(F)c(F)c(F)c(F)c7F)c7nc(c(-c8c(F)c(F)c(F)c(F)c8F)c8ccc5[nH]8)C=C7)C=C6)cc4)c(C)c3C2=O)cc1
REMARK SMILES IDX 20 1 19 2 18 3 16 4 17 5 15 7 9 8 10 9 11 10 92 11 12 12
REMARK SMILES IDX 91 13 93 14 13 15 89 16 14 17 90 18 8 19 5 20 6 21 95 22
REMARK SMILES IDX 7 23 94 24 4 25 1 26 2 27 3 28 21 30 22 31 23 32 24 33 25 35
REMARK SMILES IDX 26 36 27 37 88 38 28 39 87 40 29 41 30 42 31 43 81 44 32 45
REMARK SMILES IDX 86 46 80 47 82 48 33 49 85 50 79 51 78 52 34 54 66 55 46 56
REMARK SMILES IDX 65 57 47 58 50 59 64 60 83 61 48 62 49 63 63 65 84 66 51 67
REMARK SMILES IDX 35 68 36 69 44 70 37 71 38 72 42 73 45 74 39 75 40 76 43 77
REMARK SMILES IDX 41 78 67 79 68 80 76 81 69 82 70 83 74 84 77 85 71 86 72 87
REMARK SMILES IDX 75 88 73 89 52 90 53 91 61 92 54 93 55 94 59 95 62 96 56 97
REMARK SMILES IDX 57 98 60 99 58 100
REMARK H PARENT 18 6 4 29 23 34 82 53 50 64
REMARK Flexibility Score: inf
ROOT
ATOM      1  C   UNL A   1      34.867  29.844  27.704  1.00  0.00     0.023 C 
ENDROOT
BRANCH   1   2
ATOM      2  C   UNL A   1      33.740  28.979  27.129  1.00  0.00     0.116 C 
BRANCH   2   3
ATOM      3  N   UNL A   1      32.637  29.763  26.595  1.00  0.00    -0.349 N 
ATOM      4  C   UNL A   1      31.768  29.547  25.542  1.00  0.00     0.287 C 
ATOM      5  O   UNL A   1      30.909  30.418  25.379  1.00  0.00    -0.266 OA
ATOM      6  H   UNL A   1      32.480  30.609  27.074  1.00  0.00     0.163 HD
BRANCH   4   7
ATOM      7  C   UNL A   1      31.870  28.371  24.689  1.00  0.00     0.195 A 
ATOM      8  C   UNL A   1      33.200  23.446  22.137  1.00  0.00     0.016 C 
ATOM      9  C   UNL A   1      32.538  24.620  22.118  1.00  0.00     0.001 C 
ATOM     10  C   UNL A   1      32.892  25.704  21.103  1.00  0.00     0.048 C 
ATOM     11  C   UNL A   1      31.473  25.048  23.103  1.00  0.00     0.192 C 
ATOM     12  C   UNL A   1      33.461  26.950  21.803  1.00  0.00     0.081 C 
ATOM     13  C   UNL A   1      31.747  26.378  23.624  1.00  0.00     0.067 A 
ATOM     14  O   UNL A   1      30.482  24.398  23.368  1.00  0.00    -0.289 OA
ATOM     15  C   UNL A   1      32.636  27.213  22.999  1.00  0.00     0.116 A 
ATOM     16  C   UNL A   1      31.255  27.112  24.749  1.00  0.00     0.012 A 
ATOM     17  O   UNL A   1      32.706  28.404  23.607  1.00  0.00    -0.455 OA
ATOM     18  C   UNL A   1      30.299  26.590  25.766  1.00  0.00     0.049 C 
BRANCH   8  19
ATOM     19  C   UNL A   1      33.181  22.287  23.054  1.00  0.00    -0.025 A 
ATOM     20  C   UNL A   1      33.044  19.947  24.656  1.00  0.00     0.041 A 
ATOM     21  C   UNL A   1      33.970  20.948  24.933  1.00  0.00     0.027 A 
ATOM     22  C   UNL A   1      32.156  20.128  23.600  1.00  0.00     0.027 A 
ATOM     23  C   UNL A   1      34.060  22.083  24.118  1.00  0.00     0.010 A 
ATOM     24  C   UNL A   1      32.219  21.290  22.817  1.00  0.00     0.010 A 
BRANCH  20  25
ATOM     25  N   UNL A   1      33.035  18.833  25.504  1.00  0.00    -0.326 N 
ATOM     26  C   UNL A   1      34.096  17.162  24.006  1.00  0.00     0.114 C 
ATOM     27  C   UNL A   1      33.354  17.528  25.263  1.00  0.00     0.221 C 
ATOM     28  O   UNL A   1      33.105  16.679  26.120  1.00  0.00    -0.275 OA
ATOM     29  H   UNL A   1      32.754  19.022  26.429  1.00  0.00     0.169 HD
ENDBRANCH  20  25
ENDBRANCH   8  19
ENDBRANCH   4   7
ENDBRANCH   2   3
ENDBRANCH   1   2
BRANCH   1  30
ATOM     30  C   UNL A   1      34.654  31.363  27.618  1.00  0.00     0.023 C 
BRANCH  30  31
ATOM     31  C   UNL A   1      35.741  32.209  28.272  1.00  0.00     0.116 C 
BRANCH  31  32
ATOM     32  N   UNL A   1      35.545  32.423  29.710  1.00  0.00    -0.352 N 
ATOM     33  C   UNL A   1      36.097  31.715  30.767  1.00  0.00     0.251 C 
ATOM     34  H   UNL A   1      34.944  33.164  29.957  1.00  0.00     0.163 HD
ATOM     35  O   UNL A   1      35.578  31.718  31.876  1.00  0.00    -0.269 OA
BRANCH  33  36
ATOM     36  C   UNL A   1      37.344  30.963  30.536  1.00  0.00     0.039 A 
ATOM     37  C   UNL A   1      38.599  31.575  30.477  1.00  0.00     0.014 A 
ATOM     38  C   UNL A   1      37.224  29.585  30.417  1.00  0.00     0.014 A 
ATOM     39  C   UNL A   1      39.733  30.765  30.381  1.00  0.00     0.010 A 
ATOM     40  C   UNL A   1      38.329  28.796  30.555  1.00  0.00     0.010 A 
ATOM     41  C   UNL A   1      39.585  29.371  30.440  1.00  0.00    -0.014 A 
BRANCH  41  42
ATOM     42  C   UNL A   1      40.727  28.466  30.472  1.00  0.00     0.031 A 
ATOM     43  C   UNL A   1      41.228  28.155  31.836  1.00  0.00     0.074 A 
ATOM     44  C   UNL A   1      41.129  27.771  29.383  1.00  0.00     0.049 A 
ATOM     45  N   UNL A   1      42.376  28.459  32.342  1.00  0.00    -0.248 NA
ATOM     46  C   UNL A   1      40.296  27.544  32.798  1.00  0.00     0.031 C 
ATOM     47  C   UNL A   1      40.515  27.724  28.048  1.00  0.00     0.029 A 
ATOM     48  N   UNL A   1      42.130  26.857  29.271  1.00  0.00    -0.354 N 
ATOM     49  C   UNL A   1      42.392  27.903  33.619  1.00  0.00     0.074 A 
ATOM     50  C   UNL A   1      41.033  27.528  33.910  1.00  0.00     0.031 C 
ATOM     51  C   UNL A   1      41.002  26.672  27.355  1.00  0.00     0.029 A 
ATOM     52  C   UNL A   1      42.084  26.081  28.116  1.00  0.00     0.049 A 
ATOM     53  H   UNL A   1      42.830  26.751  29.954  1.00  0.00     0.167 HD
ATOM     54  C   UNL A   1      43.569  27.565  34.214  1.00  0.00     0.037 A 
ATOM     55  C   UNL A   1      42.873  25.016  27.823  1.00  0.00     0.037 A 
ATOM     56  C   UNL A   1      44.680  28.213  33.559  1.00  0.00     0.049 A 
ATOM     57  C   UNL A   1      44.064  25.105  28.703  1.00  0.00     0.074 A 
ATOM     58  C   UNL A   1      45.036  29.528  33.320  1.00  0.00     0.029 A 
ATOM     59  N   UNL A   1      45.436  27.468  32.688  1.00  0.00    -0.354 N 
ATOM     60  N   UNL A   1      44.973  26.033  28.601  1.00  0.00    -0.248 NA
ATOM     61  C   UNL A   1      43.996  24.433  29.991  1.00  0.00     0.031 C 
ATOM     62  C   UNL A   1      45.589  29.527  32.003  1.00  0.00     0.029 A 
ATOM     63  C   UNL A   1      45.609  28.208  31.549  1.00  0.00     0.049 A 
ATOM     64  H   UNL A   1      45.790  26.563  32.853  1.00  0.00     0.167 HD
ATOM     65  C   UNL A   1      45.278  26.369  29.910  1.00  0.00     0.074 A 
ATOM     66  C   UNL A   1      44.714  25.291  30.721  1.00  0.00     0.031 C 
ATOM     67  C   UNL A   1      45.696  27.629  30.229  1.00  0.00     0.037 A 
BRANCH  54  68
ATOM     68  C   UNL A   1      43.761  26.359  35.108  1.00  0.00     0.064 A 
ATOM     69  C   UNL A   1      44.358  26.540  36.373  1.00  0.00     0.173 A 
ATOM     70  C   UNL A   1      43.679  25.019  34.668  1.00  0.00     0.173 A 
ATOM     71  F   UNL A   1      44.498  27.769  36.893  1.00  0.00    -0.203 F 
ATOM     72  C   UNL A   1      44.917  25.477  37.088  1.00  0.00     0.198 A 
ATOM     73  C   UNL A   1      44.188  23.955  35.410  1.00  0.00     0.198 A 
ATOM     74  F   UNL A   1      43.210  24.687  33.461  1.00  0.00    -0.203 F 
ATOM     75  F   UNL A   1      45.598  25.721  38.217  1.00  0.00    -0.200 F 
ATOM     76  C   UNL A   1      44.841  24.187  36.601  1.00  0.00     0.200 A 
ATOM     77  F   UNL A   1      44.117  22.712  34.911  1.00  0.00    -0.200 F 
ATOM     78  F   UNL A   1      45.435  23.176  37.248  1.00  0.00    -0.200 F 
ENDBRANCH  54  68
BRANCH  55  79
ATOM     79  C   UNL A   1      42.550  23.781  27.072  1.00  0.00     0.064 A 
ATOM     80  C   UNL A   1      43.460  23.248  26.142  1.00  0.00     0.173 A 
ATOM     81  C   UNL A   1      41.500  22.933  27.473  1.00  0.00     0.173 A 
ATOM     82  F   UNL A   1      44.509  23.977  25.733  1.00  0.00    -0.203 F 
ATOM     83  C   UNL A   1      43.355  21.933  25.679  1.00  0.00     0.198 A 
ATOM     84  C   UNL A   1      41.393  21.621  27.006  1.00  0.00     0.198 A 
ATOM     85  F   UNL A   1      40.617  23.326  28.402  1.00  0.00    -0.203 F 
ATOM     86  F   UNL A   1      44.287  21.438  24.853  1.00  0.00    -0.200 F 
ATOM     87  C   UNL A   1      42.331  21.115  26.124  1.00  0.00     0.200 A 
ATOM     88  F   UNL A   1      40.417  20.828  27.471  1.00  0.00    -0.200 F 
ATOM     89  F   UNL A   1      42.272  19.832  25.741  1.00  0.00    -0.200 F 
ENDBRANCH  55  79
BRANCH  67  90
ATOM     90  C   UNL A   1      46.070  28.545  29.095  1.00  0.00     0.064 A 
ATOM     91  C   UNL A   1      45.172  29.403  28.434  1.00  0.00     0.173 A 
ATOM     92  C   UNL A   1      47.420  28.633  28.732  1.00  0.00     0.173 A 
ATOM     93  F   UNL A   1      43.884  29.463  28.789  1.00  0.00    -0.203 F 
ATOM     94  C   UNL A   1      45.598  30.262  27.420  1.00  0.00     0.198 A 
ATOM     95  C   UNL A   1      47.851  29.518  27.747  1.00  0.00     0.198 A 
ATOM     96  F   UNL A   1      48.335  27.880  29.363  1.00  0.00    -0.203 F 
ATOM     97  F   UNL A   1      44.714  31.051  26.790  1.00  0.00    -0.200 F 
ATOM     98  C   UNL A   1      46.938  30.320  27.081  1.00  0.00     0.200 A 
ATOM     99  F   UNL A   1      49.156  29.606  27.456  1.00  0.00    -0.200 F 
ATOM    100  F   UNL A   1      47.355  31.166  26.128  1.00  0.00    -0.200 F 
ENDBRANCH  67  90
ENDBRANCH  41  42
ENDBRANCH  33  36
ENDBRANCH  31  32
ENDBRANCH  30  31
ENDBRANCH   1  30
TORSDOF 13
ENDMDL
