MODEL 1
REMARK VINA RESULT:     -11.9      0.000      0.000
REMARK SMILES O=C(NCCCCNC(=O)c1cn(-c2cc(Cl)ncn2)cn1)c1ccc(-c2c3nc(c(-c4c(F)c(F)c(F)c(F)c4F)c4ccc([nH]4)c(-c4c(F)c(F)c(F)c(F)c4F)c4nc(c(-c5c(F)c(F)c(F)c(F)c5F)c5ccc2[nH]5)C=C4)C=C3)cc1
REMARK SMILES IDX 5 1 4 2 3 3 1 4 2 5 23 7 24 8 85 9 25 10 84 11 26 12 27 13
REMARK SMILES IDX 28 14 78 15 29 16 83 17 77 18 79 19 30 20 82 21 76 22 75 23
REMARK SMILES IDX 31 25 63 26 43 27 62 28 44 29 47 30 61 31 80 32 45 33 46 34
REMARK SMILES IDX 60 36 81 37 48 38 32 39 33 40 41 41 34 42 35 43 39 44 42 45
REMARK SMILES IDX 36 46 37 47 40 48 38 49 64 50 65 51 73 52 66 53 67 54 71 55
REMARK SMILES IDX 74 56 68 57 69 58 72 59 70 60 49 61 50 62 58 63 51 64 52 65
REMARK SMILES IDX 56 66 59 67 53 68 54 69 57 70 55 71 6 72 7 73 8 74 9 75
REMARK SMILES IDX 10 77 11 78 12 79 22 80 13 81 21 82 14 83 15 84 20 85 16 86
REMARK SMILES IDX 19 87 17 88 18 89
REMARK H PARENT 3 6 79 24 47 35 8 76
REMARK Flexibility Score: inf
ROOT
ATOM      1  C   UNL A   1      41.930  20.228  27.452  1.00  0.00     0.023 C 
ENDROOT
BRANCH   1   2
ATOM      2  C   UNL A   1      41.602  21.235  26.348  1.00  0.00     0.116 C 
BRANCH   2   3
ATOM      3  N   UNL A   1      40.190  21.521  26.191  1.00  0.00    -0.352 N 
ATOM      4  O   UNL A   1      38.224  22.520  26.071  1.00  0.00    -0.269 OA
ATOM      5  C   UNL A   1      39.406  22.619  26.410  1.00  0.00     0.251 C 
ATOM      6  H   UNL A   1      39.682  20.750  25.850  1.00  0.00     0.163 HD
BRANCH   5   7
ATOM      7  C   UNL A   1      39.860  23.880  27.061  1.00  0.00     0.039 A 
ATOM      8  C   UNL A   1      41.042  24.040  27.786  1.00  0.00     0.014 A 
ATOM      9  C   UNL A   1      39.004  24.988  26.936  1.00  0.00     0.014 A 
ATOM     10  C   UNL A   1      41.317  25.231  28.455  1.00  0.00     0.010 A 
ATOM     11  C   UNL A   1      39.294  26.196  27.568  1.00  0.00     0.010 A 
ATOM     12  C   UNL A   1      40.433  26.303  28.368  1.00  0.00    -0.014 A 
BRANCH  12  13
ATOM     13  C   UNL A   1      40.762  27.533  29.095  1.00  0.00     0.031 A 
ATOM     14  C   UNL A   1      41.906  28.361  28.596  1.00  0.00     0.074 A 
ATOM     15  C   UNL A   1      39.959  28.021  30.062  1.00  0.00     0.049 A 
ATOM     16  N   UNL A   1      42.838  28.961  29.275  1.00  0.00    -0.248 NA
ATOM     17  C   UNL A   1      42.009  28.562  27.142  1.00  0.00     0.031 C 
ATOM     18  C   UNL A   1      38.643  27.520  30.463  1.00  0.00     0.029 A 
ATOM     19  N   UNL A   1      40.101  29.164  30.797  1.00  0.00    -0.354 N 
ATOM     20  C   UNL A   1      43.554  29.731  28.356  1.00  0.00     0.074 A 
ATOM     21  C   UNL A   1      43.036  29.406  27.052  1.00  0.00     0.031 C 
ATOM     22  C   UNL A   1      38.012  28.471  31.183  1.00  0.00     0.029 A 
ATOM     23  C   UNL A   1      38.924  29.584  31.389  1.00  0.00     0.049 A 
ATOM     24  H   UNL A   1      40.956  29.642  30.896  1.00  0.00     0.167 HD
ATOM     25  C   UNL A   1      44.433  30.704  28.719  1.00  0.00     0.037 A 
ATOM     26  C   UNL A   1      38.671  30.798  31.928  1.00  0.00     0.037 A 
ATOM     27  C   UNL A   1      44.943  30.532  30.047  1.00  0.00     0.049 A 
ATOM     28  C   UNL A   1      39.956  31.473  32.213  1.00  0.00     0.074 A 
ATOM     29  C   UNL A   1      45.678  29.558  30.694  1.00  0.00     0.029 A 
ATOM     30  N   UNL A   1      44.538  31.390  31.037  1.00  0.00    -0.354 N 
ATOM     31  N   UNL A   1      40.795  31.121  33.146  1.00  0.00    -0.248 NA
ATOM     32  C   UNL A   1      40.477  32.406  31.224  1.00  0.00     0.031 C 
ATOM     33  C   UNL A   1      45.277  29.622  32.060  1.00  0.00     0.029 A 
ATOM     34  C   UNL A   1      44.305  30.619  32.145  1.00  0.00     0.049 A 
ATOM     35  H   UNL A   1      44.434  32.366  30.965  1.00  0.00     0.167 HD
ATOM     36  C   UNL A   1      42.040  31.473  32.652  1.00  0.00     0.074 A 
ATOM     37  C   UNL A   1      41.771  32.376  31.543  1.00  0.00     0.031 C 
ATOM     38  C   UNL A   1      43.160  30.779  33.005  1.00  0.00     0.037 A 
BRANCH  25  39
ATOM     39  C   UNL A   1      44.661  31.969  27.930  1.00  0.00     0.064 A 
ATOM     40  C   UNL A   1      45.838  32.136  27.175  1.00  0.00     0.173 A 
ATOM     41  C   UNL A   1      43.883  33.131  28.118  1.00  0.00     0.173 A 
ATOM     42  F   UNL A   1      46.675  31.107  26.976  1.00  0.00    -0.203 F 
ATOM     43  C   UNL A   1      46.223  33.384  26.674  1.00  0.00     0.198 A 
ATOM     44  C   UNL A   1      44.245  34.364  27.575  1.00  0.00     0.198 A 
ATOM     45  F   UNL A   1      42.806  33.132  28.914  1.00  0.00    -0.203 F 
ATOM     46  F   UNL A   1      47.401  33.516  26.049  1.00  0.00    -0.200 F 
ATOM     47  C   UNL A   1      45.426  34.496  26.873  1.00  0.00     0.200 A 
ATOM     48  F   UNL A   1      43.473  35.437  27.799  1.00  0.00    -0.200 F 
ATOM     49  F   UNL A   1      45.816  35.700  26.434  1.00  0.00    -0.200 F 
ENDBRANCH  25  39
BRANCH  26  50
ATOM     50  C   UNL A   1      37.371  31.503  31.961  1.00  0.00     0.064 A 
ATOM     51  C   UNL A   1      36.779  31.890  33.171  1.00  0.00     0.173 A 
ATOM     52  C   UNL A   1      36.787  32.009  30.782  1.00  0.00     0.173 A 
ATOM     53  F   UNL A   1      37.313  31.502  34.338  1.00  0.00    -0.203 F 
ATOM     54  C   UNL A   1      35.659  32.726  33.199  1.00  0.00     0.198 A 
ATOM     55  C   UNL A   1      35.661  32.829  30.810  1.00  0.00     0.198 A 
ATOM     56  F   UNL A   1      37.349  31.784  29.585  1.00  0.00    -0.203 F 
ATOM     57  F   UNL A   1      35.146  33.116  34.374  1.00  0.00    -0.200 F 
ATOM     58  C   UNL A   1      35.102  33.194  32.018  1.00  0.00     0.200 A 
ATOM     59  F   UNL A   1      35.155  33.302  29.663  1.00  0.00    -0.200 F 
ATOM     60  F   UNL A   1      34.051  34.025  32.047  1.00  0.00    -0.200 F 
ENDBRANCH  26  50
BRANCH  38  61
ATOM     61  C   UNL A   1      43.062  29.851  34.179  1.00  0.00     0.064 A 
ATOM     62  C   UNL A   1      42.561  28.543  34.077  1.00  0.00     0.173 A 
ATOM     63  C   UNL A   1      43.621  30.241  35.401  1.00  0.00     0.173 A 
ATOM     64  F   UNL A   1      42.116  28.068  32.906  1.00  0.00    -0.203 F 
ATOM     65  C   UNL A   1      42.574  27.680  35.170  1.00  0.00     0.198 A 
ATOM     66  C   UNL A   1      43.664  29.365  36.484  1.00  0.00     0.198 A 
ATOM     67  F   UNL A   1      44.176  31.457  35.532  1.00  0.00    -0.203 F 
ATOM     68  F   UNL A   1      42.083  26.437  35.051  1.00  0.00    -0.200 F 
ATOM     69  C   UNL A   1      43.130  28.090  36.371  1.00  0.00     0.200 A 
ATOM     70  F   UNL A   1      44.249  29.745  37.628  1.00  0.00    -0.200 F 
ATOM     71  F   UNL A   1      43.179  27.245  37.411  1.00  0.00    -0.200 F 
ENDBRANCH  38  61
ENDBRANCH  12  13
ENDBRANCH   5   7
ENDBRANCH   2   3
ENDBRANCH   1   2
BRANCH   1  72
ATOM     72  C   UNL A   1      42.539  18.907  26.975  1.00  0.00     0.023 C 
BRANCH  72  73
ATOM     73  C   UNL A   1      43.136  18.932  25.574  1.00  0.00     0.116 C 
BRANCH  73  74
ATOM     74  N   UNL A   1      44.508  18.454  25.538  1.00  0.00    -0.351 N 
ATOM     75  C   UNL A   1      45.660  19.161  25.236  1.00  0.00     0.271 C 
ATOM     76  H   UNL A   1      44.635  17.503  25.758  1.00  0.00     0.163 HD
ATOM     77  O   UNL A   1      46.731  18.620  25.273  1.00  0.00    -0.267 OA
BRANCH  75  78
ATOM     78  C   UNL A   1      45.471  20.577  24.915  1.00  0.00     0.146 A 
ATOM     79  C   UNL A   1      45.898  21.649  25.678  1.00  0.00     0.128 A 
ATOM     80  N   UNL A   1      44.706  21.016  23.858  1.00  0.00    -0.231 NA
ATOM     81  N   UNL A   1      45.283  22.755  25.140  1.00  0.00    -0.290 N 
ATOM     82  C   UNL A   1      44.619  22.317  24.016  1.00  0.00     0.206 A 
BRANCH  81  83
ATOM     83  C   UNL A   1      45.230  24.073  25.660  1.00  0.00     0.142 A 
ATOM     84  C   UNL A   1      45.042  24.281  27.008  1.00  0.00     0.088 A 
ATOM     85  N   UNL A   1      45.314  25.088  24.770  1.00  0.00    -0.219 NA
ATOM     86  C   UNL A   1      44.935  25.599  27.377  1.00  0.00     0.134 A 
ATOM     87  C   UNL A   1      45.161  26.329  25.254  1.00  0.00     0.226 A 
ATOM     88  Cl  UNL A   1      44.728  26.027  29.026  1.00  0.00    -0.062 Cl
ATOM     89  N   UNL A   1      44.973  26.643  26.536  1.00  0.00    -0.224 NA
ENDBRANCH  81  83
ENDBRANCH  75  78
ENDBRANCH  73  74
ENDBRANCH  72  73
ENDBRANCH   1  72
TORSDOF 12
ENDMDL
MODEL 2
REMARK VINA RESULT:     -11.8      4.037     11.482
REMARK SMILES O=C(NCCCCNC(=O)c1cn(-c2cc(Cl)ncn2)cn1)c1ccc(-c2c3nc(c(-c4c(F)c(F)c(F)c(F)c4F)c4ccc([nH]4)c(-c4c(F)c(F)c(F)c(F)c4F)c4nc(c(-c5c(F)c(F)c(F)c(F)c5F)c5ccc2[nH]5)C=C4)C=C3)cc1
REMARK SMILES IDX 5 1 4 2 3 3 1 4 2 5 23 7 24 8 85 9 25 10 84 11 26 12 27 13
REMARK SMILES IDX 28 14 78 15 29 16 83 17 77 18 79 19 30 20 82 21 76 22 75 23
REMARK SMILES IDX 31 25 63 26 43 27 62 28 44 29 47 30 61 31 80 32 45 33 46 34
REMARK SMILES IDX 60 36 81 37 48 38 32 39 33 40 41 41 34 42 35 43 39 44 42 45
REMARK SMILES IDX 36 46 37 47 40 48 38 49 64 50 65 51 73 52 66 53 67 54 71 55
REMARK SMILES IDX 74 56 68 57 69 58 72 59 70 60 49 61 50 62 58 63 51 64 52 65
REMARK SMILES IDX 56 66 59 67 53 68 54 69 57 70 55 71 6 72 7 73 8 74 9 75
REMARK SMILES IDX 10 77 11 78 12 79 22 80 13 81 21 82 14 83 15 84 20 85 16 86
REMARK SMILES IDX 19 87 17 88 18 89
REMARK H PARENT 3 6 79 24 47 35 8 76
REMARK Flexibility Score: inf
ROOT
ATOM      1  C   UNL A   1      34.343  34.791  28.274  1.00  0.00     0.023 C 
ENDROOT
BRANCH   1   2
ATOM      2  C   UNL A   1      34.104  33.432  28.935  1.00  0.00     0.116 C 
BRANCH   2   3
ATOM      3  N   UNL A   1      33.798  32.357  28.012  1.00  0.00    -0.352 N 
ATOM      4  O   UNL A   1      33.810  30.462  26.877  1.00  0.00    -0.269 OA
ATOM      5  C   UNL A   1      34.426  31.196  27.653  1.00  0.00     0.251 C 
ATOM      6  H   UNL A   1      32.947  32.493  27.537  1.00  0.00     0.163 HD
BRANCH   5   7
ATOM      7  C   UNL A   1      35.794  30.793  28.086  1.00  0.00     0.039 A 
ATOM      8  C   UNL A   1      36.806  31.662  28.496  1.00  0.00     0.014 A 
ATOM      9  C   UNL A   1      36.073  29.415  28.059  1.00  0.00     0.014 A 
ATOM     10  C   UNL A   1      38.089  31.191  28.769  1.00  0.00     0.010 A 
ATOM     11  C   UNL A   1      37.342  28.933  28.373  1.00  0.00     0.010 A 
ATOM     12  C   UNL A   1      38.367  29.829  28.685  1.00  0.00    -0.014 A 
BRANCH  12  13
ATOM     13  C   UNL A   1      39.732  29.382  28.975  1.00  0.00     0.031 A 
ATOM     14  C   UNL A   1      40.135  29.235  30.411  1.00  0.00     0.074 A 
ATOM     15  C   UNL A   1      40.551  28.928  28.005  1.00  0.00     0.049 A 
ATOM     16  N   UNL A   1      41.250  29.575  30.985  1.00  0.00    -0.248 NA
ATOM     17  C   UNL A   1      39.167  28.605  31.321  1.00  0.00     0.031 C 
ATOM     18  C   UNL A   1      40.220  28.700  26.597  1.00  0.00     0.029 A 
ATOM     19  N   UNL A   1      41.823  28.442  28.115  1.00  0.00    -0.354 N 
ATOM     20  C   UNL A   1      41.186  29.072  32.286  1.00  0.00     0.074 A 
ATOM     21  C   UNL A   1      39.861  28.533  32.457  1.00  0.00     0.031 C 
ATOM     22  C   UNL A   1      41.167  27.912  26.046  1.00  0.00     0.029 A 
ATOM     23  C   UNL A   1      42.217  27.687  27.026  1.00  0.00     0.049 A 
ATOM     24  H   UNL A   1      42.402  28.612  28.893  1.00  0.00     0.167 HD
ATOM     25  C   UNL A   1      42.265  28.991  33.112  1.00  0.00     0.037 A 
ATOM     26  C   UNL A   1      43.278  26.851  26.954  1.00  0.00     0.037 A 
ATOM     27  C   UNL A   1      43.314  29.900  32.755  1.00  0.00     0.049 A 
ATOM     28  C   UNL A   1      44.227  27.189  28.038  1.00  0.00     0.074 A 
ATOM     29  C   UNL A   1      43.427  31.273  32.662  1.00  0.00     0.029 A 
ATOM     30  N   UNL A   1      44.470  29.409  32.209  1.00  0.00    -0.354 N 
ATOM     31  N   UNL A   1      44.954  28.271  28.085  1.00  0.00    -0.248 NA
ATOM     32  C   UNL A   1      44.155  26.431  29.277  1.00  0.00     0.031 C 
ATOM     33  C   UNL A   1      44.406  31.508  31.654  1.00  0.00     0.029 A 
ATOM     34  C   UNL A   1      44.805  30.256  31.186  1.00  0.00     0.049 A 
ATOM     35  H   UNL A   1      44.963  28.605  32.494  1.00  0.00     0.167 HD
ATOM     36  C   UNL A   1      45.106  28.533  29.436  1.00  0.00     0.074 A 
ATOM     37  C   UNL A   1      44.718  27.304  30.112  1.00  0.00     0.031 C 
ATOM     38  C   UNL A   1      45.260  29.810  29.892  1.00  0.00     0.037 A 
BRANCH  25  39
ATOM     39  C   UNL A   1      42.465  27.896  34.130  1.00  0.00     0.064 A 
ATOM     40  C   UNL A   1      43.090  26.688  33.763  1.00  0.00     0.173 A 
ATOM     41  C   UNL A   1      41.812  27.894  35.381  1.00  0.00     0.173 A 
ATOM     42  F   UNL A   1      43.699  26.566  32.574  1.00  0.00    -0.203 F 
ATOM     43  C   UNL A   1      43.035  25.552  34.577  1.00  0.00     0.198 A 
ATOM     44  C   UNL A   1      41.801  26.774  36.212  1.00  0.00     0.198 A 
ATOM     45  F   UNL A   1      41.081  28.939  35.791  1.00  0.00    -0.203 F 
ATOM     46  F   UNL A   1      43.556  24.396  34.144  1.00  0.00    -0.200 F 
ATOM     47  C   UNL A   1      42.392  25.597  35.801  1.00  0.00     0.200 A 
ATOM     48  F   UNL A   1      41.153  26.827  37.384  1.00  0.00    -0.200 F 
ATOM     49  F   UNL A   1      42.300  24.497  36.561  1.00  0.00    -0.200 F 
ENDBRANCH  25  39
BRANCH  26  50
ATOM     50  C   UNL A   1      43.380  25.609  26.158  1.00  0.00     0.064 A 
ATOM     51  C   UNL A   1      44.509  25.331  25.376  1.00  0.00     0.173 A 
ATOM     52  C   UNL A   1      42.453  24.560  26.325  1.00  0.00     0.173 A 
ATOM     53  F   UNL A   1      45.467  26.256  25.222  1.00  0.00    -0.203 F 
ATOM     54  C   UNL A   1      44.695  24.078  24.787  1.00  0.00     0.198 A 
ATOM     55  C   UNL A   1      42.632  23.316  25.723  1.00  0.00     0.198 A 
ATOM     56  F   UNL A   1      41.400  24.695  27.145  1.00  0.00    -0.203 F 
ATOM     57  F   UNL A   1      45.810  23.829  24.084  1.00  0.00    -0.200 F 
ATOM     58  C   UNL A   1      43.756  23.072  24.960  1.00  0.00     0.200 A 
ATOM     59  F   UNL A   1      41.733  22.343  25.929  1.00  0.00    -0.200 F 
ATOM     60  F   UNL A   1      43.954  21.860  24.424  1.00  0.00    -0.200 F 
ENDBRANCH  26  50
BRANCH  38  61
ATOM     61  C   UNL A   1      45.587  30.873  28.887  1.00  0.00     0.064 A 
ATOM     62  C   UNL A   1      44.605  31.547  28.143  1.00  0.00     0.173 A 
ATOM     63  C   UNL A   1      46.908  31.323  28.781  1.00  0.00     0.173 A 
ATOM     64  F   UNL A   1      43.308  31.242  28.284  1.00  0.00    -0.203 F 
ATOM     65  C   UNL A   1      44.942  32.594  27.289  1.00  0.00     0.198 A 
ATOM     66  C   UNL A   1      47.238  32.392  27.951  1.00  0.00     0.198 A 
ATOM     67  F   UNL A   1      47.875  30.759  29.523  1.00  0.00    -0.203 F 
ATOM     68  F   UNL A   1      43.987  33.218  26.582  1.00  0.00    -0.200 F 
ATOM     69  C   UNL A   1      46.257  33.019  27.197  1.00  0.00     0.200 A 
ATOM     70  F   UNL A   1      48.501  32.836  27.904  1.00  0.00    -0.200 F 
ATOM     71  F   UNL A   1      46.575  34.053  26.406  1.00  0.00    -0.200 F 
ENDBRANCH  38  61
ENDBRANCH  12  13
ENDBRANCH   5   7
ENDBRANCH   2   3
ENDBRANCH   1   2
BRANCH   1  72
ATOM     72  C   UNL A   1      33.367  35.898  28.681  1.00  0.00     0.023 C 
BRANCH  72  73
ATOM     73  C   UNL A   1      33.646  36.550  30.028  1.00  0.00     0.116 C 
BRANCH  73  74
ATOM     74  N   UNL A   1      32.520  36.456  30.943  1.00  0.00    -0.351 N 
ATOM     75  C   UNL A   1      32.422  35.733  32.120  1.00  0.00     0.271 C 
ATOM     76  H   UNL A   1      31.721  36.975  30.693  1.00  0.00     0.163 HD
ATOM     77  O   UNL A   1      31.421  35.779  32.780  1.00  0.00    -0.267 OA
BRANCH  75  78
ATOM     78  C   UNL A   1      33.612  34.966  32.494  1.00  0.00     0.146 A 
ATOM     79  C   UNL A   1      34.867  35.486  32.758  1.00  0.00     0.128 A 
ATOM     80  N   UNL A   1      33.655  33.590  32.493  1.00  0.00    -0.231 NA
ATOM     81  N   UNL A   1      35.714  34.403  32.803  1.00  0.00    -0.290 N 
ATOM     82  C   UNL A   1      34.918  33.286  32.687  1.00  0.00     0.206 A 
BRANCH  81  83
ATOM     83  C   UNL A   1      37.131  34.397  32.852  1.00  0.00     0.142 A 
ATOM     84  C   UNL A   1      37.859  33.799  31.848  1.00  0.00     0.088 A 
ATOM     85  N   UNL A   1      37.710  34.947  33.944  1.00  0.00    -0.219 NA
ATOM     86  C   UNL A   1      39.218  33.794  32.046  1.00  0.00     0.134 A 
ATOM     87  C   UNL A   1      39.044  34.847  34.035  1.00  0.00     0.226 A 
ATOM     88  Cl  UNL A   1      40.266  33.113  30.871  1.00  0.00    -0.062 Cl
ATOM     89  N   UNL A   1      39.843  34.289  33.124  1.00  0.00    -0.224 NA
ENDBRANCH  81  83
ENDBRANCH  75  78
ENDBRANCH  73  74
ENDBRANCH  72  73
ENDBRANCH   1  72
TORSDOF 12
ENDMDL
MODEL 3
REMARK VINA RESULT:     -11.8      6.046     11.236
REMARK SMILES O=C(NCCCCNC(=O)c1cn(-c2cc(Cl)ncn2)cn1)c1ccc(-c2c3nc(c(-c4c(F)c(F)c(F)c(F)c4F)c4ccc([nH]4)c(-c4c(F)c(F)c(F)c(F)c4F)c4nc(c(-c5c(F)c(F)c(F)c(F)c5F)c5ccc2[nH]5)C=C4)C=C3)cc1
REMARK SMILES IDX 5 1 4 2 3 3 1 4 2 5 23 7 24 8 85 9 25 10 84 11 26 12 27 13
REMARK SMILES IDX 28 14 78 15 29 16 83 17 77 18 79 19 30 20 82 21 76 22 75 23
REMARK SMILES IDX 31 25 63 26 43 27 62 28 44 29 47 30 61 31 80 32 45 33 46 34
REMARK SMILES IDX 60 36 81 37 48 38 32 39 33 40 41 41 34 42 35 43 39 44 42 45
REMARK SMILES IDX 36 46 37 47 40 48 38 49 64 50 65 51 73 52 66 53 67 54 71 55
REMARK SMILES IDX 74 56 68 57 69 58 72 59 70 60 49 61 50 62 58 63 51 64 52 65
REMARK SMILES IDX 56 66 59 67 53 68 54 69 57 70 55 71 6 72 7 73 8 74 9 75
REMARK SMILES IDX 10 77 11 78 12 79 22 80 13 81 21 82 14 83 15 84 20 85 16 86
REMARK SMILES IDX 19 87 17 88 18 89
REMARK H PARENT 3 6 79 24 47 35 8 76
REMARK Flexibility Score: inf
ROOT
ATOM      1  C   UNL A   1      32.588  28.716  27.436  1.00  0.00     0.023 C 
ENDROOT
BRANCH   1   2
ATOM      2  C   UNL A   1      33.331  29.910  26.832  1.00  0.00     0.116 C 
BRANCH   2   3
ATOM      3  N   UNL A   1      33.477  31.044  27.721  1.00  0.00    -0.352 N 
ATOM      4  O   UNL A   1      34.287  32.631  29.028  1.00  0.00    -0.269 OA
ATOM      5  C   UNL A   1      34.519  31.578  28.428  1.00  0.00     0.251 C 
ATOM      6  H   UNL A   1      32.637  31.541  27.846  1.00  0.00     0.163 HD
BRANCH   5   7
ATOM      7  C   UNL A   1      35.870  30.963  28.558  1.00  0.00     0.039 A 
ATOM      8  C   UNL A   1      36.153  29.599  28.480  1.00  0.00     0.014 A 
ATOM      9  C   UNL A   1      36.936  31.849  28.795  1.00  0.00     0.014 A 
ATOM     10  C   UNL A   1      37.435  29.116  28.733  1.00  0.00     0.010 A 
ATOM     11  C   UNL A   1      38.230  31.376  29.007  1.00  0.00     0.010 A 
ATOM     12  C   UNL A   1      38.472  30.001  29.021  1.00  0.00    -0.014 A 
BRANCH  12  13
ATOM     13  C   UNL A   1      39.802  29.446  29.287  1.00  0.00     0.031 A 
ATOM     14  C   UNL A   1      40.207  29.242  30.715  1.00  0.00     0.074 A 
ATOM     15  C   UNL A   1      40.574  28.950  28.300  1.00  0.00     0.049 A 
ATOM     16  N   UNL A   1      41.350  29.486  31.283  1.00  0.00    -0.248 NA
ATOM     17  C   UNL A   1      39.203  28.670  31.625  1.00  0.00     0.031 C 
ATOM     18  C   UNL A   1      40.213  28.774  26.891  1.00  0.00     0.029 A 
ATOM     19  N   UNL A   1      41.807  28.367  28.387  1.00  0.00    -0.354 N 
ATOM     20  C   UNL A   1      41.261  28.965  32.576  1.00  0.00     0.074 A 
ATOM     21  C   UNL A   1      39.901  28.524  32.751  1.00  0.00     0.031 C 
ATOM     22  C   UNL A   1      41.092  27.927  26.316  1.00  0.00     0.029 A 
ATOM     23  C   UNL A   1      42.132  27.604  27.279  1.00  0.00     0.049 A 
ATOM     24  H   UNL A   1      42.405  28.478  29.161  1.00  0.00     0.167 HD
ATOM     25  C   UNL A   1      42.339  28.786  33.387  1.00  0.00     0.037 A 
ATOM     26  C   UNL A   1      43.125  26.692  27.181  1.00  0.00     0.037 A 
ATOM     27  C   UNL A   1      43.450  29.620  33.035  1.00  0.00     0.049 A 
ATOM     28  C   UNL A   1      44.108  26.937  28.259  1.00  0.00     0.074 A 
ATOM     29  C   UNL A   1      43.666  30.982  32.966  1.00  0.00     0.029 A 
ATOM     30  N   UNL A   1      44.561  29.053  32.467  1.00  0.00    -0.354 N 
ATOM     31  N   UNL A   1      44.915  27.959  28.318  1.00  0.00    -0.248 NA
ATOM     32  C   UNL A   1      43.990  26.163  29.486  1.00  0.00     0.031 C 
ATOM     33  C   UNL A   1      44.651  31.161  31.951  1.00  0.00     0.029 A 
ATOM     34  C   UNL A   1      44.948  29.892  31.455  1.00  0.00     0.049 A 
ATOM     35  H   UNL A   1      44.993  28.209  32.732  1.00  0.00     0.167 HD
ATOM     36  C   UNL A   1      45.100  28.184  29.672  1.00  0.00     0.074 A 
ATOM     37  C   UNL A   1      44.627  26.975  30.330  1.00  0.00     0.031 C 
ATOM     38  C   UNL A   1      45.355  29.436  30.149  1.00  0.00     0.037 A 
BRANCH  25  39
ATOM     39  C   UNL A   1      42.465  27.660  34.383  1.00  0.00     0.064 A 
ATOM     40  C   UNL A   1      43.013  26.422  33.993  1.00  0.00     0.173 A 
ATOM     41  C   UNL A   1      41.810  27.675  35.632  1.00  0.00     0.173 A 
ATOM     42  F   UNL A   1      43.616  26.286  32.803  1.00  0.00    -0.203 F 
ATOM     43  C   UNL A   1      42.883  25.276  34.784  1.00  0.00     0.198 A 
ATOM     44  C   UNL A   1      41.725  26.541  36.441  1.00  0.00     0.198 A 
ATOM     45  F   UNL A   1      41.146  28.756  36.062  1.00  0.00    -0.203 F 
ATOM     46  F   UNL A   1      43.330  24.098  34.327  1.00  0.00    -0.200 F 
ATOM     47  C   UNL A   1      42.240  25.337  36.007  1.00  0.00     0.200 A 
ATOM     48  F   UNL A   1      41.077  26.612  37.612  1.00  0.00    -0.200 F 
ATOM     49  F   UNL A   1      42.075  24.230  36.744  1.00  0.00    -0.200 F 
ENDBRANCH  25  39
BRANCH  26  50
ATOM     50  C   UNL A   1      43.125  25.461  26.362  1.00  0.00     0.064 A 
ATOM     51  C   UNL A   1      44.135  25.204  25.426  1.00  0.00     0.173 A 
ATOM     52  C   UNL A   1      42.239  24.401  26.642  1.00  0.00     0.173 A 
ATOM     53  F   UNL A   1      45.055  26.141  25.151  1.00  0.00    -0.203 F 
ATOM     54  C   UNL A   1      44.247  23.960  24.798  1.00  0.00     0.198 A 
ATOM     55  C   UNL A   1      42.342  23.166  26.004  1.00  0.00     0.198 A 
ATOM     56  F   UNL A   1      41.310  24.516  27.603  1.00  0.00    -0.203 F 
ATOM     57  F   UNL A   1      45.254  23.731  23.944  1.00  0.00    -0.200 F 
ATOM     58  C   UNL A   1      43.350  22.944  25.088  1.00  0.00     0.200 A 
ATOM     59  F   UNL A   1      41.489  22.182  26.321  1.00  0.00    -0.200 F 
ATOM     60  F   UNL A   1      43.480  21.740  24.513  1.00  0.00    -0.200 F 
ENDBRANCH  26  50
BRANCH  38  61
ATOM     61  C   UNL A   1      45.752  30.490  29.160  1.00  0.00     0.064 A 
ATOM     62  C   UNL A   1      47.087  30.724  28.790  1.00  0.00     0.173 A 
ATOM     63  C   UNL A   1      44.753  31.177  28.461  1.00  0.00     0.173 A 
ATOM     64  F   UNL A   1      48.085  30.018  29.339  1.00  0.00    -0.203 F 
ATOM     65  C   UNL A   1      47.408  31.647  27.798  1.00  0.00     0.198 A 
ATOM     66  C   UNL A   1      45.075  32.075  27.446  1.00  0.00     0.198 A 
ATOM     67  F   UNL A   1      43.459  30.939  28.727  1.00  0.00    -0.203 F 
ATOM     68  F   UNL A   1      48.691  31.860  27.467  1.00  0.00    -0.200 F 
ATOM     69  C   UNL A   1      46.402  32.318  27.123  1.00  0.00     0.200 A 
ATOM     70  F   UNL A   1      44.099  32.683  26.758  1.00  0.00    -0.200 F 
ATOM     71  F   UNL A   1      46.709  33.175  26.140  1.00  0.00    -0.200 F 
ENDBRANCH  38  61
ENDBRANCH  12  13
ENDBRANCH   5   7
ENDBRANCH   2   3
ENDBRANCH   1   2
BRANCH   1  72
ATOM     72  C   UNL A   1      32.579  27.448  26.579  1.00  0.00     0.023 C 
BRANCH  72  73
ATOM     73  C   UNL A   1      32.512  27.678  25.075  1.00  0.00     0.116 C 
BRANCH  73  74
ATOM     74  N   UNL A   1      32.498  26.438  24.317  1.00  0.00    -0.351 N 
ATOM     75  C   UNL A   1      31.570  26.008  23.382  1.00  0.00     0.271 C 
ATOM     76  H   UNL A   1      33.246  25.822  24.490  1.00  0.00     0.163 HD
ATOM     77  O   UNL A   1      31.715  24.957  22.821  1.00  0.00    -0.267 OA
BRANCH  75  78
ATOM     78  C   UNL A   1      30.460  26.927  23.120  1.00  0.00     0.146 A 
ATOM     79  C   UNL A   1      30.505  28.048  22.311  1.00  0.00     0.128 A 
ATOM     80  N   UNL A   1      29.252  26.857  23.776  1.00  0.00    -0.231 NA
ATOM     81  N   UNL A   1      29.342  28.737  22.568  1.00  0.00    -0.290 N 
ATOM     82  C   UNL A   1      28.606  27.944  23.420  1.00  0.00     0.206 A 
BRANCH  81  83
ATOM     83  C   UNL A   1      28.982  30.042  22.149  1.00  0.00     0.142 A 
ATOM     84  C   UNL A   1      29.251  31.130  22.949  1.00  0.00     0.088 A 
ATOM     85  N   UNL A   1      28.322  30.149  20.972  1.00  0.00    -0.219 NA
ATOM     86  C   UNL A   1      28.788  32.329  22.467  1.00  0.00     0.134 A 
ATOM     87  C   UNL A   1      27.893  31.372  20.629  1.00  0.00     0.226 A 
ATOM     88  Cl  UNL A   1      29.071  33.783  23.333  1.00  0.00    -0.062 Cl
ATOM     89  N   UNL A   1      28.097  32.489  21.329  1.00  0.00    -0.224 NA
ENDBRANCH  81  83
ENDBRANCH  75  78
ENDBRANCH  73  74
ENDBRANCH  72  73
ENDBRANCH   1  72
TORSDOF 12
ENDMDL
