MODEL 1
REMARK VINA RESULT:     -14.4      0.000      0.000
REMARK SMILES Cc1cc(F)cc(-n2nc(C(=O)NCCCCNC(=O)c3ccc(-c4c5nc(c(-c6c(F)c(F)c(F)c(F)c6F)c6ccc([nH]6)c(-c6c(F)c(F)c(F)c(F)c6F)c6nc(c(-c7c(F)c(F)c(F)c(F)c7F)c7ccc4[nH]7)C=C6)C=C5)cc3)c3c2CC[C@H](C)C3)c1
REMARK SMILES IDX 16 1 15 2 14 3 13 4 11 5 12 6 10 8 8 9 9 10 85 11 84 12
REMARK SMILES IDX 86 13 90 14 87 15 88 16 89 17 7 18 1 19 2 20 3 21 91 22 4 23
REMARK SMILES IDX 5 24 6 25 17 26 18 27 19 28 20 30 21 31 22 32 83 33 23 34
REMARK SMILES IDX 82 35 24 36 25 37 26 38 76 39 27 40 81 41 75 42 77 43 28 44
REMARK SMILES IDX 80 45 74 46 73 47 29 49 61 50 41 51 60 52 42 53 45 54 59 55
REMARK SMILES IDX 78 56 43 57 44 58 58 60 79 61 46 62 30 63 31 64 39 65 32 66
REMARK SMILES IDX 33 67 37 68 40 69 34 70 35 71 38 72 36 73 62 74 63 75 71 76
REMARK SMILES IDX 64 77 65 78 69 79 72 80 66 81 67 82 70 83 68 84 47 85 48 86
REMARK SMILES IDX 56 87 49 88 50 89 54 90 57 91 51 92 52 93 55 94 53 95
REMARK H PARENT 13 7 18 29 77 48 45 59
REMARK Flexibility Score: inf
ROOT
ATOM      1  C   UNL A   1      35.987  23.404  25.869  1.00  0.00     0.023 C 
ENDROOT
BRANCH   1   2
ATOM      2  C   UNL A   1      35.007  24.544  25.586  1.00  0.00     0.023 C 
BRANCH   2   3
ATOM      3  C   UNL A   1      33.794  24.191  24.714  1.00  0.00     0.116 C 
BRANCH   3   4
ATOM      4  N   UNL A   1      33.891  24.761  23.389  1.00  0.00    -0.351 N 
ATOM      5  C   UNL A   1      33.467  25.911  22.764  1.00  0.00     0.272 C 
ATOM      6  O   UNL A   1      33.828  25.960  21.580  1.00  0.00    -0.267 OA
ATOM      7  H   UNL A   1      34.389  24.174  22.775  1.00  0.00     0.163 HD
BRANCH   5   8
ATOM      8  C   UNL A   1      32.686  27.030  23.373  1.00  0.00     0.154 A 
ATOM      9  N   UNL A   1      30.979  28.379  23.412  1.00  0.00    -0.237 N 
ATOM     10  N   UNL A   1      31.475  27.277  22.823  1.00  0.00    -0.162 NA
ATOM     11  C   UNL A   1      31.792  28.807  24.432  1.00  0.00     0.048 A 
ATOM     12  C   UNL A   1      32.858  27.926  24.475  1.00  0.00     0.007 A 
ATOM     13  C   UNL A   1      31.481  29.850  25.458  1.00  0.00     0.057 C 
ATOM     14  C   UNL A   1      33.847  28.005  25.570  1.00  0.00     0.043 C 
ATOM     15  C   UNL A   1      32.729  30.161  26.302  1.00  0.00     0.010 C 
ATOM     16  C   UNL A   1      33.425  28.875  26.767  1.00  0.00    -0.009 C 
ATOM     17  C   UNL A   1      34.655  29.167  27.629  1.00  0.00     0.008 C 
BRANCH   9  18
ATOM     18  C   UNL A   1      29.726  28.893  23.008  1.00  0.00     0.068 A 
ATOM     19  C   UNL A   1      28.400  31.623  20.699  1.00  0.00     0.044 C 
ATOM     20  C   UNL A   1      28.459  30.492  21.682  1.00  0.00    -0.046 A 
ATOM     21  C   UNL A   1      27.276  29.886  22.119  1.00  0.00     0.042 A 
ATOM     22  C   UNL A   1      29.687  30.014  22.163  1.00  0.00     0.032 A 
ATOM     23  C   UNL A   1      27.328  28.808  22.998  1.00  0.00     0.125 A 
ATOM     24  F   UNL A   1      26.187  28.254  23.429  1.00  0.00    -0.207 F 
ATOM     25  C   UNL A   1      28.540  28.294  23.437  1.00  0.00     0.067 A 
ENDBRANCH   9  18
ENDBRANCH   5   8
ENDBRANCH   3   4
ENDBRANCH   2   3
ENDBRANCH   1   2
BRANCH   1  26
ATOM     26  C   UNL A   1      37.427  23.837  25.636  1.00  0.00     0.116 C 
BRANCH  26  27
ATOM     27  N   UNL A   1      38.412  22.797  25.972  1.00  0.00    -0.352 N 
ATOM     28  C   UNL A   1      39.712  22.974  26.420  1.00  0.00     0.251 C 
ATOM     29  H   UNL A   1      38.113  21.864  25.866  1.00  0.00     0.163 HD
ATOM     30  O   UNL A   1      40.536  22.078  26.406  1.00  0.00    -0.269 OA
BRANCH  28  31
ATOM     31  C   UNL A   1      40.050  24.296  26.960  1.00  0.00     0.039 A 
ATOM     32  C   UNL A   1      40.672  25.299  26.204  1.00  0.00     0.014 A 
ATOM     33  C   UNL A   1      39.642  24.520  28.267  1.00  0.00     0.014 A 
ATOM     34  C   UNL A   1      40.817  26.568  26.762  1.00  0.00     0.010 A 
ATOM     35  C   UNL A   1      39.567  25.798  28.714  1.00  0.00     0.010 A 
ATOM     36  C   UNL A   1      40.242  26.801  28.011  1.00  0.00    -0.014 A 
BRANCH  36  37
ATOM     37  C   UNL A   1      40.387  28.002  28.808  1.00  0.00     0.031 A 
ATOM     38  C   UNL A   1      39.390  29.075  28.751  1.00  0.00     0.074 A 
ATOM     39  C   UNL A   1      41.322  27.880  29.778  1.00  0.00     0.049 A 
ATOM     40  N   UNL A   1      39.609  30.276  29.149  1.00  0.00    -0.248 NA
ATOM     41  C   UNL A   1      38.043  28.882  28.227  1.00  0.00     0.031 C 
ATOM     42  C   UNL A   1      41.504  28.611  31.017  1.00  0.00     0.029 A 
ATOM     43  N   UNL A   1      42.397  26.971  29.764  1.00  0.00    -0.354 N 
ATOM     44  C   UNL A   1      38.383  30.897  29.271  1.00  0.00     0.074 A 
ATOM     45  C   UNL A   1      37.466  30.048  28.548  1.00  0.00     0.031 C 
ATOM     46  C   UNL A   1      42.749  28.368  31.476  1.00  0.00     0.029 A 
ATOM     47  C   UNL A   1      43.442  27.581  30.463  1.00  0.00     0.049 A 
ATOM     48  H   UNL A   1      42.409  26.080  29.344  1.00  0.00     0.167 HD
ATOM     49  C   UNL A   1      38.279  31.948  30.139  1.00  0.00     0.037 A 
ATOM     50  C   UNL A   1      44.530  27.985  29.741  1.00  0.00     0.037 A 
ATOM     51  C   UNL A   1      39.579  32.183  30.773  1.00  0.00     0.049 A 
ATOM     52  C   UNL A   1      44.607  29.488  29.704  1.00  0.00     0.074 A 
ATOM     53  C   UNL A   1      40.089  31.768  31.993  1.00  0.00     0.029 A 
ATOM     54  N   UNL A   1      40.669  32.573  30.000  1.00  0.00    -0.354 N 
ATOM     55  N   UNL A   1      43.566  30.274  29.760  1.00  0.00    -0.248 NA
ATOM     56  C   UNL A   1      45.871  30.209  29.704  1.00  0.00     0.031 C 
ATOM     57  C   UNL A   1      41.503  31.835  31.920  1.00  0.00     0.029 A 
ATOM     58  C   UNL A   1      41.852  32.301  30.663  1.00  0.00     0.049 A 
ATOM     59  H   UNL A   1      40.607  32.984  29.108  1.00  0.00     0.167 HD
ATOM     60  C   UNL A   1      43.993  31.568  29.882  1.00  0.00     0.074 A 
ATOM     61  C   UNL A   1      45.442  31.477  29.820  1.00  0.00     0.031 C 
ATOM     62  C   UNL A   1      43.141  32.620  30.069  1.00  0.00     0.037 A 
BRANCH  49  63
ATOM     63  C   UNL A   1      36.991  32.547  30.681  1.00  0.00     0.064 A 
ATOM     64  C   UNL A   1      36.235  33.448  29.892  1.00  0.00     0.173 A 
ATOM     65  C   UNL A   1      36.454  32.308  31.960  1.00  0.00     0.173 A 
ATOM     66  F   UNL A   1      36.554  33.705  28.617  1.00  0.00    -0.203 F 
ATOM     67  C   UNL A   1      35.109  34.123  30.374  1.00  0.00     0.198 A 
ATOM     68  C   UNL A   1      35.342  33.005  32.454  1.00  0.00     0.198 A 
ATOM     69  F   UNL A   1      36.945  31.357  32.760  1.00  0.00    -0.203 F 
ATOM     70  F   UNL A   1      34.453  34.976  29.575  1.00  0.00    -0.200 F 
ATOM     71  C   UNL A   1      34.676  33.920  31.665  1.00  0.00     0.200 A 
ATOM     72  F   UNL A   1      34.916  32.774  33.705  1.00  0.00    -0.200 F 
ATOM     73  F   UNL A   1      33.609  34.579  32.136  1.00  0.00    -0.200 F 
ENDBRANCH  49  63
BRANCH  50  74
ATOM     74  C   UNL A   1      44.833  27.043  28.614  1.00  0.00     0.064 A 
ATOM     75  C   UNL A   1      44.508  27.481  27.310  1.00  0.00     0.173 A 
ATOM     76  C   UNL A   1      45.791  26.024  28.721  1.00  0.00     0.173 A 
ATOM     77  F   UNL A   1      43.595  28.452  27.143  1.00  0.00    -0.203 F 
ATOM     78  C   UNL A   1      45.215  27.040  26.193  1.00  0.00     0.198 A 
ATOM     79  C   UNL A   1      46.483  25.566  27.592  1.00  0.00     0.198 A 
ATOM     80  F   UNL A   1      46.148  25.552  29.923  1.00  0.00    -0.203 F 
ATOM     81  F   UNL A   1      44.973  27.585  24.990  1.00  0.00    -0.200 F 
ATOM     82  C   UNL A   1      46.224  26.105  26.339  1.00  0.00     0.200 A 
ATOM     83  F   UNL A   1      47.461  24.659  27.728  1.00  0.00    -0.200 F 
ATOM     84  F   UNL A   1      46.968  25.753  25.280  1.00  0.00    -0.200 F 
ENDBRANCH  50  74
BRANCH  62  85
ATOM     85  C   UNL A   1      43.503  34.066  29.851  1.00  0.00     0.064 A 
ATOM     86  C   UNL A   1      43.655  34.639  28.578  1.00  0.00     0.173 A 
ATOM     87  C   UNL A   1      43.556  34.975  30.936  1.00  0.00     0.173 A 
ATOM     88  F   UNL A   1      43.467  33.923  27.461  1.00  0.00    -0.203 F 
ATOM     89  C   UNL A   1      43.948  35.991  28.407  1.00  0.00     0.198 A 
ATOM     90  C   UNL A   1      43.770  36.338  30.756  1.00  0.00     0.198 A 
ATOM     91  F   UNL A   1      43.368  34.578  32.204  1.00  0.00    -0.203 F 
ATOM     92  F   UNL A   1      44.155  36.470  27.172  1.00  0.00    -0.200 F 
ATOM     93  C   UNL A   1      43.996  36.842  29.493  1.00  0.00     0.200 A 
ATOM     94  F   UNL A   1      43.735  37.161  31.813  1.00  0.00    -0.200 F 
ATOM     95  F   UNL A   1      44.235  38.148  29.321  1.00  0.00    -0.200 F 
ENDBRANCH  62  85
ENDBRANCH  36  37
ENDBRANCH  28  31
ENDBRANCH  26  27
ENDBRANCH   1  26
TORSDOF 12
ENDMDL
MODEL 2
REMARK VINA RESULT:     -14.4      3.562      9.484
REMARK SMILES Cc1cc(F)cc(-n2nc(C(=O)NCCCCNC(=O)c3ccc(-c4c5nc(c(-c6c(F)c(F)c(F)c(F)c6F)c6ccc([nH]6)c(-c6c(F)c(F)c(F)c(F)c6F)c6nc(c(-c7c(F)c(F)c(F)c(F)c7F)c7ccc4[nH]7)C=C6)C=C5)cc3)c3c2CC[C@H](C)C3)c1
REMARK SMILES IDX 16 1 15 2 14 3 13 4 11 5 12 6 10 8 8 9 9 10 85 11 84 12
REMARK SMILES IDX 86 13 90 14 87 15 88 16 89 17 7 18 1 19 2 20 3 21 91 22 4 23
REMARK SMILES IDX 5 24 6 25 17 26 18 27 19 28 20 30 21 31 22 32 83 33 23 34
REMARK SMILES IDX 82 35 24 36 25 37 26 38 76 39 27 40 81 41 75 42 77 43 28 44
REMARK SMILES IDX 80 45 74 46 73 47 29 49 61 50 41 51 60 52 42 53 45 54 59 55
REMARK SMILES IDX 78 56 43 57 44 58 58 60 79 61 46 62 30 63 31 64 39 65 32 66
REMARK SMILES IDX 33 67 37 68 40 69 34 70 35 71 38 72 36 73 62 74 63 75 71 76
REMARK SMILES IDX 64 77 65 78 69 79 72 80 66 81 67 82 70 83 68 84 47 85 48 86
REMARK SMILES IDX 56 87 49 88 50 89 54 90 57 91 51 92 52 93 55 94 53 95
REMARK H PARENT 13 7 18 29 77 48 45 59
REMARK Flexibility Score: inf
ROOT
ATOM      1  C   UNL A   1      33.376  28.345  25.551  1.00  0.00     0.023 C 
ENDROOT
BRANCH   1   2
ATOM      2  C   UNL A   1      33.914  28.455  24.123  1.00  0.00     0.023 C 
BRANCH   2   3
ATOM      3  C   UNL A   1      32.861  28.544  23.009  1.00  0.00     0.116 C 
BRANCH   3   4
ATOM      4  N   UNL A   1      33.067  27.547  21.983  1.00  0.00    -0.351 N 
ATOM      5  C   UNL A   1      33.254  26.185  21.940  1.00  0.00     0.272 C 
ATOM      6  O   UNL A   1      33.367  25.765  20.780  1.00  0.00    -0.267 OA
ATOM      7  H   UNL A   1      33.076  27.946  21.083  1.00  0.00     0.163 HD
BRANCH   5   8
ATOM      8  C   UNL A   1      33.302  25.245  23.101  1.00  0.00     0.154 A 
ATOM      9  N   UNL A   1      34.271  23.688  24.270  1.00  0.00    -0.237 N 
ATOM     10  N   UNL A   1      34.456  24.559  23.263  1.00  0.00    -0.162 NA
ATOM     11  C   UNL A   1      33.045  23.862  24.861  1.00  0.00     0.048 A 
ATOM     12  C   UNL A   1      32.428  24.895  24.179  1.00  0.00     0.007 A 
ATOM     13  C   UNL A   1      32.561  23.249  26.137  1.00  0.00     0.057 C 
ATOM     14  C   UNL A   1      31.147  25.449  24.663  1.00  0.00     0.043 C 
ATOM     15  C   UNL A   1      31.068  23.553  26.346  1.00  0.00     0.010 C 
ATOM     16  C   UNL A   1      30.757  25.034  26.093  1.00  0.00    -0.009 C 
ATOM     17  C   UNL A   1      29.280  25.358  26.321  1.00  0.00     0.008 C 
BRANCH   9  18
ATOM     18  C   UNL A   1      35.313  22.808  24.644  1.00  0.00     0.068 A 
ATOM     19  C   UNL A   1      35.931  19.046  24.766  1.00  0.00     0.044 C 
ATOM     20  C   UNL A   1      36.125  20.528  24.894  1.00  0.00    -0.046 A 
ATOM     21  C   UNL A   1      37.368  21.037  25.289  1.00  0.00     0.042 A 
ATOM     22  C   UNL A   1      35.084  21.423  24.610  1.00  0.00     0.032 A 
ATOM     23  C   UNL A   1      37.566  22.412  25.369  1.00  0.00     0.125 A 
ATOM     24  F   UNL A   1      38.752  22.885  25.773  1.00  0.00    -0.207 F 
ATOM     25  C   UNL A   1      36.558  23.305  25.036  1.00  0.00     0.067 A 
ENDBRANCH   9  18
ENDBRANCH   5   8
ENDBRANCH   3   4
ENDBRANCH   2   3
ENDBRANCH   1   2
BRANCH   1  26
ATOM     26  C   UNL A   1      34.407  28.804  26.572  1.00  0.00     0.116 C 
BRANCH  26  27
ATOM     27  N   UNL A   1      34.300  30.232  26.908  1.00  0.00    -0.352 N 
ATOM     28  C   UNL A   1      35.037  30.940  27.845  1.00  0.00     0.251 C 
ATOM     29  H   UNL A   1      33.623  30.747  26.410  1.00  0.00     0.163 HD
ATOM     30  O   UNL A   1      34.699  32.036  28.252  1.00  0.00    -0.269 OA
BRANCH  28  31
ATOM     31  C   UNL A   1      36.288  30.323  28.303  1.00  0.00     0.039 A 
ATOM     32  C   UNL A   1      36.414  29.663  29.533  1.00  0.00     0.014 A 
ATOM     33  C   UNL A   1      37.335  30.371  27.395  1.00  0.00     0.014 A 
ATOM     34  C   UNL A   1      37.598  28.982  29.812  1.00  0.00     0.010 A 
ATOM     35  C   UNL A   1      38.380  29.522  27.562  1.00  0.00     0.010 A 
ATOM     36  C   UNL A   1      38.561  28.911  28.806  1.00  0.00    -0.014 A 
BRANCH  36  37
ATOM     37  C   UNL A   1      39.896  28.363  28.938  1.00  0.00     0.031 A 
ATOM     38  C   UNL A   1      40.186  26.974  28.575  1.00  0.00     0.074 A 
ATOM     39  C   UNL A   1      40.839  29.316  29.125  1.00  0.00     0.049 A 
ATOM     40  N   UNL A   1      41.226  26.332  28.970  1.00  0.00    -0.248 NA
ATOM     41  C   UNL A   1      39.310  26.175  27.724  1.00  0.00     0.031 C 
ATOM     42  C   UNL A   1      42.270  29.292  28.891  1.00  0.00     0.029 A 
ATOM     43  N   UNL A   1      40.605  30.603  29.646  1.00  0.00    -0.354 N 
ATOM     44  C   UNL A   1      41.344  25.212  28.173  1.00  0.00     0.074 A 
ATOM     45  C   UNL A   1      40.060  25.082  27.526  1.00  0.00     0.031 C 
ATOM     46  C   UNL A   1      42.824  30.337  29.539  1.00  0.00     0.029 A 
ATOM     47  C   UNL A   1      41.771  30.977  30.318  1.00  0.00     0.049 A 
ATOM     48  H   UNL A   1      39.781  31.134  29.552  1.00  0.00     0.167 HD
ATOM     49  C   UNL A   1      42.586  24.661  28.022  1.00  0.00     0.037 A 
ATOM     50  C   UNL A   1      41.715  31.046  31.683  1.00  0.00     0.037 A 
ATOM     51  C   UNL A   1      43.559  25.438  28.793  1.00  0.00     0.049 A 
ATOM     52  C   UNL A   1      42.543  29.951  32.299  1.00  0.00     0.074 A 
ATOM     53  C   UNL A   1      44.423  26.453  28.415  1.00  0.00     0.029 A 
ATOM     54  N   UNL A   1      43.455  25.502  30.180  1.00  0.00    -0.354 N 
ATOM     55  N   UNL A   1      42.751  28.789  31.739  1.00  0.00    -0.248 NA
ATOM     56  C   UNL A   1      43.278  30.128  33.542  1.00  0.00     0.031 C 
ATOM     57  C   UNL A   1      44.776  27.182  29.578  1.00  0.00     0.029 A 
ATOM     58  C   UNL A   1      44.139  26.603  30.664  1.00  0.00     0.049 A 
ATOM     59  H   UNL A   1      42.966  24.856  30.737  1.00  0.00     0.167 HD
ATOM     60  C   UNL A   1      43.679  28.103  32.473  1.00  0.00     0.074 A 
ATOM     61  C   UNL A   1      43.962  28.973  33.602  1.00  0.00     0.031 C 
ATOM     62  C   UNL A   1      44.188  26.894  32.088  1.00  0.00     0.037 A 
BRANCH  49  63
ATOM     63  C   UNL A   1      43.006  23.664  26.953  1.00  0.00     0.064 A 
ATOM     64  C   UNL A   1      42.703  22.289  27.100  1.00  0.00     0.173 A 
ATOM     65  C   UNL A   1      43.725  23.976  25.783  1.00  0.00     0.173 A 
ATOM     66  F   UNL A   1      41.940  21.840  28.106  1.00  0.00    -0.203 F 
ATOM     67  C   UNL A   1      43.163  21.308  26.215  1.00  0.00     0.198 A 
ATOM     68  C   UNL A   1      44.210  22.991  24.910  1.00  0.00     0.198 A 
ATOM     69  F   UNL A   1      43.937  25.240  25.407  1.00  0.00    -0.203 F 
ATOM     70  F   UNL A   1      42.851  20.022  26.428  1.00  0.00    -0.200 F 
ATOM     71  C   UNL A   1      43.938  21.657  25.132  1.00  0.00     0.200 A 
ATOM     72  F   UNL A   1      44.940  23.350  23.844  1.00  0.00    -0.200 F 
ATOM     73  F   UNL A   1      44.396  20.718  24.293  1.00  0.00    -0.200 F 
ENDBRANCH  49  63
BRANCH  50  74
ATOM     74  C   UNL A   1      40.382  31.541  32.161  1.00  0.00     0.064 A 
ATOM     75  C   UNL A   1      39.513  30.584  32.732  1.00  0.00     0.173 A 
ATOM     76  C   UNL A   1      40.153  32.885  32.493  1.00  0.00     0.173 A 
ATOM     77  F   UNL A   1      39.680  29.282  32.449  1.00  0.00    -0.203 F 
ATOM     78  C   UNL A   1      38.572  30.935  33.699  1.00  0.00     0.198 A 
ATOM     79  C   UNL A   1      39.191  33.235  33.449  1.00  0.00     0.198 A 
ATOM     80  F   UNL A   1      40.933  33.851  31.988  1.00  0.00    -0.203 F 
ATOM     81  F   UNL A   1      37.864  29.979  34.320  1.00  0.00    -0.200 F 
ATOM     82  C   UNL A   1      38.434  32.258  34.081  1.00  0.00     0.200 A 
ATOM     83  F   UNL A   1      39.052  34.517  33.820  1.00  0.00    -0.200 F 
ATOM     84  F   UNL A   1      37.600  32.583  35.079  1.00  0.00    -0.200 F 
ENDBRANCH  50  74
BRANCH  62  85
ATOM     85  C   UNL A   1      44.918  25.941  32.999  1.00  0.00     0.064 A 
ATOM     86  C   UNL A   1      46.303  25.720  32.935  1.00  0.00     0.173 A 
ATOM     87  C   UNL A   1      44.255  25.325  34.089  1.00  0.00     0.173 A 
ATOM     88  F   UNL A   1      47.075  26.370  32.053  1.00  0.00    -0.203 F 
ATOM     89  C   UNL A   1      46.956  24.865  33.820  1.00  0.00     0.198 A 
ATOM     90  C   UNL A   1      44.924  24.535  35.018  1.00  0.00     0.198 A 
ATOM     91  F   UNL A   1      42.943  25.497  34.310  1.00  0.00    -0.203 F 
ATOM     92  F   UNL A   1      48.268  24.634  33.667  1.00  0.00    -0.200 F 
ATOM     93  C   UNL A   1      46.271  24.280  34.866  1.00  0.00     0.200 A 
ATOM     94  F   UNL A   1      44.260  24.039  36.071  1.00  0.00    -0.200 F 
ATOM     95  F   UNL A   1      46.910  23.492  35.740  1.00  0.00    -0.200 F 
ENDBRANCH  62  85
ENDBRANCH  36  37
ENDBRANCH  28  31
ENDBRANCH  26  27
ENDBRANCH   1  26
TORSDOF 12
ENDMDL
MODEL 3
REMARK VINA RESULT:     -14.4      3.368      9.400
REMARK SMILES Cc1cc(F)cc(-n2nc(C(=O)NCCCCNC(=O)c3ccc(-c4c5nc(c(-c6c(F)c(F)c(F)c(F)c6F)c6ccc([nH]6)c(-c6c(F)c(F)c(F)c(F)c6F)c6nc(c(-c7c(F)c(F)c(F)c(F)c7F)c7ccc4[nH]7)C=C6)C=C5)cc3)c3c2CC[C@H](C)C3)c1
REMARK SMILES IDX 16 1 15 2 14 3 13 4 11 5 12 6 10 8 8 9 9 10 85 11 84 12
REMARK SMILES IDX 86 13 90 14 87 15 88 16 89 17 7 18 1 19 2 20 3 21 91 22 4 23
REMARK SMILES IDX 5 24 6 25 17 26 18 27 19 28 20 30 21 31 22 32 83 33 23 34
REMARK SMILES IDX 82 35 24 36 25 37 26 38 76 39 27 40 81 41 75 42 77 43 28 44
REMARK SMILES IDX 80 45 74 46 73 47 29 49 61 50 41 51 60 52 42 53 45 54 59 55
REMARK SMILES IDX 78 56 43 57 44 58 58 60 79 61 46 62 30 63 31 64 39 65 32 66
REMARK SMILES IDX 33 67 37 68 40 69 34 70 35 71 38 72 36 73 62 74 63 75 71 76
REMARK SMILES IDX 64 77 65 78 69 79 72 80 66 81 67 82 70 83 68 84 47 85 48 86
REMARK SMILES IDX 56 87 49 88 50 89 54 90 57 91 51 92 52 93 55 94 53 95
REMARK H PARENT 13 7 18 29 77 48 45 59
REMARK Flexibility Score: inf
ROOT
ATOM      1  C   UNL A   1      33.344  28.432  25.521  1.00  0.00     0.023 C 
ENDROOT
BRANCH   1   2
ATOM      2  C   UNL A   1      33.872  28.489  24.086  1.00  0.00     0.023 C 
BRANCH   2   3
ATOM      3  C   UNL A   1      32.812  28.536  22.977  1.00  0.00     0.116 C 
BRANCH   3   4
ATOM      4  N   UNL A   1      33.045  27.539  21.957  1.00  0.00    -0.351 N 
ATOM      5  C   UNL A   1      33.250  26.180  21.919  1.00  0.00     0.272 C 
ATOM      6  O   UNL A   1      33.385  25.758  20.761  1.00  0.00    -0.267 OA
ATOM      7  H   UNL A   1      33.063  27.936  21.055  1.00  0.00     0.163 HD
BRANCH   5   8
ATOM      8  C   UNL A   1      33.291  25.243  23.082  1.00  0.00     0.154 A 
ATOM      9  N   UNL A   1      34.249  23.681  24.255  1.00  0.00    -0.237 N 
ATOM     10  N   UNL A   1      34.440  24.548  23.245  1.00  0.00    -0.162 NA
ATOM     11  C   UNL A   1      33.025  23.866  24.847  1.00  0.00     0.048 A 
ATOM     12  C   UNL A   1      32.416  24.903  24.162  1.00  0.00     0.007 A 
ATOM     13  C   UNL A   1      32.538  23.261  26.125  1.00  0.00     0.057 C 
ATOM     14  C   UNL A   1      31.140  25.468  24.647  1.00  0.00     0.043 C 
ATOM     15  C   UNL A   1      31.048  23.578  26.335  1.00  0.00     0.010 C 
ATOM     16  C   UNL A   1      30.748  25.060  26.078  1.00  0.00    -0.009 C 
ATOM     17  C   UNL A   1      29.274  25.397  26.307  1.00  0.00     0.008 C 
BRANCH   9  18
ATOM     18  C   UNL A   1      35.285  22.794  24.629  1.00  0.00     0.068 A 
ATOM     19  C   UNL A   1      35.875  19.028  24.752  1.00  0.00     0.044 C 
ATOM     20  C   UNL A   1      36.080  20.508  24.881  1.00  0.00    -0.046 A 
ATOM     21  C   UNL A   1      37.326  21.008  25.277  1.00  0.00     0.042 A 
ATOM     22  C   UNL A   1      35.045  21.410  24.595  1.00  0.00     0.032 A 
ATOM     23  C   UNL A   1      37.534  22.381  25.357  1.00  0.00     0.125 A 
ATOM     24  F   UNL A   1      38.723  22.846  25.762  1.00  0.00    -0.207 F 
ATOM     25  C   UNL A   1      36.532  23.282  25.023  1.00  0.00     0.067 A 
ENDBRANCH   9  18
ENDBRANCH   5   8
ENDBRANCH   3   4
ENDBRANCH   2   3
ENDBRANCH   1   2
BRANCH   1  26
ATOM     26  C   UNL A   1      34.404  28.869  26.522  1.00  0.00     0.116 C 
BRANCH  26  27
ATOM     27  N   UNL A   1      34.280  30.278  26.925  1.00  0.00    -0.352 N 
ATOM     28  C   UNL A   1      34.995  30.943  27.910  1.00  0.00     0.251 C 
ATOM     29  H   UNL A   1      33.611  30.813  26.439  1.00  0.00     0.163 HD
ATOM     30  O   UNL A   1      34.640  32.016  28.364  1.00  0.00    -0.269 OA
BRANCH  28  31
ATOM     31  C   UNL A   1      36.240  30.311  28.363  1.00  0.00     0.039 A 
ATOM     32  C   UNL A   1      36.342  29.582  29.556  1.00  0.00     0.014 A 
ATOM     33  C   UNL A   1      37.309  30.422  27.486  1.00  0.00     0.014 A 
ATOM     34  C   UNL A   1      37.525  28.897  29.824  1.00  0.00     0.010 A 
ATOM     35  C   UNL A   1      38.357  29.574  27.630  1.00  0.00     0.010 A 
ATOM     36  C   UNL A   1      38.514  28.892  28.841  1.00  0.00    -0.014 A 
BRANCH  36  37
ATOM     37  C   UNL A   1      39.851  28.350  28.975  1.00  0.00     0.031 A 
ATOM     38  C   UNL A   1      40.150  26.967  28.594  1.00  0.00     0.074 A 
ATOM     39  C   UNL A   1      40.788  29.304  29.181  1.00  0.00     0.049 A 
ATOM     40  N   UNL A   1      41.191  26.325  28.987  1.00  0.00    -0.248 NA
ATOM     41  C   UNL A   1      39.284  26.176  27.727  1.00  0.00     0.031 C 
ATOM     42  C   UNL A   1      42.220  29.291  28.957  1.00  0.00     0.029 A 
ATOM     43  N   UNL A   1      40.543  30.583  29.718  1.00  0.00    -0.354 N 
ATOM     44  C   UNL A   1      41.320  25.216  28.177  1.00  0.00     0.074 A 
ATOM     45  C   UNL A   1      40.041  25.090  27.519  1.00  0.00     0.031 C 
ATOM     46  C   UNL A   1      42.764  30.330  29.623  1.00  0.00     0.029 A 
ATOM     47  C   UNL A   1      41.703  30.953  30.404  1.00  0.00     0.049 A 
ATOM     48  H   UNL A   1      39.718  31.112  29.626  1.00  0.00     0.167 HD
ATOM     49  C   UNL A   1      42.565  24.674  28.026  1.00  0.00     0.037 A 
ATOM     50  C   UNL A   1      41.637  31.004  31.768  1.00  0.00     0.037 A 
ATOM     51  C   UNL A   1      43.530  25.446  28.815  1.00  0.00     0.049 A 
ATOM     52  C   UNL A   1      42.466  29.904  32.375  1.00  0.00     0.074 A 
ATOM     53  C   UNL A   1      44.391  26.470  28.456  1.00  0.00     0.029 A 
ATOM     54  N   UNL A   1      43.416  25.490  30.202  1.00  0.00    -0.354 N 
ATOM     55  N   UNL A   1      42.684  28.751  31.801  1.00  0.00    -0.248 NA
ATOM     56  C   UNL A   1      43.192  30.068  33.626  1.00  0.00     0.031 C 
ATOM     57  C   UNL A   1      44.732  27.184  29.632  1.00  0.00     0.029 A 
ATOM     58  C   UNL A   1      44.090  26.588  30.706  1.00  0.00     0.049 A 
ATOM     59  H   UNL A   1      42.926  24.833  30.747  1.00  0.00     0.167 HD
ATOM     60  C   UNL A   1      43.611  28.060  32.531  1.00  0.00     0.074 A 
ATOM     61  C   UNL A   1      43.882  28.916  33.674  1.00  0.00     0.031 C 
ATOM     62  C   UNL A   1      44.129  26.859  32.134  1.00  0.00     0.037 A 
BRANCH  49  63
ATOM     63  C   UNL A   1      42.999  23.694  26.947  1.00  0.00     0.064 A 
ATOM     64  C   UNL A   1      42.721  22.312  27.083  1.00  0.00     0.173 A 
ATOM     65  C   UNL A   1      43.704  24.029  25.776  1.00  0.00     0.173 A 
ATOM     66  F   UNL A   1      41.972  21.841  28.090  1.00  0.00    -0.203 F 
ATOM     67  C   UNL A   1      43.195  21.348  26.188  1.00  0.00     0.198 A 
ATOM     68  C   UNL A   1      44.203  23.060  24.892  1.00  0.00     0.198 A 
ATOM     69  F   UNL A   1      43.892  25.300  25.409  1.00  0.00    -0.203 F 
ATOM     70  F   UNL A   1      42.907  20.054  26.391  1.00  0.00    -0.200 F 
ATOM     71  C   UNL A   1      43.957  21.720  25.104  1.00  0.00     0.200 A 
ATOM     72  F   UNL A   1      44.920  23.442  23.825  1.00  0.00    -0.200 F 
ATOM     73  F   UNL A   1      44.428  20.796  24.255  1.00  0.00    -0.200 F 
ENDBRANCH  49  63
BRANCH  50  74
ATOM     74  C   UNL A   1      40.298  31.485  32.245  1.00  0.00     0.064 A 
ATOM     75  C   UNL A   1      39.903  32.778  31.835  1.00  0.00     0.173 A 
ATOM     76  C   UNL A   1      39.281  30.606  32.645  1.00  0.00     0.173 A 
ATOM     77  F   UNL A   1      40.832  33.666  31.444  1.00  0.00    -0.203 F 
ATOM     78  C   UNL A   1      38.559  33.119  31.684  1.00  0.00     0.198 A 
ATOM     79  C   UNL A   1      37.932  30.961  32.512  1.00  0.00     0.198 A 
ATOM     80  F   UNL A   1      39.578  29.364  33.050  1.00  0.00    -0.203 F 
ATOM     81  F   UNL A   1      38.226  34.308  31.158  1.00  0.00    -0.200 F 
ATOM     82  C   UNL A   1      37.575  32.198  31.993  1.00  0.00     0.200 A 
ATOM     83  F   UNL A   1      36.973  30.072  32.813  1.00  0.00    -0.200 F 
ATOM     84  F   UNL A   1      36.287  32.490  31.756  1.00  0.00    -0.200 F 
ENDBRANCH  50  74
BRANCH  62  85
ATOM     85  C   UNL A   1      44.857  25.897  33.037  1.00  0.00     0.064 A 
ATOM     86  C   UNL A   1      46.241  25.673  32.969  1.00  0.00     0.173 A 
ATOM     87  C   UNL A   1      44.193  25.275  34.123  1.00  0.00     0.173 A 
ATOM     88  F   UNL A   1      47.014  26.327  32.090  1.00  0.00    -0.203 F 
ATOM     89  C   UNL A   1      46.893  24.809  33.846  1.00  0.00     0.198 A 
ATOM     90  C   UNL A   1      44.862  24.476  35.045  1.00  0.00     0.198 A 
ATOM     91  F   UNL A   1      42.882  25.449  34.347  1.00  0.00    -0.203 F 
ATOM     92  F   UNL A   1      48.204  24.575  33.690  1.00  0.00    -0.200 F 
ATOM     93  C   UNL A   1      46.207  24.218  34.889  1.00  0.00     0.200 A 
ATOM     94  F   UNL A   1      44.198  23.975  36.095  1.00  0.00    -0.200 F 
ATOM     95  F   UNL A   1      46.846  23.422  35.756  1.00  0.00    -0.200 F 
ENDBRANCH  62  85
ENDBRANCH  36  37
ENDBRANCH  28  31
ENDBRANCH  26  27
ENDBRANCH   1  26
TORSDOF 12
ENDMDL
