MODEL 1
REMARK VINA RESULT:     -11.9      0.000      0.000
REMARK SMILES Cc1cscc1-c1noc(SCC(=O)NCCCCNC(=O)c2ccc(-c3c4nc(c(-c5c(F)c(F)c(F)c(F)c5F)c5ccc([nH]5)c(-c5c(F)c(F)c(F)c(F)c5F)c5nc(c(-c6c(F)c(F)c(F)c(F)c6F)c6ccc3[nH]6)C=C5)C=C4)cc2)n1
REMARK SMILES IDX 17 1 16 2 15 3 13 4 14 5 12 7 11 8 10 9 7 10 8 11 86 12 9 13
REMARK SMILES IDX 6 14 1 15 2 16 3 17 4 18 5 19 18 20 19 21 20 22 21 23 22 25
REMARK SMILES IDX 23 26 24 27 85 28 25 29 84 30 26 31 27 32 28 33 78 34 29 35
REMARK SMILES IDX 83 36 77 37 79 38 30 39 82 40 76 41 75 42 31 44 63 45 43 46
REMARK SMILES IDX 62 47 44 48 47 49 61 50 80 51 45 52 46 53 60 55 81 56 48 57
REMARK SMILES IDX 32 58 33 59 41 60 34 61 35 62 39 63 42 64 36 65 37 66 40 67
REMARK SMILES IDX 38 68 64 69 65 70 73 71 66 72 67 73 71 74 74 75 68 76 69 77
REMARK SMILES IDX 72 78 70 79 49 80 50 81 58 82 51 83 52 84 56 85 59 86 53 87
REMARK SMILES IDX 54 88 57 89 55 90
REMARK H PARENT 15 6 20 24 79 43 47 54
REMARK Flexibility Score: inf
ROOT
ATOM      1  C   UNL A   1      31.549  30.591  26.421  1.00  0.00     0.023 C 
ENDROOT
BRANCH   1   2
ATOM      2  C   UNL A   1      32.975  30.047  26.308  1.00  0.00     0.116 C 
BRANCH   2   3
ATOM      3  N   UNL A   1      33.364  29.875  24.922  1.00  0.00    -0.355 N 
ATOM      4  C   UNL A   1      33.229  28.797  24.098  1.00  0.00     0.230 C 
ATOM      5  O   UNL A   1      33.646  28.920  22.943  1.00  0.00    -0.274 OA
ATOM      6  H   UNL A   1      33.794  30.660  24.512  1.00  0.00     0.163 HD
BRANCH   4   7
ATOM      7  C   UNL A   1      32.479  27.553  24.538  1.00  0.00     0.179 C 
BRANCH   7   8
ATOM      8  S   UNL A   1      31.608  26.686  23.216  1.00  0.00    -0.055 SA
BRANCH   8   9
ATOM      9  C   UNL A   1      30.245  27.711  22.907  1.00  0.00     0.286 A 
ATOM     10  C   UNL A   1      28.980  29.274  22.349  1.00  0.00     0.204 A 
ATOM     11  N   UNL A   1      28.156  28.451  23.006  1.00  0.00    -0.056 NA
ATOM     12  N   UNL A   1      30.279  28.848  22.256  1.00  0.00    -0.181 NA
ATOM     13  O   UNL A   1      28.993  27.396  23.364  1.00  0.00    -0.327 OA
BRANCH  10  14
ATOM     14  C   UNL A   1      28.575  30.581  21.833  1.00  0.00     0.036 A 
ATOM     15  C   UNL A   1      29.063  31.917  24.018  1.00  0.00     0.046 C 
ATOM     16  C   UNL A   1      28.601  31.794  22.603  1.00  0.00    -0.029 A 
ATOM     17  C   UNL A   1      28.158  32.860  21.839  1.00  0.00     0.069 A 
ATOM     18  S   UNL A   1      27.730  32.413  20.246  1.00  0.00    -0.151 S 
ATOM     19  C   UNL A   1      28.140  30.782  20.539  1.00  0.00     0.077 A 
ENDBRANCH  10  14
ENDBRANCH   8   9
ENDBRANCH   7   8
ENDBRANCH   4   7
ENDBRANCH   2   3
ENDBRANCH   1   2
BRANCH   1  20
ATOM     20  C   UNL A   1      31.458  32.113  26.570  1.00  0.00     0.023 C 
BRANCH  20  21
ATOM     21  C   UNL A   1      32.642  32.774  27.268  1.00  0.00     0.116 C 
BRANCH  21  22
ATOM     22  N   UNL A   1      32.387  34.162  27.621  1.00  0.00    -0.352 N 
ATOM     23  C   UNL A   1      32.992  34.949  28.569  1.00  0.00     0.251 C 
ATOM     24  H   UNL A   1      31.674  34.602  27.104  1.00  0.00     0.163 HD
ATOM     25  O   UNL A   1      32.538  36.065  28.816  1.00  0.00    -0.269 OA
BRANCH  23  26
ATOM     26  C   UNL A   1      34.165  34.452  29.321  1.00  0.00     0.039 A 
ATOM     27  C   UNL A   1      33.954  33.842  30.561  1.00  0.00     0.014 A 
ATOM     28  C   UNL A   1      35.463  34.584  28.819  1.00  0.00     0.014 A 
ATOM     29  C   UNL A   1      35.034  33.303  31.261  1.00  0.00     0.010 A 
ATOM     30  C   UNL A   1      36.530  33.980  29.484  1.00  0.00     0.010 A 
ATOM     31  C   UNL A   1      36.326  33.328  30.709  1.00  0.00    -0.014 A 
BRANCH  31  32
ATOM     32  C   UNL A   1      37.456  32.645  31.391  1.00  0.00     0.031 A 
ATOM     33  C   UNL A   1      38.170  31.496  30.736  1.00  0.00     0.074 A 
ATOM     34  C   UNL A   1      37.808  33.034  32.632  1.00  0.00     0.049 A 
ATOM     35  N   UNL A   1      39.164  30.772  31.190  1.00  0.00    -0.248 NA
ATOM     36  C   UNL A   1      37.692  31.088  29.407  1.00  0.00     0.031 C 
ATOM     37  C   UNL A   1      37.156  34.098  33.399  1.00  0.00     0.029 A 
ATOM     38  N   UNL A   1      38.795  32.580  33.471  1.00  0.00    -0.354 N 
ATOM     39  C   UNL A   1      39.424  29.825  30.209  1.00  0.00     0.074 A 
ATOM     40  C   UNL A   1      38.448  30.029  29.160  1.00  0.00     0.031 C 
ATOM     41  C   UNL A   1      37.781  34.236  34.579  1.00  0.00     0.029 A 
ATOM     42  C   UNL A   1      38.849  33.246  34.671  1.00  0.00     0.049 A 
ATOM     43  H   UNL A   1      39.408  31.847  33.234  1.00  0.00     0.167 HD
ATOM     44  C   UNL A   1      40.403  28.889  30.174  1.00  0.00     0.037 A 
ATOM     45  C   UNL A   1      39.665  33.076  35.729  1.00  0.00     0.037 A 
ATOM     46  C   UNL A   1      41.380  28.697  31.214  1.00  0.00     0.049 A 
ATOM     47  C   UNL A   1      40.735  32.021  35.668  1.00  0.00     0.074 A 
ATOM     48  C   UNL A   1      42.446  27.815  31.246  1.00  0.00     0.029 A 
ATOM     49  N   UNL A   1      41.406  29.393  32.416  1.00  0.00    -0.354 N 
ATOM     50  N   UNL A   1      41.023  31.187  34.699  1.00  0.00    -0.248 NA
ATOM     51  C   UNL A   1      41.601  31.893  36.848  1.00  0.00     0.031 C 
ATOM     52  C   UNL A   1      43.082  27.936  32.487  1.00  0.00     0.029 A 
ATOM     53  C   UNL A   1      42.450  28.938  33.206  1.00  0.00     0.049 A 
ATOM     54  H   UNL A   1      40.774  30.104  32.669  1.00  0.00     0.167 HD
ATOM     55  C   UNL A   1      42.115  30.452  35.141  1.00  0.00     0.074 A 
ATOM     56  C   UNL A   1      42.454  30.958  36.454  1.00  0.00     0.031 C 
ATOM     57  C   UNL A   1      42.775  29.445  34.516  1.00  0.00     0.037 A 
BRANCH  44  58
ATOM     58  C   UNL A   1      40.468  27.996  28.967  1.00  0.00     0.064 A 
ATOM     59  C   UNL A   1      39.750  26.791  28.903  1.00  0.00     0.173 A 
ATOM     60  C   UNL A   1      41.221  28.368  27.843  1.00  0.00     0.173 A 
ATOM     61  F   UNL A   1      39.021  26.382  29.953  1.00  0.00    -0.203 F 
ATOM     62  C   UNL A   1      39.809  25.979  27.773  1.00  0.00     0.198 A 
ATOM     63  C   UNL A   1      41.251  27.570  26.701  1.00  0.00     0.198 A 
ATOM     64  F   UNL A   1      41.921  29.512  27.846  1.00  0.00    -0.203 F 
ATOM     65  F   UNL A   1      39.156  24.810  27.756  1.00  0.00    -0.200 F 
ATOM     66  C   UNL A   1      40.552  26.373  26.671  1.00  0.00     0.200 A 
ATOM     67  F   UNL A   1      41.957  27.959  25.632  1.00  0.00    -0.200 F 
ATOM     68  F   UNL A   1      40.600  25.595  25.580  1.00  0.00    -0.200 F 
ENDBRANCH  44  58
BRANCH  45  69
ATOM     69  C   UNL A   1      39.514  33.941  36.929  1.00  0.00     0.064 A 
ATOM     70  C   UNL A   1      40.125  35.203  36.991  1.00  0.00     0.173 A 
ATOM     71  C   UNL A   1      38.770  33.523  38.042  1.00  0.00     0.173 A 
ATOM     72  F   UNL A   1      40.865  35.638  35.960  1.00  0.00    -0.203 F 
ATOM     73  C   UNL A   1      40.016  36.000  38.127  1.00  0.00     0.198 A 
ATOM     74  C   UNL A   1      38.635  34.336  39.165  1.00  0.00     0.198 A 
ATOM     75  F   UNL A   1      38.161  32.328  38.032  1.00  0.00    -0.203 F 
ATOM     76  F   UNL A   1      40.654  37.178  38.179  1.00  0.00    -0.200 F 
ATOM     77  C   UNL A   1      39.267  35.570  39.211  1.00  0.00     0.200 A 
ATOM     78  F   UNL A   1      37.897  33.923  40.203  1.00  0.00    -0.200 F 
ATOM     79  F   UNL A   1      39.161  36.339  40.303  1.00  0.00    -0.200 F 
ENDBRANCH  45  69
BRANCH  57  80
ATOM     80  C   UNL A   1      43.948  28.844  35.238  1.00  0.00     0.064 A 
ATOM     81  C   UNL A   1      43.795  27.766  36.124  1.00  0.00     0.173 A 
ATOM     82  C   UNL A   1      45.243  29.346  35.035  1.00  0.00     0.173 A 
ATOM     83  F   UNL A   1      42.577  27.259  36.366  1.00  0.00    -0.203 F 
ATOM     84  C   UNL A   1      44.888  27.240  36.808  1.00  0.00     0.198 A 
ATOM     85  C   UNL A   1      46.339  28.794  35.692  1.00  0.00     0.198 A 
ATOM     86  F   UNL A   1      45.448  30.370  34.193  1.00  0.00    -0.203 F 
ATOM     87  F   UNL A   1      44.708  26.254  37.697  1.00  0.00    -0.200 F 
ATOM     88  C   UNL A   1      46.159  27.749  36.587  1.00  0.00     0.200 A 
ATOM     89  F   UNL A   1      47.568  29.276  35.466  1.00  0.00    -0.200 F 
ATOM     90  F   UNL A   1      47.210  27.241  37.246  1.00  0.00    -0.200 F 
ENDBRANCH  57  80
ENDBRANCH  31  32
ENDBRANCH  23  26
ENDBRANCH  21  22
ENDBRANCH  20  21
ENDBRANCH   1  20
TORSDOF 14
ENDMDL
MODEL 2
REMARK VINA RESULT:     -11.9      0.678      7.550
REMARK SMILES Cc1cscc1-c1noc(SCC(=O)NCCCCNC(=O)c2ccc(-c3c4nc(c(-c5c(F)c(F)c(F)c(F)c5F)c5ccc([nH]5)c(-c5c(F)c(F)c(F)c(F)c5F)c5nc(c(-c6c(F)c(F)c(F)c(F)c6F)c6ccc3[nH]6)C=C5)C=C4)cc2)n1
REMARK SMILES IDX 17 1 16 2 15 3 13 4 14 5 12 7 11 8 10 9 7 10 8 11 86 12 9 13
REMARK SMILES IDX 6 14 1 15 2 16 3 17 4 18 5 19 18 20 19 21 20 22 21 23 22 25
REMARK SMILES IDX 23 26 24 27 85 28 25 29 84 30 26 31 27 32 28 33 78 34 29 35
REMARK SMILES IDX 83 36 77 37 79 38 30 39 82 40 76 41 75 42 31 44 63 45 43 46
REMARK SMILES IDX 62 47 44 48 47 49 61 50 80 51 45 52 46 53 60 55 81 56 48 57
REMARK SMILES IDX 32 58 33 59 41 60 34 61 35 62 39 63 42 64 36 65 37 66 40 67
REMARK SMILES IDX 38 68 64 69 65 70 73 71 66 72 67 73 71 74 74 75 68 76 69 77
REMARK SMILES IDX 72 78 70 79 49 80 50 81 58 82 51 83 52 84 56 85 59 86 53 87
REMARK SMILES IDX 54 88 57 89 55 90
REMARK H PARENT 15 6 20 24 79 43 47 54
REMARK Flexibility Score: inf
ROOT
ATOM      1  C   UNL A   1      31.488  30.504  26.127  1.00  0.00     0.023 C 
ENDROOT
BRANCH   1   2
ATOM      2  C   UNL A   1      32.928  29.990  26.065  1.00  0.00     0.116 C 
BRANCH   2   3
ATOM      3  N   UNL A   1      33.339  29.745  24.696  1.00  0.00    -0.355 N 
ATOM      4  C   UNL A   1      33.183  28.637  23.916  1.00  0.00     0.230 C 
ATOM      5  O   UNL A   1      33.628  28.695  22.767  1.00  0.00    -0.274 OA
ATOM      6  H   UNL A   1      33.805  30.495  24.263  1.00  0.00     0.163 HD
BRANCH   4   7
ATOM      7  C   UNL A   1      32.379  27.441  24.392  1.00  0.00     0.179 C 
BRANCH   7   8
ATOM      8  S   UNL A   1      31.421  26.611  23.106  1.00  0.00    -0.055 SA
BRANCH   8   9
ATOM      9  C   UNL A   1      30.094  27.695  22.846  1.00  0.00     0.286 A 
ATOM     10  C   UNL A   1      28.874  29.301  22.310  1.00  0.00     0.204 A 
ATOM     11  N   UNL A   1      28.057  28.548  23.055  1.00  0.00    -0.056 NA
ATOM     12  N   UNL A   1      30.140  28.803  22.148  1.00  0.00    -0.181 NA
ATOM     13  O   UNL A   1      28.862  27.465  23.400  1.00  0.00    -0.327 OA
BRANCH  10  14
ATOM     14  C   UNL A   1      28.500  30.606  21.768  1.00  0.00     0.036 A 
ATOM     15  C   UNL A   1      28.921  31.957  23.958  1.00  0.00     0.046 C 
ATOM     16  C   UNL A   1      28.510  31.826  22.529  1.00  0.00    -0.029 A 
ATOM     17  C   UNL A   1      28.105  32.890  21.739  1.00  0.00     0.069 A 
ATOM     18  S   UNL A   1      27.732  32.432  20.135  1.00  0.00    -0.151 S 
ATOM     19  C   UNL A   1      28.115  30.800  20.458  1.00  0.00     0.077 A 
ENDBRANCH  10  14
ENDBRANCH   8   9
ENDBRANCH   7   8
ENDBRANCH   4   7
ENDBRANCH   2   3
ENDBRANCH   1   2
BRANCH   1  20
ATOM     20  C   UNL A   1      31.355  31.982  26.509  1.00  0.00     0.023 C 
BRANCH  20  21
ATOM     21  C   UNL A   1      32.574  32.594  27.190  1.00  0.00     0.116 C 
BRANCH  21  22
ATOM     22  N   UNL A   1      32.375  33.986  27.562  1.00  0.00    -0.352 N 
ATOM     23  C   UNL A   1      33.040  34.748  28.490  1.00  0.00     0.251 C 
ATOM     24  H   UNL A   1      31.656  34.451  27.074  1.00  0.00     0.163 HD
ATOM     25  O   UNL A   1      32.629  35.875  28.761  1.00  0.00    -0.269 OA
BRANCH  23  26
ATOM     26  C   UNL A   1      34.225  34.211  29.193  1.00  0.00     0.039 A 
ATOM     27  C   UNL A   1      34.026  33.428  30.334  1.00  0.00     0.014 A 
ATOM     28  C   UNL A   1      35.522  34.472  28.743  1.00  0.00     0.014 A 
ATOM     29  C   UNL A   1      35.121  32.851  30.979  1.00  0.00     0.010 A 
ATOM     30  C   UNL A   1      36.607  33.836  29.343  1.00  0.00     0.010 A 
ATOM     31  C   UNL A   1      36.419  33.014  30.465  1.00  0.00    -0.014 A 
BRANCH  31  32
ATOM     32  C   UNL A   1      37.572  32.300  31.072  1.00  0.00     0.031 A 
ATOM     33  C   UNL A   1      38.063  32.660  32.447  1.00  0.00     0.074 A 
ATOM     34  C   UNL A   1      38.211  31.354  30.357  1.00  0.00     0.049 A 
ATOM     35  N   UNL A   1      39.064  32.156  33.126  1.00  0.00    -0.248 NA
ATOM     36  C   UNL A   1      37.354  33.744  33.143  1.00  0.00     0.031 C 
ATOM     37  C   UNL A   1      37.867  30.953  28.991  1.00  0.00     0.029 A 
ATOM     38  N   UNL A   1      39.283  30.558  30.675  1.00  0.00    -0.354 N 
ATOM     39  C   UNL A   1      39.106  32.862  34.321  1.00  0.00     0.074 A 
ATOM     40  C   UNL A   1      38.069  33.868  34.251  1.00  0.00     0.031 C 
ATOM     41  C   UNL A   1      38.691  29.968  28.602  1.00  0.00     0.029 A 
ATOM     42  C   UNL A   1      39.645  29.694  29.671  1.00  0.00     0.049 A 
ATOM     43  H   UNL A   1      39.750  30.603  31.542  1.00  0.00     0.167 HD
ATOM     44  C   UNL A   1      39.919  32.672  35.388  1.00  0.00     0.037 A 
ATOM     45  C   UNL A   1      40.637  28.785  29.616  1.00  0.00     0.037 A 
ATOM     46  C   UNL A   1      40.944  31.662  35.458  1.00  0.00     0.049 A 
ATOM     47  C   UNL A   1      41.533  28.603  30.811  1.00  0.00     0.074 A 
ATOM     48  C   UNL A   1      41.781  31.353  36.517  1.00  0.00     0.029 A 
ATOM     49  N   UNL A   1      41.281  30.801  34.422  1.00  0.00    -0.354 N 
ATOM     50  N   UNL A   1      41.510  29.221  31.966  1.00  0.00    -0.248 NA
ATOM     51  C   UNL A   1      42.588  27.587  30.695  1.00  0.00     0.031 C 
ATOM     52  C   UNL A   1      42.660  30.345  36.104  1.00  0.00     0.029 A 
ATOM     53  C   UNL A   1      42.332  29.982  34.807  1.00  0.00     0.049 A 
ATOM     54  H   UNL A   1      40.839  30.777  33.543  1.00  0.00     0.167 HD
ATOM     55  C   UNL A   1      42.528  28.656  32.722  1.00  0.00     0.074 A 
ATOM     56  C   UNL A   1      43.131  27.625  31.903  1.00  0.00     0.031 C 
ATOM     57  C   UNL A   1      42.929  28.964  33.981  1.00  0.00     0.037 A 
BRANCH  44  58
ATOM     58  C   UNL A   1      39.735  33.578  36.573  1.00  0.00     0.064 A 
ATOM     59  C   UNL A   1      38.876  33.243  37.631  1.00  0.00     0.173 A 
ATOM     60  C   UNL A   1      40.460  34.775  36.675  1.00  0.00     0.173 A 
ATOM     61  F   UNL A   1      38.152  32.114  37.581  1.00  0.00    -0.203 F 
ATOM     62  C   UNL A   1      38.725  34.086  38.729  1.00  0.00     0.198 A 
ATOM     63  C   UNL A   1      40.333  35.600  37.790  1.00  0.00     0.198 A 
ATOM     64  F   UNL A   1      41.301  35.143  35.696  1.00  0.00    -0.203 F 
ATOM     65  F   UNL A   1      37.860  33.768  39.701  1.00  0.00    -0.200 F 
ATOM     66  C   UNL A   1      39.460  35.259  38.811  1.00  0.00     0.200 A 
ATOM     67  F   UNL A   1      41.054  36.725  37.875  1.00  0.00    -0.200 F 
ATOM     68  F   UNL A   1      39.321  36.065  39.874  1.00  0.00    -0.200 F 
ENDBRANCH  44  58
BRANCH  45  69
ATOM     69  C   UNL A   1      40.822  27.960  28.392  1.00  0.00     0.064 A 
ATOM     70  C   UNL A   1      40.218  26.699  28.274  1.00  0.00     0.173 A 
ATOM     71  C   UNL A   1      41.613  28.406  27.324  1.00  0.00     0.173 A 
ATOM     72  F   UNL A   1      39.469  26.220  29.278  1.00  0.00    -0.203 F 
ATOM     73  C   UNL A   1      40.418  25.909  27.145  1.00  0.00     0.198 A 
ATOM     74  C   UNL A   1      41.785  27.628  26.181  1.00  0.00     0.198 A 
ATOM     75  F   UNL A   1      42.208  29.606  27.384  1.00  0.00    -0.203 F 
ATOM     76  F   UNL A   1      39.871  24.687  27.081  1.00  0.00    -0.200 F 
ATOM     77  C   UNL A   1      41.196  26.375  26.097  1.00  0.00     0.200 A 
ATOM     78  F   UNL A   1      42.525  28.090  25.165  1.00  0.00    -0.200 F 
ATOM     79  F   UNL A   1      41.385  25.615  25.010  1.00  0.00    -0.200 F 
ENDBRANCH  45  69
BRANCH  57  80
ATOM     80  C   UNL A   1      44.060  28.158  34.555  1.00  0.00     0.064 A 
ATOM     81  C   UNL A   1      45.391  28.596  34.481  1.00  0.00     0.173 A 
ATOM     82  C   UNL A   1      43.808  26.935  35.197  1.00  0.00     0.173 A 
ATOM     83  F   UNL A   1      45.688  29.750  33.864  1.00  0.00    -0.203 F 
ATOM     84  C   UNL A   1      46.430  27.823  34.992  1.00  0.00     0.198 A 
ATOM     85  C   UNL A   1      44.846  26.182  35.740  1.00  0.00     0.198 A 
ATOM     86  F   UNL A   1      42.554  26.472  35.304  1.00  0.00    -0.203 F 
ATOM     87  F   UNL A   1      47.698  28.231  34.851  1.00  0.00    -0.200 F 
ATOM     88  C   UNL A   1      46.157  26.620  35.626  1.00  0.00     0.200 A 
ATOM     89  F   UNL A   1      44.578  25.028  36.366  1.00  0.00    -0.200 F 
ATOM     90  F   UNL A   1      47.158  25.877  36.118  1.00  0.00    -0.200 F 
ENDBRANCH  57  80
ENDBRANCH  31  32
ENDBRANCH  23  26
ENDBRANCH  21  22
ENDBRANCH  20  21
ENDBRANCH   1  20
TORSDOF 14
ENDMDL
MODEL 3
REMARK VINA RESULT:     -11.9      2.204      3.717
REMARK SMILES Cc1cscc1-c1noc(SCC(=O)NCCCCNC(=O)c2ccc(-c3c4nc(c(-c5c(F)c(F)c(F)c(F)c5F)c5ccc([nH]5)c(-c5c(F)c(F)c(F)c(F)c5F)c5nc(c(-c6c(F)c(F)c(F)c(F)c6F)c6ccc3[nH]6)C=C5)C=C4)cc2)n1
REMARK SMILES IDX 17 1 16 2 15 3 13 4 14 5 12 7 11 8 10 9 7 10 8 11 86 12 9 13
REMARK SMILES IDX 6 14 1 15 2 16 3 17 4 18 5 19 18 20 19 21 20 22 21 23 22 25
REMARK SMILES IDX 23 26 24 27 85 28 25 29 84 30 26 31 27 32 28 33 78 34 29 35
REMARK SMILES IDX 83 36 77 37 79 38 30 39 82 40 76 41 75 42 31 44 63 45 43 46
REMARK SMILES IDX 62 47 44 48 47 49 61 50 80 51 45 52 46 53 60 55 81 56 48 57
REMARK SMILES IDX 32 58 33 59 41 60 34 61 35 62 39 63 42 64 36 65 37 66 40 67
REMARK SMILES IDX 38 68 64 69 65 70 73 71 66 72 67 73 71 74 74 75 68 76 69 77
REMARK SMILES IDX 72 78 70 79 49 80 50 81 58 82 51 83 52 84 56 85 59 86 53 87
REMARK SMILES IDX 54 88 57 89 55 90
REMARK H PARENT 15 6 20 24 79 43 47 54
REMARK Flexibility Score: inf
ROOT
ATOM      1  C   UNL A   1      31.689  30.577  26.117  1.00  0.00     0.023 C 
ENDROOT
BRANCH   1   2
ATOM      2  C   UNL A   1      32.233  29.644  27.200  1.00  0.00     0.116 C 
BRANCH   2   3
ATOM      3  N   UNL A   1      31.579  28.350  27.156  1.00  0.00    -0.355 N 
ATOM      4  C   UNL A   1      31.989  27.176  26.597  1.00  0.00     0.230 C 
ATOM      5  O   UNL A   1      31.232  26.208  26.709  1.00  0.00    -0.274 OA
ATOM      6  H   UNL A   1      30.700  28.316  27.597  1.00  0.00     0.163 HD
BRANCH   4   7
ATOM      7  C   UNL A   1      33.371  27.030  25.986  1.00  0.00     0.179 C 
BRANCH   7   8
ATOM      8  S   UNL A   1      33.423  27.172  24.187  1.00  0.00    -0.055 SA
BRANCH   8   9
ATOM      9  C   UNL A   1      33.574  25.525  23.669  1.00  0.00     0.286 A 
ATOM     10  C   UNL A   1      33.622  23.441  23.552  1.00  0.00     0.204 A 
ATOM     11  N   UNL A   1      34.126  23.813  22.370  1.00  0.00    -0.056 NA
ATOM     12  N   UNL A   1      33.259  24.470  24.381  1.00  0.00    -0.181 NA
ATOM     13  O   UNL A   1      34.079  25.204  22.436  1.00  0.00    -0.327 OA
BRANCH  10  14
ATOM     14  C   UNL A   1      33.535  22.050  23.991  1.00  0.00     0.036 A 
ATOM     15  C   UNL A   1      36.000  21.855  24.819  1.00  0.00     0.046 C 
ATOM     16  C   UNL A   1      34.631  21.316  24.563  1.00  0.00    -0.029 A 
ATOM     17  C   UNL A   1      34.237  20.026  24.875  1.00  0.00     0.069 A 
ATOM     18  S   UNL A   1      32.599  19.714  24.497  1.00  0.00    -0.151 S 
ATOM     19  C   UNL A   1      32.378  21.303  23.917  1.00  0.00     0.077 A 
ENDBRANCH  10  14
ENDBRANCH   8   9
ENDBRANCH   7   8
ENDBRANCH   4   7
ENDBRANCH   2   3
ENDBRANCH   1   2
BRANCH   1  20
ATOM     20  C   UNL A   1      31.454  32.020  26.578  1.00  0.00     0.023 C 
BRANCH  20  21
ATOM     21  C   UNL A   1      32.646  32.694  27.251  1.00  0.00     0.116 C 
BRANCH  21  22
ATOM     22  N   UNL A   1      32.391  34.083  27.593  1.00  0.00    -0.352 N 
ATOM     23  C   UNL A   1      32.992  34.877  28.538  1.00  0.00     0.251 C 
ATOM     24  H   UNL A   1      31.680  34.520  27.069  1.00  0.00     0.163 HD
ATOM     25  O   UNL A   1      32.538  35.995  28.775  1.00  0.00    -0.269 OA
BRANCH  23  26
ATOM     26  C   UNL A   1      34.161  34.385  29.298  1.00  0.00     0.039 A 
ATOM     27  C   UNL A   1      33.938  33.686  30.488  1.00  0.00     0.014 A 
ATOM     28  C   UNL A   1      35.468  34.607  28.853  1.00  0.00     0.014 A 
ATOM     29  C   UNL A   1      35.018  33.151  31.191  1.00  0.00     0.010 A 
ATOM     30  C   UNL A   1      36.539  34.010  29.516  1.00  0.00     0.010 A 
ATOM     31  C   UNL A   1      36.326  33.270  30.689  1.00  0.00    -0.014 A 
BRANCH  31  32
ATOM     32  C   UNL A   1      37.463  32.595  31.366  1.00  0.00     0.031 A 
ATOM     33  C   UNL A   1      38.178  31.446  30.711  1.00  0.00     0.074 A 
ATOM     34  C   UNL A   1      37.821  32.991  32.604  1.00  0.00     0.049 A 
ATOM     35  N   UNL A   1      39.178  30.729  31.162  1.00  0.00    -0.248 NA
ATOM     36  C   UNL A   1      37.693  31.031  29.387  1.00  0.00     0.031 C 
ATOM     37  C   UNL A   1      37.170  34.055  33.370  1.00  0.00     0.029 A 
ATOM     38  N   UNL A   1      38.816  32.545  33.437  1.00  0.00    -0.354 N 
ATOM     39  C   UNL A   1      39.436  29.779  30.183  1.00  0.00     0.074 A 
ATOM     40  C   UNL A   1      38.453  29.974  29.139  1.00  0.00     0.031 C 
ATOM     41  C   UNL A   1      37.801  34.200  34.545  1.00  0.00     0.029 A 
ATOM     42  C   UNL A   1      38.875  33.216  34.634  1.00  0.00     0.049 A 
ATOM     43  H   UNL A   1      39.431  31.813  33.200  1.00  0.00     0.167 HD
ATOM     44  C   UNL A   1      40.419  28.848  30.145  1.00  0.00     0.037 A 
ATOM     45  C   UNL A   1      39.698  33.054  35.688  1.00  0.00     0.037 A 
ATOM     46  C   UNL A   1      41.404  28.664  31.180  1.00  0.00     0.049 A 
ATOM     47  C   UNL A   1      40.773  32.004  35.624  1.00  0.00     0.074 A 
ATOM     48  C   UNL A   1      42.475  27.787  31.208  1.00  0.00     0.029 A 
ATOM     49  N   UNL A   1      41.434  29.365  32.378  1.00  0.00    -0.354 N 
ATOM     50  N   UNL A   1      41.058  31.166  34.657  1.00  0.00    -0.248 NA
ATOM     51  C   UNL A   1      41.647  31.884  36.799  1.00  0.00     0.031 C 
ATOM     52  C   UNL A   1      43.118  27.916  32.445  1.00  0.00     0.029 A 
ATOM     53  C   UNL A   1      42.486  28.918  33.163  1.00  0.00     0.049 A 
ATOM     54  H   UNL A   1      40.801  30.074  32.633  1.00  0.00     0.167 HD
ATOM     55  C   UNL A   1      42.156  30.439  35.094  1.00  0.00     0.074 A 
ATOM     56  C   UNL A   1      42.502  30.952  36.403  1.00  0.00     0.031 C 
ATOM     57  C   UNL A   1      42.817  29.432  34.469  1.00  0.00     0.037 A 
BRANCH  44  58
ATOM     58  C   UNL A   1      40.481  27.949  28.942  1.00  0.00     0.064 A 
ATOM     59  C   UNL A   1      39.761  26.745  28.884  1.00  0.00     0.173 A 
ATOM     60  C   UNL A   1      41.231  28.317  27.814  1.00  0.00     0.173 A 
ATOM     61  F   UNL A   1      39.034  26.341  29.937  1.00  0.00    -0.203 F 
ATOM     62  C   UNL A   1      39.816  25.929  27.757  1.00  0.00     0.198 A 
ATOM     63  C   UNL A   1      41.257  27.515  26.675  1.00  0.00     0.198 A 
ATOM     64  F   UNL A   1      41.932  29.460  27.811  1.00  0.00    -0.203 F 
ATOM     65  F   UNL A   1      39.162  24.760  27.745  1.00  0.00    -0.200 F 
ATOM     66  C   UNL A   1      40.557  26.318  26.651  1.00  0.00     0.200 A 
ATOM     67  F   UNL A   1      41.961  27.899  25.603  1.00  0.00    -0.200 F 
ATOM     68  F   UNL A   1      40.602  25.536  25.564  1.00  0.00    -0.200 F 
ENDBRANCH  44  58
BRANCH  45  69
ATOM     69  C   UNL A   1      39.551  33.924  36.886  1.00  0.00     0.064 A 
ATOM     70  C   UNL A   1      40.174  35.179  36.946  1.00  0.00     0.173 A 
ATOM     71  C   UNL A   1      38.800  33.515  37.996  1.00  0.00     0.173 A 
ATOM     72  F   UNL A   1      40.922  35.605  35.917  1.00  0.00    -0.203 F 
ATOM     73  C   UNL A   1      40.069  35.980  38.081  1.00  0.00     0.198 A 
ATOM     74  C   UNL A   1      38.668  34.332  39.117  1.00  0.00     0.198 A 
ATOM     75  F   UNL A   1      38.180  32.326  37.988  1.00  0.00    -0.203 F 
ATOM     76  F   UNL A   1      40.717  37.152  38.131  1.00  0.00    -0.200 F 
ATOM     77  C   UNL A   1      39.312  35.560  39.163  1.00  0.00     0.200 A 
ATOM     78  F   UNL A   1      37.922  33.928  40.154  1.00  0.00    -0.200 F 
ATOM     79  F   UNL A   1      39.208  36.333  40.252  1.00  0.00    -0.200 F 
ENDBRANCH  45  69
BRANCH  57  80
ATOM     80  C   UNL A   1      43.997  28.839  35.186  1.00  0.00     0.064 A 
ATOM     81  C   UNL A   1      43.856  27.761  36.072  1.00  0.00     0.173 A 
ATOM     82  C   UNL A   1      45.287  29.351  34.977  1.00  0.00     0.173 A 
ATOM     83  F   UNL A   1      42.642  27.245  36.320  1.00  0.00    -0.203 F 
ATOM     84  C   UNL A   1      44.956  27.242  36.751  1.00  0.00     0.198 A 
ATOM     85  C   UNL A   1      46.390  28.806  35.630  1.00  0.00     0.198 A 
ATOM     86  F   UNL A   1      45.482  30.376  34.134  1.00  0.00    -0.203 F 
ATOM     87  F   UNL A   1      44.786  26.255  37.642  1.00  0.00    -0.200 F 
ATOM     88  C   UNL A   1      46.222  27.761  36.525  1.00  0.00     0.200 A 
ATOM     89  F   UNL A   1      47.615  29.297  35.398  1.00  0.00    -0.200 F 
ATOM     90  F   UNL A   1      47.279  27.260  37.179  1.00  0.00    -0.200 F 
ENDBRANCH  57  80
ENDBRANCH  31  32
ENDBRANCH  23  26
ENDBRANCH  21  22
ENDBRANCH  20  21
ENDBRANCH   1  20
TORSDOF 14
ENDMDL
