MODEL 1
REMARK VINA RESULT:     -12.8      0.000      0.000
REMARK SMILES Cc1cc(C(=O)NCCCCNC(=O)c2ccc(-c3c4nc(c(-c5c(F)c(F)c(F)c(F)c5F)c5ccc([nH]5)c(-c5c(F)c(F)c(F)c(F)c5F)c5nc(c(-c6c(F)c(F)c(F)c(F)c6F)c6ccc3[nH]6)C=C5)C=C4)cc2)cc(C)c1OC[C@H]1C[N@@H+](C)CCO1
REMARK SMILES IDX 9 1 8 2 7 3 5 4 6 5 4 7 1 8 2 9 3 10 81 11 79 12 78 13 80 14
REMARK SMILES IDX 82 15 83 16 84 17 85 18 90 19 86 20 89 21 87 22 88 23 10 25
REMARK SMILES IDX 11 26 12 27 13 28 14 30 15 31 16 32 77 33 17 34 76 35 18 36
REMARK SMILES IDX 19 37 20 38 70 39 21 40 75 41 69 42 71 43 22 44 74 45 68 46
REMARK SMILES IDX 67 47 23 49 55 50 35 51 54 52 36 53 39 54 53 55 72 56 37 57
REMARK SMILES IDX 38 58 52 60 73 61 40 62 24 63 25 64 33 65 26 66 27 67 31 68
REMARK SMILES IDX 34 69 28 70 29 71 32 72 30 73 56 74 57 75 65 76 58 77 59 78
REMARK SMILES IDX 63 79 66 80 60 81 61 82 64 83 62 84 41 85 42 86 50 87 43 88
REMARK SMILES IDX 44 89 48 90 51 91 45 92 46 93 49 94 47 95
REMARK H PARENT 7 6 86 24 12 29 71 48 39 59
REMARK Flexibility Score: inf
ROOT
ATOM      1  C   UNL A   1      31.948  30.314  26.744  1.00  0.00     0.023 C 
ENDROOT
BRANCH   1   2
ATOM      2  C   UNL A   1      33.267  29.883  26.114  1.00  0.00     0.116 C 
BRANCH   2   3
ATOM      3  N   UNL A   1      33.241  29.838  24.664  1.00  0.00    -0.352 N 
ATOM      4  C   UNL A   1      33.004  28.783  23.817  1.00  0.00     0.251 C 
ATOM      5  O   UNL A   1      33.066  28.965  22.603  1.00  0.00    -0.269 OA
ATOM      6  H   UNL A   1      33.420  30.698  24.217  1.00  0.00     0.163 HD
BRANCH   4   7
ATOM      7  C   UNL A   1      32.752  27.420  24.342  1.00  0.00     0.040 A 
ATOM      8  C   UNL A   1      35.047  24.642  25.383  1.00  0.00     0.048 C 
ATOM      9  C   UNL A   1      33.736  25.322  25.140  1.00  0.00    -0.008 A 
ATOM     10  C   UNL A   1      33.852  26.586  24.519  1.00  0.00     0.021 A 
ATOM     11  C   UNL A   1      32.463  24.861  25.519  1.00  0.00     0.125 A 
ATOM     12  C   UNL A   1      31.346  25.717  25.346  1.00  0.00    -0.008 A 
ATOM     13  C   UNL A   1      31.494  26.966  24.716  1.00  0.00     0.021 A 
ATOM     14  C   UNL A   1      29.998  25.409  25.949  1.00  0.00     0.048 C 
BRANCH  11  15
ATOM     15  O   UNL A   1      32.157  23.681  26.137  1.00  0.00    -0.490 OA
BRANCH  15  16
ATOM     16  C   UNL A   1      31.901  22.458  25.429  1.00  0.00     0.267 C 
BRANCH  16  17
ATOM     17  C   UNL A   1      32.925  21.319  25.604  1.00  0.00     0.210 C 
ATOM     18  C   UNL A   1      32.313  19.975  25.161  1.00  0.00     0.298 C 
ATOM     19  O   UNL A   1      34.080  21.550  24.754  1.00  0.00    -0.363 OA
ATOM     20  N   UNL A   1      33.247  18.904  25.540  1.00  0.00    -0.333 N 
ATOM     21  C   UNL A   1      35.053  20.499  24.926  1.00  0.00     0.222 C 
ATOM     22  C   UNL A   1      32.648  17.587  25.397  1.00  0.00     0.332 C 
ATOM     23  C   UNL A   1      34.467  19.079  24.737  1.00  0.00     0.290 C 
ATOM     24  H   UNL A   1      33.485  18.970  26.530  1.00  0.00     0.348 HD
ENDBRANCH  16  17
ENDBRANCH  15  16
ENDBRANCH  11  15
ENDBRANCH   4   7
ENDBRANCH   2   3
ENDBRANCH   1   2
BRANCH   1  25
ATOM     25  C   UNL A   1      31.692  31.815  26.821  1.00  0.00     0.023 C 
BRANCH  25  26
ATOM     26  C   UNL A   1      32.835  32.660  27.369  1.00  0.00     0.116 C 
BRANCH  26  27
ATOM     27  N   UNL A   1      32.454  34.030  27.683  1.00  0.00    -0.352 N 
ATOM     28  C   UNL A   1      33.008  34.905  28.586  1.00  0.00     0.251 C 
ATOM     29  H   UNL A   1      31.688  34.379  27.174  1.00  0.00     0.163 HD
ATOM     30  O   UNL A   1      32.504  36.011  28.765  1.00  0.00    -0.269 OA
BRANCH  28  31
ATOM     31  C   UNL A   1      34.183  34.494  29.379  1.00  0.00     0.039 A 
ATOM     32  C   UNL A   1      33.977  33.920  30.636  1.00  0.00     0.014 A 
ATOM     33  C   UNL A   1      35.476  34.624  28.866  1.00  0.00     0.014 A 
ATOM     34  C   UNL A   1      35.061  33.392  31.339  1.00  0.00     0.010 A 
ATOM     35  C   UNL A   1      36.542  34.024  29.529  1.00  0.00     0.010 A 
ATOM     36  C   UNL A   1      36.344  33.395  30.769  1.00  0.00    -0.014 A 
BRANCH  36  37
ATOM     37  C   UNL A   1      37.491  32.739  31.446  1.00  0.00     0.031 A 
ATOM     38  C   UNL A   1      38.188  31.581  30.788  1.00  0.00     0.074 A 
ATOM     39  C   UNL A   1      37.853  33.134  32.682  1.00  0.00     0.049 A 
ATOM     40  N   UNL A   1      39.145  30.819  31.252  1.00  0.00    -0.248 NA
ATOM     41  C   UNL A   1      37.726  31.210  29.441  1.00  0.00     0.031 C 
ATOM     42  C   UNL A   1      37.219  34.208  33.449  1.00  0.00     0.029 A 
ATOM     43  N   UNL A   1      38.836  32.668  33.520  1.00  0.00    -0.354 N 
ATOM     44  C   UNL A   1      39.382  29.870  30.267  1.00  0.00     0.074 A 
ATOM     45  C   UNL A   1      38.437  30.117  29.201  1.00  0.00     0.031 C 
ATOM     46  C   UNL A   1      37.841  34.333  34.632  1.00  0.00     0.029 A 
ATOM     47  C   UNL A   1      38.893  33.324  34.726  1.00  0.00     0.049 A 
ATOM     48  H   UNL A   1      39.444  31.931  33.279  1.00  0.00     0.167 HD
ATOM     49  C   UNL A   1      40.321  28.893  30.245  1.00  0.00     0.037 A 
ATOM     50  C   UNL A   1      39.696  33.129  35.788  1.00  0.00     0.037 A 
ATOM     51  C   UNL A   1      41.286  28.674  31.288  1.00  0.00     0.049 A 
ATOM     52  C   UNL A   1      40.740  32.046  35.728  1.00  0.00     0.074 A 
ATOM     53  C   UNL A   1      42.323  27.758  31.327  1.00  0.00     0.029 A 
ATOM     54  N   UNL A   1      41.335  29.385  32.479  1.00  0.00    -0.354 N 
ATOM     55  N   UNL A   1      41.003  31.203  34.759  1.00  0.00    -0.248 NA
ATOM     56  C   UNL A   1      41.604  31.892  36.907  1.00  0.00     0.031 C 
ATOM     57  C   UNL A   1      42.975  27.888  32.557  1.00  0.00     0.029 A 
ATOM     58  C   UNL A   1      42.374  28.915  33.266  1.00  0.00     0.049 A 
ATOM     59  H   UNL A   1      40.722  30.114  32.728  1.00  0.00     0.167 HD
ATOM     60  C   UNL A   1      42.080  30.444  35.197  1.00  0.00     0.074 A 
ATOM     61  C   UNL A   1      42.430  30.933  36.512  1.00  0.00     0.031 C 
ATOM     62  C   UNL A   1      42.719  29.428  34.566  1.00  0.00     0.037 A 
BRANCH  49  63
ATOM     63  C   UNL A   1      40.360  27.993  29.045  1.00  0.00     0.064 A 
ATOM     64  C   UNL A   1      39.622  26.800  28.998  1.00  0.00     0.173 A 
ATOM     65  C   UNL A   1      41.104  28.351  27.911  1.00  0.00     0.173 A 
ATOM     66  F   UNL A   1      38.905  26.408  30.061  1.00  0.00    -0.203 F 
ATOM     67  C   UNL A   1      39.648  25.988  27.868  1.00  0.00     0.198 A 
ATOM     68  C   UNL A   1      41.103  27.550  26.772  1.00  0.00     0.198 A 
ATOM     69  F   UNL A   1      41.824  29.483  27.903  1.00  0.00    -0.203 F 
ATOM     70  F   UNL A   1      38.969  24.832  27.861  1.00  0.00    -0.200 F 
ATOM     71  C   UNL A   1      40.380  26.366  26.753  1.00  0.00     0.200 A 
ATOM     72  F   UNL A   1      41.802  27.924  25.691  1.00  0.00    -0.200 F 
ATOM     73  F   UNL A   1      40.393  25.590  25.662  1.00  0.00    -0.200 F 
ENDBRANCH  49  63
BRANCH  50  74
ATOM     74  C   UNL A   1      39.569  33.991  36.993  1.00  0.00     0.064 A 
ATOM     75  C   UNL A   1      38.794  33.583  38.088  1.00  0.00     0.173 A 
ATOM     76  C   UNL A   1      40.193  35.244  37.067  1.00  0.00     0.173 A 
ATOM     77  F   UNL A   1      38.158  32.403  38.056  1.00  0.00    -0.203 F 
ATOM     78  C   UNL A   1      38.626  34.407  39.198  1.00  0.00     0.198 A 
ATOM     79  C   UNL A   1      40.049  36.055  38.190  1.00  0.00     0.198 A 
ATOM     80  F   UNL A   1      40.949  35.678  36.048  1.00  0.00    -0.203 F 
ATOM     81  F   UNL A   1      37.836  34.015  40.208  1.00  0.00    -0.200 F 
ATOM     82  C   UNL A   1      39.256  35.641  39.251  1.00  0.00     0.200 A 
ATOM     83  F   UNL A   1      40.670  37.241  38.243  1.00  0.00    -0.200 F 
ATOM     84  F   UNL A   1      39.093  36.435  40.318  1.00  0.00    -0.200 F 
ENDBRANCH  50  74
BRANCH  62  85
ATOM     85  C   UNL A   1      43.891  28.810  35.270  1.00  0.00     0.064 A 
ATOM     86  C   UNL A   1      43.736  27.718  36.135  1.00  0.00     0.173 A 
ATOM     87  C   UNL A   1      45.188  29.289  35.038  1.00  0.00     0.173 A 
ATOM     88  F   UNL A   1      42.513  27.234  36.401  1.00  0.00    -0.203 F 
ATOM     89  C   UNL A   1      44.837  27.143  36.764  1.00  0.00     0.198 A 
ATOM     90  C   UNL A   1      46.290  28.693  35.644  1.00  0.00     0.198 A 
ATOM     91  F   UNL A   1      45.389  30.326  34.212  1.00  0.00    -0.203 F 
ATOM     92  F   UNL A   1      44.663  26.129  37.623  1.00  0.00    -0.200 F 
ATOM     93  C   UNL A   1      46.114  27.625  36.512  1.00  0.00     0.200 A 
ATOM     94  F   UNL A   1      47.524  29.151  35.389  1.00  0.00    -0.200 F 
ATOM     95  F   UNL A   1      47.173  27.065  37.110  1.00  0.00    -0.200 F 
ENDBRANCH  62  85
ENDBRANCH  36  37
ENDBRANCH  28  31
ENDBRANCH  26  27
ENDBRANCH  25  26
ENDBRANCH   1  25
TORSDOF 14
ENDMDL
MODEL 2
REMARK VINA RESULT:     -12.5      5.389     10.279
REMARK SMILES Cc1cc(C(=O)NCCCCNC(=O)c2ccc(-c3c4nc(c(-c5c(F)c(F)c(F)c(F)c5F)c5ccc([nH]5)c(-c5c(F)c(F)c(F)c(F)c5F)c5nc(c(-c6c(F)c(F)c(F)c(F)c6F)c6ccc3[nH]6)C=C5)C=C4)cc2)cc(C)c1OC[C@H]1C[N@@H+](C)CCO1
REMARK SMILES IDX 9 1 8 2 7 3 5 4 6 5 4 7 1 8 2 9 3 10 81 11 79 12 78 13 80 14
REMARK SMILES IDX 82 15 83 16 84 17 85 18 90 19 86 20 89 21 87 22 88 23 10 25
REMARK SMILES IDX 11 26 12 27 13 28 14 30 15 31 16 32 77 33 17 34 76 35 18 36
REMARK SMILES IDX 19 37 20 38 70 39 21 40 75 41 69 42 71 43 22 44 74 45 68 46
REMARK SMILES IDX 67 47 23 49 55 50 35 51 54 52 36 53 39 54 53 55 72 56 37 57
REMARK SMILES IDX 38 58 52 60 73 61 40 62 24 63 25 64 33 65 26 66 27 67 31 68
REMARK SMILES IDX 34 69 28 70 29 71 32 72 30 73 56 74 57 75 65 76 58 77 59 78
REMARK SMILES IDX 63 79 66 80 60 81 61 82 64 83 62 84 41 85 42 86 50 87 43 88
REMARK SMILES IDX 44 89 48 90 51 91 45 92 46 93 49 94 47 95
REMARK H PARENT 7 6 86 24 12 29 71 48 39 59
REMARK Flexibility Score: inf
ROOT
ATOM      1  C   UNL A   1      37.346  21.081  24.587  1.00  0.00     0.023 C 
ENDROOT
BRANCH   1   2
ATOM      2  C   UNL A   1      36.873  21.995  25.712  1.00  0.00     0.116 C 
BRANCH   2   3
ATOM      3  N   UNL A   1      35.745  21.473  26.460  1.00  0.00    -0.352 N 
ATOM      4  C   UNL A   1      34.414  21.805  26.397  1.00  0.00     0.251 C 
ATOM      5  O   UNL A   1      33.623  21.253  27.159  1.00  0.00    -0.269 OA
ATOM      6  H   UNL A   1      35.968  20.771  27.115  1.00  0.00     0.163 HD
BRANCH   4   7
ATOM      7  C   UNL A   1      33.931  22.868  25.483  1.00  0.00     0.040 A 
ATOM      8  C   UNL A   1      33.652  26.590  25.851  1.00  0.00     0.048 C 
ATOM      9  C   UNL A   1      33.535  25.265  25.164  1.00  0.00    -0.008 A 
ATOM     10  C   UNL A   1      33.851  24.162  25.988  1.00  0.00     0.021 A 
ATOM     11  C   UNL A   1      33.216  25.040  23.813  1.00  0.00     0.125 A 
ATOM     12  C   UNL A   1      33.308  23.721  23.300  1.00  0.00    -0.008 A 
ATOM     13  C   UNL A   1      33.616  22.643  24.150  1.00  0.00     0.021 A 
ATOM     14  C   UNL A   1      33.231  23.428  21.822  1.00  0.00     0.048 C 
BRANCH  11  15
ATOM     15  O   UNL A   1      32.899  25.974  22.867  1.00  0.00    -0.490 OA
BRANCH  15  16
ATOM     16  C   UNL A   1      31.576  26.504  22.689  1.00  0.00     0.267 C 
BRANCH  16  17
ATOM     17  C   UNL A   1      31.376  28.003  22.988  1.00  0.00     0.210 C 
ATOM     18  C   UNL A   1      30.094  28.519  22.305  1.00  0.00     0.298 C 
ATOM     19  O   UNL A   1      31.198  28.209  24.415  1.00  0.00    -0.363 OA
ATOM     20  N   UNL A   1      30.063  29.983  22.447  1.00  0.00    -0.333 N 
ATOM     21  C   UNL A   1      31.030  29.611  24.707  1.00  0.00     0.222 C 
ATOM     22  C   UNL A   1      29.030  30.586  21.619  1.00  0.00     0.332 C 
ATOM     23  C   UNL A   1      29.909  30.283  23.879  1.00  0.00     0.290 C 
ATOM     24  H   UNL A   1      30.933  30.395  22.110  1.00  0.00     0.348 HD
ENDBRANCH  16  17
ENDBRANCH  15  16
ENDBRANCH  11  15
ENDBRANCH   4   7
ENDBRANCH   2   3
ENDBRANCH   1   2
BRANCH   1  25
ATOM     25  C   UNL A   1      38.127  19.841  25.006  1.00  0.00     0.023 C 
BRANCH  25  26
ATOM     26  C   UNL A   1      39.274  20.071  25.981  1.00  0.00     0.116 C 
BRANCH  26  27
ATOM     27  N   UNL A   1      40.315  19.056  25.914  1.00  0.00    -0.352 N 
ATOM     28  C   UNL A   1      41.676  19.190  26.046  1.00  0.00     0.251 C 
ATOM     29  H   UNL A   1      39.997  18.139  25.749  1.00  0.00     0.163 HD
ATOM     30  O   UNL A   1      42.413  18.220  25.889  1.00  0.00    -0.269 OA
BRANCH  28  31
ATOM     31  C   UNL A   1      42.257  20.518  26.327  1.00  0.00     0.039 A 
ATOM     32  C   UNL A   1      42.643  21.323  25.252  1.00  0.00     0.014 A 
ATOM     33  C   UNL A   1      42.372  20.987  27.638  1.00  0.00     0.014 A 
ATOM     34  C   UNL A   1      43.059  22.634  25.488  1.00  0.00     0.010 A 
ATOM     35  C   UNL A   1      42.706  22.319  27.864  1.00  0.00     0.010 A 
ATOM     36  C   UNL A   1      43.045  23.158  26.791  1.00  0.00    -0.014 A 
BRANCH  36  37
ATOM     37  C   UNL A   1      43.371  24.582  27.054  1.00  0.00     0.031 A 
ATOM     38  C   UNL A   1      44.762  25.093  26.800  1.00  0.00     0.074 A 
ATOM     39  C   UNL A   1      42.440  25.394  27.592  1.00  0.00     0.049 A 
ATOM     40  N   UNL A   1      45.269  26.273  27.050  1.00  0.00    -0.248 NA
ATOM     41  C   UNL A   1      45.720  24.140  26.217  1.00  0.00     0.031 C 
ATOM     42  C   UNL A   1      41.071  25.003  27.936  1.00  0.00     0.029 A 
ATOM     43  N   UNL A   1      42.506  26.715  27.960  1.00  0.00    -0.354 N 
ATOM     44  C   UNL A   1      46.604  26.196  26.677  1.00  0.00     0.074 A 
ATOM     45  C   UNL A   1      46.844  24.842  26.230  1.00  0.00     0.031 C 
ATOM     46  C   UNL A   1      40.422  26.064  28.442  1.00  0.00     0.029 A 
ATOM     47  C   UNL A   1      41.338  27.200  28.495  1.00  0.00     0.049 A 
ATOM     48  H   UNL A   1      43.317  27.264  27.849  1.00  0.00     0.167 HD
ATOM     49  C   UNL A   1      47.540  27.176  26.684  1.00  0.00     0.037 A 
ATOM     50  C   UNL A   1      41.041  28.420  28.981  1.00  0.00     0.037 A 
ATOM     51  C   UNL A   1      47.289  28.532  27.090  1.00  0.00     0.049 A 
ATOM     52  C   UNL A   1      42.097  29.493  28.961  1.00  0.00     0.074 A 
ATOM     53  C   UNL A   1      48.151  29.615  27.065  1.00  0.00     0.029 A 
ATOM     54  N   UNL A   1      46.081  28.994  27.592  1.00  0.00    -0.354 N 
ATOM     55  N   UNL A   1      43.336  29.428  28.536  1.00  0.00    -0.248 NA
ATOM     56  C   UNL A   1      41.713  30.812  29.484  1.00  0.00     0.031 C 
ATOM     57  C   UNL A   1      47.478  30.722  27.589  1.00  0.00     0.029 A 
ATOM     58  C   UNL A   1      46.182  30.342  27.897  1.00  0.00     0.049 A 
ATOM     59  H   UNL A   1      45.272  28.445  27.715  1.00  0.00     0.167 HD
ATOM     60  C   UNL A   1      43.865  30.699  28.708  1.00  0.00     0.074 A 
ATOM     61  C   UNL A   1      42.812  31.520  29.265  1.00  0.00     0.031 C 
ATOM     62  C   UNL A   1      45.115  31.146  28.433  1.00  0.00     0.037 A 
BRANCH  49  63
ATOM     63  C   UNL A   1      48.924  26.820  26.225  1.00  0.00     0.064 A 
ATOM     64  C   UNL A   1      49.329  27.014  24.896  1.00  0.00     0.173 A 
ATOM     65  C   UNL A   1      49.871  26.327  27.135  1.00  0.00     0.173 A 
ATOM     66  F   UNL A   1      48.457  27.471  23.984  1.00  0.00    -0.203 F 
ATOM     67  C   UNL A   1      50.624  26.705  24.490  1.00  0.00     0.198 A 
ATOM     68  C   UNL A   1      51.174  26.047  26.731  1.00  0.00     0.198 A 
ATOM     69  F   UNL A   1      49.536  26.128  28.419  1.00  0.00    -0.203 F 
ATOM     70  F   UNL A   1      50.976  26.859  23.206  1.00  0.00    -0.200 F 
ATOM     71  C   UNL A   1      51.548  26.231  25.408  1.00  0.00     0.200 A 
ATOM     72  F   UNL A   1      52.069  25.601  27.623  1.00  0.00    -0.200 F 
ATOM     73  F   UNL A   1      52.797  25.946  25.019  1.00  0.00    -0.200 F 
ENDBRANCH  49  63
BRANCH  50  74
ATOM     74  C   UNL A   1      39.680  28.708  29.505  1.00  0.00     0.064 A 
ATOM     75  C   UNL A   1      38.675  29.202  28.660  1.00  0.00     0.173 A 
ATOM     76  C   UNL A   1      39.361  28.522  30.857  1.00  0.00     0.173 A 
ATOM     77  F   UNL A   1      38.938  29.419  27.363  1.00  0.00    -0.203 F 
ATOM     78  C   UNL A   1      37.414  29.524  29.154  1.00  0.00     0.198 A 
ATOM     79  C   UNL A   1      38.090  28.816  31.344  1.00  0.00     0.198 A 
ATOM     80  F   UNL A   1      40.285  28.047  31.705  1.00  0.00    -0.203 F 
ATOM     81  F   UNL A   1      36.489  30.045  28.336  1.00  0.00    -0.200 F 
ATOM     82  C   UNL A   1      37.120  29.328  30.495  1.00  0.00     0.200 A 
ATOM     83  F   UNL A   1      37.806  28.612  32.638  1.00  0.00    -0.200 F 
ATOM     84  F   UNL A   1      35.906  29.640  30.971  1.00  0.00    -0.200 F 
ENDBRANCH  50  74
BRANCH  62  85
ATOM     85  C   UNL A   1      45.398  32.598  28.685  1.00  0.00     0.064 A 
ATOM     86  C   UNL A   1      45.153  33.576  27.710  1.00  0.00     0.173 A 
ATOM     87  C   UNL A   1      45.877  33.019  29.935  1.00  0.00     0.173 A 
ATOM     88  F   UNL A   1      44.710  33.221  26.495  1.00  0.00    -0.203 F 
ATOM     89  C   UNL A   1      45.402  34.920  27.969  1.00  0.00     0.198 A 
ATOM     90  C   UNL A   1      46.096  34.367  30.200  1.00  0.00     0.198 A 
ATOM     91  F   UNL A   1      46.120  32.123  30.903  1.00  0.00    -0.203 F 
ATOM     92  F   UNL A   1      45.204  35.834  27.008  1.00  0.00    -0.200 F 
ATOM     93  C   UNL A   1      45.865  35.316  29.216  1.00  0.00     0.200 A 
ATOM     94  F   UNL A   1      46.531  34.749  31.410  1.00  0.00    -0.200 F 
ATOM     95  F   UNL A   1      46.095  36.612  29.465  1.00  0.00    -0.200 F 
ENDBRANCH  62  85
ENDBRANCH  36  37
ENDBRANCH  28  31
ENDBRANCH  26  27
ENDBRANCH  25  26
ENDBRANCH   1  25
TORSDOF 14
ENDMDL
MODEL 3
REMARK VINA RESULT:     -12.4      1.282      2.224
REMARK SMILES Cc1cc(C(=O)NCCCCNC(=O)c2ccc(-c3c4nc(c(-c5c(F)c(F)c(F)c(F)c5F)c5ccc([nH]5)c(-c5c(F)c(F)c(F)c(F)c5F)c5nc(c(-c6c(F)c(F)c(F)c(F)c6F)c6ccc3[nH]6)C=C5)C=C4)cc2)cc(C)c1OC[C@H]1C[N@@H+](C)CCO1
REMARK SMILES IDX 9 1 8 2 7 3 5 4 6 5 4 7 1 8 2 9 3 10 81 11 79 12 78 13 80 14
REMARK SMILES IDX 82 15 83 16 84 17 85 18 90 19 86 20 89 21 87 22 88 23 10 25
REMARK SMILES IDX 11 26 12 27 13 28 14 30 15 31 16 32 77 33 17 34 76 35 18 36
REMARK SMILES IDX 19 37 20 38 70 39 21 40 75 41 69 42 71 43 22 44 74 45 68 46
REMARK SMILES IDX 67 47 23 49 55 50 35 51 54 52 36 53 39 54 53 55 72 56 37 57
REMARK SMILES IDX 38 58 52 60 73 61 40 62 24 63 25 64 33 65 26 66 27 67 31 68
REMARK SMILES IDX 34 69 28 70 29 71 32 72 30 73 56 74 57 75 65 76 58 77 59 78
REMARK SMILES IDX 63 79 66 80 60 81 61 82 64 83 62 84 41 85 42 86 50 87 43 88
REMARK SMILES IDX 44 89 48 90 51 91 45 92 46 93 49 94 47 95
REMARK H PARENT 7 6 86 24 12 29 71 48 39 59
REMARK Flexibility Score: inf
ROOT
ATOM      1  C   UNL A   1      32.020  30.358  26.822  1.00  0.00     0.023 C 
ENDROOT
BRANCH   1   2
ATOM      2  C   UNL A   1      32.094  29.701  25.449  1.00  0.00     0.116 C 
BRANCH   2   3
ATOM      3  N   UNL A   1      31.028  30.097  24.548  1.00  0.00    -0.352 N 
ATOM      4  C   UNL A   1      30.287  29.343  23.672  1.00  0.00     0.251 C 
ATOM      5  O   UNL A   1      29.444  29.898  22.969  1.00  0.00    -0.269 OA
ATOM      6  H   UNL A   1      30.800  31.055  24.568  1.00  0.00     0.163 HD
BRANCH   4   7
ATOM      7  C   UNL A   1      30.537  27.891  23.506  1.00  0.00     0.040 A 
ATOM      8  C   UNL A   1      32.339  25.917  20.874  1.00  0.00     0.048 C 
ATOM      9  C   UNL A   1      31.557  26.137  22.132  1.00  0.00    -0.008 A 
ATOM     10  C   UNL A   1      31.151  27.476  22.328  1.00  0.00     0.021 A 
ATOM     11  C   UNL A   1      31.264  25.181  23.121  1.00  0.00     0.125 A 
ATOM     12  C   UNL A   1      30.647  25.610  24.324  1.00  0.00    -0.008 A 
ATOM     13  C   UNL A   1      30.246  26.950  24.484  1.00  0.00     0.021 A 
ATOM     14  C   UNL A   1      30.525  24.710  25.528  1.00  0.00     0.048 C 
BRANCH  11  15
ATOM     15  O   UNL A   1      31.583  23.853  23.113  1.00  0.00    -0.490 OA
BRANCH  15  16
ATOM     16  C   UNL A   1      32.927  23.361  22.992  1.00  0.00     0.267 C 
BRANCH  16  17
ATOM     17  C   UNL A   1      33.872  23.602  24.186  1.00  0.00     0.210 C 
ATOM     18  C   UNL A   1      33.645  22.534  25.273  1.00  0.00     0.298 C 
ATOM     19  O   UNL A   1      35.256  23.476  23.761  1.00  0.00    -0.363 OA
ATOM     20  N   UNL A   1      34.415  22.927  26.464  1.00  0.00    -0.333 N 
ATOM     21  C   UNL A   1      36.149  23.720  24.868  1.00  0.00     0.222 C 
ATOM     22  C   UNL A   1      34.066  22.124  27.624  1.00  0.00     0.332 C 
ATOM     23  C   UNL A   1      35.841  22.852  26.111  1.00  0.00     0.290 C 
ATOM     24  H   UNL A   1      34.188  23.884  26.738  1.00  0.00     0.348 HD
ENDBRANCH  16  17
ENDBRANCH  15  16
ENDBRANCH  11  15
ENDBRANCH   4   7
ENDBRANCH   2   3
ENDBRANCH   1   2
BRANCH   1  25
ATOM     25  C   UNL A   1      31.708  31.850  26.843  1.00  0.00     0.023 C 
BRANCH  25  26
ATOM     26  C   UNL A   1      32.853  32.766  27.255  1.00  0.00     0.116 C 
BRANCH  26  27
ATOM     27  N   UNL A   1      32.425  34.103  27.642  1.00  0.00    -0.352 N 
ATOM     28  C   UNL A   1      32.948  34.947  28.591  1.00  0.00     0.251 C 
ATOM     29  H   UNL A   1      31.647  34.453  27.150  1.00  0.00     0.163 HD
ATOM     30  O   UNL A   1      32.406  36.023  28.829  1.00  0.00    -0.269 OA
BRANCH  28  31
ATOM     31  C   UNL A   1      34.136  34.534  29.364  1.00  0.00     0.039 A 
ATOM     32  C   UNL A   1      33.951  33.971  30.630  1.00  0.00     0.014 A 
ATOM     33  C   UNL A   1      35.419  34.651  28.824  1.00  0.00     0.014 A 
ATOM     34  C   UNL A   1      35.046  33.441  31.315  1.00  0.00     0.010 A 
ATOM     35  C   UNL A   1      36.494  34.049  29.471  1.00  0.00     0.010 A 
ATOM     36  C   UNL A   1      36.317  33.431  30.719  1.00  0.00    -0.014 A 
BRANCH  36  37
ATOM     37  C   UNL A   1      37.473  32.773  31.377  1.00  0.00     0.031 A 
ATOM     38  C   UNL A   1      38.182  31.639  30.691  1.00  0.00     0.074 A 
ATOM     39  C   UNL A   1      37.833  33.142  32.622  1.00  0.00     0.049 A 
ATOM     40  N   UNL A   1      39.149  30.877  31.135  1.00  0.00    -0.248 NA
ATOM     41  C   UNL A   1      37.721  31.294  29.336  1.00  0.00     0.031 C 
ATOM     42  C   UNL A   1      37.189  34.190  33.416  1.00  0.00     0.029 A 
ATOM     43  N   UNL A   1      38.824  32.668  33.447  1.00  0.00    -0.354 N 
ATOM     44  C   UNL A   1      39.394  29.954  30.127  1.00  0.00     0.074 A 
ATOM     45  C   UNL A   1      38.445  30.216  29.069  1.00  0.00     0.031 C 
ATOM     46  C   UNL A   1      37.812  34.294  34.600  1.00  0.00     0.029 A 
ATOM     47  C   UNL A   1      38.876  33.296  34.667  1.00  0.00     0.049 A 
ATOM     48  H   UNL A   1      39.439  31.944  33.187  1.00  0.00     0.167 HD
ATOM     49  C   UNL A   1      40.344  28.990  30.079  1.00  0.00     0.037 A 
ATOM     50  C   UNL A   1      39.684  33.085  35.723  1.00  0.00     0.037 A 
ATOM     51  C   UNL A   1      41.315  28.757  31.115  1.00  0.00     0.049 A 
ATOM     52  C   UNL A   1      40.740  32.016  35.635  1.00  0.00     0.074 A 
ATOM     53  C   UNL A   1      42.362  27.853  31.130  1.00  0.00     0.029 A 
ATOM     54  N   UNL A   1      41.358  29.440  32.323  1.00  0.00    -0.354 N 
ATOM     55  N   UNL A   1      41.011  31.200  34.646  1.00  0.00    -0.248 NA
ATOM     56  C   UNL A   1      41.609  31.844  36.808  1.00  0.00     0.031 C 
ATOM     57  C   UNL A   1      43.015  27.960  32.361  1.00  0.00     0.029 A 
ATOM     58  C   UNL A   1      42.404  28.963  33.096  1.00  0.00     0.049 A 
ATOM     59  H   UNL A   1      40.737  30.156  32.590  1.00  0.00     0.167 HD
ATOM     60  C   UNL A   1      42.097  30.442  35.063  1.00  0.00     0.074 A 
ATOM     61  C   UNL A   1      42.445  30.904  36.389  1.00  0.00     0.031 C 
ATOM     62  C   UNL A   1      42.746  29.450  34.407  1.00  0.00     0.037 A 
BRANCH  49  63
ATOM     63  C   UNL A   1      40.392  28.118  28.859  1.00  0.00     0.064 A 
ATOM     64  C   UNL A   1      41.153  28.470  27.734  1.00  0.00     0.173 A 
ATOM     65  C   UNL A   1      39.708  26.894  28.832  1.00  0.00     0.173 A 
ATOM     66  F   UNL A   1      41.815  29.637  27.706  1.00  0.00    -0.203 F 
ATOM     67  C   UNL A   1      41.209  27.639  26.619  1.00  0.00     0.198 A 
ATOM     68  C   UNL A   1      39.791  26.051  27.726  1.00  0.00     0.198 A 
ATOM     69  F   UNL A   1      38.969  26.508  29.883  1.00  0.00    -0.203 F 
ATOM     70  F   UNL A   1      41.909  28.017  25.540  1.00  0.00    -0.200 F 
ATOM     71  C   UNL A   1      40.536  26.428  26.619  1.00  0.00     0.200 A 
ATOM     72  F   UNL A   1      39.150  24.874  27.732  1.00  0.00    -0.200 F 
ATOM     73  F   UNL A   1      40.601  25.623  25.550  1.00  0.00    -0.200 F 
ENDBRANCH  49  63
BRANCH  50  74
ATOM     74  C   UNL A   1      39.550  33.916  36.948  1.00  0.00     0.064 A 
ATOM     75  C   UNL A   1      38.778  33.476  38.033  1.00  0.00     0.173 A 
ATOM     76  C   UNL A   1      40.163  35.172  37.052  1.00  0.00     0.173 A 
ATOM     77  F   UNL A   1      38.152  32.292  37.972  1.00  0.00    -0.203 F 
ATOM     78  C   UNL A   1      38.603  34.271  39.163  1.00  0.00     0.198 A 
ATOM     79  C   UNL A   1      40.012  35.955  38.195  1.00  0.00     0.198 A 
ATOM     80  F   UNL A   1      40.916  35.638  36.045  1.00  0.00    -0.203 F 
ATOM     81  F   UNL A   1      37.817  33.849  40.163  1.00  0.00    -0.200 F 
ATOM     82  C   UNL A   1      39.224  35.509  39.246  1.00  0.00     0.200 A 
ATOM     83  F   UNL A   1      40.624  37.145  38.276  1.00  0.00    -0.200 F 
ATOM     84  F   UNL A   1      39.054  36.276  40.332  1.00  0.00    -0.200 F 
ENDBRANCH  50  74
BRANCH  62  85
ATOM     85  C   UNL A   1      43.927  28.828  35.093  1.00  0.00     0.064 A 
ATOM     86  C   UNL A   1      45.225  29.330  34.923  1.00  0.00     0.173 A 
ATOM     87  C   UNL A   1      43.748  27.745  35.967  1.00  0.00     0.173 A 
ATOM     88  F   UNL A   1      45.449  30.354  34.085  1.00  0.00    -0.203 F 
ATOM     89  C   UNL A   1      46.306  28.754  35.584  1.00  0.00     0.198 A 
ATOM     90  C   UNL A   1      44.827  27.191  36.649  1.00  0.00     0.198 A 
ATOM     91  F   UNL A   1      42.525  27.234  36.170  1.00  0.00    -0.203 F 
ATOM     92  F   UNL A   1      47.545  29.220  35.372  1.00  0.00    -0.200 F 
ATOM     93  C   UNL A   1      46.105  27.690  36.452  1.00  0.00     0.200 A 
ATOM     94  F   UNL A   1      44.629  26.173  37.499  1.00  0.00    -0.200 F 
ATOM     95  F   UNL A   1      47.146  27.144  37.095  1.00  0.00    -0.200 F 
ENDBRANCH  62  85
ENDBRANCH  36  37
ENDBRANCH  28  31
ENDBRANCH  26  27
ENDBRANCH  25  26
ENDBRANCH   1  25
TORSDOF 14
ENDMDL
