MODEL 1
REMARK VINA RESULT:     -14.6      0.000      0.000
REMARK SMILES O=C1C[C@@H](c2cccc(O)c2)c2c(c(C(=O)NCCCCNC(=O)c3ccc(-c4c5nc(c(-c6c(F)c(F)c(F)c(F)c6F)c6ccc([nH]6)c(-c6c(F)c(F)c(F)c(F)c6F)c6nc(c(-c7c(F)c(F)c(F)c(F)c7F)c7ccc4[nH]7)C=C6)C=C5)cc3)cn2-c2cccc(C(F)(F)F)c2)N1
REMARK SMILES IDX 19 1 18 2 17 3 15 4 16 5 14 7 1 8 2 9 3 10 100 11 4 12 13 13
REMARK SMILES IDX 12 15 89 16 88 17 5 18 6 19 11 20 7 21 9 22 8 23 10 24 90 26
REMARK SMILES IDX 91 27 99 28 92 29 94 30 93 31 95 32 96 33 97 34 98 35 20 36
REMARK SMILES IDX 21 37 22 38 23 39 24 41 25 42 26 43 87 44 27 45 86 46 28 47
REMARK SMILES IDX 29 48 30 49 80 50 31 51 85 52 79 53 81 54 32 55 84 56 78 57
REMARK SMILES IDX 77 58 33 60 65 61 45 62 64 63 46 64 49 65 63 66 82 67 47 68
REMARK SMILES IDX 48 69 62 71 83 72 50 73 34 74 35 75 43 76 36 77 37 78 41 79
REMARK SMILES IDX 44 80 38 81 39 82 42 83 40 84 66 85 67 86 75 87 68 88 69 89
REMARK SMILES IDX 73 90 76 91 70 92 71 93 74 94 72 95 51 96 52 97 60 98 53 99
REMARK SMILES IDX 54 100 58 101 61 102 55 103 56 104 59 105 57 106
REMARK H PARENT 17 6 100 14 10 25 22 40 81 59 49 70
REMARK Flexibility Score: inf
ROOT
ATOM      1  C   UNL A   1      36.500  22.049  24.829  1.00  0.00     0.023 C 
ENDROOT
BRANCH   1   2
ATOM      2  C   UNL A   1      35.206  21.621  25.528  1.00  0.00     0.116 C 
BRANCH   2   3
ATOM      3  N   UNL A   1      34.119  21.382  24.602  1.00  0.00    -0.352 N 
ATOM      4  C   UNL A   1      33.203  22.191  23.979  1.00  0.00     0.254 C 
ATOM      5  O   UNL A   1      32.392  21.622  23.243  1.00  0.00    -0.269 OA
ATOM      6  H   UNL A   1      34.015  20.431  24.366  1.00  0.00     0.163 HD
BRANCH   4   7
ATOM      7  C   UNL A   1      33.142  23.641  24.158  1.00  0.00     0.081 A 
ATOM      8  O   UNL A   1      32.705  25.201  19.643  1.00  0.00    -0.275 OA
ATOM      9  C   UNL A   1      32.903  25.412  20.839  1.00  0.00     0.225 C 
ATOM     10  C   UNL A   1      33.282  26.795  21.356  1.00  0.00     0.115 C 
ATOM     11  N   UNL A   1      32.914  24.382  21.748  1.00  0.00    -0.324 N 
ATOM     12  C   UNL A   1      32.784  27.101  22.783  1.00  0.00     0.078 C 
ATOM     13  C   UNL A   1      32.999  24.592  23.105  1.00  0.00     0.076 A 
ATOM     14  H   UNL A   1      32.859  23.457  21.415  1.00  0.00     0.170 HD
ATOM     15  C   UNL A   1      32.910  25.863  23.625  1.00  0.00     0.055 A 
ATOM     16  N   UNL A   1      33.028  25.758  24.992  1.00  0.00    -0.317 N 
ATOM     17  C   UNL A   1      33.221  24.420  25.297  1.00  0.00     0.107 A 
BRANCH  12  18
ATOM     18  C   UNL A   1      31.375  27.673  22.764  1.00  0.00    -0.035 A 
ATOM     19  C   UNL A   1      30.275  26.967  23.279  1.00  0.00     0.005 A 
ATOM     20  C   UNL A   1      31.171  28.975  22.280  1.00  0.00     0.050 A 
ATOM     21  C   UNL A   1      29.017  27.568  23.353  1.00  0.00     0.004 A 
ATOM     22  C   UNL A   1      29.921  29.575  22.391  1.00  0.00     0.115 A 
ATOM     23  C   UNL A   1      28.841  28.882  22.924  1.00  0.00     0.046 A 
BRANCH  22  24
ATOM     24  O   UNL A   1      29.812  30.879  22.010  1.00  0.00    -0.508 OA
ATOM     25  H   UNL A   1      28.987  31.214  21.722  1.00  0.00     0.293 HD
ENDBRANCH  22  24
ENDBRANCH  12  18
BRANCH  16  26
ATOM     26  C   UNL A   1      32.877  26.734  26.006  1.00  0.00     0.046 A 
ATOM     27  C   UNL A   1      31.599  26.997  26.515  1.00  0.00     0.026 A 
ATOM     28  C   UNL A   1      33.947  27.568  26.334  1.00  0.00     0.039 A 
ATOM     29  C   UNL A   1      31.408  28.065  27.390  1.00  0.00     0.003 A 
ATOM     30  C   UNL A   1      33.761  28.653  27.204  1.00  0.00     0.058 A 
ATOM     31  C   UNL A   1      32.482  28.886  27.736  1.00  0.00     0.013 A 
BRANCH  30  32
ATOM     32  C   UNL A   1      34.898  29.589  27.540  1.00  0.00     0.416 C 
ATOM     33  F   UNL A   1      34.597  30.888  27.253  1.00  0.00    -0.166 F 
ATOM     34  F   UNL A   1      35.220  29.569  28.862  1.00  0.00    -0.166 F 
ATOM     35  F   UNL A   1      36.051  29.328  26.865  1.00  0.00    -0.166 F 
ENDBRANCH  30  32
ENDBRANCH  16  26
ENDBRANCH   4   7
ENDBRANCH   2   3
ENDBRANCH   1   2
BRANCH   1  36
ATOM     36  C   UNL A   1      37.768  21.323  25.306  1.00  0.00     0.023 C 
BRANCH  36  37
ATOM     37  C   UNL A   1      38.759  22.185  26.085  1.00  0.00     0.116 C 
BRANCH  37  38
ATOM     38  N   UNL A   1      40.159  21.828  25.847  1.00  0.00    -0.352 N 
ATOM     39  C   UNL A   1      41.276  22.642  25.953  1.00  0.00     0.251 C 
ATOM     40  H   UNL A   1      40.327  20.895  25.579  1.00  0.00     0.163 HD
ATOM     41  O   UNL A   1      42.313  22.387  25.368  1.00  0.00    -0.269 OA
BRANCH  39  42
ATOM     42  C   UNL A   1      41.187  23.823  26.828  1.00  0.00     0.039 A 
ATOM     43  C   UNL A   1      41.860  23.902  28.050  1.00  0.00     0.014 A 
ATOM     44  C   UNL A   1      40.431  24.890  26.358  1.00  0.00     0.014 A 
ATOM     45  C   UNL A   1      41.829  25.105  28.751  1.00  0.00     0.010 A 
ATOM     46  C   UNL A   1      40.553  26.117  26.948  1.00  0.00     0.010 A 
ATOM     47  C   UNL A   1      41.187  26.217  28.180  1.00  0.00    -0.014 A 
BRANCH  47  48
ATOM     48  C   UNL A   1      41.249  27.533  28.799  1.00  0.00     0.031 A 
ATOM     49  C   UNL A   1      42.392  28.378  28.356  1.00  0.00     0.074 A 
ATOM     50  C   UNL A   1      40.225  28.035  29.523  1.00  0.00     0.049 A 
ATOM     51  N   UNL A   1      43.362  28.833  29.077  1.00  0.00    -0.248 NA
ATOM     52  C   UNL A   1      42.541  28.657  26.917  1.00  0.00     0.031 C 
ATOM     53  C   UNL A   1      38.903  27.449  29.777  1.00  0.00     0.029 A 
ATOM     54  N   UNL A   1      40.116  29.257  30.108  1.00  0.00    -0.354 N 
ATOM     55  C   UNL A   1      44.146  29.608  28.228  1.00  0.00     0.074 A 
ATOM     56  C   UNL A   1      43.695  29.329  26.890  1.00  0.00     0.031 C 
ATOM     57  C   UNL A   1      38.062  28.401  30.239  1.00  0.00     0.029 A 
ATOM     58  C   UNL A   1      38.825  29.610  30.479  1.00  0.00     0.049 A 
ATOM     59  H   UNL A   1      40.891  29.846  30.256  1.00  0.00     0.167 HD
ATOM     60  C   UNL A   1      44.951  30.593  28.716  1.00  0.00     0.037 A 
ATOM     61  C   UNL A   1      38.417  30.828  30.916  1.00  0.00     0.037 A 
ATOM     62  C   UNL A   1      45.181  30.426  30.129  1.00  0.00     0.049 A 
ATOM     63  C   UNL A   1      39.631  31.550  31.382  1.00  0.00     0.074 A 
ATOM     64  C   UNL A   1      45.718  29.409  30.897  1.00  0.00     0.029 A 
ATOM     65  N   UNL A   1      44.462  31.204  31.006  1.00  0.00    -0.354 N 
ATOM     66  N   UNL A   1      40.328  31.187  32.425  1.00  0.00    -0.248 NA
ATOM     67  C   UNL A   1      40.345  32.356  30.401  1.00  0.00     0.031 C 
ATOM     68  C   UNL A   1      44.866  29.328  32.039  1.00  0.00     0.029 A 
ATOM     69  C   UNL A   1      43.928  30.356  31.945  1.00  0.00     0.049 A 
ATOM     70  H   UNL A   1      44.352  32.181  30.967  1.00  0.00     0.167 HD
ATOM     71  C   UNL A   1      41.650  31.336  32.035  1.00  0.00     0.074 A 
ATOM     72  C   UNL A   1      41.598  32.120  30.801  1.00  0.00     0.031 C 
ATOM     73  C   UNL A   1      42.642  30.565  32.569  1.00  0.00     0.037 A 
BRANCH  60  74
ATOM     74  C   UNL A   1      45.240  31.884  27.995  1.00  0.00     0.064 A 
ATOM     75  C   UNL A   1      44.175  32.737  27.642  1.00  0.00     0.173 A 
ATOM     76  C   UNL A   1      46.481  32.177  27.389  1.00  0.00     0.173 A 
ATOM     77  F   UNL A   1      42.944  32.530  28.132  1.00  0.00    -0.203 F 
ATOM     78  C   UNL A   1      44.333  33.765  26.708  1.00  0.00     0.198 A 
ATOM     79  C   UNL A   1      46.648  33.237  26.502  1.00  0.00     0.198 A 
ATOM     80  F   UNL A   1      47.549  31.385  27.539  1.00  0.00    -0.203 F 
ATOM     81  F   UNL A   1      43.267  34.475  26.312  1.00  0.00    -0.200 F 
ATOM     82  C   UNL A   1      45.569  34.014  26.138  1.00  0.00     0.200 A 
ATOM     83  F   UNL A   1      47.848  33.445  25.944  1.00  0.00    -0.200 F 
ATOM     84  F   UNL A   1      45.711  34.962  25.203  1.00  0.00    -0.200 F 
ENDBRANCH  60  74
BRANCH  61  85
ATOM     85  C   UNL A   1      37.128  31.511  30.644  1.00  0.00     0.064 A 
ATOM     86  C   UNL A   1      36.199  31.750  31.670  1.00  0.00     0.173 A 
ATOM     87  C   UNL A   1      36.899  32.185  29.427  1.00  0.00     0.173 A 
ATOM     88  F   UNL A   1      36.366  31.184  32.874  1.00  0.00    -0.203 F 
ATOM     89  C   UNL A   1      35.121  32.626  31.496  1.00  0.00     0.198 A 
ATOM     90  C   UNL A   1      35.821  33.056  29.253  1.00  0.00     0.198 A 
ATOM     91  F   UNL A   1      37.769  32.090  28.412  1.00  0.00    -0.203 F 
ATOM     92  F   UNL A   1      34.290  32.874  32.518  1.00  0.00    -0.200 F 
ATOM     93  C   UNL A   1      34.939  33.287  30.292  1.00  0.00     0.200 A 
ATOM     94  F   UNL A   1      35.679  33.715  28.096  1.00  0.00    -0.200 F 
ATOM     95  F   UNL A   1      33.944  34.172  30.146  1.00  0.00    -0.200 F 
ENDBRANCH  61  85
BRANCH  73  96
ATOM     96  C   UNL A   1      42.311  29.689  33.750  1.00  0.00     0.064 A 
ATOM     97  C   UNL A   1      41.810  28.379  33.648  1.00  0.00     0.173 A 
ATOM     98  C   UNL A   1      42.670  30.136  35.028  1.00  0.00     0.173 A 
ATOM     99  F   UNL A   1      41.541  27.831  32.459  1.00  0.00    -0.203 F 
ATOM    100  C   UNL A   1      41.639  27.574  34.776  1.00  0.00     0.198 A 
ATOM    101  C   UNL A   1      42.533  29.318  36.149  1.00  0.00     0.198 A 
ATOM    102  F   UNL A   1      43.207  31.356  35.187  1.00  0.00    -0.203 F 
ATOM    103  F   UNL A   1      41.152  26.331  34.647  1.00  0.00    -0.200 F 
ATOM    104  C   UNL A   1      42.009  28.042  36.024  1.00  0.00     0.200 A 
ATOM    105  F   UNL A   1      42.942  29.759  37.346  1.00  0.00    -0.200 F 
ATOM    106  F   UNL A   1      41.887  27.256  37.102  1.00  0.00    -0.200 F 
ENDBRANCH  73  96
ENDBRANCH  47  48
ENDBRANCH  39  42
ENDBRANCH  37  38
ENDBRANCH  36  37
ENDBRANCH   1  36
TORSDOF 15
ENDMDL
MODEL 2
REMARK VINA RESULT:     -14.1      3.264      8.788
REMARK SMILES O=C1C[C@@H](c2cccc(O)c2)c2c(c(C(=O)NCCCCNC(=O)c3ccc(-c4c5nc(c(-c6c(F)c(F)c(F)c(F)c6F)c6ccc([nH]6)c(-c6c(F)c(F)c(F)c(F)c6F)c6nc(c(-c7c(F)c(F)c(F)c(F)c7F)c7ccc4[nH]7)C=C6)C=C5)cc3)cn2-c2cccc(C(F)(F)F)c2)N1
REMARK SMILES IDX 19 1 18 2 17 3 15 4 16 5 14 7 1 8 2 9 3 10 100 11 4 12 13 13
REMARK SMILES IDX 12 15 89 16 88 17 5 18 6 19 11 20 7 21 9 22 8 23 10 24 90 26
REMARK SMILES IDX 91 27 99 28 92 29 94 30 93 31 95 32 96 33 97 34 98 35 20 36
REMARK SMILES IDX 21 37 22 38 23 39 24 41 25 42 26 43 87 44 27 45 86 46 28 47
REMARK SMILES IDX 29 48 30 49 80 50 31 51 85 52 79 53 81 54 32 55 84 56 78 57
REMARK SMILES IDX 77 58 33 60 65 61 45 62 64 63 46 64 49 65 63 66 82 67 47 68
REMARK SMILES IDX 48 69 62 71 83 72 50 73 34 74 35 75 43 76 36 77 37 78 41 79
REMARK SMILES IDX 44 80 38 81 39 82 42 83 40 84 66 85 67 86 75 87 68 88 69 89
REMARK SMILES IDX 73 90 76 91 70 92 71 93 74 94 72 95 51 96 52 97 60 98 53 99
REMARK SMILES IDX 54 100 58 101 61 102 55 103 56 104 59 105 57 106
REMARK H PARENT 17 6 100 14 10 25 22 40 81 59 49 70
REMARK Flexibility Score: inf
ROOT
ATOM      1  C   UNL A   1      33.194  29.154  27.167  1.00  0.00     0.023 C 
ENDROOT
BRANCH   1   2
ATOM      2  C   UNL A   1      31.800  28.526  27.251  1.00  0.00     0.116 C 
BRANCH   2   3
ATOM      3  N   UNL A   1      31.241  28.220  25.951  1.00  0.00    -0.352 N 
ATOM      4  C   UNL A   1      31.396  27.180  25.068  1.00  0.00     0.254 C 
ATOM      5  O   UNL A   1      30.750  27.262  24.020  1.00  0.00    -0.269 OA
ATOM      6  H   UNL A   1      30.612  28.906  25.630  1.00  0.00     0.163 HD
BRANCH   4   7
ATOM      7  C   UNL A   1      32.272  26.035  25.305  1.00  0.00     0.081 A 
ATOM      8  O   UNL A   1      29.354  22.984  27.582  1.00  0.00    -0.275 OA
ATOM      9  C   UNL A   1      30.477  23.321  27.209  1.00  0.00     0.225 C 
ATOM     10  C   UNL A   1      31.725  22.551  27.626  1.00  0.00     0.115 C 
ATOM     11  N   UNL A   1      30.669  24.483  26.501  1.00  0.00    -0.324 N 
ATOM     12  C   UNL A   1      32.863  22.570  26.585  1.00  0.00     0.078 C 
ATOM     13  C   UNL A   1      31.884  24.826  25.954  1.00  0.00     0.076 A 
ATOM     14  H   UNL A   1      29.906  25.094  26.380  1.00  0.00     0.170 HD
ATOM     15  C   UNL A   1      32.929  23.931  25.953  1.00  0.00     0.055 A 
ATOM     16  N   UNL A   1      34.000  24.549  25.347  1.00  0.00    -0.317 N 
ATOM     17  C   UNL A   1      33.607  25.835  25.008  1.00  0.00     0.107 A 
BRANCH  12  18
ATOM     18  C   UNL A   1      32.705  21.445  25.575  1.00  0.00    -0.035 A 
ATOM     19  C   UNL A   1      32.174  21.662  24.293  1.00  0.00     0.005 A 
ATOM     20  C   UNL A   1      33.164  20.159  25.904  1.00  0.00     0.050 A 
ATOM     21  C   UNL A   1      32.151  20.632  23.350  1.00  0.00     0.004 A 
ATOM     22  C   UNL A   1      33.169  19.152  24.945  1.00  0.00     0.115 A 
ATOM     23  C   UNL A   1      32.665  19.377  23.670  1.00  0.00     0.046 A 
BRANCH  22  24
ATOM     24  O   UNL A   1      33.733  17.960  25.288  1.00  0.00    -0.508 OA
ATOM     25  H   UNL A   1      34.452  17.938  25.887  1.00  0.00     0.293 HD
ENDBRANCH  22  24
ENDBRANCH  12  18
BRANCH  16  26
ATOM     26  C   UNL A   1      35.266  24.039  24.972  1.00  0.00     0.046 A 
ATOM     27  C   UNL A   1      35.365  23.226  23.836  1.00  0.00     0.026 A 
ATOM     28  C   UNL A   1      36.351  24.165  25.842  1.00  0.00     0.039 A 
ATOM     29  C   UNL A   1      36.567  22.582  23.548  1.00  0.00     0.003 A 
ATOM     30  C   UNL A   1      37.561  23.509  25.566  1.00  0.00     0.058 A 
ATOM     31  C   UNL A   1      37.659  22.725  24.404  1.00  0.00     0.013 A 
BRANCH  30  32
ATOM     32  C   UNL A   1      38.733  23.603  26.513  1.00  0.00     0.416 C 
ATOM     33  F   UNL A   1      38.379  24.134  27.718  1.00  0.00    -0.166 F 
ATOM     34  F   UNL A   1      39.281  22.389  26.791  1.00  0.00    -0.166 F 
ATOM     35  F   UNL A   1      39.753  24.384  26.060  1.00  0.00    -0.166 F 
ENDBRANCH  30  32
ENDBRANCH  16  26
ENDBRANCH   4   7
ENDBRANCH   2   3
ENDBRANCH   1   2
BRANCH   1  36
ATOM     36  C   UNL A   1      33.220  30.689  27.234  1.00  0.00     0.023 C 
BRANCH  36  37
ATOM     37  C   UNL A   1      34.551  31.301  27.666  1.00  0.00     0.116 C 
BRANCH  37  38
ATOM     38  N   UNL A   1      34.504  31.936  28.984  1.00  0.00    -0.352 N 
ATOM     39  C   UNL A   1      35.302  31.671  30.087  1.00  0.00     0.251 C 
ATOM     40  H   UNL A   1      33.823  32.638  29.101  1.00  0.00     0.163 HD
ATOM     41  O   UNL A   1      34.943  31.945  31.218  1.00  0.00    -0.269 OA
BRANCH  39  42
ATOM     42  C   UNL A   1      36.625  31.070  29.851  1.00  0.00     0.039 A 
ATOM     43  C   UNL A   1      37.768  31.841  29.621  1.00  0.00     0.014 A 
ATOM     44  C   UNL A   1      36.699  29.684  29.914  1.00  0.00     0.014 A 
ATOM     45  C   UNL A   1      39.000  31.197  29.541  1.00  0.00     0.010 A 
ATOM     46  C   UNL A   1      37.918  29.076  30.021  1.00  0.00     0.010 A 
ATOM     47  C   UNL A   1      39.068  29.812  29.763  1.00  0.00    -0.014 A 
BRANCH  47  48
ATOM     48  C   UNL A   1      40.344  29.114  29.836  1.00  0.00     0.031 A 
ATOM     49  C   UNL A   1      40.868  28.913  31.214  1.00  0.00     0.074 A 
ATOM     50  C   UNL A   1      40.881  28.487  28.766  1.00  0.00     0.049 A 
ATOM     51  N   UNL A   1      41.963  29.381  31.717  1.00  0.00    -0.248 NA
ATOM     52  C   UNL A   1      40.021  28.206  32.191  1.00  0.00     0.031 C 
ATOM     53  C   UNL A   1      40.321  28.322  27.419  1.00  0.00     0.029 A 
ATOM     54  N   UNL A   1      42.023  27.754  28.696  1.00  0.00    -0.354 N 
ATOM     55  C   UNL A   1      42.039  28.879  33.013  1.00  0.00     0.074 A 
ATOM     56  C   UNL A   1      40.751  28.308  33.305  1.00  0.00     0.031 C 
ATOM     57  C   UNL A   1      40.993  27.352  26.760  1.00  0.00     0.029 A 
ATOM     58  C   UNL A   1      42.131  26.954  27.565  1.00  0.00     0.049 A 
ATOM     59  H   UNL A   1      42.719  27.787  29.392  1.00  0.00     0.167 HD
ATOM     60  C   UNL A   1      43.236  28.770  33.655  1.00  0.00     0.037 A 
ATOM     61  C   UNL A   1      43.074  26.006  27.337  1.00  0.00     0.037 A 
ATOM     62  C   UNL A   1      44.243  29.585  33.025  1.00  0.00     0.049 A 
ATOM     63  C   UNL A   1      44.215  26.301  28.246  1.00  0.00     0.074 A 
ATOM     64  C   UNL A   1      44.347  30.938  32.756  1.00  0.00     0.029 A 
ATOM     65  N   UNL A   1      45.150  28.977  32.191  1.00  0.00    -0.354 N 
ATOM     66  N   UNL A   1      44.967  27.362  28.132  1.00  0.00    -0.248 NA
ATOM     67  C   UNL A   1      44.193  25.686  29.565  1.00  0.00     0.031 C 
ATOM     68  C   UNL A   1      44.888  31.005  31.438  1.00  0.00     0.029 A 
ATOM     69  C   UNL A   1      45.169  29.703  31.025  1.00  0.00     0.049 A 
ATOM     70  H   UNL A   1      45.684  28.174  32.391  1.00  0.00     0.167 HD
ATOM     71  C   UNL A   1      45.160  27.797  29.435  1.00  0.00     0.074 A 
ATOM     72  C   UNL A   1      44.713  26.689  30.278  1.00  0.00     0.031 C 
ATOM     73  C   UNL A   1      45.377  29.114  29.722  1.00  0.00     0.037 A 
BRANCH  60  74
ATOM     74  C   UNL A   1      43.576  27.671  34.629  1.00  0.00     0.064 A 
ATOM     75  C   UNL A   1      43.481  26.326  34.221  1.00  0.00     0.173 A 
ATOM     76  C   UNL A   1      43.711  27.877  36.019  1.00  0.00     0.173 A 
ATOM     77  F   UNL A   1      43.315  26.016  32.927  1.00  0.00    -0.203 F 
ATOM     78  C   UNL A   1      43.466  25.275  35.143  1.00  0.00     0.198 A 
ATOM     79  C   UNL A   1      43.752  26.825  36.930  1.00  0.00     0.198 A 
ATOM     80  F   UNL A   1      43.694  29.101  36.561  1.00  0.00    -0.203 F 
ATOM     81  F   UNL A   1      43.254  24.021  34.720  1.00  0.00    -0.200 F 
ATOM     82  C   UNL A   1      43.599  25.525  36.497  1.00  0.00     0.200 A 
ATOM     83  F   UNL A   1      43.858  27.091  38.239  1.00  0.00    -0.200 F 
ATOM     84  F   UNL A   1      43.530  24.527  37.386  1.00  0.00    -0.200 F 
ENDBRANCH  60  74
BRANCH  61  85
ATOM     85  C   UNL A   1      42.910  24.701  26.648  1.00  0.00     0.064 A 
ATOM     86  C   UNL A   1      43.516  24.452  25.406  1.00  0.00     0.173 A 
ATOM     87  C   UNL A   1      42.381  23.580  27.320  1.00  0.00     0.173 A 
ATOM     88  F   UNL A   1      44.084  25.455  24.722  1.00  0.00    -0.203 F 
ATOM     89  C   UNL A   1      43.607  23.158  24.879  1.00  0.00     0.198 A 
ATOM     90  C   UNL A   1      42.468  22.290  26.791  1.00  0.00     0.198 A 
ATOM     91  F   UNL A   1      41.853  23.696  28.546  1.00  0.00    -0.203 F 
ATOM     92  F   UNL A   1      44.245  22.952  23.718  1.00  0.00    -0.200 F 
ATOM     93  C   UNL A   1      43.093  22.078  25.577  1.00  0.00     0.200 A 
ATOM     94  F   UNL A   1      41.999  21.251  27.494  1.00  0.00    -0.200 F 
ATOM     95  F   UNL A   1      43.235  20.832  25.102  1.00  0.00    -0.200 F 
ENDBRANCH  61  85
BRANCH  73  96
ATOM     96  C   UNL A   1      45.616  30.066  28.578  1.00  0.00     0.064 A 
ATOM     97  C   UNL A   1      44.598  30.761  27.900  1.00  0.00     0.173 A 
ATOM     98  C   UNL A   1      46.938  30.412  28.268  1.00  0.00     0.173 A 
ATOM     99  F   UNL A   1      43.310  30.573  28.205  1.00  0.00    -0.203 F 
ATOM    100  C   UNL A   1      44.892  31.721  26.931  1.00  0.00     0.198 A 
ATOM    101  C   UNL A   1      47.230  31.397  27.327  1.00  0.00     0.198 A 
ATOM    102  F   UNL A   1      47.955  29.827  28.921  1.00  0.00    -0.203 F 
ATOM    103  F   UNL A   1      43.899  32.361  26.295  1.00  0.00    -0.200 F 
ATOM    104  C   UNL A   1      46.208  32.044  26.652  1.00  0.00     0.200 A 
ATOM    105  F   UNL A   1      48.504  31.741  27.100  1.00  0.00    -0.200 F 
ATOM    106  F   UNL A   1      46.493  32.997  25.754  1.00  0.00    -0.200 F 
ENDBRANCH  73  96
ENDBRANCH  47  48
ENDBRANCH  39  42
ENDBRANCH  37  38
ENDBRANCH  36  37
ENDBRANCH   1  36
TORSDOF 15
ENDMDL
MODEL 3
REMARK VINA RESULT:     -13.0      4.525      8.116
REMARK SMILES O=C1C[C@@H](c2cccc(O)c2)c2c(c(C(=O)NCCCCNC(=O)c3ccc(-c4c5nc(c(-c6c(F)c(F)c(F)c(F)c6F)c6ccc([nH]6)c(-c6c(F)c(F)c(F)c(F)c6F)c6nc(c(-c7c(F)c(F)c(F)c(F)c7F)c7ccc4[nH]7)C=C6)C=C5)cc3)cn2-c2cccc(C(F)(F)F)c2)N1
REMARK SMILES IDX 19 1 18 2 17 3 15 4 16 5 14 7 1 8 2 9 3 10 100 11 4 12 13 13
REMARK SMILES IDX 12 15 89 16 88 17 5 18 6 19 11 20 7 21 9 22 8 23 10 24 90 26
REMARK SMILES IDX 91 27 99 28 92 29 94 30 93 31 95 32 96 33 97 34 98 35 20 36
REMARK SMILES IDX 21 37 22 38 23 39 24 41 25 42 26 43 87 44 27 45 86 46 28 47
REMARK SMILES IDX 29 48 30 49 80 50 31 51 85 52 79 53 81 54 32 55 84 56 78 57
REMARK SMILES IDX 77 58 33 60 65 61 45 62 64 63 46 64 49 65 63 66 82 67 47 68
REMARK SMILES IDX 48 69 62 71 83 72 50 73 34 74 35 75 43 76 36 77 37 78 41 79
REMARK SMILES IDX 44 80 38 81 39 82 42 83 40 84 66 85 67 86 75 87 68 88 69 89
REMARK SMILES IDX 73 90 76 91 70 92 71 93 74 94 72 95 51 96 52 97 60 98 53 99
REMARK SMILES IDX 54 100 58 101 61 102 55 103 56 104 59 105 57 106
REMARK H PARENT 17 6 100 14 10 25 22 40 81 59 49 70
REMARK Flexibility Score: inf
ROOT
ATOM      1  C   UNL A   1      48.545  26.961  28.928  1.00  0.00     0.023 C 
ENDROOT
BRANCH   1   2
ATOM      2  C   UNL A   1      47.893  27.554  27.676  1.00  0.00     0.116 C 
BRANCH   2   3
ATOM      3  N   UNL A   1      48.399  26.973  26.449  1.00  0.00    -0.352 N 
ATOM      4  C   UNL A   1      47.817  26.310  25.398  1.00  0.00     0.254 C 
ATOM      5  O   UNL A   1      48.582  25.938  24.504  1.00  0.00    -0.269 OA
ATOM      6  H   UNL A   1      49.373  27.078  26.346  1.00  0.00     0.163 HD
BRANCH   4   7
ATOM      7  C   UNL A   1      46.386  26.026  25.307  1.00  0.00     0.081 A 
ATOM      8  O   UNL A   1      46.346  21.304  24.459  1.00  0.00    -0.275 OA
ATOM      9  C   UNL A   1      45.770  22.390  24.522  1.00  0.00     0.225 C 
ATOM     10  C   UNL A   1      44.315  22.552  24.096  1.00  0.00     0.115 C 
ATOM     11  N   UNL A   1      46.451  23.534  24.861  1.00  0.00    -0.324 N 
ATOM     12  C   UNL A   1      43.541  23.637  24.871  1.00  0.00     0.078 C 
ATOM     13  C   UNL A   1      45.820  24.738  25.071  1.00  0.00     0.076 A 
ATOM     14  H   UNL A   1      47.430  23.490  24.959  1.00  0.00     0.170 HD
ATOM     15  C   UNL A   1      44.446  24.811  25.112  1.00  0.00     0.055 A 
ATOM     16  N   UNL A   1      44.109  26.128  25.333  1.00  0.00    -0.317 N 
ATOM     17  C   UNL A   1      45.286  26.858  25.397  1.00  0.00     0.107 A 
BRANCH  12  18
ATOM     18  C   UNL A   1      42.934  23.075  26.147  1.00  0.00    -0.035 A 
ATOM     19  C   UNL A   1      43.613  23.114  27.376  1.00  0.00     0.005 A 
ATOM     20  C   UNL A   1      41.628  22.560  26.117  1.00  0.00     0.050 A 
ATOM     21  C   UNL A   1      42.981  22.696  28.550  1.00  0.00     0.004 A 
ATOM     22  C   UNL A   1      40.998  22.180  27.297  1.00  0.00     0.115 A 
ATOM     23  C   UNL A   1      41.664  22.244  28.515  1.00  0.00     0.046 A 
BRANCH  22  24
ATOM     24  O   UNL A   1      39.692  21.798  27.218  1.00  0.00    -0.508 OA
ATOM     25  H   UNL A   1      39.250  21.812  26.392  1.00  0.00     0.293 HD
ENDBRANCH  22  24
ENDBRANCH  12  18
BRANCH  16  26
ATOM     26  C   UNL A   1      42.853  26.726  25.589  1.00  0.00     0.046 A 
ATOM     27  C   UNL A   1      42.693  28.100  25.369  1.00  0.00     0.026 A 
ATOM     28  C   UNL A   1      41.861  26.002  26.255  1.00  0.00     0.039 A 
ATOM     29  C   UNL A   1      41.520  28.734  25.772  1.00  0.00     0.003 A 
ATOM     30  C   UNL A   1      40.681  26.636  26.675  1.00  0.00     0.058 A 
ATOM     31  C   UNL A   1      40.518  28.008  26.417  1.00  0.00     0.013 A 
BRANCH  30  32
ATOM     32  C   UNL A   1      39.614  25.880  27.428  1.00  0.00     0.416 C 
ATOM     33  F   UNL A   1      39.004  24.939  26.650  1.00  0.00    -0.166 F 
ATOM     34  F   UNL A   1      40.108  25.206  28.502  1.00  0.00    -0.166 F 
ATOM     35  F   UNL A   1      38.606  26.663  27.902  1.00  0.00    -0.166 F 
ENDBRANCH  30  32
ENDBRANCH  16  26
ENDBRANCH   4   7
ENDBRANCH   2   3
ENDBRANCH   1   2
BRANCH   1  36
ATOM     36  C   UNL A   1      47.942  25.632  29.408  1.00  0.00     0.023 C 
BRANCH  36  37
ATOM     37  C   UNL A   1      46.511  25.362  28.951  1.00  0.00     0.116 C 
BRANCH  37  38
ATOM     38  N   UNL A   1      45.714  24.619  29.930  1.00  0.00    -0.352 N 
ATOM     39  C   UNL A   1      44.776  25.119  30.821  1.00  0.00     0.251 C 
ATOM     40  H   UNL A   1      45.861  23.646  29.958  1.00  0.00     0.163 HD
ATOM     41  O   UNL A   1      44.470  24.517  31.834  1.00  0.00    -0.269 OA
BRANCH  39  42
ATOM     42  C   UNL A   1      44.126  26.399  30.491  1.00  0.00     0.039 A 
ATOM     43  C   UNL A   1      43.225  26.530  29.432  1.00  0.00     0.014 A 
ATOM     44  C   UNL A   1      44.417  27.476  31.320  1.00  0.00     0.014 A 
ATOM     45  C   UNL A   1      42.555  27.741  29.273  1.00  0.00     0.010 A 
ATOM     46  C   UNL A   1      43.630  28.593  31.278  1.00  0.00     0.010 A 
ATOM     47  C   UNL A   1      42.751  28.763  30.217  1.00  0.00    -0.014 A 
BRANCH  47  48
ATOM     48  C   UNL A   1      41.970  29.992  30.181  1.00  0.00     0.031 A 
ATOM     49  C   UNL A   1      42.741  31.212  29.821  1.00  0.00     0.074 A 
ATOM     50  C   UNL A   1      40.619  29.985  30.228  1.00  0.00     0.049 A 
ATOM     51  N   UNL A   1      42.942  32.262  30.547  1.00  0.00    -0.248 NA
ATOM     52  C   UNL A   1      43.479  31.224  28.545  1.00  0.00     0.031 C 
ATOM     53  C   UNL A   1      39.705  28.837  30.257  1.00  0.00     0.029 A 
ATOM     54  N   UNL A   1      39.761  31.036  30.147  1.00  0.00    -0.354 N 
ATOM     55  C   UNL A   1      43.673  33.145  29.758  1.00  0.00     0.074 A 
ATOM     56  C   UNL A   1      44.115  32.396  28.611  1.00  0.00     0.031 C 
ATOM     57  C   UNL A   1      38.453  29.242  29.949  1.00  0.00     0.029 A 
ATOM     58  C   UNL A   1      38.443  30.690  29.876  1.00  0.00     0.049 A 
ATOM     59  H   UNL A   1      40.051  31.969  30.271  1.00  0.00     0.167 HD
ATOM     60  C   UNL A   1      43.657  34.485  30.004  1.00  0.00     0.037 A 
ATOM     61  C   UNL A   1      37.433  31.543  29.574  1.00  0.00     0.037 A 
ATOM     62  C   UNL A   1      43.181  34.767  31.335  1.00  0.00     0.049 A 
ATOM     63  C   UNL A   1      37.846  32.890  30.051  1.00  0.00     0.074 A 
ATOM     64  C   UNL A   1      43.600  34.394  32.599  1.00  0.00     0.029 A 
ATOM     65  N   UNL A   1      41.880  35.183  31.490  1.00  0.00    -0.354 N 
ATOM     66  N   UNL A   1      37.992  33.192  31.313  1.00  0.00    -0.248 NA
ATOM     67  C   UNL A   1      38.578  33.733  29.116  1.00  0.00     0.031 C 
ATOM     68  C   UNL A   1      42.398  34.096  33.307  1.00  0.00     0.029 A 
ATOM     69  C   UNL A   1      41.324  34.396  32.469  1.00  0.00     0.049 A 
ATOM     70  H   UNL A   1      41.433  35.906  30.994  1.00  0.00     0.167 HD
ATOM     71  C   UNL A   1      39.147  33.958  31.360  1.00  0.00     0.074 A 
ATOM     72  C   UNL A   1      39.428  34.311  29.969  1.00  0.00     0.031 C 
ATOM     73  C   UNL A   1      39.938  33.987  32.473  1.00  0.00     0.037 A 
BRANCH  60  74
ATOM     74  C   UNL A   1      43.741  35.542  28.933  1.00  0.00     0.064 A 
ATOM     75  C   UNL A   1      44.881  36.366  28.857  1.00  0.00     0.173 A 
ATOM     76  C   UNL A   1      42.633  35.964  28.167  1.00  0.00     0.173 A 
ATOM     77  F   UNL A   1      45.979  36.079  29.571  1.00  0.00    -0.203 F 
ATOM     78  C   UNL A   1      44.886  37.552  28.116  1.00  0.00     0.198 A 
ATOM     79  C   UNL A   1      42.660  37.116  27.385  1.00  0.00     0.198 A 
ATOM     80  F   UNL A   1      41.447  35.347  28.233  1.00  0.00    -0.203 F 
ATOM     81  F   UNL A   1      45.949  38.366  28.168  1.00  0.00    -0.200 F 
ATOM     82  C   UNL A   1      43.775  37.927  27.382  1.00  0.00     0.200 A 
ATOM     83  F   UNL A   1      41.564  37.473  26.701  1.00  0.00    -0.200 F 
ATOM     84  F   UNL A   1      43.756  39.088  26.716  1.00  0.00    -0.200 F 
ENDBRANCH  60  74
BRANCH  61  85
ATOM     85  C   UNL A   1      36.315  31.334  28.621  1.00  0.00     0.064 A 
ATOM     86  C   UNL A   1      36.174  30.127  27.916  1.00  0.00     0.173 A 
ATOM     87  C   UNL A   1      35.210  32.209  28.583  1.00  0.00     0.173 A 
ATOM     88  F   UNL A   1      37.160  29.218  27.936  1.00  0.00    -0.203 F 
ATOM     89  C   UNL A   1      34.993  29.805  27.237  1.00  0.00     0.198 A 
ATOM     90  C   UNL A   1      34.034  31.890  27.901  1.00  0.00     0.198 A 
ATOM     91  F   UNL A   1      35.211  33.350  29.287  1.00  0.00    -0.203 F 
ATOM     92  F   UNL A   1      34.875  28.618  26.626  1.00  0.00    -0.200 F 
ATOM     93  C   UNL A   1      33.921  30.682  27.239  1.00  0.00     0.200 A 
ATOM     94  F   UNL A   1      32.992  32.731  27.943  1.00  0.00    -0.200 F 
ATOM     95  F   UNL A   1      32.768  30.348  26.641  1.00  0.00    -0.200 F 
ENDBRANCH  61  85
BRANCH  73  96
ATOM     96  C   UNL A   1      39.426  33.338  33.733  1.00  0.00     0.064 A 
ATOM     97  C   UNL A   1      38.484  33.922  34.598  1.00  0.00     0.173 A 
ATOM     98  C   UNL A   1      39.780  32.006  33.983  1.00  0.00     0.173 A 
ATOM     99  F   UNL A   1      38.008  35.151  34.376  1.00  0.00    -0.203 F 
ATOM    100  C   UNL A   1      37.957  33.220  35.683  1.00  0.00     0.198 A 
ATOM    101  C   UNL A   1      39.225  31.293  35.044  1.00  0.00     0.198 A 
ATOM    102  F   UNL A   1      40.631  31.372  33.161  1.00  0.00    -0.203 F 
ATOM    103  F   UNL A   1      37.065  33.807  36.495  1.00  0.00    -0.200 F 
ATOM    104  C   UNL A   1      38.322  31.903  35.899  1.00  0.00     0.200 A 
ATOM    105  F   UNL A   1      39.544  30.004  35.217  1.00  0.00    -0.200 F 
ATOM    106  F   UNL A   1      37.785  31.212  36.914  1.00  0.00    -0.200 F 
ENDBRANCH  73  96
ENDBRANCH  47  48
ENDBRANCH  39  42
ENDBRANCH  37  38
ENDBRANCH  36  37
ENDBRANCH   1  36
TORSDOF 15
ENDMDL
