MODEL 1
REMARK VINA RESULT:     -12.3      0.000      0.000
REMARK SMILES Cc1cc(C(=O)N[C@](C)(C(=O)NCCCCNC(=O)c2ccc(-c3c4nc(c(-c5c(F)c(F)c(F)c(F)c5F)c5ccc([nH]5)c(-c5c(F)c(F)c(F)c(F)c5F)c5nc(c(-c6c(F)c(F)c(F)c(F)c6F)c6ccc3[nH]6)C=C5)C=C4)cc2)C(F)(F)F)no1
REMARK SMILES IDX 14 1 13 2 12 3 10 4 11 5 8 7 9 8 7 9 5 10 6 11 4 13 1 14
REMARK SMILES IDX 2 15 3 16 88 17 87 18 83 19 84 20 85 21 86 22 15 23 16 24
REMARK SMILES IDX 17 25 18 26 19 28 20 29 21 30 82 31 22 32 81 33 23 34 24 35
REMARK SMILES IDX 25 36 75 37 26 38 80 39 74 40 76 41 27 42 79 43 73 44 72 45
REMARK SMILES IDX 28 47 60 48 40 49 59 50 41 51 44 52 58 53 77 54 42 55 43 56
REMARK SMILES IDX 57 58 78 59 45 60 29 61 30 62 38 63 31 64 32 65 36 66 39 67
REMARK SMILES IDX 33 68 34 69 37 70 35 71 61 72 62 73 70 74 63 75 64 76 68 77
REMARK SMILES IDX 71 78 65 79 66 80 69 81 67 82 46 83 47 84 55 85 48 86 49 87
REMARK SMILES IDX 53 88 56 89 50 90 51 91 54 92 52 93
REMARK H PARENT 12 6 7 12 17 27 76 46 44 57
REMARK Flexibility Score: inf
ROOT
ATOM      1  C   UNL A   1      31.601  30.244  26.462  1.00  0.00     0.023 C 
ENDROOT
BRANCH   1   2
ATOM      2  C   UNL A   1      32.961  29.681  26.063  1.00  0.00     0.116 C 
BRANCH   2   3
ATOM      3  N   UNL A   1      33.146  29.718  24.622  1.00  0.00    -0.354 N 
ATOM      4  C   UNL A   1      32.921  28.759  23.676  1.00  0.00     0.254 C 
ATOM      5  O   UNL A   1      33.205  29.064  22.516  1.00  0.00    -0.272 OA
ATOM      6  H   UNL A   1      33.490  30.572  24.271  1.00  0.00     0.163 HD
BRANCH   4   7
ATOM      7  C   UNL A   1      32.447  27.350  24.065  1.00  0.00     0.212 C 
ATOM      8  C   UNL A   1      33.330  26.904  25.263  1.00  0.00     0.056 C 
BRANCH   7   9
ATOM      9  N   UNL A   1      31.004  27.272  24.490  1.00  0.00    -0.329 N 
ATOM     10  C   UNL A   1      29.840  27.617  23.823  1.00  0.00     0.274 C 
ATOM     11  O   UNL A   1      28.852  26.917  24.048  1.00  0.00    -0.267 OA
ATOM     12  H   UNL A   1      30.864  26.915  25.397  1.00  0.00     0.165 HD
BRANCH  10  13
ATOM     13  C   UNL A   1      29.754  28.884  23.096  1.00  0.00     0.171 A 
ATOM     14  C   UNL A   1      28.498  32.160  22.071  1.00  0.00     0.091 C 
ATOM     15  C   UNL A   1      29.156  30.877  22.375  1.00  0.00     0.134 A 
ATOM     16  C   UNL A   1      29.443  30.195  23.533  1.00  0.00     0.082 A 
ATOM     17  O   UNL A   1      29.509  30.113  21.312  1.00  0.00    -0.361 OA
ATOM     18  N   UNL A   1      29.897  28.868  21.757  1.00  0.00    -0.074 NA
ENDBRANCH  10  13
ENDBRANCH   7   9
BRANCH   7  19
ATOM     19  C   UNL A   1      32.730  26.390  22.889  1.00  0.00     0.420 C 
ATOM     20  F   UNL A   1      34.036  26.307  22.561  1.00  0.00    -0.168 F 
ATOM     21  F   UNL A   1      32.341  25.132  23.235  1.00  0.00    -0.168 F 
ATOM     22  F   UNL A   1      32.030  26.717  21.781  1.00  0.00    -0.168 F 
ENDBRANCH   7  19
ENDBRANCH   4   7
ENDBRANCH   2   3
ENDBRANCH   1   2
BRANCH   1  23
ATOM     23  C   UNL A   1      31.540  31.774  26.500  1.00  0.00     0.023 C 
BRANCH  23  24
ATOM     24  C   UNL A   1      32.694  32.440  27.243  1.00  0.00     0.116 C 
BRANCH  24  25
ATOM     25  N   UNL A   1      32.429  33.837  27.546  1.00  0.00    -0.352 N 
ATOM     26  C   UNL A   1      33.013  34.657  28.478  1.00  0.00     0.251 C 
ATOM     27  H   UNL A   1      31.725  34.257  27.002  1.00  0.00     0.163 HD
ATOM     28  O   UNL A   1      32.545  35.769  28.704  1.00  0.00    -0.269 OA
BRANCH  26  29
ATOM     29  C   UNL A   1      34.189  34.188  29.241  1.00  0.00     0.039 A 
ATOM     30  C   UNL A   1      33.979  33.468  30.419  1.00  0.00     0.014 A 
ATOM     31  C   UNL A   1      35.487  34.448  28.796  1.00  0.00     0.014 A 
ATOM     32  C   UNL A   1      35.070  32.941  31.111  1.00  0.00     0.010 A 
ATOM     33  C   UNL A   1      36.570  33.860  29.445  1.00  0.00     0.010 A 
ATOM     34  C   UNL A   1      36.372  33.096  30.606  1.00  0.00    -0.014 A 
BRANCH  34  35
ATOM     35  C   UNL A   1      37.530  32.453  31.274  1.00  0.00     0.031 A 
ATOM     36  C   UNL A   1      38.273  31.336  30.599  1.00  0.00     0.074 A 
ATOM     37  C   UNL A   1      37.884  32.844  32.514  1.00  0.00     0.049 A 
ATOM     38  N   UNL A   1      39.284  30.629  31.038  1.00  0.00    -0.248 NA
ATOM     39  C   UNL A   1      37.803  30.948  29.261  1.00  0.00     0.031 C 
ATOM     40  C   UNL A   1      37.225  33.897  33.286  1.00  0.00     0.029 A 
ATOM     41  N   UNL A   1      38.884  32.400  33.342  1.00  0.00    -0.354 N 
ATOM     42  C   UNL A   1      39.568  29.713  30.035  1.00  0.00     0.074 A 
ATOM     43  C   UNL A   1      38.582  29.912  28.992  1.00  0.00     0.031 C 
ATOM     44  C   UNL A   1      37.860  34.044  34.460  1.00  0.00     0.029 A 
ATOM     45  C   UNL A   1      38.940  33.066  34.542  1.00  0.00     0.049 A 
ATOM     46  H   UNL A   1      39.502  31.672  33.101  1.00  0.00     0.167 HD
ATOM     47  C   UNL A   1      40.573  28.806  29.975  1.00  0.00     0.037 A 
ATOM     48  C   UNL A   1      39.767  32.901  35.592  1.00  0.00     0.037 A 
ATOM     49  C   UNL A   1      41.551  28.611  31.014  1.00  0.00     0.049 A 
ATOM     50  C   UNL A   1      40.832  31.841  35.530  1.00  0.00     0.074 A 
ATOM     51  C   UNL A   1      42.637  27.754  31.029  1.00  0.00     0.029 A 
ATOM     52  N   UNL A   1      41.551  29.278  32.232  1.00  0.00    -0.354 N 
ATOM     53  N   UNL A   1      41.137  31.029  34.548  1.00  0.00    -0.248 NA
ATOM     54  C   UNL A   1      41.667  31.674  36.728  1.00  0.00     0.031 C 
ATOM     55  C   UNL A   1      43.259  27.858  32.279  1.00  0.00     0.029 A 
ATOM     56  C   UNL A   1      42.595  28.821  33.022  1.00  0.00     0.049 A 
ATOM     57  H   UNL A   1      40.904  29.971  32.496  1.00  0.00     0.167 HD
ATOM     58  C   UNL A   1      42.212  30.274  34.996  1.00  0.00     0.074 A 
ATOM     59  C   UNL A   1      42.517  30.736  36.335  1.00  0.00     0.031 C 
ATOM     60  C   UNL A   1      42.886  29.287  34.355  1.00  0.00     0.037 A 
BRANCH  47  61
ATOM     61  C   UNL A   1      40.649  27.946  28.745  1.00  0.00     0.064 A 
ATOM     62  C   UNL A   1      41.418  28.320  27.631  1.00  0.00     0.173 A 
ATOM     63  C   UNL A   1      39.948  26.733  28.676  1.00  0.00     0.173 A 
ATOM     64  F   UNL A   1      42.103  29.474  27.638  1.00  0.00    -0.203 F 
ATOM     65  C   UNL A   1      41.443  27.537  26.479  1.00  0.00     0.198 A 
ATOM     66  C   UNL A   1      40.003  25.935  27.536  1.00  0.00     0.198 A 
ATOM     67  F   UNL A   1      39.205  26.321  29.715  1.00  0.00    -0.203 F 
ATOM     68  F   UNL A   1      42.128  27.950  25.404  1.00  0.00    -0.200 F 
ATOM     69  C   UNL A   1      40.739  26.343  26.434  1.00  0.00     0.200 A 
ATOM     70  F   UNL A   1      39.335  24.774  27.501  1.00  0.00    -0.200 F 
ATOM     71  F   UNL A   1      40.761  25.593  25.325  1.00  0.00    -0.200 F 
ENDBRANCH  47  61
BRANCH  48  72
ATOM     72  C   UNL A   1      39.640  33.784  36.781  1.00  0.00     0.064 A 
ATOM     73  C   UNL A   1      40.317  35.011  36.835  1.00  0.00     0.173 A 
ATOM     74  C   UNL A   1      38.841  33.432  37.878  1.00  0.00     0.173 A 
ATOM     75  F   UNL A   1      41.110  35.382  35.819  1.00  0.00    -0.203 F 
ATOM     76  C   UNL A   1      40.210  35.844  37.947  1.00  0.00     0.198 A 
ATOM     77  C   UNL A   1      38.713  34.278  38.978  1.00  0.00     0.198 A 
ATOM     78  F   UNL A   1      38.170  32.269  37.876  1.00  0.00    -0.203 F 
ATOM     79  F   UNL A   1      40.898  36.992  37.987  1.00  0.00    -0.200 F 
ATOM     80  C   UNL A   1      39.403  35.480  39.013  1.00  0.00     0.200 A 
ATOM     81  F   UNL A   1      37.920  33.930  40.000  1.00  0.00    -0.200 F 
ATOM     82  F   UNL A   1      39.294  36.286  40.078  1.00  0.00    -0.200 F 
ENDBRANCH  48  72
BRANCH  60  83
ATOM     83  C   UNL A   1      44.037  28.652  35.085  1.00  0.00     0.064 A 
ATOM     84  C   UNL A   1      43.863  27.512  35.883  1.00  0.00     0.173 A 
ATOM     85  C   UNL A   1      45.336  29.166  34.949  1.00  0.00     0.173 A 
ATOM     86  F   UNL A   1      42.638  26.993  36.062  1.00  0.00    -0.203 F 
ATOM     87  C   UNL A   1      44.942  26.924  36.537  1.00  0.00     0.198 A 
ATOM     88  C   UNL A   1      46.417  28.556  35.578  1.00  0.00     0.198 A 
ATOM     89  F   UNL A   1      45.558  30.252  34.193  1.00  0.00    -0.203 F 
ATOM     90  F   UNL A   1      44.744  25.864  37.333  1.00  0.00    -0.200 F 
ATOM     91  C   UNL A   1      46.219  27.440  36.376  1.00  0.00     0.200 A 
ATOM     92  F   UNL A   1      47.652  29.048  35.410  1.00  0.00    -0.200 F 
ATOM     93  F   UNL A   1      47.259  26.867  36.997  1.00  0.00    -0.200 F 
ENDBRANCH  60  83
ENDBRANCH  34  35
ENDBRANCH  26  29
ENDBRANCH  24  25
ENDBRANCH  23  24
ENDBRANCH   1  23
TORSDOF 14
ENDMDL
MODEL 2
REMARK VINA RESULT:     -12.2      6.390     11.456
REMARK SMILES Cc1cc(C(=O)N[C@](C)(C(=O)NCCCCNC(=O)c2ccc(-c3c4nc(c(-c5c(F)c(F)c(F)c(F)c5F)c5ccc([nH]5)c(-c5c(F)c(F)c(F)c(F)c5F)c5nc(c(-c6c(F)c(F)c(F)c(F)c6F)c6ccc3[nH]6)C=C5)C=C4)cc2)C(F)(F)F)no1
REMARK SMILES IDX 14 1 13 2 12 3 10 4 11 5 8 7 9 8 7 9 5 10 6 11 4 13 1 14
REMARK SMILES IDX 2 15 3 16 88 17 87 18 83 19 84 20 85 21 86 22 15 23 16 24
REMARK SMILES IDX 17 25 18 26 19 28 20 29 21 30 82 31 22 32 81 33 23 34 24 35
REMARK SMILES IDX 25 36 75 37 26 38 80 39 74 40 76 41 27 42 79 43 73 44 72 45
REMARK SMILES IDX 28 47 60 48 40 49 59 50 41 51 44 52 58 53 77 54 42 55 43 56
REMARK SMILES IDX 57 58 78 59 45 60 29 61 30 62 38 63 31 64 32 65 36 66 39 67
REMARK SMILES IDX 33 68 34 69 37 70 35 71 61 72 62 73 70 74 63 75 64 76 68 77
REMARK SMILES IDX 71 78 65 79 66 80 69 81 67 82 46 83 47 84 55 85 48 86 49 87
REMARK SMILES IDX 53 88 56 89 50 90 51 91 54 92 52 93
REMARK H PARENT 12 6 7 12 17 27 76 46 44 57
REMARK Flexibility Score: inf
ROOT
ATOM      1  C   UNL A   1      37.055  20.975  24.516  1.00  0.00     0.023 C 
ENDROOT
BRANCH   1   2
ATOM      2  C   UNL A   1      36.733  22.034  25.566  1.00  0.00     0.116 C 
BRANCH   2   3
ATOM      3  N   UNL A   1      35.740  21.553  26.513  1.00  0.00    -0.354 N 
ATOM      4  C   UNL A   1      34.398  21.795  26.588  1.00  0.00     0.254 C 
ATOM      5  O   UNL A   1      33.805  21.272  27.533  1.00  0.00    -0.272 OA
ATOM      6  H   UNL A   1      36.093  20.958  27.214  1.00  0.00     0.163 HD
BRANCH   4   7
ATOM      7  C   UNL A   1      33.704  22.754  25.608  1.00  0.00     0.212 C 
ATOM      8  C   UNL A   1      34.589  24.030  25.541  1.00  0.00     0.056 C 
BRANCH   7   9
ATOM      9  N   UNL A   1      33.550  22.215  24.210  1.00  0.00    -0.329 N 
ATOM     10  C   UNL A   1      32.891  21.093  23.736  1.00  0.00     0.274 C 
ATOM     11  O   UNL A   1      32.364  21.194  22.628  1.00  0.00    -0.267 OA
ATOM     12  H   UNL A   1      33.993  22.752  23.514  1.00  0.00     0.165 HD
BRANCH  10  13
ATOM     13  C   UNL A   1      33.039  19.807  24.418  1.00  0.00     0.171 A 
ATOM     14  C   UNL A   1      33.854  16.280  24.929  1.00  0.00     0.091 C 
ATOM     15  C   UNL A   1      33.497  17.709  24.912  1.00  0.00     0.134 A 
ATOM     16  C   UNL A   1      34.071  18.837  24.374  1.00  0.00     0.082 A 
ATOM     17  O   UNL A   1      32.305  18.040  25.465  1.00  0.00    -0.361 OA
ATOM     18  N   UNL A   1      32.018  19.356  25.172  1.00  0.00    -0.074 NA
ENDBRANCH  10  13
ENDBRANCH   7   9
BRANCH   7  19
ATOM     19  C   UNL A   1      32.336  23.161  26.198  1.00  0.00     0.420 C 
ATOM     20  F   UNL A   1      32.428  23.827  27.368  1.00  0.00    -0.168 F 
ATOM     21  F   UNL A   1      31.704  23.997  25.329  1.00  0.00    -0.168 F 
ATOM     22  F   UNL A   1      31.518  22.100  26.373  1.00  0.00    -0.168 F 
ENDBRANCH   7  19
ENDBRANCH   4   7
ENDBRANCH   2   3
ENDBRANCH   1   2
BRANCH   1  23
ATOM     23  C   UNL A   1      37.914  19.818  25.033  1.00  0.00     0.023 C 
BRANCH  23  24
ATOM     24  C   UNL A   1      39.152  20.244  25.818  1.00  0.00     0.116 C 
BRANCH  24  25
ATOM     25  N   UNL A   1      40.149  19.189  25.900  1.00  0.00    -0.352 N 
ATOM     26  C   UNL A   1      41.505  19.278  26.090  1.00  0.00     0.251 C 
ATOM     27  H   UNL A   1      39.799  18.274  25.806  1.00  0.00     0.163 HD
ATOM     28  O   UNL A   1      42.213  18.282  25.968  1.00  0.00    -0.269 OA
BRANCH  26  29
ATOM     29  C   UNL A   1      42.122  20.583  26.403  1.00  0.00     0.039 A 
ATOM     30  C   UNL A   1      42.572  21.382  25.351  1.00  0.00     0.014 A 
ATOM     31  C   UNL A   1      42.250  21.021  27.724  1.00  0.00     0.014 A 
ATOM     32  C   UNL A   1      43.080  22.654  25.616  1.00  0.00     0.010 A 
ATOM     33  C   UNL A   1      42.686  22.317  27.983  1.00  0.00     0.010 A 
ATOM     34  C   UNL A   1      43.101  23.149  26.931  1.00  0.00    -0.014 A 
BRANCH  34  35
ATOM     35  C   UNL A   1      43.540  24.538  27.216  1.00  0.00     0.031 A 
ATOM     36  C   UNL A   1      42.566  25.549  27.746  1.00  0.00     0.074 A 
ATOM     37  C   UNL A   1      44.810  24.901  26.950  1.00  0.00     0.049 A 
ATOM     38  N   UNL A   1      42.754  26.816  28.021  1.00  0.00    -0.248 NA
ATOM     39  C   UNL A   1      41.192  25.080  27.978  1.00  0.00     0.031 C 
ATOM     40  C   UNL A   1      45.844  24.019  26.408  1.00  0.00     0.029 A 
ATOM     41  N   UNL A   1      45.447  26.108  27.099  1.00  0.00    -0.354 N 
ATOM     42  C   UNL A   1      41.524  27.294  28.454  1.00  0.00     0.074 A 
ATOM     43  C   UNL A   1      40.584  26.198  28.345  1.00  0.00     0.031 C 
ATOM     44  C   UNL A   1      46.994  24.703  26.303  1.00  0.00     0.029 A 
ATOM     45  C   UNL A   1      46.769  26.082  26.727  1.00  0.00     0.049 A 
ATOM     46  H   UNL A   1      44.998  26.916  27.439  1.00  0.00     0.167 HD
ATOM     47  C   UNL A   1      41.212  28.526  28.924  1.00  0.00     0.037 A 
ATOM     48  C   UNL A   1      47.692  27.061  26.725  1.00  0.00     0.037 A 
ATOM     49  C   UNL A   1      42.150  29.613  29.031  1.00  0.00     0.049 A 
ATOM     50  C   UNL A   1      47.305  28.439  27.187  1.00  0.00     0.074 A 
ATOM     51  C   UNL A   1      41.947  30.884  29.540  1.00  0.00     0.029 A 
ATOM     52  N   UNL A   1      43.472  29.560  28.608  1.00  0.00    -0.354 N 
ATOM     53  N   UNL A   1      46.158  28.862  27.661  1.00  0.00    -0.248 NA
ATOM     54  C   UNL A   1      48.342  29.478  27.109  1.00  0.00     0.031 C 
ATOM     55  C   UNL A   1      43.126  31.618  29.369  1.00  0.00     0.029 A 
ATOM     56  C   UNL A   1      44.083  30.789  28.806  1.00  0.00     0.049 A 
ATOM     57  H   UNL A   1      43.909  28.767  28.222  1.00  0.00     0.167 HD
ATOM     58  C   UNL A   1      46.342  30.205  27.963  1.00  0.00     0.074 A 
ATOM     59  C   UNL A   1      47.716  30.523  27.631  1.00  0.00     0.031 C 
ATOM     60  C   UNL A   1      45.451  31.094  28.469  1.00  0.00     0.037 A 
BRANCH  47  61
ATOM     61  C   UNL A   1      39.788  28.760  29.343  1.00  0.00     0.064 A 
ATOM     62  C   UNL A   1      38.831  29.272  28.452  1.00  0.00     0.173 A 
ATOM     63  C   UNL A   1      39.372  28.469  30.651  1.00  0.00     0.173 A 
ATOM     64  F   UNL A   1      39.177  29.576  27.191  1.00  0.00    -0.203 F 
ATOM     65  C   UNL A   1      37.527  29.527  28.867  1.00  0.00     0.198 A 
ATOM     66  C   UNL A   1      38.057  28.693  31.053  1.00  0.00     0.198 A 
ATOM     67  F   UNL A   1      40.241  27.969  31.542  1.00  0.00    -0.203 F 
ATOM     68  F   UNL A   1      36.651  30.081  28.016  1.00  0.00    -0.200 F 
ATOM     69  C   UNL A   1      37.140  29.234  30.165  1.00  0.00     0.200 A 
ATOM     70  F   UNL A   1      37.681  28.393  32.304  1.00  0.00    -0.200 F 
ATOM     71  F   UNL A   1      35.885  29.484  30.564  1.00  0.00    -0.200 F 
ENDBRANCH  47  61
BRANCH  48  72
ATOM     72  C   UNL A   1      49.085  26.765  26.298  1.00  0.00     0.064 A 
ATOM     73  C   UNL A   1      50.024  26.274  27.217  1.00  0.00     0.173 A 
ATOM     74  C   UNL A   1      49.507  26.958  24.975  1.00  0.00     0.173 A 
ATOM     75  F   UNL A   1      49.674  26.094  28.498  1.00  0.00    -0.203 F 
ATOM     76  C   UNL A   1      51.334  25.999  26.829  1.00  0.00     0.198 A 
ATOM     77  C   UNL A   1      50.809  26.656  24.582  1.00  0.00     0.198 A 
ATOM     78  F   UNL A   1      48.646  27.424  24.056  1.00  0.00    -0.203 F 
ATOM     79  F   UNL A   1      52.220  25.566  27.736  1.00  0.00    -0.200 F 
ATOM     80  C   UNL A   1      51.723  26.183  25.512  1.00  0.00     0.200 A 
ATOM     81  F   UNL A   1      51.177  26.821  23.305  1.00  0.00    -0.200 F 
ATOM     82  F   UNL A   1      52.981  25.910  25.139  1.00  0.00    -0.200 F 
ENDBRANCH  48  72
BRANCH  60  83
ATOM     83  C   UNL A   1      45.940  32.493  28.718  1.00  0.00     0.064 A 
ATOM     84  C   UNL A   1      46.566  32.850  29.921  1.00  0.00     0.173 A 
ATOM     85  C   UNL A   1      45.820  33.476  27.724  1.00  0.00     0.173 A 
ATOM     86  F   UNL A   1      46.689  31.953  30.911  1.00  0.00    -0.203 F 
ATOM     87  C   UNL A   1      47.032  34.146  30.129  1.00  0.00     0.198 A 
ATOM     88  C   UNL A   1      46.316  34.761  27.923  1.00  0.00     0.198 A 
ATOM     89  F   UNL A   1      45.233  33.185  26.552  1.00  0.00    -0.203 F 
ATOM     90  F   UNL A   1      47.583  34.478  31.305  1.00  0.00    -0.200 F 
ATOM     91  C   UNL A   1      46.915  35.097  29.126  1.00  0.00     0.200 A 
ATOM     92  F   UNL A   1      46.215  35.675  26.947  1.00  0.00    -0.200 F 
ATOM     93  F   UNL A   1      47.374  36.340  29.323  1.00  0.00    -0.200 F 
ENDBRANCH  60  83
ENDBRANCH  34  35
ENDBRANCH  26  29
ENDBRANCH  24  25
ENDBRANCH  23  24
ENDBRANCH   1  23
TORSDOF 14
ENDMDL
MODEL 3
REMARK VINA RESULT:     -12.2      1.321      2.474
REMARK SMILES Cc1cc(C(=O)N[C@](C)(C(=O)NCCCCNC(=O)c2ccc(-c3c4nc(c(-c5c(F)c(F)c(F)c(F)c5F)c5ccc([nH]5)c(-c5c(F)c(F)c(F)c(F)c5F)c5nc(c(-c6c(F)c(F)c(F)c(F)c6F)c6ccc3[nH]6)C=C5)C=C4)cc2)C(F)(F)F)no1
REMARK SMILES IDX 14 1 13 2 12 3 10 4 11 5 8 7 9 8 7 9 5 10 6 11 4 13 1 14
REMARK SMILES IDX 2 15 3 16 88 17 87 18 83 19 84 20 85 21 86 22 15 23 16 24
REMARK SMILES IDX 17 25 18 26 19 28 20 29 21 30 82 31 22 32 81 33 23 34 24 35
REMARK SMILES IDX 25 36 75 37 26 38 80 39 74 40 76 41 27 42 79 43 73 44 72 45
REMARK SMILES IDX 28 47 60 48 40 49 59 50 41 51 44 52 58 53 77 54 42 55 43 56
REMARK SMILES IDX 57 58 78 59 45 60 29 61 30 62 38 63 31 64 32 65 36 66 39 67
REMARK SMILES IDX 33 68 34 69 37 70 35 71 61 72 62 73 70 74 63 75 64 76 68 77
REMARK SMILES IDX 71 78 65 79 66 80 69 81 67 82 46 83 47 84 55 85 48 86 49 87
REMARK SMILES IDX 53 88 56 89 50 90 51 91 54 92 52 93
REMARK H PARENT 12 6 7 12 17 27 76 46 44 57
REMARK Flexibility Score: inf
ROOT
ATOM      1  C   UNL A   1      31.834  30.650  26.864  1.00  0.00     0.023 C 
ENDROOT
BRANCH   1   2
ATOM      2  C   UNL A   1      32.122  30.087  25.476  1.00  0.00     0.116 C 
BRANCH   2   3
ATOM      3  N   UNL A   1      30.911  30.010  24.676  1.00  0.00    -0.354 N 
ATOM      4  C   UNL A   1      30.451  29.016  23.860  1.00  0.00     0.254 C 
ATOM      5  O   UNL A   1      29.392  29.244  23.272  1.00  0.00    -0.272 OA
ATOM      6  H   UNL A   1      30.329  30.803  24.731  1.00  0.00     0.163 HD
BRANCH   4   7
ATOM      7  C   UNL A   1      31.273  27.741  23.615  1.00  0.00     0.212 C 
ATOM      8  C   UNL A   1      30.525  26.942  22.511  1.00  0.00     0.056 C 
BRANCH   7   9
ATOM      9  N   UNL A   1      32.683  27.986  23.145  1.00  0.00    -0.329 N 
ATOM     10  C   UNL A   1      33.521  27.222  22.351  1.00  0.00     0.274 C 
ATOM     11  O   UNL A   1      34.284  27.839  21.607  1.00  0.00    -0.267 OA
ATOM     12  H   UNL A   1      33.075  28.834  23.454  1.00  0.00     0.165 HD
BRANCH  10  13
ATOM     13  C   UNL A   1      33.647  25.782  22.581  1.00  0.00     0.171 A 
ATOM     14  C   UNL A   1      35.096  22.606  23.667  1.00  0.00     0.091 C 
ATOM     15  C   UNL A   1      34.352  23.787  23.194  1.00  0.00     0.134 A 
ATOM     16  C   UNL A   1      34.140  25.051  23.691  1.00  0.00     0.082 A 
ATOM     17  O   UNL A   1      33.798  23.697  21.960  1.00  0.00    -0.361 OA
ATOM     18  N   UNL A   1      33.342  24.940  21.576  1.00  0.00    -0.074 NA
ENDBRANCH  10  13
ENDBRANCH   7   9
BRANCH   7  19
ATOM     19  C   UNL A   1      31.259  26.888  24.903  1.00  0.00     0.420 C 
ATOM     20  F   UNL A   1      31.087  25.569  24.677  1.00  0.00    -0.168 F 
ATOM     21  F   UNL A   1      32.458  27.016  25.536  1.00  0.00    -0.168 F 
ATOM     22  F   UNL A   1      30.317  27.300  25.779  1.00  0.00    -0.168 F 
ENDBRANCH   7  19
ENDBRANCH   4   7
ENDBRANCH   2   3
ENDBRANCH   1   2
BRANCH   1  23
ATOM     23  C   UNL A   1      31.615  32.165  26.896  1.00  0.00     0.023 C 
BRANCH  23  24
ATOM     24  C   UNL A   1      32.854  32.982  27.250  1.00  0.00     0.116 C 
BRANCH  24  25
ATOM     25  N   UNL A   1      32.526  34.330  27.685  1.00  0.00    -0.352 N 
ATOM     26  C   UNL A   1      33.049  35.069  28.716  1.00  0.00     0.251 C 
ATOM     27  H   UNL A   1      31.826  34.781  27.162  1.00  0.00     0.163 HD
ATOM     28  O   UNL A   1      32.531  36.135  29.038  1.00  0.00    -0.269 OA
BRANCH  26  29
ATOM     29  C   UNL A   1      34.215  34.563  29.470  1.00  0.00     0.039 A 
ATOM     30  C   UNL A   1      34.004  33.986  30.724  1.00  0.00     0.014 A 
ATOM     31  C   UNL A   1      35.506  34.649  28.942  1.00  0.00     0.014 A 
ATOM     32  C   UNL A   1      35.077  33.425  31.416  1.00  0.00     0.010 A 
ATOM     33  C   UNL A   1      36.563  34.023  29.598  1.00  0.00     0.010 A 
ATOM     34  C   UNL A   1      36.358  33.401  30.840  1.00  0.00    -0.014 A 
BRANCH  34  35
ATOM     35  C   UNL A   1      37.487  32.714  31.517  1.00  0.00     0.031 A 
ATOM     36  C   UNL A   1      38.173  31.552  30.861  1.00  0.00     0.074 A 
ATOM     37  C   UNL A   1      37.862  33.111  32.749  1.00  0.00     0.049 A 
ATOM     38  N   UNL A   1      39.150  30.805  31.312  1.00  0.00    -0.248 NA
ATOM     39  C   UNL A   1      37.682  31.162  29.532  1.00  0.00     0.031 C 
ATOM     40  C   UNL A   1      37.256  34.208  33.503  1.00  0.00     0.029 A 
ATOM     41  N   UNL A   1      38.841  32.634  33.584  1.00  0.00    -0.354 N 
ATOM     42  C   UNL A   1      39.387  29.858  30.324  1.00  0.00     0.074 A 
ATOM     43  C   UNL A   1      38.410  30.085  29.280  1.00  0.00     0.031 C 
ATOM     44  C   UNL A   1      37.900  34.346  34.673  1.00  0.00     0.029 A 
ATOM     45  C   UNL A   1      38.932  33.318  34.771  1.00  0.00     0.049 A 
ATOM     46  H   UNL A   1      39.423  31.874  33.354  1.00  0.00     0.167 HD
ATOM     47  C   UNL A   1      40.348  28.903  30.279  1.00  0.00     0.037 A 
ATOM     48  C   UNL A   1      39.753  33.134  35.823  1.00  0.00     0.037 A 
ATOM     49  C   UNL A   1      41.318  28.681  31.320  1.00  0.00     0.049 A 
ATOM     50  C   UNL A   1      40.767  32.023  35.778  1.00  0.00     0.074 A 
ATOM     51  C   UNL A   1      42.362  27.773  31.349  1.00  0.00     0.029 A 
ATOM     52  N   UNL A   1      41.353  29.368  32.526  1.00  0.00    -0.354 N 
ATOM     53  N   UNL A   1      41.029  31.179  34.810  1.00  0.00    -0.248 NA
ATOM     54  C   UNL A   1      41.596  31.837  36.977  1.00  0.00     0.031 C 
ATOM     55  C   UNL A   1      42.991  27.870  32.596  1.00  0.00     0.029 A 
ATOM     56  C   UNL A   1      42.377  28.877  33.322  1.00  0.00     0.049 A 
ATOM     57  H   UNL A   1      40.741  30.097  32.778  1.00  0.00     0.167 HD
ATOM     58  C   UNL A   1      42.069  30.382  35.270  1.00  0.00     0.074 A 
ATOM     59  C   UNL A   1      42.399  30.853  36.600  1.00  0.00     0.031 C 
ATOM     60  C   UNL A   1      42.693  29.352  34.646  1.00  0.00     0.037 A 
BRANCH  47  61
ATOM     61  C   UNL A   1      40.379  28.019  29.065  1.00  0.00     0.064 A 
ATOM     62  C   UNL A   1      41.136  28.352  27.929  1.00  0.00     0.173 A 
ATOM     63  C   UNL A   1      39.647  26.823  29.032  1.00  0.00     0.173 A 
ATOM     64  F   UNL A   1      41.849  29.489  27.902  1.00  0.00    -0.203 F 
ATOM     65  C   UNL A   1      41.119  27.547  26.793  1.00  0.00     0.198 A 
ATOM     66  C   UNL A   1      39.661  26.001  27.908  1.00  0.00     0.198 A 
ATOM     67  F   UNL A   1      38.915  26.449  30.093  1.00  0.00    -0.203 F 
ATOM     68  F   UNL A   1      41.794  27.923  25.697  1.00  0.00    -0.200 F 
ATOM     69  C   UNL A   1      40.386  26.371  26.785  1.00  0.00     0.200 A 
ATOM     70  F   UNL A   1      38.964  24.857  27.907  1.00  0.00    -0.200 F 
ATOM     71  F   UNL A   1      40.368  25.599  25.690  1.00  0.00    -0.200 F 
ENDBRANCH  47  61
BRANCH  48  72
ATOM     72  C   UNL A   1      39.672  34.043  36.995  1.00  0.00     0.064 A 
ATOM     73  C   UNL A   1      40.380  35.253  37.011  1.00  0.00     0.173 A 
ATOM     74  C   UNL A   1      38.887  33.732  38.115  1.00  0.00     0.173 A 
ATOM     75  F   UNL A   1      41.162  35.584  35.973  1.00  0.00    -0.203 F 
ATOM     76  C   UNL A   1      40.316  36.111  38.107  1.00  0.00     0.198 A 
ATOM     77  C   UNL A   1      38.802  34.603  39.199  1.00  0.00     0.198 A 
ATOM     78  F   UNL A   1      38.187  32.588  38.149  1.00  0.00    -0.203 F 
ATOM     79  F   UNL A   1      41.034  37.242  38.111  1.00  0.00    -0.200 F 
ATOM     80  C   UNL A   1      39.522  35.789  39.196  1.00  0.00     0.200 A 
ATOM     81  F   UNL A   1      38.021  34.296  40.243  1.00  0.00    -0.200 F 
ATOM     82  F   UNL A   1      39.454  36.618  40.247  1.00  0.00    -0.200 F 
ENDBRANCH  48  72
BRANCH  60  83
ATOM     83  C   UNL A   1      43.814  28.677  35.385  1.00  0.00     0.064 A 
ATOM     84  C   UNL A   1      43.577  27.614  36.268  1.00  0.00     0.173 A 
ATOM     85  C   UNL A   1      45.145  29.069  35.173  1.00  0.00     0.173 A 
ATOM     86  F   UNL A   1      42.322  27.212  36.521  1.00  0.00    -0.203 F 
ATOM     87  C   UNL A   1      44.628  26.985  36.931  1.00  0.00     0.198 A 
ATOM     88  C   UNL A   1      46.195  28.417  35.812  1.00  0.00     0.198 A 
ATOM     89  F   UNL A   1      45.427  30.078  34.334  1.00  0.00    -0.203 F 
ATOM     90  F   UNL A   1      44.374  26.003  37.807  1.00  0.00    -0.200 F 
ATOM     91  C   UNL A   1      45.936  27.380  36.694  1.00  0.00     0.200 A 
ATOM     92  F   UNL A   1      47.459  28.792  35.572  1.00  0.00    -0.200 F 
ATOM     93  F   UNL A   1      46.947  26.767  37.324  1.00  0.00    -0.200 F 
ENDBRANCH  60  83
ENDBRANCH  34  35
ENDBRANCH  26  29
ENDBRANCH  24  25
ENDBRANCH  23  24
ENDBRANCH   1  23
TORSDOF 14
ENDMDL
