MODEL 1
REMARK VINA RESULT:     -11.6      0.000      0.000
REMARK SMILES Cn1cc(SCC[C@H]2CCC[C@]2([NH2+]C2CC2)C(=O)NCCCCNC(=O)c2ccc(-c3c4nc(c(-c5c(F)c(F)c(F)c(F)c5F)c5ccc([nH]5)c(-c5c(F)c(F)c(F)c(F)c5F)c5nc(c(-c6c(F)c(F)c(F)c(F)c6F)c6ccc3[nH]6)C=C5)C=C4)cc2)cn1
REMARK SMILES IDX 20 1 19 2 17 3 18 4 12 6 8 7 9 8 10 9 11 10 7 11 6 12 5 13
REMARK SMILES IDX 4 14 1 15 2 16 3 17 91 18 90 19 13 20 14 23 15 24 16 25
REMARK SMILES IDX 21 26 22 27 23 28 24 29 25 30 26 32 27 33 28 34 89 35 29 36
REMARK SMILES IDX 88 37 30 38 31 39 32 40 82 41 33 42 87 43 81 44 83 45 34 46
REMARK SMILES IDX 86 47 80 48 79 49 35 51 67 52 47 53 66 54 48 55 51 56 65 57
REMARK SMILES IDX 84 58 49 59 50 60 64 62 85 63 52 64 36 65 37 66 45 67 38 68
REMARK SMILES IDX 39 69 43 70 46 71 40 72 41 73 44 74 42 75 68 76 69 77 77 78
REMARK SMILES IDX 70 79 71 80 75 81 78 82 72 83 73 84 76 85 74 86 53 87 54 88
REMARK SMILES IDX 62 89 55 90 56 91 60 92 63 93 57 94 58 95 61 96 59 97
REMARK H PARENT 19 5 13 21 13 22 24 31 83 50 51 61
REMARK Flexibility Score: inf
ROOT
ATOM      1  C   UNL A   1      36.406  21.583  25.447  1.00  0.00     0.116 C 
ENDROOT
BRANCH   1   2
ATOM      2  N   UNL A   1      35.487  21.558  26.575  1.00  0.00    -0.351 N 
ATOM      3  C   UNL A   1      34.115  21.603  26.590  1.00  0.00     0.281 C 
ATOM      4  O   UNL A   1      33.565  21.630  27.696  1.00  0.00    -0.268 OA
ATOM      5  H   UNL A   1      35.913  21.499  27.460  1.00  0.00     0.163 HD
BRANCH   3   6
ATOM      6  C   UNL A   1      33.301  21.715  25.246  1.00  0.00     0.178 C 
ATOM      7  C   UNL A   1      33.678  23.144  24.690  1.00  0.00     0.061 C 
ATOM      8  C   UNL A   1      32.734  24.006  25.526  1.00  0.00     0.011 C 
ATOM      9  C   UNL A   1      31.442  23.274  25.724  1.00  0.00     0.008 C 
ATOM     10  C   UNL A   1      31.767  21.835  25.436  1.00  0.00     0.079 C 
BRANCH   7  11
ATOM     11  C   UNL A   1      33.582  23.464  23.190  1.00  0.00     0.022 C 
BRANCH  11  12
ATOM     12  C   UNL A   1      33.555  24.972  22.788  1.00  0.00     0.075 C 
BRANCH  12  13
ATOM     13  S   UNL A   1      32.075  25.776  22.069  1.00  0.00    -0.123 SA
BRANCH  13  14
ATOM     14  C   UNL A   1      31.478  27.072  23.073  1.00  0.00     0.045 A 
ATOM     15  C   UNL A   1      31.598  29.742  25.399  1.00  0.00     0.173 C 
ATOM     16  N   UNL A   1      31.160  28.701  24.495  1.00  0.00    -0.275 N 
ATOM     17  C   UNL A   1      31.649  27.420  24.396  1.00  0.00     0.123 A 
ATOM     18  N   UNL A   1      30.322  29.007  23.488  1.00  0.00    -0.181 NA
ATOM     19  C   UNL A   1      30.517  28.005  22.624  1.00  0.00     0.150 A 
ENDBRANCH  13  14
ENDBRANCH  12  13
ENDBRANCH  11  12
ENDBRANCH   7  11
BRANCH   6  20
ATOM     20  N   UNL A   1      33.555  20.501  24.440  1.00  0.00    -0.331 N 
ATOM     21  H   UNL A   1      34.285  19.971  24.915  1.00  0.00     0.347 HD
ATOM     22  H   UNL A   1      33.787  20.863  23.515  1.00  0.00     0.347 HD
BRANCH  20  23
ATOM     23  C   UNL A   1      32.426  19.557  24.184  1.00  0.00     0.183 C 
ATOM     24  C   UNL A   1      32.364  18.475  23.135  1.00  0.00     0.071 C 
ATOM     25  C   UNL A   1      32.533  18.102  24.576  1.00  0.00     0.071 C 
ENDBRANCH  20  23
ENDBRANCH   6  20
ENDBRANCH   3   6
ENDBRANCH   1   2
BRANCH   1  26
ATOM     26  C   UNL A   1      36.850  20.177  25.036  1.00  0.00     0.023 C 
BRANCH  26  27
ATOM     27  C   UNL A   1      38.336  20.034  24.707  1.00  0.00     0.023 C 
BRANCH  27  28
ATOM     28  C   UNL A   1      39.281  20.171  25.895  1.00  0.00     0.116 C 
BRANCH  28  29
ATOM     29  N   UNL A   1      40.279  19.113  25.958  1.00  0.00    -0.352 N 
ATOM     30  C   UNL A   1      41.633  19.211  26.153  1.00  0.00     0.251 C 
ATOM     31  H   UNL A   1      39.933  18.198  25.841  1.00  0.00     0.163 HD
ATOM     32  O   UNL A   1      42.349  18.216  26.041  1.00  0.00    -0.269 OA
BRANCH  30  33
ATOM     33  C   UNL A   1      42.240  20.520  26.470  1.00  0.00     0.039 A 
ATOM     34  C   UNL A   1      42.693  21.326  25.422  1.00  0.00     0.014 A 
ATOM     35  C   UNL A   1      42.349  20.959  27.792  1.00  0.00     0.014 A 
ATOM     36  C   UNL A   1      43.188  22.603  25.696  1.00  0.00     0.010 A 
ATOM     37  C   UNL A   1      42.766  22.261  28.055  1.00  0.00     0.010 A 
ATOM     38  C   UNL A   1      43.192  23.095  27.011  1.00  0.00    -0.014 A 
BRANCH  38  39
ATOM     39  C   UNL A   1      43.628  24.484  27.310  1.00  0.00     0.031 A 
ATOM     40  C   UNL A   1      42.629  25.511  27.764  1.00  0.00     0.074 A 
ATOM     41  C   UNL A   1      44.912  24.838  27.104  1.00  0.00     0.049 A 
ATOM     42  N   UNL A   1      42.804  26.786  28.012  1.00  0.00    -0.248 NA
ATOM     43  C   UNL A   1      41.242  25.053  27.934  1.00  0.00     0.031 C 
ATOM     44  C   UNL A   1      45.964  23.948  26.609  1.00  0.00     0.029 A 
ATOM     45  N   UNL A   1      45.547  26.044  27.268  1.00  0.00    -0.354 N 
ATOM     46  C   UNL A   1      41.552  27.281  28.348  1.00  0.00     0.074 A 
ATOM     47  C   UNL A   1      40.616  26.186  28.219  1.00  0.00     0.031 C 
ATOM     48  C   UNL A   1      47.115  24.632  26.528  1.00  0.00     0.029 A 
ATOM     49  C   UNL A   1      46.876  26.016  26.922  1.00  0.00     0.049 A 
ATOM     50  H   UNL A   1      45.093  26.851  27.602  1.00  0.00     0.167 HD
ATOM     51  C   UNL A   1      41.216  28.531  28.747  1.00  0.00     0.037 A 
ATOM     52  C   UNL A   1      47.797  27.001  26.910  1.00  0.00     0.037 A 
ATOM     53  C   UNL A   1      42.156  29.612  28.892  1.00  0.00     0.049 A 
ATOM     54  C   UNL A   1      47.400  28.381  27.358  1.00  0.00     0.074 A 
ATOM     55  C   UNL A   1      41.932  30.893  29.365  1.00  0.00     0.029 A 
ATOM     56  N   UNL A   1      43.501  29.542  28.554  1.00  0.00    -0.354 N 
ATOM     57  N   UNL A   1      46.230  28.819  27.759  1.00  0.00    -0.248 NA
ATOM     58  C   UNL A   1      48.454  29.405  27.362  1.00  0.00     0.031 C 
ATOM     59  C   UNL A   1      43.123  31.617  29.252  1.00  0.00     0.029 A 
ATOM     60  C   UNL A   1      44.109  30.768  28.775  1.00  0.00     0.049 A 
ATOM     61  H   UNL A   1      43.955  28.740  28.210  1.00  0.00     0.167 HD
ATOM     62  C   UNL A   1      46.412  30.156  28.085  1.00  0.00     0.074 A 
ATOM     63  C   UNL A   1      47.809  30.454  27.853  1.00  0.00     0.031 C 
ATOM     64  C   UNL A   1      45.503  31.053  28.539  1.00  0.00     0.037 A 
BRANCH  51  65
ATOM     65  C   UNL A   1      39.768  28.802  29.045  1.00  0.00     0.064 A 
ATOM     66  C   UNL A   1      39.227  28.616  30.328  1.00  0.00     0.173 A 
ATOM     67  C   UNL A   1      38.914  29.280  28.040  1.00  0.00     0.173 A 
ATOM     68  F   UNL A   1      39.995  28.152  31.325  1.00  0.00    -0.203 F 
ATOM     69  C   UNL A   1      37.879  28.862  30.582  1.00  0.00     0.198 A 
ATOM     70  C   UNL A   1      37.575  29.560  28.306  1.00  0.00     0.198 A 
ATOM     71  F   UNL A   1      39.378  29.484  26.797  1.00  0.00    -0.203 F 
ATOM     72  F   UNL A   1      37.374  28.618  31.798  1.00  0.00    -0.200 F 
ATOM     73  C   UNL A   1      37.057  29.341  29.573  1.00  0.00     0.200 A 
ATOM     74  F   UNL A   1      36.786  30.038  27.334  1.00  0.00    -0.200 F 
ATOM     75  F   UNL A   1      35.762  29.581  29.820  1.00  0.00    -0.200 F 
ENDBRANCH  51  65
BRANCH  52  76
ATOM     76  C   UNL A   1      49.185  26.707  26.467  1.00  0.00     0.064 A 
ATOM     77  C   UNL A   1      50.153  26.251  27.372  1.00  0.00     0.173 A 
ATOM     78  C   UNL A   1      49.572  26.872  25.128  1.00  0.00     0.173 A 
ATOM     79  F   UNL A   1      49.838  26.097  28.667  1.00  0.00    -0.203 F 
ATOM     80  C   UNL A   1      51.458  25.989  26.960  1.00  0.00     0.198 A 
ATOM     81  C   UNL A   1      50.868  26.580  24.711  1.00  0.00     0.198 A 
ATOM     82  F   UNL A   1      48.683  27.302  24.221  1.00  0.00    -0.203 F 
ATOM     83  F   UNL A   1      52.375  25.598  27.856  1.00  0.00    -0.200 F 
ATOM     84  C   UNL A   1      51.813  26.146  25.629  1.00  0.00     0.200 A 
ATOM     85  F   UNL A   1      51.202  26.717  23.421  1.00  0.00    -0.200 F 
ATOM     86  F   UNL A   1      53.067  25.888  25.232  1.00  0.00    -0.200 F 
ENDBRANCH  52  76
BRANCH  64  87
ATOM     87  C   UNL A   1      45.994  32.439  28.845  1.00  0.00     0.064 A 
ATOM     88  C   UNL A   1      45.962  33.465  27.888  1.00  0.00     0.173 A 
ATOM     89  C   UNL A   1      46.466  32.757  30.128  1.00  0.00     0.173 A 
ATOM     90  F   UNL A   1      45.533  33.213  26.642  1.00  0.00    -0.203 F 
ATOM     91  C   UNL A   1      46.410  34.747  28.197  1.00  0.00     0.198 A 
ATOM     92  C   UNL A   1      46.879  34.048  30.444  1.00  0.00     0.198 A 
ATOM     93  F   UNL A   1      46.512  31.816  31.084  1.00  0.00    -0.203 F 
ATOM     94  F   UNL A   1      46.419  35.697  27.252  1.00  0.00    -0.200 F 
ATOM     95  C   UNL A   1      46.859  35.039  29.476  1.00  0.00     0.200 A 
ATOM     96  F   UNL A   1      47.297  34.332  31.685  1.00  0.00    -0.200 F 
ATOM     97  F   UNL A   1      47.281  36.276  29.774  1.00  0.00    -0.200 F 
ENDBRANCH  64  87
ENDBRANCH  38  39
ENDBRANCH  30  33
ENDBRANCH  28  29
ENDBRANCH  27  28
ENDBRANCH  26  27
ENDBRANCH   1  26
TORSDOF 17
ENDMDL
MODEL 2
REMARK VINA RESULT:     -11.6      1.722      3.888
REMARK SMILES Cn1cc(SCC[C@H]2CCC[C@]2([NH2+]C2CC2)C(=O)NCCCCNC(=O)c2ccc(-c3c4nc(c(-c5c(F)c(F)c(F)c(F)c5F)c5ccc([nH]5)c(-c5c(F)c(F)c(F)c(F)c5F)c5nc(c(-c6c(F)c(F)c(F)c(F)c6F)c6ccc3[nH]6)C=C5)C=C4)cc2)cn1
REMARK SMILES IDX 20 1 19 2 17 3 18 4 12 6 8 7 9 8 10 9 11 10 7 11 6 12 5 13
REMARK SMILES IDX 4 14 1 15 2 16 3 17 91 18 90 19 13 20 14 23 15 24 16 25
REMARK SMILES IDX 21 26 22 27 23 28 24 29 25 30 26 32 27 33 28 34 89 35 29 36
REMARK SMILES IDX 88 37 30 38 31 39 32 40 82 41 33 42 87 43 81 44 83 45 34 46
REMARK SMILES IDX 86 47 80 48 79 49 35 51 67 52 47 53 66 54 48 55 51 56 65 57
REMARK SMILES IDX 84 58 49 59 50 60 64 62 85 63 52 64 36 65 37 66 45 67 38 68
REMARK SMILES IDX 39 69 43 70 46 71 40 72 41 73 44 74 42 75 68 76 69 77 77 78
REMARK SMILES IDX 70 79 71 80 75 81 78 82 72 83 73 84 76 85 74 86 53 87 54 88
REMARK SMILES IDX 62 89 55 90 56 91 60 92 63 93 57 94 58 95 61 96 59 97
REMARK H PARENT 19 5 13 21 13 22 24 31 83 50 51 61
REMARK Flexibility Score: inf
ROOT
ATOM      1  C   UNL A   1      35.719  20.698  25.066  1.00  0.00     0.116 C 
ENDROOT
BRANCH   1   2
ATOM      2  N   UNL A   1      36.270  21.977  25.489  1.00  0.00    -0.351 N 
ATOM      3  C   UNL A   1      35.658  23.200  25.611  1.00  0.00     0.281 C 
ATOM      4  O   UNL A   1      36.370  24.156  25.936  1.00  0.00    -0.268 OA
ATOM      5  H   UNL A   1      37.225  21.963  25.725  1.00  0.00     0.163 HD
BRANCH   3   6
ATOM      6  C   UNL A   1      34.134  23.373  25.252  1.00  0.00     0.178 C 
ATOM      7  C   UNL A   1      33.992  22.672  23.843  1.00  0.00     0.061 C 
ATOM      8  C   UNL A   1      34.502  23.795  22.941  1.00  0.00     0.011 C 
ATOM      9  C   UNL A   1      34.059  25.114  23.497  1.00  0.00     0.008 C 
ATOM     10  C   UNL A   1      33.713  24.830  24.932  1.00  0.00     0.079 C 
BRANCH   7  11
ATOM     11  C   UNL A   1      32.643  22.111  23.366  1.00  0.00     0.022 C 
BRANCH  11  12
ATOM     12  C   UNL A   1      32.261  20.679  23.854  1.00  0.00     0.075 C 
BRANCH  12  13
ATOM     13  S   UNL A   1      32.416  19.198  22.788  1.00  0.00    -0.123 SA
BRANCH  13  14
ATOM     14  C   UNL A   1      32.951  17.798  23.682  1.00  0.00     0.045 A 
ATOM     15  C   UNL A   1      32.684  14.831  25.600  1.00  0.00     0.173 C 
ATOM     16  N   UNL A   1      33.176  16.001  24.906  1.00  0.00    -0.275 N 
ATOM     17  C   UNL A   1      32.636  17.266  24.913  1.00  0.00     0.123 A 
ATOM     18  N   UNL A   1      34.147  15.867  23.986  1.00  0.00    -0.181 NA
ATOM     19  C   UNL A   1      34.009  16.971  23.243  1.00  0.00     0.150 A 
ENDBRANCH  13  14
ENDBRANCH  12  13
ENDBRANCH  11  12
ENDBRANCH   7  11
BRANCH   6  20
ATOM     20  N   UNL A   1      33.324  22.920  26.404  1.00  0.00    -0.331 N 
ATOM     21  H   UNL A   1      33.922  22.966  27.228  1.00  0.00     0.347 HD
ATOM     22  H   UNL A   1      33.002  21.992  26.129  1.00  0.00     0.347 HD
BRANCH  20  23
ATOM     23  C   UNL A   1      32.066  23.656  26.733  1.00  0.00     0.183 C 
ATOM     24  C   UNL A   1      30.934  23.989  25.794  1.00  0.00     0.071 C 
ATOM     25  C   UNL A   1      30.748  22.923  26.830  1.00  0.00     0.071 C 
ENDBRANCH  20  23
ENDBRANCH   6  20
ENDBRANCH   3   6
ENDBRANCH   1   2
BRANCH   1  26
ATOM     26  C   UNL A   1      36.778  19.594  25.047  1.00  0.00     0.023 C 
BRANCH  26  27
ATOM     27  C   UNL A   1      38.192  20.054  24.690  1.00  0.00     0.023 C 
BRANCH  27  28
ATOM     28  C   UNL A   1      39.148  20.190  25.868  1.00  0.00     0.116 C 
BRANCH  28  29
ATOM     29  N   UNL A   1      40.134  19.120  25.931  1.00  0.00    -0.352 N 
ATOM     30  C   UNL A   1      41.490  19.202  26.120  1.00  0.00     0.251 C 
ATOM     31  H   UNL A   1      39.777  18.209  25.820  1.00  0.00     0.163 HD
ATOM     32  O   UNL A   1      42.194  18.198  26.009  1.00  0.00    -0.269 OA
BRANCH  30  33
ATOM     33  C   UNL A   1      42.115  20.505  26.428  1.00  0.00     0.039 A 
ATOM     34  C   UNL A   1      42.552  21.311  25.374  1.00  0.00     0.014 A 
ATOM     35  C   UNL A   1      42.254  20.939  27.749  1.00  0.00     0.014 A 
ATOM     36  C   UNL A   1      43.064  22.583  25.642  1.00  0.00     0.010 A 
ATOM     37  C   UNL A   1      42.688  22.236  28.008  1.00  0.00     0.010 A 
ATOM     38  C   UNL A   1      43.098  23.071  26.958  1.00  0.00    -0.014 A 
BRANCH  38  39
ATOM     39  C   UNL A   1      43.552  24.454  27.253  1.00  0.00     0.031 A 
ATOM     40  C   UNL A   1      42.582  25.476  27.776  1.00  0.00     0.074 A 
ATOM     41  C   UNL A   1      44.823  24.811  26.980  1.00  0.00     0.049 A 
ATOM     42  N   UNL A   1      42.771  26.746  28.032  1.00  0.00    -0.248 NA
ATOM     43  C   UNL A   1      41.205  25.015  28.016  1.00  0.00     0.031 C 
ATOM     44  C   UNL A   1      45.845  23.928  26.415  1.00  0.00     0.029 A 
ATOM     45  N   UNL A   1      45.468  26.014  27.126  1.00  0.00    -0.354 N 
ATOM     46  C   UNL A   1      41.540  27.237  28.444  1.00  0.00     0.074 A 
ATOM     47  C   UNL A   1      40.597  26.144  28.351  1.00  0.00     0.031 C 
ATOM     48  C   UNL A   1      46.991  24.613  26.280  1.00  0.00     0.029 A 
ATOM     49  C   UNL A   1      46.776  25.991  26.707  1.00  0.00     0.049 A 
ATOM     50  H   UNL A   1      45.034  26.816  27.497  1.00  0.00     0.167 HD
ATOM     51  C   UNL A   1      41.229  28.481  28.879  1.00  0.00     0.037 A 
ATOM     52  C   UNL A   1      47.695  26.975  26.658  1.00  0.00     0.037 A 
ATOM     53  C   UNL A   1      42.177  29.559  28.988  1.00  0.00     0.049 A 
ATOM     54  C   UNL A   1      47.326  28.349  27.147  1.00  0.00     0.074 A 
ATOM     55  C   UNL A   1      41.981  30.834  29.491  1.00  0.00     0.029 A 
ATOM     56  N   UNL A   1      43.500  29.494  28.575  1.00  0.00    -0.354 N 
ATOM     57  N   UNL A   1      46.180  28.781  27.619  1.00  0.00    -0.248 NA
ATOM     58  C   UNL A   1      48.379  29.372  27.108  1.00  0.00     0.031 C 
ATOM     59  C   UNL A   1      43.164  31.559  29.322  1.00  0.00     0.029 A 
ATOM     60  C   UNL A   1      44.122  30.716  28.780  1.00  0.00     0.049 A 
ATOM     61  H   UNL A   1      43.934  28.697  28.194  1.00  0.00     0.167 HD
ATOM     62  C   UNL A   1      46.381  30.113  27.954  1.00  0.00     0.074 A 
ATOM     63  C   UNL A   1      47.765  30.414  27.649  1.00  0.00     0.031 C 
ATOM     64  C   UNL A   1      45.500  31.005  28.470  1.00  0.00     0.037 A 
BRANCH  51  65
ATOM     65  C   UNL A   1      39.800  28.748  29.261  1.00  0.00     0.064 A 
ATOM     66  C   UNL A   1      38.864  29.240  28.337  1.00  0.00     0.173 A 
ATOM     67  C   UNL A   1      39.352  28.482  30.564  1.00  0.00     0.173 A 
ATOM     68  F   UNL A   1      39.238  29.520  27.080  1.00  0.00    -0.203 F 
ATOM     69  C   UNL A   1      37.546  29.490  28.713  1.00  0.00     0.198 A 
ATOM     70  C   UNL A   1      38.025  28.699  30.928  1.00  0.00     0.198 A 
ATOM     71  F   UNL A   1      40.201  28.003  31.487  1.00  0.00    -0.203 F 
ATOM     72  F   UNL A   1      36.688  30.017  27.830  1.00  0.00    -0.200 F 
ATOM     73  C   UNL A   1      37.127  29.213  30.006  1.00  0.00     0.200 A 
ATOM     74  F   UNL A   1      37.618  28.415  32.173  1.00  0.00    -0.200 F 
ATOM     75  F   UNL A   1      35.858  29.450  30.365  1.00  0.00    -0.200 F 
ENDBRANCH  51  65
BRANCH  52  76
ATOM     76  C   UNL A   1      49.056  26.688  26.134  1.00  0.00     0.064 A 
ATOM     77  C   UNL A   1      49.396  26.973  24.804  1.00  0.00     0.173 A 
ATOM     78  C   UNL A   1      50.048  26.126  26.953  1.00  0.00     0.173 A 
ATOM     79  F   UNL A   1      48.477  27.492  23.975  1.00  0.00    -0.203 F 
ATOM     80  C   UNL A   1      50.668  26.691  24.308  1.00  0.00     0.198 A 
ATOM     81  C   UNL A   1      51.328  25.874  26.466  1.00  0.00     0.198 A 
ATOM     82  F   UNL A   1      49.776  25.838  28.234  1.00  0.00    -0.203 F 
ATOM     83  F   UNL A   1      50.951  26.932  23.021  1.00  0.00    -0.200 F 
ATOM     84  C   UNL A   1      51.635  26.149  25.141  1.00  0.00     0.200 A 
ATOM     85  F   UNL A   1      52.264  25.365  27.278  1.00  0.00    -0.200 F 
ATOM     86  F   UNL A   1      52.860  25.884  24.666  1.00  0.00    -0.200 F 
ENDBRANCH  52  76
BRANCH  64  87
ATOM     87  C   UNL A   1      46.010  32.386  28.769  1.00  0.00     0.064 A 
ATOM     88  C   UNL A   1      45.932  33.423  27.828  1.00  0.00     0.173 A 
ATOM     89  C   UNL A   1      46.546  32.686  30.031  1.00  0.00     0.173 A 
ATOM     90  F   UNL A   1      45.441  33.188  26.602  1.00  0.00    -0.203 F 
ATOM     91  C   UNL A   1      46.397  34.701  28.129  1.00  0.00     0.198 A 
ATOM     92  C   UNL A   1      46.978  33.972  30.341  1.00  0.00     0.198 A 
ATOM     93  F   UNL A   1      46.638  31.733  30.970  1.00  0.00    -0.203 F 
ATOM     94  F   UNL A   1      46.362  35.663  27.198  1.00  0.00    -0.200 F 
ATOM     95  C   UNL A   1      46.911  34.976  29.388  1.00  0.00     0.200 A 
ATOM     96  F   UNL A   1      47.458  34.240  31.563  1.00  0.00    -0.200 F 
ATOM     97  F   UNL A   1      47.350  36.208  29.680  1.00  0.00    -0.200 F 
ENDBRANCH  64  87
ENDBRANCH  38  39
ENDBRANCH  30  33
ENDBRANCH  28  29
ENDBRANCH  27  28
ENDBRANCH  26  27
ENDBRANCH   1  26
TORSDOF 17
ENDMDL
MODEL 3
REMARK VINA RESULT:     -11.5      0.968      2.610
REMARK SMILES Cn1cc(SCC[C@H]2CCC[C@]2([NH2+]C2CC2)C(=O)NCCCCNC(=O)c2ccc(-c3c4nc(c(-c5c(F)c(F)c(F)c(F)c5F)c5ccc([nH]5)c(-c5c(F)c(F)c(F)c(F)c5F)c5nc(c(-c6c(F)c(F)c(F)c(F)c6F)c6ccc3[nH]6)C=C5)C=C4)cc2)cn1
REMARK SMILES IDX 20 1 19 2 17 3 18 4 12 6 8 7 9 8 10 9 11 10 7 11 6 12 5 13
REMARK SMILES IDX 4 14 1 15 2 16 3 17 91 18 90 19 13 20 14 23 15 24 16 25
REMARK SMILES IDX 21 26 22 27 23 28 24 29 25 30 26 32 27 33 28 34 89 35 29 36
REMARK SMILES IDX 88 37 30 38 31 39 32 40 82 41 33 42 87 43 81 44 83 45 34 46
REMARK SMILES IDX 86 47 80 48 79 49 35 51 67 52 47 53 66 54 48 55 51 56 65 57
REMARK SMILES IDX 84 58 49 59 50 60 64 62 85 63 52 64 36 65 37 66 45 67 38 68
REMARK SMILES IDX 39 69 43 70 46 71 40 72 41 73 44 74 42 75 68 76 69 77 77 78
REMARK SMILES IDX 70 79 71 80 75 81 78 82 72 83 73 84 76 85 74 86 53 87 54 88
REMARK SMILES IDX 62 89 55 90 56 91 60 92 63 93 57 94 58 95 61 96 59 97
REMARK H PARENT 19 5 13 21 13 22 24 31 83 50 51 61
REMARK Flexibility Score: inf
ROOT
ATOM      1  C   UNL A   1      36.492  21.657  25.435  1.00  0.00     0.116 C 
ENDROOT
BRANCH   1   2
ATOM      2  N   UNL A   1      35.620  21.780  26.594  1.00  0.00    -0.351 N 
ATOM      3  C   UNL A   1      34.340  22.269  26.681  1.00  0.00     0.281 C 
ATOM      4  O   UNL A   1      33.834  22.323  27.807  1.00  0.00    -0.268 OA
ATOM      5  H   UNL A   1      36.006  21.464  27.442  1.00  0.00     0.163 HD
BRANCH   3   6
ATOM      6  C   UNL A   1      33.604  22.824  25.404  1.00  0.00     0.178 C 
ATOM      7  C   UNL A   1      32.076  22.552  25.697  1.00  0.00     0.061 C 
ATOM      8  C   UNL A   1      31.994  21.078  25.306  1.00  0.00     0.011 C 
ATOM      9  C   UNL A   1      32.889  20.828  24.131  1.00  0.00     0.008 C 
ATOM     10  C   UNL A   1      33.840  21.992  24.117  1.00  0.00     0.079 C 
BRANCH   7  11
ATOM     11  C   UNL A   1      30.976  23.393  25.029  1.00  0.00     0.022 C 
BRANCH  11  12
ATOM     12  C   UNL A   1      30.550  24.706  25.755  1.00  0.00     0.075 C 
BRANCH  12  13
ATOM     13  S   UNL A   1      30.316  26.293  24.871  1.00  0.00    -0.123 SA
BRANCH  13  14
ATOM     14  C   UNL A   1      31.200  27.598  25.617  1.00  0.00     0.045 A 
ATOM     15  C   UNL A   1      31.915  30.915  26.637  1.00  0.00     0.173 C 
ATOM     16  N   UNL A   1      31.991  29.499  26.352  1.00  0.00    -0.275 N 
ATOM     17  C   UNL A   1      31.589  28.855  25.205  1.00  0.00     0.123 A 
ATOM     18  N   UNL A   1      32.296  28.639  27.340  1.00  0.00    -0.181 NA
ATOM     19  C   UNL A   1      31.815  27.478  26.883  1.00  0.00     0.150 A 
ENDBRANCH  13  14
ENDBRANCH  12  13
ENDBRANCH  11  12
ENDBRANCH   7  11
BRANCH   6  20
ATOM     20  N   UNL A   1      34.089  24.196  25.139  1.00  0.00    -0.331 N 
ATOM     21  H   UNL A   1      35.013  24.276  25.563  1.00  0.00     0.347 HD
ATOM     22  H   UNL A   1      33.359  24.795  25.528  1.00  0.00     0.347 HD
BRANCH  20  23
ATOM     23  C   UNL A   1      34.215  24.655  23.724  1.00  0.00     0.183 C 
ATOM     24  C   UNL A   1      33.111  24.774  22.703  1.00  0.00     0.071 C 
ATOM     25  C   UNL A   1      33.701  26.013  23.304  1.00  0.00     0.071 C 
ENDBRANCH  20  23
ENDBRANCH   6  20
ENDBRANCH   3   6
ENDBRANCH   1   2
BRANCH   1  26
ATOM     26  C   UNL A   1      36.816  20.196  25.113  1.00  0.00     0.023 C 
BRANCH  26  27
ATOM     27  C   UNL A   1      38.272  19.921  24.733  1.00  0.00     0.023 C 
BRANCH  27  28
ATOM     28  C   UNL A   1      39.287  20.140  25.849  1.00  0.00     0.116 C 
BRANCH  28  29
ATOM     29  N   UNL A   1      40.275  19.074  25.939  1.00  0.00    -0.352 N 
ATOM     30  C   UNL A   1      41.628  19.163  26.152  1.00  0.00     0.251 C 
ATOM     31  H   UNL A   1      39.923  18.161  25.830  1.00  0.00     0.163 HD
ATOM     32  O   UNL A   1      42.337  18.162  26.063  1.00  0.00    -0.269 OA
BRANCH  30  33
ATOM     33  C   UNL A   1      42.241  20.472  26.459  1.00  0.00     0.039 A 
ATOM     34  C   UNL A   1      42.717  21.258  25.407  1.00  0.00     0.014 A 
ATOM     35  C   UNL A   1      42.332  20.930  27.776  1.00  0.00     0.014 A 
ATOM     36  C   UNL A   1      43.220  22.535  25.670  1.00  0.00     0.010 A 
ATOM     37  C   UNL A   1      42.757  22.231  28.027  1.00  0.00     0.010 A 
ATOM     38  C   UNL A   1      43.207  23.047  26.978  1.00  0.00    -0.014 A 
BRANCH  38  39
ATOM     39  C   UNL A   1      43.650  24.435  27.264  1.00  0.00     0.031 A 
ATOM     40  C   UNL A   1      42.670  25.455  27.772  1.00  0.00     0.074 A 
ATOM     41  C   UNL A   1      44.921  24.797  26.997  1.00  0.00     0.049 A 
ATOM     42  N   UNL A   1      42.851  26.729  28.018  1.00  0.00    -0.248 NA
ATOM     43  C   UNL A   1      41.295  24.989  28.007  1.00  0.00     0.031 C 
ATOM     44  C   UNL A   1      45.952  23.916  26.447  1.00  0.00     0.029 A 
ATOM     45  N   UNL A   1      45.558  26.006  27.137  1.00  0.00    -0.354 N 
ATOM     46  C   UNL A   1      41.614  27.216  28.418  1.00  0.00     0.074 A 
ATOM     47  C   UNL A   1      40.678  26.117  28.328  1.00  0.00     0.031 C 
ATOM     48  C   UNL A   1      47.094  24.606  26.314  1.00  0.00     0.029 A 
ATOM     49  C   UNL A   1      46.869  25.987  26.727  1.00  0.00     0.049 A 
ATOM     50  H   UNL A   1      45.117  26.808  27.498  1.00  0.00     0.167 HD
ATOM     51  C   UNL A   1      41.292  28.462  28.841  1.00  0.00     0.037 A 
ATOM     52  C   UNL A   1      47.782  26.976  26.676  1.00  0.00     0.037 A 
ATOM     53  C   UNL A   1      42.233  29.547  28.947  1.00  0.00     0.049 A 
ATOM     54  C   UNL A   1      47.401  28.352  27.151  1.00  0.00     0.074 A 
ATOM     55  C   UNL A   1      42.026  30.824  29.438  1.00  0.00     0.029 A 
ATOM     56  N   UNL A   1      43.560  29.485  28.543  1.00  0.00    -0.354 N 
ATOM     57  N   UNL A   1      46.250  28.781  27.611  1.00  0.00    -0.248 NA
ATOM     58  C   UNL A   1      48.449  29.380  27.110  1.00  0.00     0.031 C 
ATOM     59  C   UNL A   1      43.207  31.555  29.271  1.00  0.00     0.029 A 
ATOM     60  C   UNL A   1      44.173  30.713  28.742  1.00  0.00     0.049 A 
ATOM     61  H   UNL A   1      44.001  28.688  28.172  1.00  0.00     0.167 HD
ATOM     62  C   UNL A   1      46.441  30.117  27.936  1.00  0.00     0.074 A 
ATOM     63  C   UNL A   1      47.825  30.424  27.639  1.00  0.00     0.031 C 
ATOM     64  C   UNL A   1      45.551  31.007  28.439  1.00  0.00     0.037 A 
BRANCH  51  65
ATOM     65  C   UNL A   1      39.859  28.724  29.211  1.00  0.00     0.064 A 
ATOM     66  C   UNL A   1      38.933  29.226  28.282  1.00  0.00     0.173 A 
ATOM     67  C   UNL A   1      39.398  28.441  30.506  1.00  0.00     0.173 A 
ATOM     68  F   UNL A   1      39.320  29.522  27.033  1.00  0.00    -0.203 F 
ATOM     69  C   UNL A   1      37.611  29.472  28.648  1.00  0.00     0.198 A 
ATOM     70  C   UNL A   1      38.067  28.654  30.857  1.00  0.00     0.198 A 
ATOM     71  F   UNL A   1      40.236  27.952  31.431  1.00  0.00    -0.203 F 
ATOM     72  F   UNL A   1      36.762  30.009  27.762  1.00  0.00    -0.200 F 
ATOM     73  C   UNL A   1      37.178  29.178  29.933  1.00  0.00     0.200 A 
ATOM     74  F   UNL A   1      37.647  28.354  32.094  1.00  0.00    -0.200 F 
ATOM     75  F   UNL A   1      35.905  29.411  30.281  1.00  0.00    -0.200 F 
ENDBRANCH  51  65
BRANCH  52  76
ATOM     76  C   UNL A   1      49.149  26.692  26.164  1.00  0.00     0.064 A 
ATOM     77  C   UNL A   1      49.496  26.967  24.834  1.00  0.00     0.173 A 
ATOM     78  C   UNL A   1      50.138  26.144  26.994  1.00  0.00     0.173 A 
ATOM     79  F   UNL A   1      48.579  27.473  23.994  1.00  0.00    -0.203 F 
ATOM     80  C   UNL A   1      50.772  26.689  24.349  1.00  0.00     0.198 A 
ATOM     81  C   UNL A   1      51.422  25.895  26.518  1.00  0.00     0.198 A 
ATOM     82  F   UNL A   1      49.859  25.866  28.276  1.00  0.00    -0.203 F 
ATOM     83  F   UNL A   1      51.063  26.920  23.062  1.00  0.00    -0.200 F 
ATOM     84  C   UNL A   1      51.737  26.161  25.193  1.00  0.00     0.200 A 
ATOM     85  F   UNL A   1      52.356  25.400  27.341  1.00  0.00    -0.200 F 
ATOM     86  F   UNL A   1      52.967  25.898  24.729  1.00  0.00    -0.200 F 
ENDBRANCH  52  76
BRANCH  64  87
ATOM     87  C   UNL A   1      46.051  32.394  28.729  1.00  0.00     0.064 A 
ATOM     88  C   UNL A   1      46.612  32.734  29.969  1.00  0.00     0.173 A 
ATOM     89  C   UNL A   1      46.005  33.386  27.737  1.00  0.00     0.173 A 
ATOM     90  F   UNL A   1      46.668  31.828  30.957  1.00  0.00    -0.203 F 
ATOM     91  C   UNL A   1      47.083  34.023  30.214  1.00  0.00     0.198 A 
ATOM     92  C   UNL A   1      46.508  34.662  27.973  1.00  0.00     0.198 A 
ATOM     93  F   UNL A   1      45.485  33.113  26.531  1.00  0.00    -0.203 F 
ATOM     94  F   UNL A   1      47.566  34.340  31.422  1.00  0.00    -0.200 F 
ATOM     95  C   UNL A   1      47.038  34.982  29.213  1.00  0.00     0.200 A 
ATOM     96  F   UNL A   1      46.480  35.582  26.999  1.00  0.00    -0.200 F 
ATOM     97  F   UNL A   1      47.500  36.218  29.447  1.00  0.00    -0.200 F 
ENDBRANCH  64  87
ENDBRANCH  38  39
ENDBRANCH  30  33
ENDBRANCH  28  29
ENDBRANCH  27  28
ENDBRANCH  26  27
ENDBRANCH   1  26
TORSDOF 17
ENDMDL
