MODEL 1
REMARK VINA RESULT:     -11.4      0.000      0.000
REMARK SMILES CN(CC(C)(C)O)C(=O)N1CCCC[C@H]1CC(=O)NCCCCNC(=O)c1ccc(-c2c3nc(c(-c4c(F)c(F)c(F)c(F)c4F)c4ccc([nH]4)c(-c4c(F)c(F)c(F)c(F)c4F)c4nc(c(-c5c(F)c(F)c(F)c(F)c5F)c5ccc2[nH]5)C=C4)C=C3)cc1
REMARK SMILES IDX 17 1 18 2 19 3 16 5 15 6 10 7 11 8 12 9 14 10 13 11 8 12
REMARK SMILES IDX 9 13 2 14 1 15 3 16 4 17 5 18 6 19 7 20 20 22 21 23 22 24
REMARK SMILES IDX 23 25 24 26 25 27 26 29 27 30 28 31 89 32 29 33 88 34 30 35
REMARK SMILES IDX 31 36 32 37 82 38 33 39 87 40 81 41 83 42 34 43 86 44 80 45
REMARK SMILES IDX 79 46 35 48 67 49 47 50 66 51 48 52 51 53 65 54 84 55 49 56
REMARK SMILES IDX 50 57 64 59 85 60 52 61 36 62 37 63 45 64 38 65 39 66 43 67
REMARK SMILES IDX 46 68 40 69 41 70 44 71 42 72 68 73 69 74 77 75 70 76 71 77
REMARK SMILES IDX 75 78 78 79 72 80 73 81 76 82 74 83 53 84 54 85 62 86 55 87
REMARK SMILES IDX 56 88 60 89 63 90 57 91 58 92 61 93 59 94
REMARK H PARENT 19 4 7 21 24 28 83 47 51 58
REMARK Flexibility Score: inf
ROOT
ATOM      1  C   UNL A   1      30.580  24.297  26.305  1.00  0.00     0.222 C 
ATOM      2  O   UNL A   1      30.337  23.548  27.255  1.00  0.00    -0.275 OA
ATOM      3  N   UNL A   1      30.414  25.636  26.502  1.00  0.00    -0.356 N 
ATOM      4  H   UNL A   1      30.070  25.876  27.392  1.00  0.00     0.163 HD
ENDROOT
BRANCH   1   5
ATOM      5  C   UNL A   1      31.002  23.719  24.966  1.00  0.00     0.125 C 
BRANCH   5   6
ATOM      6  C   UNL A   1      32.535  23.586  24.844  1.00  0.00     0.096 C 
ATOM      7  N   UNL A   1      32.966  22.254  24.410  1.00  0.00    -0.321 N 
ATOM      8  C   UNL A   1      32.595  21.955  23.009  1.00  0.00     0.121 C 
ATOM      9  C   UNL A   1      33.219  22.964  22.042  1.00  0.00     0.022 C 
ATOM     10  C   UNL A   1      33.204  24.632  23.926  1.00  0.00     0.026 C 
ATOM     11  C   UNL A   1      32.909  24.403  22.449  1.00  0.00     0.004 C 
BRANCH   7  12
ATOM     12  C   UNL A   1      33.897  21.415  25.004  1.00  0.00     0.320 C 
ATOM     13  O   UNL A   1      33.929  20.228  24.648  1.00  0.00    -0.248 OA
BRANCH  12  14
ATOM     14  N   UNL A   1      34.761  21.835  26.017  1.00  0.00    -0.325 N 
ATOM     15  C   UNL A   1      34.146  21.760  27.344  1.00  0.00     0.148 C 
BRANCH  14  16
ATOM     16  C   UNL A   1      35.893  22.775  25.958  1.00  0.00     0.155 C 
BRANCH  16  17
ATOM     17  C   UNL A   1      37.107  22.544  25.018  1.00  0.00     0.077 C 
ATOM     18  C   UNL A   1      37.692  21.134  24.998  1.00  0.00     0.043 C 
ATOM     19  C   UNL A   1      36.638  22.911  23.595  1.00  0.00     0.043 C 
BRANCH  17  20
ATOM     20  O   UNL A   1      38.149  23.460  25.373  1.00  0.00    -0.389 OA
ATOM     21  H   UNL A   1      38.989  23.157  24.995  1.00  0.00     0.211 HD
ENDBRANCH  17  20
ENDBRANCH  16  17
ENDBRANCH  14  16
ENDBRANCH  12  14
ENDBRANCH   7  12
ENDBRANCH   5   6
ENDBRANCH   1   5
BRANCH   3  22
ATOM     22  C   UNL A   1      30.655  26.773  25.627  1.00  0.00     0.116 C 
BRANCH  22  23
ATOM     23  C   UNL A   1      31.578  27.857  26.195  1.00  0.00     0.023 C 
BRANCH  23  24
ATOM     24  C   UNL A   1      33.087  27.692  25.982  1.00  0.00     0.023 C 
BRANCH  24  25
ATOM     25  C   UNL A   1      33.743  28.894  25.332  1.00  0.00     0.116 C 
BRANCH  25  26
ATOM     26  N   UNL A   1      33.129  30.145  25.775  1.00  0.00    -0.352 N 
ATOM     27  C   UNL A   1      33.383  30.910  26.886  1.00  0.00     0.251 C 
ATOM     28  H   UNL A   1      32.423  30.493  25.184  1.00  0.00     0.163 HD
ATOM     29  O   UNL A   1      32.592  31.768  27.247  1.00  0.00    -0.269 OA
BRANCH  27  30
ATOM     30  C   UNL A   1      34.638  30.692  27.624  1.00  0.00     0.039 A 
ATOM     31  C   UNL A   1      35.617  31.686  27.658  1.00  0.00     0.014 A 
ATOM     32  C   UNL A   1      34.830  29.477  28.281  1.00  0.00     0.014 A 
ATOM     33  C   UNL A   1      36.778  31.467  28.396  1.00  0.00     0.010 A 
ATOM     34  C   UNL A   1      35.899  29.328  29.136  1.00  0.00     0.010 A 
ATOM     35  C   UNL A   1      36.908  30.296  29.160  1.00  0.00    -0.014 A 
BRANCH  35  36
ATOM     36  C   UNL A   1      38.119  29.995  29.950  1.00  0.00     0.031 A 
ATOM     37  C   UNL A   1      39.145  29.056  29.377  1.00  0.00     0.074 A 
ATOM     38  C   UNL A   1      38.223  30.472  31.202  1.00  0.00     0.049 A 
ATOM     39  N   UNL A   1      40.209  28.545  29.939  1.00  0.00    -0.248 NA
ATOM     40  C   UNL A   1      38.904  28.570  28.006  1.00  0.00     0.031 C 
ATOM     41  C   UNL A   1      37.241  31.330  31.868  1.00  0.00     0.029 A 
ATOM     42  N   UNL A   1      39.204  30.298  32.138  1.00  0.00    -0.354 N 
ATOM     43  C   UNL A   1      40.732  27.660  29.005  1.00  0.00     0.074 A 
ATOM     44  C   UNL A   1      39.815  27.620  27.892  1.00  0.00     0.031 C 
ATOM     45  C   UNL A   1      37.700  31.659  33.085  1.00  0.00     0.029 A 
ATOM     46  C   UNL A   1      38.980  30.995  33.299  1.00  0.00     0.049 A 
ATOM     47  H   UNL A   1      39.994  29.728  31.995  1.00  0.00     0.167 HD
ATOM     48  C   UNL A   1      41.902  26.981  29.052  1.00  0.00     0.037 A 
ATOM     49  C   UNL A   1      39.744  31.089  34.402  1.00  0.00     0.037 A 
ATOM     50  C   UNL A   1      42.815  27.075  30.157  1.00  0.00     0.049 A 
ATOM     51  C   UNL A   1      41.042  30.331  34.435  1.00  0.00     0.074 A 
ATOM     52  C   UNL A   1      44.060  26.498  30.305  1.00  0.00     0.029 A 
ATOM     53  N   UNL A   1      42.569  27.810  31.311  1.00  0.00    -0.354 N 
ATOM     54  N   UNL A   1      41.575  29.558  33.518  1.00  0.00    -0.248 NA
ATOM     55  C   UNL A   1      41.848  30.465  35.653  1.00  0.00     0.031 C 
ATOM     56  C   UNL A   1      44.545  26.839  31.573  1.00  0.00     0.029 A 
ATOM     57  C   UNL A   1      43.630  27.681  32.190  1.00  0.00     0.049 A 
ATOM     58  H   UNL A   1      41.760  28.344  31.478  1.00  0.00     0.167 HD
ATOM     59  C   UNL A   1      42.793  29.138  34.032  1.00  0.00     0.074 A 
ATOM     60  C   UNL A   1      42.923  29.757  35.338  1.00  0.00     0.031 C 
ATOM     61  C   UNL A   1      43.724  28.318  33.480  1.00  0.00     0.037 A 
BRANCH  48  62
ATOM     62  C   UNL A   1      42.234  26.098  27.880  1.00  0.00     0.064 A 
ATOM     63  C   UNL A   1      41.685  24.811  27.741  1.00  0.00     0.173 A 
ATOM     64  C   UNL A   1      43.142  26.524  26.899  1.00  0.00     0.173 A 
ATOM     65  F   UNL A   1      40.820  24.342  28.654  1.00  0.00    -0.203 F 
ATOM     66  C   UNL A   1      42.081  23.965  26.708  1.00  0.00     0.198 A 
ATOM     67  C   UNL A   1      43.501  25.692  25.842  1.00  0.00     0.198 A 
ATOM     68  F   UNL A   1      43.695  27.743  26.973  1.00  0.00    -0.203 F 
ATOM     69  F   UNL A   1      41.613  22.710  26.656  1.00  0.00    -0.200 F 
ATOM     70  C   UNL A   1      42.986  24.407  25.757  1.00  0.00     0.200 A 
ATOM     71  F   UNL A   1      44.366  26.125  24.914  1.00  0.00    -0.200 F 
ATOM     72  F   UNL A   1      43.374  23.590  24.768  1.00  0.00    -0.200 F 
ENDBRANCH  48  62
BRANCH  49  73
ATOM     73  C   UNL A   1      39.334  31.988  35.511  1.00  0.00     0.064 A 
ATOM     74  C   UNL A   1      39.759  33.324  35.533  1.00  0.00     0.173 A 
ATOM     75  C   UNL A   1      38.488  31.557  36.543  1.00  0.00     0.173 A 
ATOM     76  F   UNL A   1      40.576  33.783  34.573  1.00  0.00    -0.203 F 
ATOM     77  C   UNL A   1      39.371  34.189  36.553  1.00  0.00     0.198 A 
ATOM     78  C   UNL A   1      38.076  32.430  37.548  1.00  0.00     0.198 A 
ATOM     79  F   UNL A   1      38.039  30.293  36.560  1.00  0.00    -0.203 F 
ATOM     80  F   UNL A   1      39.822  35.450  36.568  1.00  0.00    -0.200 F 
ATOM     81  C   UNL A   1      38.523  33.743  37.557  1.00  0.00     0.200 A 
ATOM     82  F   UNL A   1      37.241  32.001  38.504  1.00  0.00    -0.200 F 
ATOM     83  F   UNL A   1      38.141  34.577  38.533  1.00  0.00    -0.200 F 
ENDBRANCH  49  73
BRANCH  61  84
ATOM     84  C   UNL A   1      44.974  28.078  34.274  1.00  0.00     0.064 A 
ATOM     85  C   UNL A   1      45.133  26.936  35.071  1.00  0.00     0.173 A 
ATOM     86  C   UNL A   1      46.042  28.984  34.196  1.00  0.00     0.173 A 
ATOM     87  F   UNL A   1      44.134  26.048  35.188  1.00  0.00    -0.203 F 
ATOM     88  C   UNL A   1      46.307  26.725  35.788  1.00  0.00     0.198 A 
ATOM     89  C   UNL A   1      47.228  28.749  34.883  1.00  0.00     0.198 A 
ATOM     90  F   UNL A   1      45.942  30.087  33.439  1.00  0.00    -0.203 F 
ATOM     91  F   UNL A   1      46.418  25.655  36.588  1.00  0.00    -0.200 F 
ATOM     92  C   UNL A   1      47.356  27.626  35.685  1.00  0.00     0.200 A 
ATOM     93  F   UNL A   1      48.248  29.611  34.768  1.00  0.00    -0.200 F 
ATOM     94  F   UNL A   1      48.491  27.415  36.367  1.00  0.00    -0.200 F 
ENDBRANCH  61  84
ENDBRANCH  35  36
ENDBRANCH  27  30
ENDBRANCH  25  26
ENDBRANCH  24  25
ENDBRANCH  23  24
ENDBRANCH  22  23
ENDBRANCH   3  22
TORSDOF 17
ENDMDL
MODEL 2
REMARK VINA RESULT:     -11.3      2.649      4.640
REMARK SMILES CN(CC(C)(C)O)C(=O)N1CCCC[C@H]1CC(=O)NCCCCNC(=O)c1ccc(-c2c3nc(c(-c4c(F)c(F)c(F)c(F)c4F)c4ccc([nH]4)c(-c4c(F)c(F)c(F)c(F)c4F)c4nc(c(-c5c(F)c(F)c(F)c(F)c5F)c5ccc2[nH]5)C=C4)C=C3)cc1
REMARK SMILES IDX 17 1 18 2 19 3 16 5 15 6 10 7 11 8 12 9 14 10 13 11 8 12
REMARK SMILES IDX 9 13 2 14 1 15 3 16 4 17 5 18 6 19 7 20 20 22 21 23 22 24
REMARK SMILES IDX 23 25 24 26 25 27 26 29 27 30 28 31 89 32 29 33 88 34 30 35
REMARK SMILES IDX 31 36 32 37 82 38 33 39 87 40 81 41 83 42 34 43 86 44 80 45
REMARK SMILES IDX 79 46 35 48 67 49 47 50 66 51 48 52 51 53 65 54 84 55 49 56
REMARK SMILES IDX 50 57 64 59 85 60 52 61 36 62 37 63 45 64 38 65 39 66 43 67
REMARK SMILES IDX 46 68 40 69 41 70 44 71 42 72 68 73 69 74 77 75 70 76 71 77
REMARK SMILES IDX 75 78 78 79 72 80 73 81 76 82 74 83 53 84 54 85 62 86 55 87
REMARK SMILES IDX 56 88 60 89 63 90 57 91 58 92 61 93 59 94
REMARK H PARENT 19 4 7 21 24 28 83 47 51 58
REMARK Flexibility Score: inf
ROOT
ATOM      1  C   UNL A   1      33.546  28.460  24.586  1.00  0.00     0.222 C 
ATOM      2  O   UNL A   1      34.051  28.440  23.460  1.00  0.00    -0.275 OA
ATOM      3  N   UNL A   1      33.331  29.680  25.156  1.00  0.00    -0.356 N 
ATOM      4  H   UNL A   1      33.644  30.441  24.617  1.00  0.00     0.163 HD
ENDROOT
BRANCH   1   5
ATOM      5  C   UNL A   1      33.228  27.160  25.303  1.00  0.00     0.125 C 
BRANCH   5   6
ATOM      6  C   UNL A   1      31.710  26.957  25.500  1.00  0.00     0.096 C 
ATOM      7  N   UNL A   1      31.007  26.622  24.257  1.00  0.00    -0.321 N 
ATOM      8  C   UNL A   1      31.356  25.280  23.741  1.00  0.00     0.121 C 
ATOM      9  C   UNL A   1      31.014  24.188  24.757  1.00  0.00     0.022 C 
ATOM     10  C   UNL A   1      31.331  25.908  26.566  1.00  0.00     0.026 C 
ATOM     11  C   UNL A   1      31.625  24.479  26.126  1.00  0.00     0.004 C 
BRANCH   7  12
ATOM     12  C   UNL A   1      29.889  27.232  23.710  1.00  0.00     0.320 C 
ATOM     13  O   UNL A   1      28.786  26.692  23.876  1.00  0.00    -0.248 OA
BRANCH  12  14
ATOM     14  N   UNL A   1      29.957  28.395  22.940  1.00  0.00    -0.325 N 
ATOM     15  C   UNL A   1      31.083  28.381  22.003  1.00  0.00     0.148 C 
BRANCH  14  16
ATOM     16  C   UNL A   1      29.476  29.754  23.244  1.00  0.00     0.155 C 
BRANCH  16  17
ATOM     17  C   UNL A   1      28.080  30.254  22.785  1.00  0.00     0.077 C 
ATOM     18  C   UNL A   1      27.517  31.468  23.521  1.00  0.00     0.043 C 
ATOM     19  C   UNL A   1      28.203  30.593  21.285  1.00  0.00     0.043 C 
BRANCH  17  20
ATOM     20  O   UNL A   1      27.140  29.180  22.904  1.00  0.00    -0.389 OA
ATOM     21  H   UNL A   1      26.240  29.539  22.947  1.00  0.00     0.211 HD
ENDBRANCH  17  20
ENDBRANCH  16  17
ENDBRANCH  14  16
ENDBRANCH  12  14
ENDBRANCH   7  12
ENDBRANCH   5   6
ENDBRANCH   1   5
BRANCH   3  22
ATOM     22  C   UNL A   1      32.720  30.054  26.423  1.00  0.00     0.116 C 
BRANCH  22  23
ATOM     23  C   UNL A   1      31.379  30.787  26.315  1.00  0.00     0.023 C 
BRANCH  23  24
ATOM     24  C   UNL A   1      31.382  32.309  26.500  1.00  0.00     0.023 C 
BRANCH  24  25
ATOM     25  C   UNL A   1      32.649  32.840  27.141  1.00  0.00     0.116 C 
BRANCH  25  26
ATOM     26  N   UNL A   1      32.470  34.206  27.631  1.00  0.00    -0.352 N 
ATOM     27  C   UNL A   1      33.024  34.836  28.718  1.00  0.00     0.251 C 
ATOM     28  H   UNL A   1      31.857  34.762  27.097  1.00  0.00     0.163 HD
ATOM     29  O   UNL A   1      32.553  35.882  29.140  1.00  0.00    -0.269 OA
BRANCH  27  30
ATOM     30  C   UNL A   1      34.209  34.239  29.354  1.00  0.00     0.039 A 
ATOM     31  C   UNL A   1      35.491  34.628  28.959  1.00  0.00     0.014 A 
ATOM     32  C   UNL A   1      34.029  33.280  30.349  1.00  0.00     0.014 A 
ATOM     33  C   UNL A   1      36.594  34.074  29.605  1.00  0.00     0.010 A 
ATOM     34  C   UNL A   1      35.109  32.858  31.092  1.00  0.00     0.010 A 
ATOM     35  C   UNL A   1      36.403  33.207  30.693  1.00  0.00    -0.014 A 
BRANCH  35  36
ATOM     36  C   UNL A   1      37.528  32.574  31.410  1.00  0.00     0.031 A 
ATOM     37  C   UNL A   1      38.254  31.431  30.756  1.00  0.00     0.074 A 
ATOM     38  C   UNL A   1      37.804  32.954  32.669  1.00  0.00     0.049 A 
ATOM     39  N   UNL A   1      39.173  30.642  31.245  1.00  0.00    -0.248 NA
ATOM     40  C   UNL A   1      37.838  31.082  29.385  1.00  0.00     0.031 C 
ATOM     41  C   UNL A   1      37.104  34.004  33.411  1.00  0.00     0.029 A 
ATOM     42  N   UNL A   1      38.746  32.495  33.547  1.00  0.00    -0.354 N 
ATOM     43  C   UNL A   1      39.413  29.694  30.259  1.00  0.00     0.074 A 
ATOM     44  C   UNL A   1      38.469  29.937  29.194  1.00  0.00     0.031 C 
ATOM     45  C   UNL A   1      37.683  34.152  34.612  1.00  0.00     0.029 A 
ATOM     46  C   UNL A   1      38.757  33.176  34.739  1.00  0.00     0.049 A 
ATOM     47  H   UNL A   1      39.356  31.750  33.345  1.00  0.00     0.167 HD
ATOM     48  C   UNL A   1      40.369  28.737  30.224  1.00  0.00     0.037 A 
ATOM     49  C   UNL A   1      39.565  33.024  35.803  1.00  0.00     0.037 A 
ATOM     50  C   UNL A   1      41.322  28.548  31.282  1.00  0.00     0.049 A 
ATOM     51  C   UNL A   1      40.626  31.960  35.746  1.00  0.00     0.074 A 
ATOM     52  C   UNL A   1      42.383  27.667  31.348  1.00  0.00     0.029 A 
ATOM     53  N   UNL A   1      41.322  29.271  32.470  1.00  0.00    -0.354 N 
ATOM     54  N   UNL A   1      40.904  31.117  34.779  1.00  0.00    -0.248 NA
ATOM     55  C   UNL A   1      41.489  31.831  36.924  1.00  0.00     0.031 C 
ATOM     56  C   UNL A   1      42.991  27.818  32.599  1.00  0.00     0.029 A 
ATOM     57  C   UNL A   1      42.350  28.837  33.288  1.00  0.00     0.049 A 
ATOM     58  H   UNL A   1      40.684  29.986  32.696  1.00  0.00     0.167 HD
ATOM     59  C   UNL A   1      41.993  30.378  35.216  1.00  0.00     0.074 A 
ATOM     60  C   UNL A   1      42.332  30.887  36.532  1.00  0.00     0.031 C 
ATOM     61  C   UNL A   1      42.658  29.373  34.591  1.00  0.00     0.037 A 
BRANCH  48  62
ATOM     62  C   UNL A   1      40.414  27.851  29.009  1.00  0.00     0.064 A 
ATOM     63  C   UNL A   1      39.685  26.650  28.940  1.00  0.00     0.173 A 
ATOM     64  C   UNL A   1      41.224  28.181  27.913  1.00  0.00     0.173 A 
ATOM     65  F   UNL A   1      38.903  26.274  29.963  1.00  0.00    -0.203 F 
ATOM     66  C   UNL A   1      39.818  25.788  27.854  1.00  0.00     0.198 A 
ATOM     67  C   UNL A   1      41.319  27.338  26.808  1.00  0.00     0.198 A 
ATOM     68  F   UNL A   1      41.940  29.315  27.917  1.00  0.00    -0.203 F 
ATOM     69  F   UNL A   1      39.185  24.606  27.859  1.00  0.00    -0.200 F 
ATOM     70  C   UNL A   1      40.631  26.134  26.787  1.00  0.00     0.200 A 
ATOM     71  F   UNL A   1      42.095  27.680  25.771  1.00  0.00    -0.200 F 
ATOM     72  F   UNL A   1      40.765  25.300  25.747  1.00  0.00    -0.200 F 
ENDBRANCH  48  62
BRANCH  49  73
ATOM     73  C   UNL A   1      39.447  33.950  36.959  1.00  0.00     0.064 A 
ATOM     74  C   UNL A   1      38.708  33.578  38.092  1.00  0.00     0.173 A 
ATOM     75  C   UNL A   1      40.091  35.196  36.981  1.00  0.00     0.173 A 
ATOM     76  F   UNL A   1      38.068  32.400  38.116  1.00  0.00    -0.203 F 
ATOM     77  C   UNL A   1      38.601  34.424  39.193  1.00  0.00     0.198 A 
ATOM     78  C   UNL A   1      40.006  36.029  38.095  1.00  0.00     0.198 A 
ATOM     79  F   UNL A   1      40.823  35.592  35.930  1.00  0.00    -0.203 F 
ATOM     80  F   UNL A   1      37.859  34.057  40.247  1.00  0.00    -0.200 F 
ATOM     81  C   UNL A   1      39.257  35.646  39.197  1.00  0.00     0.200 A 
ATOM     82  F   UNL A   1      40.658  37.200  38.103  1.00  0.00    -0.200 F 
ATOM     83  F   UNL A   1      39.163  36.456  40.261  1.00  0.00    -0.200 F 
ENDBRANCH  49  73
BRANCH  61  84
ATOM     84  C   UNL A   1      43.837  28.788  35.311  1.00  0.00     0.064 A 
ATOM     85  C   UNL A   1      43.706  27.683  36.164  1.00  0.00     0.173 A 
ATOM     86  C   UNL A   1      45.120  29.316  35.106  1.00  0.00     0.173 A 
ATOM     87  F   UNL A   1      42.497  27.153  36.403  1.00  0.00    -0.203 F 
ATOM     88  C   UNL A   1      44.815  27.147  36.811  1.00  0.00     0.198 A 
ATOM     89  C   UNL A   1      46.232  28.752  35.724  1.00  0.00     0.198 A 
ATOM     90  F   UNL A   1      45.299  30.367  34.292  1.00  0.00    -0.203 F 
ATOM     91  F   UNL A   1      44.661  26.126  37.665  1.00  0.00    -0.200 F 
ATOM     92  C   UNL A   1      46.077  27.675  36.582  1.00  0.00     0.200 A 
ATOM     93  F   UNL A   1      47.452  29.252  35.487  1.00  0.00    -0.200 F 
ATOM     94  F   UNL A   1      47.146  27.149  37.197  1.00  0.00    -0.200 F 
ENDBRANCH  61  84
ENDBRANCH  35  36
ENDBRANCH  27  30
ENDBRANCH  25  26
ENDBRANCH  24  25
ENDBRANCH  23  24
ENDBRANCH  22  23
ENDBRANCH   3  22
TORSDOF 17
ENDMDL
MODEL 3
REMARK VINA RESULT:     -11.3      4.101      7.558
REMARK SMILES CN(CC(C)(C)O)C(=O)N1CCCC[C@H]1CC(=O)NCCCCNC(=O)c1ccc(-c2c3nc(c(-c4c(F)c(F)c(F)c(F)c4F)c4ccc([nH]4)c(-c4c(F)c(F)c(F)c(F)c4F)c4nc(c(-c5c(F)c(F)c(F)c(F)c5F)c5ccc2[nH]5)C=C4)C=C3)cc1
REMARK SMILES IDX 17 1 18 2 19 3 16 5 15 6 10 7 11 8 12 9 14 10 13 11 8 12
REMARK SMILES IDX 9 13 2 14 1 15 3 16 4 17 5 18 6 19 7 20 20 22 21 23 22 24
REMARK SMILES IDX 23 25 24 26 25 27 26 29 27 30 28 31 89 32 29 33 88 34 30 35
REMARK SMILES IDX 31 36 32 37 82 38 33 39 87 40 81 41 83 42 34 43 86 44 80 45
REMARK SMILES IDX 79 46 35 48 67 49 47 50 66 51 48 52 51 53 65 54 84 55 49 56
REMARK SMILES IDX 50 57 64 59 85 60 52 61 36 62 37 63 45 64 38 65 39 66 43 67
REMARK SMILES IDX 46 68 40 69 41 70 44 71 42 72 68 73 69 74 77 75 70 76 71 77
REMARK SMILES IDX 75 78 78 79 72 80 73 81 76 82 74 83 53 84 54 85 62 86 55 87
REMARK SMILES IDX 56 88 60 89 63 90 57 91 58 92 61 93 59 94
REMARK H PARENT 19 4 7 21 24 28 83 47 51 58
REMARK Flexibility Score: inf
ROOT
ATOM      1  C   UNL A   1      33.606  26.307  23.116  1.00  0.00     0.222 C 
ATOM      2  O   UNL A   1      33.626  27.160  22.224  1.00  0.00    -0.275 OA
ATOM      3  N   UNL A   1      33.482  25.003  22.736  1.00  0.00    -0.356 N 
ATOM      4  H   UNL A   1      33.378  24.871  21.767  1.00  0.00     0.163 HD
ENDROOT
BRANCH   1   5
ATOM      5  C   UNL A   1      33.673  26.725  24.573  1.00  0.00     0.125 C 
BRANCH   5   6
ATOM      6  C   UNL A   1      33.301  28.210  24.774  1.00  0.00     0.096 C 
ATOM      7  N   UNL A   1      31.876  28.415  25.054  1.00  0.00    -0.321 N 
ATOM      8  C   UNL A   1      31.467  27.892  26.376  1.00  0.00     0.121 C 
ATOM      9  C   UNL A   1      32.247  28.569  27.506  1.00  0.00     0.022 C 
ATOM     10  C   UNL A   1      34.116  28.939  25.863  1.00  0.00     0.026 C 
ATOM     11  C   UNL A   1      33.754  28.495  27.275  1.00  0.00     0.004 C 
BRANCH   7  12
ATOM     12  C   UNL A   1      30.989  29.266  24.414  1.00  0.00     0.320 C 
ATOM     13  O   UNL A   1      30.885  30.428  24.832  1.00  0.00    -0.248 OA
BRANCH  12  14
ATOM     14  N   UNL A   1      30.171  28.858  23.358  1.00  0.00    -0.325 N 
ATOM     15  C   UNL A   1      30.099  27.401  23.235  1.00  0.00     0.148 C 
BRANCH  14  16
ATOM     16  C   UNL A   1      29.830  29.561  22.108  1.00  0.00     0.155 C 
BRANCH  16  17
ATOM     17  C   UNL A   1      28.854  30.767  22.082  1.00  0.00     0.077 C 
ATOM     18  C   UNL A   1      28.172  31.062  20.748  1.00  0.00     0.043 C 
ATOM     19  C   UNL A   1      27.771  30.483  23.144  1.00  0.00     0.043 C 
BRANCH  17  20
ATOM     20  O   UNL A   1      29.559  31.943  22.497  1.00  0.00    -0.389 OA
ATOM     21  H   UNL A   1      30.483  31.717  22.687  1.00  0.00     0.211 HD
ENDBRANCH  17  20
ENDBRANCH  16  17
ENDBRANCH  14  16
ENDBRANCH  12  14
ENDBRANCH   7  12
ENDBRANCH   5   6
ENDBRANCH   1   5
BRANCH   3  22
ATOM     22  C   UNL A   1      33.476  23.772  23.512  1.00  0.00     0.116 C 
BRANCH  22  23
ATOM     23  C   UNL A   1      34.857  23.216  23.874  1.00  0.00     0.023 C 
BRANCH  23  24
ATOM     24  C   UNL A   1      35.262  23.218  25.352  1.00  0.00     0.023 C 
BRANCH  24  25
ATOM     25  C   UNL A   1      36.641  23.796  25.603  1.00  0.00     0.116 C 
BRANCH  25  26
ATOM     26  N   UNL A   1      37.599  22.756  25.973  1.00  0.00    -0.352 N 
ATOM     27  C   UNL A   1      38.904  22.862  26.388  1.00  0.00     0.251 C 
ATOM     28  H   UNL A   1      37.256  21.835  25.915  1.00  0.00     0.163 HD
ATOM     29  O   UNL A   1      39.640  21.887  26.385  1.00  0.00    -0.269 OA
BRANCH  27  30
ATOM     30  C   UNL A   1      39.393  24.168  26.858  1.00  0.00     0.039 A 
ATOM     31  C   UNL A   1      40.017  25.046  25.971  1.00  0.00     0.014 A 
ATOM     32  C   UNL A   1      39.226  24.507  28.200  1.00  0.00     0.014 A 
ATOM     33  C   UNL A   1      40.436  26.292  26.434  1.00  0.00     0.010 A 
ATOM     34  C   UNL A   1      39.493  25.793  28.615  1.00  0.00     0.010 A 
ATOM     35  C   UNL A   1      40.149  26.678  27.753  1.00  0.00    -0.014 A 
BRANCH  35  36
ATOM     36  C   UNL A   1      40.579  27.975  28.311  1.00  0.00     0.031 A 
ATOM     37  C   UNL A   1      42.037  28.189  28.611  1.00  0.00     0.074 A 
ATOM     38  C   UNL A   1      39.651  28.888  28.643  1.00  0.00     0.049 A 
ATOM     39  N   UNL A   1      42.622  29.185  29.223  1.00  0.00    -0.248 NA
ATOM     40  C   UNL A   1      42.956  27.100  28.234  1.00  0.00     0.031 C 
ATOM     41  C   UNL A   1      38.207  28.737  28.457  1.00  0.00     0.029 A 
ATOM     42  N   UNL A   1      39.787  30.125  29.212  1.00  0.00    -0.354 N 
ATOM     43  C   UNL A   1      43.958  28.821  29.330  1.00  0.00     0.074 A 
ATOM     44  C   UNL A   1      44.078  27.475  28.823  1.00  0.00     0.031 C 
ATOM     45  C   UNL A   1      37.594  29.866  28.846  1.00  0.00     0.029 A 
ATOM     46  C   UNL A   1      38.598  30.794  29.353  1.00  0.00     0.049 A 
ATOM     47  H   UNL A   1      40.654  30.498  29.493  1.00  0.00     0.167 HD
ATOM     48  C   UNL A   1      45.001  29.565  29.765  1.00  0.00     0.037 A 
ATOM     49  C   UNL A   1      38.362  32.029  29.829  1.00  0.00     0.037 A 
ATOM     50  C   UNL A   1      44.856  30.919  30.223  1.00  0.00     0.049 A 
ATOM     51  C   UNL A   1      39.533  32.845  30.303  1.00  0.00     0.074 A 
ATOM     52  C   UNL A   1      45.832  31.809  30.626  1.00  0.00     0.029 A 
ATOM     53  N   UNL A   1      43.637  31.579  30.333  1.00  0.00    -0.354 N 
ATOM     54  N   UNL A   1      40.807  32.530  30.328  1.00  0.00    -0.248 NA
ATOM     55  C   UNL A   1      39.234  34.188  30.809  1.00  0.00     0.031 C 
ATOM     56  C   UNL A   1      45.199  32.989  31.032  1.00  0.00     0.029 A 
ATOM     57  C   UNL A   1      43.833  32.858  30.823  1.00  0.00     0.049 A 
ATOM     58  H   UNL A   1      42.763  31.193  30.097  1.00  0.00     0.167 HD
ATOM     59  C   UNL A   1      41.467  33.646  30.821  1.00  0.00     0.074 A 
ATOM     60  C   UNL A   1      40.449  34.649  31.068  1.00  0.00     0.031 C 
ATOM     61  C   UNL A   1      42.793  33.831  31.050  1.00  0.00     0.037 A 
BRANCH  48  62
ATOM     62  C   UNL A   1      46.360  28.921  29.754  1.00  0.00     0.064 A 
ATOM     63  C   UNL A   1      46.871  28.247  30.878  1.00  0.00     0.173 A 
ATOM     64  C   UNL A   1      47.183  29.008  28.621  1.00  0.00     0.173 A 
ATOM     65  F   UNL A   1      46.136  28.142  31.995  1.00  0.00    -0.203 F 
ATOM     66  C   UNL A   1      48.171  27.746  30.889  1.00  0.00     0.198 A 
ATOM     67  C   UNL A   1      48.466  28.466  28.621  1.00  0.00     0.198 A 
ATOM     68  F   UNL A   1      46.751  29.633  27.517  1.00  0.00    -0.203 F 
ATOM     69  F   UNL A   1      48.663  27.193  32.006  1.00  0.00    -0.200 F 
ATOM     70  C   UNL A   1      48.966  27.852  29.760  1.00  0.00     0.200 A 
ATOM     71  F   UNL A   1      49.230  28.557  27.524  1.00  0.00    -0.200 F 
ATOM     72  F   UNL A   1      50.220  27.378  29.774  1.00  0.00    -0.200 F 
ENDBRANCH  48  62
BRANCH  49  73
ATOM     73  C   UNL A   1      36.984  32.583  29.798  1.00  0.00     0.064 A 
ATOM     74  C   UNL A   1      36.137  32.438  30.907  1.00  0.00     0.173 A 
ATOM     75  C   UNL A   1      36.495  33.297  28.694  1.00  0.00     0.173 A 
ATOM     76  F   UNL A   1      36.556  31.757  31.984  1.00  0.00    -0.203 F 
ATOM     77  C   UNL A   1      34.849  32.966  30.905  1.00  0.00     0.198 A 
ATOM     78  C   UNL A   1      35.215  33.849  28.704  1.00  0.00     0.198 A 
ATOM     79  F   UNL A   1      37.269  33.478  27.615  1.00  0.00    -0.203 F 
ATOM     80  F   UNL A   1      34.050  32.780  31.965  1.00  0.00    -0.200 F 
ATOM     81  C   UNL A   1      34.391  33.678  29.807  1.00  0.00     0.200 A 
ATOM     82  F   UNL A   1      34.784  34.554  27.649  1.00  0.00    -0.200 F 
ATOM     83  F   UNL A   1      33.155  34.196  29.809  1.00  0.00    -0.200 F 
ENDBRANCH  49  73
BRANCH  61  84
ATOM     84  C   UNL A   1      43.214  35.178  31.556  1.00  0.00     0.064 A 
ATOM     85  C   UNL A   1      43.259  35.469  32.927  1.00  0.00     0.173 A 
ATOM     86  C   UNL A   1      43.619  36.174  30.655  1.00  0.00     0.173 A 
ATOM     87  F   UNL A   1      42.866  34.554  33.826  1.00  0.00    -0.203 F 
ATOM     88  C   UNL A   1      43.665  36.722  33.376  1.00  0.00     0.198 A 
ATOM     89  C   UNL A   1      44.063  37.411  31.111  1.00  0.00     0.198 A 
ATOM     90  F   UNL A   1      43.603  35.941  29.334  1.00  0.00    -0.203 F 
ATOM     91  F   UNL A   1      43.648  36.999  34.687  1.00  0.00    -0.200 F 
ATOM     92  C   UNL A   1      44.077  37.687  32.469  1.00  0.00     0.200 A 
ATOM     93  F   UNL A   1      44.478  38.336  30.234  1.00  0.00    -0.200 F 
ATOM     94  F   UNL A   1      44.480  38.889  32.905  1.00  0.00    -0.200 F 
ENDBRANCH  61  84
ENDBRANCH  35  36
ENDBRANCH  27  30
ENDBRANCH  25  26
ENDBRANCH  24  25
ENDBRANCH  23  24
ENDBRANCH  22  23
ENDBRANCH   3  22
TORSDOF 17
ENDMDL
