MODEL 1
REMARK VINA RESULT:     -13.5      0.000      0.000
REMARK SMILES Cc1c(CC(=O)N[C@@H](Cc2ccc(Cl)cc2)C(=O)NCCCCNC(=O)c2ccc(-c3c4nc(c(-c5c(F)c(F)c(F)c(F)c5F)c5ccc([nH]5)c(-c5c(F)c(F)c(F)c(F)c5F)c5nc(c(-c6c(F)c(F)c(F)c(F)c6F)c6ccc3[nH]6)C=C5)C=C4)cc2)c(=O)oc2cc(O)c(Cl)cc12
REMARK SMILES IDX 20 1 19 2 17 3 18 4 8 6 7 7 5 8 6 9 4 11 3 12 1 13 2 14
REMARK SMILES IDX 100 15 90 16 93 17 99 18 91 19 92 20 94 21 97 22 95 23 98 24
REMARK SMILES IDX 96 25 9 27 10 28 11 29 16 30 12 31 15 32 13 33 14 34 21 35
REMARK SMILES IDX 22 36 23 37 24 38 25 39 26 41 27 42 28 43 89 44 29 45 88 46
REMARK SMILES IDX 30 47 31 48 32 49 82 50 33 51 87 52 81 53 83 54 34 55 86 56
REMARK SMILES IDX 80 57 79 58 35 60 67 61 47 62 66 63 48 64 51 65 65 66 84 67
REMARK SMILES IDX 49 68 50 69 64 71 85 72 52 73 36 74 37 75 45 76 38 77 39 78
REMARK SMILES IDX 43 79 46 80 40 81 41 82 44 83 42 84 68 85 69 86 77 87 70 88
REMARK SMILES IDX 71 89 75 90 78 91 72 92 73 93 76 94 74 95 53 96 54 97 62 98
REMARK SMILES IDX 55 99 56 100 60 101 63 102 57 103 58 104 61 105 59 106
REMARK H PARENT 19 5 7 10 96 26 24 40 83 59 51 70
REMARK Flexibility Score: inf
ROOT
ATOM      1  C   UNL A   1      33.073  29.362  25.745  1.00  0.00     0.116 C 
ENDROOT
BRANCH   1   2
ATOM      2  N   UNL A   1      32.200  29.595  24.612  1.00  0.00    -0.354 N 
ATOM      3  C   UNL A   1      31.371  28.750  23.938  1.00  0.00     0.242 C 
ATOM      4  O   UNL A   1      30.426  29.277  23.338  1.00  0.00    -0.273 OA
ATOM      5  H   UNL A   1      32.209  30.518  24.272  1.00  0.00     0.163 HD
BRANCH   3   6
ATOM      6  C   UNL A   1      31.477  27.209  24.003  1.00  0.00     0.175 C 
BRANCH   6   7
ATOM      7  N   UNL A   1      30.422  26.568  24.793  1.00  0.00    -0.344 N 
ATOM      8  C   UNL A   1      30.436  26.174  26.095  1.00  0.00     0.225 C 
ATOM      9  O   UNL A   1      29.350  25.950  26.632  1.00  0.00    -0.275 OA
ATOM     10  H   UNL A   1      29.580  26.397  24.312  1.00  0.00     0.164 HD
BRANCH   8  11
ATOM     11  C   UNL A   1      31.750  25.952  26.834  1.00  0.00     0.143 C 
BRANCH  11  12
ATOM     12  C   UNL A   1      32.401  24.657  26.389  1.00  0.00     0.051 A 
ATOM     13  C   UNL A   1      34.344  25.767  25.227  1.00  0.00     0.046 C 
ATOM     14  C   UNL A   1      33.584  24.567  25.737  1.00  0.00    -0.029 A 
ATOM     15  C   UNL A   1      34.193  23.240  25.531  1.00  0.00     0.023 A 
ATOM     16  C   UNL A   1      31.631  23.437  26.758  1.00  0.00     0.340 A 
ATOM     17  C   UNL A   1      33.490  22.107  25.936  1.00  0.00     0.142 A 
ATOM     18  C   UNL A   1      35.470  23.042  24.987  1.00  0.00     0.036 A 
ATOM     19  O   UNL A   1      30.525  23.505  27.279  1.00  0.00    -0.246 OA
ATOM     20  O   UNL A   1      32.218  22.209  26.514  1.00  0.00    -0.422 OA
ATOM     21  C   UNL A   1      34.001  20.813  25.808  1.00  0.00     0.095 A 
ATOM     22  C   UNL A   1      36.002  21.753  24.850  1.00  0.00     0.083 A 
ATOM     23  C   UNL A   1      35.265  20.641  25.260  1.00  0.00     0.137 A 
ATOM     24  Cl  UNL A   1      37.583  21.586  24.176  1.00  0.00    -0.080 Cl
BRANCH  23  25
ATOM     25  O   UNL A   1      35.788  19.384  25.130  1.00  0.00    -0.506 OA
ATOM     26  H   UNL A   1      36.717  19.266  25.091  1.00  0.00     0.293 HD
ENDBRANCH  23  25
ENDBRANCH  11  12
ENDBRANCH   8  11
ENDBRANCH   6   7
BRANCH   6  27
ATOM     27  C   UNL A   1      31.711  26.553  22.626  1.00  0.00     0.070 C 
BRANCH  27  28
ATOM     28  C   UNL A   1      31.860  25.050  22.597  1.00  0.00    -0.045 A 
ATOM     29  C   UNL A   1      32.997  24.449  22.040  1.00  0.00     0.005 A 
ATOM     30  C   UNL A   1      30.855  24.234  23.140  1.00  0.00     0.005 A 
ATOM     31  C   UNL A   1      33.142  23.059  22.057  1.00  0.00     0.021 A 
ATOM     32  C   UNL A   1      31.002  22.844  23.160  1.00  0.00     0.021 A 
ATOM     33  C   UNL A   1      32.148  22.264  22.625  1.00  0.00     0.041 A 
ATOM     34  Cl  UNL A   1      32.343  20.556  22.677  1.00  0.00    -0.084 Cl
ENDBRANCH  27  28
ENDBRANCH   6  27
ENDBRANCH   3   6
ENDBRANCH   1   2
BRANCH   1  35
ATOM     35  C   UNL A   1      32.562  29.984  27.036  1.00  0.00     0.023 C 
BRANCH  35  36
ATOM     36  C   UNL A   1      32.125  31.443  26.911  1.00  0.00     0.023 C 
BRANCH  36  37
ATOM     37  C   UNL A   1      33.112  32.481  27.442  1.00  0.00     0.116 C 
BRANCH  37  38
ATOM     38  N   UNL A   1      32.541  33.807  27.638  1.00  0.00    -0.352 N 
ATOM     39  C   UNL A   1      32.972  34.801  28.490  1.00  0.00     0.251 C 
ATOM     40  H   UNL A   1      31.748  34.019  27.095  1.00  0.00     0.163 HD
ATOM     41  O   UNL A   1      32.364  35.857  28.594  1.00  0.00    -0.269 OA
BRANCH  39  42
ATOM     42  C   UNL A   1      34.154  34.533  29.331  1.00  0.00     0.039 A 
ATOM     43  C   UNL A   1      35.437  34.755  28.828  1.00  0.00     0.014 A 
ATOM     44  C   UNL A   1      33.965  33.921  30.572  1.00  0.00     0.014 A 
ATOM     45  C   UNL A   1      36.528  34.195  29.483  1.00  0.00     0.010 A 
ATOM     46  C   UNL A   1      35.070  33.418  31.261  1.00  0.00     0.010 A 
ATOM     47  C   UNL A   1      36.348  33.490  30.686  1.00  0.00    -0.014 A 
BRANCH  47  48
ATOM     48  C   UNL A   1      37.497  32.767  31.286  1.00  0.00     0.031 A 
ATOM     49  C   UNL A   1      37.951  33.096  32.685  1.00  0.00     0.074 A 
ATOM     50  C   UNL A   1      38.079  31.765  30.605  1.00  0.00     0.049 A 
ATOM     51  N   UNL A   1      38.930  32.572  33.379  1.00  0.00    -0.248 NA
ATOM     52  C   UNL A   1      37.208  34.147  33.400  1.00  0.00     0.031 C 
ATOM     53  C   UNL A   1      37.702  31.332  29.259  1.00  0.00     0.029 A 
ATOM     54  N   UNL A   1      39.090  30.910  30.961  1.00  0.00    -0.354 N 
ATOM     55  C   UNL A   1      38.933  33.240  34.597  1.00  0.00     0.074 A 
ATOM     56  C   UNL A   1      37.871  34.221  34.547  1.00  0.00     0.031 C 
ATOM     57  C   UNL A   1      38.435  30.261  28.923  1.00  0.00     0.029 A 
ATOM     58  C   UNL A   1      39.370  29.966  30.006  1.00  0.00     0.049 A 
ATOM     59  H   UNL A   1      39.569  30.968  31.819  1.00  0.00     0.167 HD
ATOM     60  C   UNL A   1      39.742  33.044  35.664  1.00  0.00     0.037 A 
ATOM     61  C   UNL A   1      40.283  28.977  30.000  1.00  0.00     0.037 A 
ATOM     62  C   UNL A   1      40.781  32.050  35.728  1.00  0.00     0.049 A 
ATOM     63  C   UNL A   1      41.188  28.806  31.186  1.00  0.00     0.074 A 
ATOM     64  C   UNL A   1      41.659  31.783  36.764  1.00  0.00     0.029 A 
ATOM     65  N   UNL A   1      41.067  31.146  34.717  1.00  0.00    -0.354 N 
ATOM     66  N   UNL A   1      41.205  29.468  32.315  1.00  0.00    -0.248 NA
ATOM     67  C   UNL A   1      42.213  27.756  31.088  1.00  0.00     0.031 C 
ATOM     68  C   UNL A   1      42.493  30.733  36.371  1.00  0.00     0.029 A 
ATOM     69  C   UNL A   1      42.114  30.324  35.102  1.00  0.00     0.049 A 
ATOM     70  H   UNL A   1      40.598  31.096  33.853  1.00  0.00     0.167 HD
ATOM     71  C   UNL A   1      42.231  28.914  33.066  1.00  0.00     0.074 A 
ATOM     72  C   UNL A   1      42.803  27.847  32.272  1.00  0.00     0.031 C 
ATOM     73  C   UNL A   1      42.666  29.265  34.300  1.00  0.00     0.037 A 
BRANCH  60  74
ATOM     74  C   UNL A   1      39.549  33.923  36.863  1.00  0.00     0.064 A 
ATOM     75  C   UNL A   1      38.787  33.500  37.962  1.00  0.00     0.173 A 
ATOM     76  C   UNL A   1      40.199  35.163  36.949  1.00  0.00     0.173 A 
ATOM     77  F   UNL A   1      38.135  32.328  37.920  1.00  0.00    -0.203 F 
ATOM     78  C   UNL A   1      38.680  34.290  39.104  1.00  0.00     0.198 A 
ATOM     79  C   UNL A   1      40.106  35.941  38.099  1.00  0.00     0.198 A 
ATOM     80  F   UNL A   1      40.943  35.607  35.925  1.00  0.00    -0.203 F 
ATOM     81  F   UNL A   1      37.933  33.877  40.136  1.00  0.00    -0.200 F 
ATOM     82  C   UNL A   1      39.347  35.505  39.175  1.00  0.00     0.200 A 
ATOM     83  F   UNL A   1      40.758  37.109  38.171  1.00  0.00    -0.200 F 
ATOM     84  F   UNL A   1      39.258  36.256  40.282  1.00  0.00    -0.200 F 
ENDBRANCH  60  74
BRANCH  61  85
ATOM     85  C   UNL A   1      40.373  28.070  28.831  1.00  0.00     0.064 A 
ATOM     86  C   UNL A   1      39.678  26.854  28.812  1.00  0.00     0.173 A 
ATOM     87  C   UNL A   1      41.135  28.408  27.704  1.00  0.00     0.173 A 
ATOM     88  F   UNL A   1      38.953  26.481  29.877  1.00  0.00    -0.203 F 
ATOM     89  C   UNL A   1      39.745  26.006  27.708  1.00  0.00     0.198 A 
ATOM     90  C   UNL A   1      41.184  27.571  26.592  1.00  0.00     0.198 A 
ATOM     91  F   UNL A   1      41.818  29.563  27.677  1.00  0.00    -0.203 F 
ATOM     92  F   UNL A   1      39.094  24.836  27.725  1.00  0.00    -0.200 F 
ATOM     93  C   UNL A   1      40.492  26.369  26.598  1.00  0.00     0.200 A 
ATOM     94  F   UNL A   1      41.896  27.931  25.516  1.00  0.00    -0.200 F 
ATOM     95  F   UNL A   1      40.548  25.557  25.532  1.00  0.00    -0.200 F 
ENDBRANCH  61  85
BRANCH  73  96
ATOM     96  C   UNL A   1      43.805  28.483  34.875  1.00  0.00     0.064 A 
ATOM     97  C   UNL A   1      45.132  28.902  34.705  1.00  0.00     0.173 A 
ATOM     98  C   UNL A   1      43.564  27.339  35.649  1.00  0.00     0.173 A 
ATOM     99  F   UNL A   1      45.409  29.983  33.962  1.00  0.00    -0.203 F 
ATOM    100  C   UNL A   1      46.182  28.192  35.281  1.00  0.00     0.198 A 
ATOM    101  C   UNL A   1      44.615  26.644  36.239  1.00  0.00     0.198 A 
ATOM    102  F   UNL A   1      42.310  26.905  35.843  1.00  0.00    -0.203 F 
ATOM    103  F   UNL A   1      47.446  28.593  35.085  1.00  0.00    -0.200 F 
ATOM    104  C   UNL A   1      45.922  27.068  36.052  1.00  0.00     0.200 A 
ATOM    105  F   UNL A   1      44.363  25.562  36.990  1.00  0.00    -0.200 F 
ATOM    106  F   UNL A   1      46.934  26.392  36.613  1.00  0.00    -0.200 F 
ENDBRANCH  73  96
ENDBRANCH  47  48
ENDBRANCH  39  42
ENDBRANCH  37  38
ENDBRANCH  36  37
ENDBRANCH  35  36
ENDBRANCH   1  35
TORSDOF 17
ENDMDL
MODEL 2
REMARK VINA RESULT:     -13.3      0.273      6.892
REMARK SMILES Cc1c(CC(=O)N[C@@H](Cc2ccc(Cl)cc2)C(=O)NCCCCNC(=O)c2ccc(-c3c4nc(c(-c5c(F)c(F)c(F)c(F)c5F)c5ccc([nH]5)c(-c5c(F)c(F)c(F)c(F)c5F)c5nc(c(-c6c(F)c(F)c(F)c(F)c6F)c6ccc3[nH]6)C=C5)C=C4)cc2)c(=O)oc2cc(O)c(Cl)cc12
REMARK SMILES IDX 20 1 19 2 17 3 18 4 8 6 7 7 5 8 6 9 4 11 3 12 1 13 2 14
REMARK SMILES IDX 100 15 90 16 93 17 99 18 91 19 92 20 94 21 97 22 95 23 98 24
REMARK SMILES IDX 96 25 9 27 10 28 11 29 16 30 12 31 15 32 13 33 14 34 21 35
REMARK SMILES IDX 22 36 23 37 24 38 25 39 26 41 27 42 28 43 89 44 29 45 88 46
REMARK SMILES IDX 30 47 31 48 32 49 82 50 33 51 87 52 81 53 83 54 34 55 86 56
REMARK SMILES IDX 80 57 79 58 35 60 67 61 47 62 66 63 48 64 51 65 65 66 84 67
REMARK SMILES IDX 49 68 50 69 64 71 85 72 52 73 36 74 37 75 45 76 38 77 39 78
REMARK SMILES IDX 43 79 46 80 40 81 41 82 44 83 42 84 68 85 69 86 77 87 70 88
REMARK SMILES IDX 71 89 75 90 78 91 72 92 73 93 76 94 74 95 53 96 54 97 62 98
REMARK SMILES IDX 55 99 56 100 60 101 63 102 57 103 58 104 61 105 59 106
REMARK H PARENT 19 5 7 10 96 26 24 40 83 59 51 70
REMARK Flexibility Score: inf
ROOT
ATOM      1  C   UNL A   1      33.150  29.412  25.773  1.00  0.00     0.116 C 
ENDROOT
BRANCH   1   2
ATOM      2  N   UNL A   1      32.281  29.648  24.637  1.00  0.00    -0.354 N 
ATOM      3  C   UNL A   1      31.451  28.805  23.961  1.00  0.00     0.242 C 
ATOM      4  O   UNL A   1      30.510  29.336  23.357  1.00  0.00    -0.273 OA
ATOM      5  H   UNL A   1      32.294  30.571  24.297  1.00  0.00     0.163 HD
BRANCH   3   6
ATOM      6  C   UNL A   1      31.551  27.264  24.026  1.00  0.00     0.175 C 
BRANCH   6   7
ATOM      7  N   UNL A   1      30.478  26.626  24.793  1.00  0.00    -0.344 N 
ATOM      8  C   UNL A   1      30.470  26.217  26.091  1.00  0.00     0.225 C 
ATOM      9  O   UNL A   1      29.374  25.997  26.609  1.00  0.00    -0.275 OA
ATOM     10  H   UNL A   1      29.642  26.469  24.298  1.00  0.00     0.164 HD
BRANCH   8  11
ATOM     11  C   UNL A   1      31.771  25.972  26.845  1.00  0.00     0.143 C 
BRANCH  11  12
ATOM     12  C   UNL A   1      32.414  24.674  26.397  1.00  0.00     0.051 A 
ATOM     13  C   UNL A   1      34.371  25.773  25.249  1.00  0.00     0.046 C 
ATOM     14  C   UNL A   1      33.598  24.577  25.750  1.00  0.00    -0.029 A 
ATOM     15  C   UNL A   1      34.197  23.246  25.540  1.00  0.00     0.023 A 
ATOM     16  C   UNL A   1      31.632  23.459  26.756  1.00  0.00     0.340 A 
ATOM     17  C   UNL A   1      33.482  22.117  25.936  1.00  0.00     0.142 A 
ATOM     18  C   UNL A   1      35.475  23.040  25.001  1.00  0.00     0.036 A 
ATOM     19  O   UNL A   1      30.523  23.534  27.273  1.00  0.00    -0.246 OA
ATOM     20  O   UNL A   1      32.209  22.227  26.509  1.00  0.00    -0.422 OA
ATOM     21  C   UNL A   1      33.983  20.819  25.804  1.00  0.00     0.095 A 
ATOM     22  C   UNL A   1      35.997  21.748  24.860  1.00  0.00     0.083 A 
ATOM     23  C   UNL A   1      35.249  20.639  25.261  1.00  0.00     0.137 A 
ATOM     24  Cl  UNL A   1      37.579  21.570  24.192  1.00  0.00    -0.080 Cl
BRANCH  23  25
ATOM     25  O   UNL A   1      35.762  19.379  25.127  1.00  0.00    -0.506 OA
ATOM     26  H   UNL A   1      36.651  19.209  25.366  1.00  0.00     0.293 HD
ENDBRANCH  23  25
ENDBRANCH  11  12
ENDBRANCH   8  11
ENDBRANCH   6   7
BRANCH   6  27
ATOM     27  C   UNL A   1      31.812  26.609  22.653  1.00  0.00     0.070 C 
BRANCH  27  28
ATOM     28  C   UNL A   1      31.908  25.102  22.618  1.00  0.00    -0.045 A 
ATOM     29  C   UNL A   1      33.027  24.464  22.064  1.00  0.00     0.005 A 
ATOM     30  C   UNL A   1      30.872  24.319  23.152  1.00  0.00     0.005 A 
ATOM     31  C   UNL A   1      33.123  23.070  22.076  1.00  0.00     0.021 A 
ATOM     32  C   UNL A   1      30.971  22.924  23.166  1.00  0.00     0.021 A 
ATOM     33  C   UNL A   1      32.099  22.307  22.634  1.00  0.00     0.041 A 
ATOM     34  Cl  UNL A   1      32.233  20.593  22.680  1.00  0.00    -0.084 Cl
ENDBRANCH  27  28
ENDBRANCH   6  27
ENDBRANCH   3   6
ENDBRANCH   1   2
BRANCH   1  35
ATOM     35  C   UNL A   1      32.627  30.019  27.066  1.00  0.00     0.023 C 
BRANCH  35  36
ATOM     36  C   UNL A   1      32.197  31.482  26.955  1.00  0.00     0.023 C 
BRANCH  36  37
ATOM     37  C   UNL A   1      33.179  32.509  27.515  1.00  0.00     0.116 C 
BRANCH  37  38
ATOM     38  N   UNL A   1      32.618  33.840  27.695  1.00  0.00    -0.352 N 
ATOM     39  C   UNL A   1      33.038  34.832  28.555  1.00  0.00     0.251 C 
ATOM     40  H   UNL A   1      31.840  34.060  27.132  1.00  0.00     0.163 HD
ATOM     41  O   UNL A   1      32.439  35.894  28.643  1.00  0.00    -0.269 OA
BRANCH  39  42
ATOM     42  C   UNL A   1      34.197  34.553  29.425  1.00  0.00     0.039 A 
ATOM     43  C   UNL A   1      35.494  34.637  28.914  1.00  0.00     0.014 A 
ATOM     44  C   UNL A   1      33.963  34.068  30.713  1.00  0.00     0.014 A 
ATOM     45  C   UNL A   1      36.540  34.059  29.623  1.00  0.00     0.010 A 
ATOM     46  C   UNL A   1      35.028  33.548  31.452  1.00  0.00     0.010 A 
ATOM     47  C   UNL A   1      36.308  33.477  30.881  1.00  0.00    -0.014 A 
BRANCH  47  48
ATOM     48  C   UNL A   1      37.401  32.727  31.550  1.00  0.00     0.031 A 
ATOM     49  C   UNL A   1      38.095  31.599  30.832  1.00  0.00     0.074 A 
ATOM     50  C   UNL A   1      37.819  33.111  32.769  1.00  0.00     0.049 A 
ATOM     51  N   UNL A   1      39.071  30.831  31.249  1.00  0.00    -0.248 NA
ATOM     52  C   UNL A   1      37.638  31.294  29.466  1.00  0.00     0.031 C 
ATOM     53  C   UNL A   1      37.249  34.212  33.546  1.00  0.00     0.029 A 
ATOM     54  N   UNL A   1      38.839  32.639  33.554  1.00  0.00    -0.354 N 
ATOM     55  C   UNL A   1      39.329  29.945  30.211  1.00  0.00     0.074 A 
ATOM     56  C   UNL A   1      38.398  30.254  29.148  1.00  0.00     0.031 C 
ATOM     57  C   UNL A   1      37.958  34.364  34.673  1.00  0.00     0.029 A 
ATOM     58  C   UNL A   1      38.998  33.340  34.723  1.00  0.00     0.049 A 
ATOM     59  H   UNL A   1      39.402  31.872  33.304  1.00  0.00     0.167 HD
ATOM     60  C   UNL A   1      40.265  28.970  30.148  1.00  0.00     0.037 A 
ATOM     61  C   UNL A   1      39.879  33.170  35.727  1.00  0.00     0.037 A 
ATOM     62  C   UNL A   1      41.211  28.680  31.193  1.00  0.00     0.049 A 
ATOM     63  C   UNL A   1      40.884  32.058  35.643  1.00  0.00     0.074 A 
ATOM     64  C   UNL A   1      42.191  27.702  31.224  1.00  0.00     0.029 A 
ATOM     65  N   UNL A   1      41.304  29.379  32.386  1.00  0.00    -0.354 N 
ATOM     66  N   UNL A   1      41.092  31.203  34.672  1.00  0.00    -0.248 NA
ATOM     67  C   UNL A   1      41.768  31.878  36.803  1.00  0.00     0.031 C 
ATOM     68  C   UNL A   1      42.863  27.796  32.446  1.00  0.00     0.029 A 
ATOM     69  C   UNL A   1      42.322  28.851  33.163  1.00  0.00     0.049 A 
ATOM     70  H   UNL A   1      40.732  30.138  32.644  1.00  0.00     0.167 HD
ATOM     71  C   UNL A   1      42.133  30.392  35.097  1.00  0.00     0.074 A 
ATOM     72  C   UNL A   1      42.528  30.866  36.406  1.00  0.00     0.031 C 
ATOM     73  C   UNL A   1      42.704  29.340  34.461  1.00  0.00     0.037 A 
BRANCH  60  74
ATOM     74  C   UNL A   1      40.322  28.130  28.908  1.00  0.00     0.064 A 
ATOM     75  C   UNL A   1      41.119  28.497  27.815  1.00  0.00     0.173 A 
ATOM     76  C   UNL A   1      39.639  26.906  28.845  1.00  0.00     0.173 A 
ATOM     77  F   UNL A   1      41.780  29.665  27.823  1.00  0.00    -0.203 F 
ATOM     78  C   UNL A   1      41.229  27.669  26.700  1.00  0.00     0.198 A 
ATOM     79  C   UNL A   1      39.765  26.073  27.738  1.00  0.00     0.198 A 
ATOM     80  F   UNL A   1      38.867  26.510  29.868  1.00  0.00    -0.203 F 
ATOM     81  F   UNL A   1      41.981  28.046  25.658  1.00  0.00    -0.200 F 
ATOM     82  C   UNL A   1      40.559  26.454  26.667  1.00  0.00     0.200 A 
ATOM     83  F   UNL A   1      39.127  24.895  27.711  1.00  0.00    -0.200 F 
ATOM     84  F   UNL A   1      40.680  25.651  25.601  1.00  0.00    -0.200 F 
ENDBRANCH  60  74
BRANCH  61  85
ATOM     85  C   UNL A   1      39.847  34.087  36.892  1.00  0.00     0.064 A 
ATOM     86  C   UNL A   1      39.022  33.819  37.991  1.00  0.00     0.173 A 
ATOM     87  C   UNL A   1      40.653  35.233  36.939  1.00  0.00     0.173 A 
ATOM     88  F   UNL A   1      38.219  32.745  37.980  1.00  0.00    -0.203 F 
ATOM     89  C   UNL A   1      39.002  34.667  39.097  1.00  0.00     0.198 A 
ATOM     90  C   UNL A   1      40.649  36.068  38.054  1.00  0.00     0.198 A 
ATOM     91  F   UNL A   1      41.460  35.529  35.909  1.00  0.00    -0.203 F 
ATOM     92  F   UNL A   1      38.184  34.405  40.125  1.00  0.00    -0.200 F 
ATOM     93  C   UNL A   1      39.820  35.786  39.129  1.00  0.00     0.200 A 
ATOM     94  F   UNL A   1      41.451  37.140  38.087  1.00  0.00    -0.200 F 
ATOM     95  F   UNL A   1      39.808  36.597  40.197  1.00  0.00    -0.200 F 
ENDBRANCH  61  85
BRANCH  73  96
ATOM     96  C   UNL A   1      43.824  28.639  35.164  1.00  0.00     0.064 A 
ATOM     97  C   UNL A   1      45.151  29.066  35.022  1.00  0.00     0.173 A 
ATOM     98  C   UNL A   1      43.561  27.568  36.030  1.00  0.00     0.173 A 
ATOM     99  F   UNL A   1      45.449  30.079  34.195  1.00  0.00    -0.203 F 
ATOM    100  C   UNL A   1      46.181  28.436  35.715  1.00  0.00     0.198 A 
ATOM    101  C   UNL A   1      44.590  26.952  36.735  1.00  0.00     0.198 A 
ATOM    102  F   UNL A   1      42.305  27.129  36.200  1.00  0.00    -0.203 F 
ATOM    103  F   UNL A   1      47.446  28.842  35.545  1.00  0.00    -0.200 F 
ATOM    104  C   UNL A   1      45.899  27.384  36.575  1.00  0.00     0.200 A 
ATOM    105  F   UNL A   1      44.316  25.941  37.572  1.00  0.00    -0.200 F 
ATOM    106  F   UNL A   1      46.890  26.784  37.247  1.00  0.00    -0.200 F 
ENDBRANCH  73  96
ENDBRANCH  47  48
ENDBRANCH  39  42
ENDBRANCH  37  38
ENDBRANCH  36  37
ENDBRANCH  35  36
ENDBRANCH   1  35
TORSDOF 17
ENDMDL
MODEL 3
REMARK VINA RESULT:     -13.2      2.220      7.638
REMARK SMILES Cc1c(CC(=O)N[C@@H](Cc2ccc(Cl)cc2)C(=O)NCCCCNC(=O)c2ccc(-c3c4nc(c(-c5c(F)c(F)c(F)c(F)c5F)c5ccc([nH]5)c(-c5c(F)c(F)c(F)c(F)c5F)c5nc(c(-c6c(F)c(F)c(F)c(F)c6F)c6ccc3[nH]6)C=C5)C=C4)cc2)c(=O)oc2cc(O)c(Cl)cc12
REMARK SMILES IDX 20 1 19 2 17 3 18 4 8 6 7 7 5 8 6 9 4 11 3 12 1 13 2 14
REMARK SMILES IDX 100 15 90 16 93 17 99 18 91 19 92 20 94 21 97 22 95 23 98 24
REMARK SMILES IDX 96 25 9 27 10 28 11 29 16 30 12 31 15 32 13 33 14 34 21 35
REMARK SMILES IDX 22 36 23 37 24 38 25 39 26 41 27 42 28 43 89 44 29 45 88 46
REMARK SMILES IDX 30 47 31 48 32 49 82 50 33 51 87 52 81 53 83 54 34 55 86 56
REMARK SMILES IDX 80 57 79 58 35 60 67 61 47 62 66 63 48 64 51 65 65 66 84 67
REMARK SMILES IDX 49 68 50 69 64 71 85 72 52 73 36 74 37 75 45 76 38 77 39 78
REMARK SMILES IDX 43 79 46 80 40 81 41 82 44 83 42 84 68 85 69 86 77 87 70 88
REMARK SMILES IDX 71 89 75 90 78 91 72 92 73 93 76 94 74 95 53 96 54 97 62 98
REMARK SMILES IDX 55 99 56 100 60 101 63 102 57 103 58 104 61 105 59 106
REMARK H PARENT 19 5 7 10 96 26 24 40 83 59 51 70
REMARK Flexibility Score: inf
ROOT
ATOM      1  C   UNL A   1      32.142  26.252  26.487  1.00  0.00     0.116 C 
ENDROOT
BRANCH   1   2
ATOM      2  N   UNL A   1      30.928  25.523  26.798  1.00  0.00    -0.354 N 
ATOM      3  C   UNL A   1      30.549  24.251  26.489  1.00  0.00     0.242 C 
ATOM      4  O   UNL A   1      29.708  23.737  27.237  1.00  0.00    -0.273 OA
ATOM      5  H   UNL A   1      30.268  26.033  27.319  1.00  0.00     0.163 HD
BRANCH   3   6
ATOM      6  C   UNL A   1      31.200  23.409  25.369  1.00  0.00     0.175 C 
BRANCH   6   7
ATOM      7  N   UNL A   1      31.292  21.978  25.672  1.00  0.00    -0.344 N 
ATOM      8  C   UNL A   1      32.218  21.067  25.268  1.00  0.00     0.225 C 
ATOM      9  O   UNL A   1      32.278  20.005  25.889  1.00  0.00    -0.275 OA
ATOM     10  H   UNL A   1      30.580  21.624  26.252  1.00  0.00     0.164 HD
BRANCH   8  11
ATOM     11  C   UNL A   1      33.095  21.327  24.049  1.00  0.00     0.143 C 
BRANCH  11  12
ATOM     12  C   UNL A   1      34.549  21.465  24.455  1.00  0.00     0.051 A 
ATOM     13  C   UNL A   1      34.562  23.985  24.403  1.00  0.00     0.046 C 
ATOM     14  C   UNL A   1      35.185  22.638  24.680  1.00  0.00    -0.029 A 
ATOM     15  C   UNL A   1      36.544  22.623  25.252  1.00  0.00     0.023 A 
ATOM     16  C   UNL A   1      35.253  20.164  24.625  1.00  0.00     0.340 A 
ATOM     17  C   UNL A   1      37.170  21.397  25.464  1.00  0.00     0.142 A 
ATOM     18  C   UNL A   1      37.240  23.776  25.644  1.00  0.00     0.036 A 
ATOM     19  O   UNL A   1      34.715  19.098  24.352  1.00  0.00    -0.246 OA
ATOM     20  O   UNL A   1      36.541  20.191  25.127  1.00  0.00    -0.422 OA
ATOM     21  C   UNL A   1      38.444  21.285  26.028  1.00  0.00     0.095 A 
ATOM     22  C   UNL A   1      38.517  23.687  26.213  1.00  0.00     0.083 A 
ATOM     23  C   UNL A   1      39.117  22.440  26.402  1.00  0.00     0.137 A 
ATOM     24  Cl  UNL A   1      39.313  25.147  26.675  1.00  0.00    -0.080 Cl
BRANCH  23  25
ATOM     25  O   UNL A   1      40.361  22.355  26.962  1.00  0.00    -0.506 OA
ATOM     26  H   UNL A   1      40.541  22.793  27.771  1.00  0.00     0.293 HD
ENDBRANCH  23  25
ENDBRANCH  11  12
ENDBRANCH   8  11
ENDBRANCH   6   7
BRANCH   6  27
ATOM     27  C   UNL A   1      30.634  23.715  23.966  1.00  0.00     0.070 C 
BRANCH  27  28
ATOM     28  C   UNL A   1      30.611  25.162  23.534  1.00  0.00    -0.045 A 
ATOM     29  C   UNL A   1      31.688  25.723  22.834  1.00  0.00     0.005 A 
ATOM     30  C   UNL A   1      29.495  25.964  23.826  1.00  0.00     0.005 A 
ATOM     31  C   UNL A   1      31.635  27.052  22.403  1.00  0.00     0.021 A 
ATOM     32  C   UNL A   1      29.442  27.292  23.392  1.00  0.00     0.021 A 
ATOM     33  C   UNL A   1      30.510  27.827  22.677  1.00  0.00     0.041 A 
ATOM     34  Cl  UNL A   1      30.431  29.451  22.117  1.00  0.00    -0.084 Cl
ENDBRANCH  27  28
ENDBRANCH   6  27
ENDBRANCH   3   6
ENDBRANCH   1   2
BRANCH   1  35
ATOM     35  C   UNL A   1      32.165  27.657  27.069  1.00  0.00     0.023 C 
BRANCH  35  36
ATOM     36  C   UNL A   1      31.889  28.770  26.058  1.00  0.00     0.023 C 
BRANCH  36  37
ATOM     37  C   UNL A   1      32.982  29.827  25.916  1.00  0.00     0.116 C 
BRANCH  37  38
ATOM     38  N   UNL A   1      32.644  31.121  26.496  1.00  0.00    -0.352 N 
ATOM     39  C   UNL A   1      33.408  31.902  27.335  1.00  0.00     0.251 C 
ATOM     40  H   UNL A   1      31.760  31.482  26.257  1.00  0.00     0.163 HD
ATOM     41  O   UNL A   1      32.978  32.952  27.793  1.00  0.00    -0.269 OA
BRANCH  39  42
ATOM     42  C   UNL A   1      34.741  31.405  27.727  1.00  0.00     0.039 A 
ATOM     43  C   UNL A   1      34.925  30.056  28.032  1.00  0.00     0.014 A 
ATOM     44  C   UNL A   1      35.768  32.332  27.923  1.00  0.00     0.014 A 
ATOM     45  C   UNL A   1      36.073  29.665  28.711  1.00  0.00     0.010 A 
ATOM     46  C   UNL A   1      36.948  31.923  28.546  1.00  0.00     0.010 A 
ATOM     47  C   UNL A   1      37.077  30.603  29.006  1.00  0.00    -0.014 A 
BRANCH  47  48
ATOM     48  C   UNL A   1      38.219  30.203  29.867  1.00  0.00     0.031 A 
ATOM     49  C   UNL A   1      39.345  29.381  29.296  1.00  0.00     0.074 A 
ATOM     50  C   UNL A   1      38.279  30.645  31.135  1.00  0.00     0.049 A 
ATOM     51  N   UNL A   1      40.426  28.938  29.888  1.00  0.00    -0.248 NA
ATOM     52  C   UNL A   1      39.248  29.008  27.875  1.00  0.00     0.031 C 
ATOM     53  C   UNL A   1      37.268  31.477  31.785  1.00  0.00     0.029 A 
ATOM     54  N   UNL A   1      39.246  30.481  32.093  1.00  0.00    -0.354 N 
ATOM     55  C   UNL A   1      41.123  28.223  28.923  1.00  0.00     0.074 A 
ATOM     56  C   UNL A   1      40.339  28.272  27.708  1.00  0.00     0.031 C 
ATOM     57  C   UNL A   1      37.689  31.794  33.018  1.00  0.00     0.029 A 
ATOM     58  C   UNL A   1      38.974  31.144  33.263  1.00  0.00     0.049 A 
ATOM     59  H   UNL A   1      40.056  29.939  31.956  1.00  0.00     0.167 HD
ATOM     60  C   UNL A   1      42.315  27.592  29.038  1.00  0.00     0.037 A 
ATOM     61  C   UNL A   1      39.678  31.214  34.408  1.00  0.00     0.037 A 
ATOM     62  C   UNL A   1      43.111  27.566  30.237  1.00  0.00     0.049 A 
ATOM     63  C   UNL A   1      40.981  30.475  34.517  1.00  0.00     0.074 A 
ATOM     64  C   UNL A   1      44.328  26.943  30.452  1.00  0.00     0.029 A 
ATOM     65  N   UNL A   1      42.774  28.207  31.418  1.00  0.00    -0.354 N 
ATOM     66  N   UNL A   1      41.610  29.772  33.609  1.00  0.00    -0.248 NA
ATOM     67  C   UNL A   1      41.665  30.529  35.817  1.00  0.00     0.031 C 
ATOM     68  C   UNL A   1      44.717  27.188  31.772  1.00  0.00     0.029 A 
ATOM     69  C   UNL A   1      43.757  27.990  32.369  1.00  0.00     0.049 A 
ATOM     70  H   UNL A   1      41.957  28.737  31.562  1.00  0.00     0.167 HD
ATOM     71  C   UNL A   1      42.765  29.308  34.220  1.00  0.00     0.074 A 
ATOM     72  C   UNL A   1      42.761  29.824  35.573  1.00  0.00     0.031 C 
ATOM     73  C   UNL A   1      43.738  28.516  33.708  1.00  0.00     0.037 A 
BRANCH  60  74
ATOM     74  C   UNL A   1      42.845  26.867  27.837  1.00  0.00     0.064 A 
ATOM     75  C   UNL A   1      43.557  27.540  26.834  1.00  0.00     0.173 A 
ATOM     76  C   UNL A   1      42.712  25.474  27.731  1.00  0.00     0.173 A 
ATOM     77  F   UNL A   1      43.697  28.873  26.886  1.00  0.00    -0.203 F 
ATOM     78  C   UNL A   1      44.115  26.844  25.764  1.00  0.00     0.198 A 
ATOM     79  C   UNL A   1      43.287  24.780  26.671  1.00  0.00     0.198 A 
ATOM     80  F   UNL A   1      42.044  24.786  28.669  1.00  0.00    -0.203 F 
ATOM     81  F   UNL A   1      44.775  27.508  24.806  1.00  0.00    -0.200 F 
ATOM     82  C   UNL A   1      43.987  25.465  25.689  1.00  0.00     0.200 A 
ATOM     83  F   UNL A   1      43.173  23.447  26.604  1.00  0.00    -0.200 F 
ATOM     84  F   UNL A   1      44.540  24.795  24.668  1.00  0.00    -0.200 F 
ENDBRANCH  60  74
BRANCH  61  85
ATOM     85  C   UNL A   1      39.160  32.023  35.538  1.00  0.00     0.064 A 
ATOM     86  C   UNL A   1      38.364  31.439  36.531  1.00  0.00     0.173 A 
ATOM     87  C   UNL A   1      39.468  33.385  35.659  1.00  0.00     0.173 A 
ATOM     88  F   UNL A   1      38.028  30.144  36.444  1.00  0.00    -0.203 F 
ATOM     89  C   UNL A   1      37.890  32.190  37.605  1.00  0.00     0.198 A 
ATOM     90  C   UNL A   1      39.013  34.130  36.744  1.00  0.00     0.198 A 
ATOM     91  F   UNL A   1      40.228  33.987  34.732  1.00  0.00    -0.203 F 
ATOM     92  F   UNL A   1      37.107  31.616  38.527  1.00  0.00    -0.200 F 
ATOM     93  C   UNL A   1      38.221  33.533  37.713  1.00  0.00     0.200 A 
ATOM     94  F   UNL A   1      39.345  35.423  36.852  1.00  0.00    -0.200 F 
ATOM     95  F   UNL A   1      37.773  34.253  38.752  1.00  0.00    -0.200 F 
ENDBRANCH  61  85
BRANCH  73  96
ATOM     96  C   UNL A   1      44.884  28.169  34.606  1.00  0.00     0.064 A 
ATOM     97  C   UNL A   1      44.869  27.004  35.385  1.00  0.00     0.173 A 
ATOM     98  C   UNL A   1      46.029  28.978  34.643  1.00  0.00     0.173 A 
ATOM     99  F   UNL A   1      43.789  26.209  35.390  1.00  0.00    -0.203 F 
ATOM    100  C   UNL A   1      45.959  26.667  36.183  1.00  0.00     0.198 A 
ATOM    101  C   UNL A   1      47.124  28.627  35.426  1.00  0.00     0.198 A 
ATOM    102  F   UNL A   1      46.089  30.098  33.908  1.00  0.00    -0.203 F 
ATOM    103  F   UNL A   1      45.915  25.564  36.943  1.00  0.00    -0.200 F 
ATOM    104  C   UNL A   1      47.087  27.475  36.198  1.00  0.00     0.200 A 
ATOM    105  F   UNL A   1      48.216  29.404  35.435  1.00  0.00    -0.200 F 
ATOM    106  F   UNL A   1      48.138  27.144  36.960  1.00  0.00    -0.200 F 
ENDBRANCH  73  96
ENDBRANCH  47  48
ENDBRANCH  39  42
ENDBRANCH  37  38
ENDBRANCH  36  37
ENDBRANCH  35  36
ENDBRANCH   1  35
TORSDOF 17
ENDMDL
