MODEL 1
REMARK VINA RESULT:     -14.4      0.000      0.000
REMARK SMILES COc1c(C)cccc1C(=O)NC(=S)Nc1ccc(C(=O)NCCCCNC(=O)c2ccc(-c3c4nc(c(-c5c(F)c(F)c(F)c(F)c5F)c5ccc([nH]5)c(-c5c(F)c(F)c(F)c(F)c5F)c5nc(c(-c6c(F)c(F)c(F)c(F)c6F)c6ccc3[nH]6)C=C5)C=C4)cc2)cc1C
REMARK SMILES IDX 23 1 22 2 20 3 21 4 19 6 16 7 17 8 94 9 18 10 93 11 95 12
REMARK SMILES IDX 15 13 13 15 14 16 12 17 10 18 11 19 9 21 3 22 4 23 5 24 6 25
REMARK SMILES IDX 8 26 7 27 2 28 1 29 24 30 25 31 26 32 27 33 28 34 29 36
REMARK SMILES IDX 30 37 31 38 92 39 32 40 91 41 33 42 34 43 35 44 85 45 36 46
REMARK SMILES IDX 90 47 84 48 86 49 37 50 89 51 83 52 82 53 38 55 70 56 50 57
REMARK SMILES IDX 69 58 51 59 54 60 68 61 87 62 52 63 53 64 67 66 88 67 55 68
REMARK SMILES IDX 39 69 40 70 48 71 41 72 42 73 46 74 49 75 43 76 44 77 47 78
REMARK SMILES IDX 45 79 71 80 72 81 80 82 73 83 74 84 78 85 81 86 75 87 76 88
REMARK SMILES IDX 79 89 77 90 56 91 57 92 65 93 58 94 59 95 63 96 66 97 60 98
REMARK SMILES IDX 61 99 64 100 62 101
REMARK H PARENT 22 5 15 14 12 20 27 35 86 54 54 65
REMARK Flexibility Score: inf
ROOT
ATOM      1  C   UNL A   1      33.337  33.876  28.429  1.00  0.00     0.116 C 
ENDROOT
BRANCH   1   2
ATOM      2  N   UNL A   1      34.361  33.151  27.713  1.00  0.00    -0.352 N 
ATOM      3  C   UNL A   1      34.549  31.790  27.818  1.00  0.00     0.251 C 
ATOM      4  O   UNL A   1      35.573  31.465  28.426  1.00  0.00    -0.269 OA
ATOM      5  H   UNL A   1      34.958  33.657  27.115  1.00  0.00     0.163 HD
BRANCH   3   6
ATOM      6  C   UNL A   1      33.433  30.709  27.280  1.00  0.00     0.040 A 
ATOM      7  C   UNL A   1      32.480  27.883  25.358  1.00  0.00     0.043 A 
ATOM      8  C   UNL A   1      34.023  28.011  26.174  1.00  0.00     0.027 A 
ATOM      9  C   UNL A   1      31.371  29.345  25.155  1.00  0.00    -0.027 A 
ATOM     10  C   UNL A   1      34.464  29.296  27.130  1.00  0.00     0.016 A 
ATOM     11  C   UNL A   1      31.683  30.774  26.286  1.00  0.00     0.019 A 
ATOM     12  C   UNL A   1      30.512  29.731  23.974  1.00  0.00     0.046 C 
BRANCH   7  13
ATOM     13  N   UNL A   1      32.106  26.719  26.395  1.00  0.00    -0.332 N 
ATOM     14  H   UNL A   1      32.278  27.011  27.319  1.00  0.00     0.169 HD
BRANCH  13  15
ATOM     15  C   UNL A   1      31.599  25.384  26.380  1.00  0.00     0.177 C 
ATOM     16  S   UNL A   1      30.148  25.177  25.531  1.00  0.00    -0.040 S 
BRANCH  15  17
ATOM     17  N   UNL A   1      32.043  24.182  27.045  1.00  0.00    -0.299 N 
ATOM     18  C   UNL A   1      33.065  23.116  27.290  1.00  0.00     0.261 C 
ATOM     19  O   UNL A   1      32.896  22.239  28.130  1.00  0.00    -0.269 OA
ATOM     20  H   UNL A   1      31.294  23.942  27.639  1.00  0.00     0.172 HD
BRANCH  18  21
ATOM     21  C   UNL A   1      34.272  23.121  26.456  1.00  0.00     0.082 A 
ATOM     22  C   UNL A   1      34.433  21.462  26.004  1.00  0.00     0.134 A 
ATOM     23  C   UNL A   1      36.152  20.743  25.230  1.00  0.00    -0.008 A 
ATOM     24  C   UNL A   1      36.713  19.361  24.764  1.00  0.00     0.048 C 
ATOM     25  C   UNL A   1      37.433  21.984  24.816  1.00  0.00     0.007 A 
ATOM     26  C   UNL A   1      35.558  24.210  26.027  1.00  0.00     0.018 A 
ATOM     27  C   UNL A   1      37.071  23.698  25.215  1.00  0.00     0.001 A 
BRANCH  22  28
ATOM     28  O   UNL A   1      33.004  21.974  25.019  1.00  0.00    -0.496 OA
ATOM     29  C   UNL A   1      32.207  21.284  23.954  1.00  0.00     0.278 C 
ENDBRANCH  22  28
ENDBRANCH  18  21
ENDBRANCH  15  17
ENDBRANCH  13  15
ENDBRANCH   7  13
ENDBRANCH   3   6
ENDBRANCH   1   2
BRANCH   1  30
ATOM     30  C   UNL A   1      33.667  35.375  28.608  1.00  0.00     0.023 C 
BRANCH  30  31
ATOM     31  C   UNL A   1      32.917  36.151  29.685  1.00  0.00     0.023 C 
BRANCH  31  32
ATOM     32  C   UNL A   1      32.923  35.494  31.039  1.00  0.00     0.116 C 
BRANCH  32  33
ATOM     33  N   UNL A   1      33.996  35.942  31.909  1.00  0.00    -0.352 N 
ATOM     34  C   UNL A   1      34.874  35.187  32.666  1.00  0.00     0.251 C 
ATOM     35  H   UNL A   1      34.115  36.918  31.970  1.00  0.00     0.163 HD
ATOM     36  O   UNL A   1      35.457  35.705  33.613  1.00  0.00    -0.269 OA
BRANCH  34  37
ATOM     37  C   UNL A   1      35.291  33.840  32.190  1.00  0.00     0.039 A 
ATOM     38  C   UNL A   1      35.422  32.867  33.194  1.00  0.00     0.014 A 
ATOM     39  C   UNL A   1      36.023  33.726  31.021  1.00  0.00     0.014 A 
ATOM     40  C   UNL A   1      36.528  32.037  33.182  1.00  0.00     0.010 A 
ATOM     41  C   UNL A   1      37.227  33.095  31.108  1.00  0.00     0.010 A 
ATOM     42  C   UNL A   1      37.488  32.293  32.217  1.00  0.00    -0.014 A 
BRANCH  42  43
ATOM     43  C   UNL A   1      38.773  31.652  32.129  1.00  0.00     0.031 A 
ATOM     44  C   UNL A   1      38.770  30.439  31.300  1.00  0.00     0.074 A 
ATOM     45  C   UNL A   1      39.828  32.379  32.562  1.00  0.00     0.049 A 
ATOM     46  N   UNL A   1      39.617  29.486  31.399  1.00  0.00    -0.248 NA
ATOM     47  C   UNL A   1      37.724  30.149  30.310  1.00  0.00     0.031 C 
ATOM     48  C   UNL A   1      41.249  32.247  32.270  1.00  0.00     0.029 A 
ATOM     49  N   UNL A   1      39.788  33.391  33.540  1.00  0.00    -0.354 N 
ATOM     50  C   UNL A   1      39.496  28.735  30.245  1.00  0.00     0.074 A 
ATOM     51  C   UNL A   1      38.201  29.052  29.716  1.00  0.00     0.031 C 
ATOM     52  C   UNL A   1      41.952  32.842  33.256  1.00  0.00     0.029 A 
ATOM     53  C   UNL A   1      40.996  33.264  34.267  1.00  0.00     0.049 A 
ATOM     54  H   UNL A   1      39.071  34.049  33.688  1.00  0.00     0.167 HD
ATOM     55  C   UNL A   1      40.621  28.123  29.781  1.00  0.00     0.037 A 
ATOM     56  C   UNL A   1      40.957  32.808  35.558  1.00  0.00     0.037 A 
ATOM     57  C   UNL A   1      41.718  28.419  30.701  1.00  0.00     0.049 A 
ATOM     58  C   UNL A   1      41.591  31.441  35.665  1.00  0.00     0.074 A 
ATOM     59  C   UNL A   1      42.702  29.393  30.677  1.00  0.00     0.029 A 
ATOM     60  N   UNL A   1      41.623  27.981  32.013  1.00  0.00    -0.354 N 
ATOM     61  N   UNL A   1      41.597  30.566  34.694  1.00  0.00    -0.248 NA
ATOM     62  C   UNL A   1      42.313  30.982  36.846  1.00  0.00     0.031 C 
ATOM     63  C   UNL A   1      43.171  29.562  32.007  1.00  0.00     0.029 A 
ATOM     64  C   UNL A   1      42.472  28.694  32.832  1.00  0.00     0.049 A 
ATOM     65  H   UNL A   1      41.029  27.257  32.319  1.00  0.00     0.167 HD
ATOM     66  C   UNL A   1      42.325  29.470  35.079  1.00  0.00     0.074 A 
ATOM     67  C   UNL A   1      42.747  29.780  36.432  1.00  0.00     0.031 C 
ATOM     68  C   UNL A   1      42.538  28.402  34.254  1.00  0.00     0.037 A 
BRANCH  55  69
ATOM     69  C   UNL A   1      40.855  27.535  28.407  1.00  0.00     0.064 A 
ATOM     70  C   UNL A   1      40.369  26.236  28.119  1.00  0.00     0.173 A 
ATOM     71  C   UNL A   1      41.539  28.150  27.343  1.00  0.00     0.173 A 
ATOM     72  F   UNL A   1      39.646  25.543  29.008  1.00  0.00    -0.203 F 
ATOM     73  C   UNL A   1      40.597  25.593  26.901  1.00  0.00     0.198 A 
ATOM     74  C   UNL A   1      41.778  27.500  26.124  1.00  0.00     0.198 A 
ATOM     75  F   UNL A   1      41.970  29.413  27.412  1.00  0.00    -0.203 F 
ATOM     76  F   UNL A   1      40.118  24.358  26.705  1.00  0.00    -0.200 F 
ATOM     77  C   UNL A   1      41.311  26.221  25.906  1.00  0.00     0.200 A 
ATOM     78  F   UNL A   1      42.461  28.131  25.158  1.00  0.00    -0.200 F 
ATOM     79  F   UNL A   1      41.531  25.605  24.737  1.00  0.00    -0.200 F 
ENDBRANCH  55  69
BRANCH  56  80
ATOM     80  C   UNL A   1      39.703  33.250  36.245  1.00  0.00     0.064 A 
ATOM     81  C   UNL A   1      38.741  32.251  36.517  1.00  0.00     0.173 A 
ATOM     82  C   UNL A   1      39.675  34.402  37.041  1.00  0.00     0.173 A 
ATOM     83  F   UNL A   1      38.698  31.141  35.763  1.00  0.00    -0.203 F 
ATOM     84  C   UNL A   1      37.957  32.298  37.667  1.00  0.00     0.198 A 
ATOM     85  C   UNL A   1      38.841  34.470  38.160  1.00  0.00     0.198 A 
ATOM     86  F   UNL A   1      40.543  35.401  36.826  1.00  0.00    -0.203 F 
ATOM     87  F   UNL A   1      37.213  31.237  38.013  1.00  0.00    -0.200 F 
ATOM     88  C   UNL A   1      38.034  33.395  38.506  1.00  0.00     0.200 A 
ATOM     89  F   UNL A   1      38.901  35.537  38.972  1.00  0.00    -0.200 F 
ATOM     90  F   UNL A   1      37.365  33.397  39.667  1.00  0.00    -0.200 F 
ENDBRANCH  56  80
BRANCH  68  91
ATOM     91  C   UNL A   1      42.940  27.008  34.695  1.00  0.00     0.064 A 
ATOM     92  C   UNL A   1      42.026  26.031  35.117  1.00  0.00     0.173 A 
ATOM     93  C   UNL A   1      44.279  26.555  34.568  1.00  0.00     0.173 A 
ATOM     94  F   UNL A   1      40.705  26.245  35.102  1.00  0.00    -0.203 F 
ATOM     95  C   UNL A   1      42.434  24.756  35.512  1.00  0.00     0.198 A 
ATOM     96  C   UNL A   1      44.665  25.251  34.865  1.00  0.00     0.198 A 
ATOM     97  F   UNL A   1      45.267  27.344  34.123  1.00  0.00    -0.203 F 
ATOM     98  F   UNL A   1      41.529  23.898  36.000  1.00  0.00    -0.200 F 
ATOM     99  C   UNL A   1      43.750  24.363  35.378  1.00  0.00     0.200 A 
ATOM    100  F   UNL A   1      45.928  24.865  34.635  1.00  0.00    -0.200 F 
ATOM    101  F   UNL A   1      44.130  23.126  35.721  1.00  0.00    -0.200 F 
ENDBRANCH  68  91
ENDBRANCH  42  43
ENDBRANCH  34  37
ENDBRANCH  32  33
ENDBRANCH  31  32
ENDBRANCH  30  31
ENDBRANCH   1  30
TORSDOF 16
ENDMDL
MODEL 2
REMARK VINA RESULT:     -14.3      5.174     11.513
REMARK SMILES COc1c(C)cccc1C(=O)NC(=S)Nc1ccc(C(=O)NCCCCNC(=O)c2ccc(-c3c4nc(c(-c5c(F)c(F)c(F)c(F)c5F)c5ccc([nH]5)c(-c5c(F)c(F)c(F)c(F)c5F)c5nc(c(-c6c(F)c(F)c(F)c(F)c6F)c6ccc3[nH]6)C=C5)C=C4)cc2)cc1C
REMARK SMILES IDX 23 1 22 2 20 3 21 4 19 6 16 7 17 8 94 9 18 10 93 11 95 12
REMARK SMILES IDX 15 13 13 15 14 16 12 17 10 18 11 19 9 21 3 22 4 23 5 24 6 25
REMARK SMILES IDX 8 26 7 27 2 28 1 29 24 30 25 31 26 32 27 33 28 34 29 36
REMARK SMILES IDX 30 37 31 38 92 39 32 40 91 41 33 42 34 43 35 44 85 45 36 46
REMARK SMILES IDX 90 47 84 48 86 49 37 50 89 51 83 52 82 53 38 55 70 56 50 57
REMARK SMILES IDX 69 58 51 59 54 60 68 61 87 62 52 63 53 64 67 66 88 67 55 68
REMARK SMILES IDX 39 69 40 70 48 71 41 72 42 73 46 74 49 75 43 76 44 77 47 78
REMARK SMILES IDX 45 79 71 80 72 81 80 82 73 83 74 84 78 85 81 86 75 87 76 88
REMARK SMILES IDX 79 89 77 90 56 91 57 92 65 93 58 94 59 95 63 96 66 97 60 98
REMARK SMILES IDX 61 99 64 100 62 101
REMARK H PARENT 22 5 15 14 12 20 27 35 86 54 54 65
REMARK Flexibility Score: inf
ROOT
ATOM      1  C   UNL A   1      41.005  19.939  26.171  1.00  0.00     0.116 C 
ENDROOT
BRANCH   1   2
ATOM      2  N   UNL A   1      40.375  20.995  26.931  1.00  0.00    -0.352 N 
ATOM      3  C   UNL A   1      39.675  22.034  26.358  1.00  0.00     0.251 C 
ATOM      4  O   UNL A   1      40.242  23.127  26.427  1.00  0.00    -0.269 OA
ATOM      5  H   UNL A   1      40.449  20.970  27.913  1.00  0.00     0.163 HD
BRANCH   3   6
ATOM      6  C   UNL A   1      38.262  21.795  25.551  1.00  0.00     0.040 A 
ATOM      7  C   UNL A   1      34.726  21.972  25.303  1.00  0.00     0.043 A 
ATOM      8  C   UNL A   1      35.693  23.194  26.100  1.00  0.00     0.027 A 
ATOM      9  C   UNL A   1      35.438  20.335  24.829  1.00  0.00    -0.027 A 
ATOM     10  C   UNL A   1      37.353  23.164  26.173  1.00  0.00     0.016 A 
ATOM     11  C   UNL A   1      37.282  20.241  24.729  1.00  0.00     0.019 A 
ATOM     12  C   UNL A   1      34.801  18.967  24.890  1.00  0.00     0.046 C 
BRANCH   7  13
ATOM     13  N   UNL A   1      34.392  23.067  24.181  1.00  0.00    -0.332 N 
ATOM     14  H   UNL A   1      34.992  23.842  24.266  1.00  0.00     0.169 HD
BRANCH  13  15
ATOM     15  C   UNL A   1      33.484  23.254  23.096  1.00  0.00     0.177 C 
ATOM     16  S   UNL A   1      32.411  21.971  22.826  1.00  0.00    -0.040 S 
BRANCH  15  17
ATOM     17  N   UNL A   1      33.373  24.302  22.108  1.00  0.00    -0.299 N 
ATOM     18  C   UNL A   1      33.153  25.733  21.730  1.00  0.00     0.261 C 
ATOM     19  O   UNL A   1      33.232  26.114  20.566  1.00  0.00    -0.269 OA
ATOM     20  H   UNL A   1      33.513  23.842  21.249  1.00  0.00     0.172 HD
BRANCH  18  21
ATOM     21  C   UNL A   1      32.792  26.676  22.795  1.00  0.00     0.082 A 
ATOM     22  C   UNL A   1      31.182  27.134  22.373  1.00  0.00     0.134 A 
ATOM     23  C   UNL A   1      30.298  28.751  23.194  1.00  0.00    -0.008 A 
ATOM     24  C   UNL A   1      28.940  29.514  23.054  1.00  0.00     0.048 C 
ATOM     25  C   UNL A   1      31.199  29.553  24.571  1.00  0.00     0.007 A 
ATOM     26  C   UNL A   1      33.561  27.517  24.109  1.00  0.00     0.018 A 
ATOM     27  C   UNL A   1      32.809  28.880  24.996  1.00  0.00     0.001 A 
BRANCH  22  28
ATOM     28  O   UNL A   1      30.942  25.436  22.948  1.00  0.00    -0.496 OA
ATOM     29  C   UNL A   1      30.295  24.861  24.172  1.00  0.00     0.278 C 
ENDBRANCH  22  28
ENDBRANCH  18  21
ENDBRANCH  15  17
ENDBRANCH  13  15
ENDBRANCH   7  13
ENDBRANCH   3   6
ENDBRANCH   1   2
BRANCH   1  30
ATOM     30  C   UNL A   1      42.132  19.222  26.949  1.00  0.00     0.023 C 
BRANCH  30  31
ATOM     31  C   UNL A   1      43.303  18.655  26.155  1.00  0.00     0.023 C 
BRANCH  31  32
ATOM     32  C   UNL A   1      43.813  19.565  25.070  1.00  0.00     0.116 C 
BRANCH  32  33
ATOM     33  N   UNL A   1      45.063  20.229  25.393  1.00  0.00    -0.352 N 
ATOM     34  C   UNL A   1      45.385  21.571  25.297  1.00  0.00     0.251 C 
ATOM     35  H   UNL A   1      45.781  19.643  25.727  1.00  0.00     0.163 HD
ATOM     36  O   UNL A   1      46.563  21.909  25.249  1.00  0.00    -0.269 OA
BRANCH  34  37
ATOM     37  C   UNL A   1      44.329  22.600  25.500  1.00  0.00     0.039 A 
ATOM     38  C   UNL A   1      44.451  23.744  24.693  1.00  0.00     0.014 A 
ATOM     39  C   UNL A   1      43.682  22.684  26.720  1.00  0.00     0.014 A 
ATOM     40  C   UNL A   1      44.273  24.990  25.267  1.00  0.00     0.010 A 
ATOM     41  C   UNL A   1      43.734  23.883  27.364  1.00  0.00     0.010 A 
ATOM     42  C   UNL A   1      44.080  25.022  26.638  1.00  0.00    -0.014 A 
BRANCH  42  43
ATOM     43  C   UNL A   1      44.030  26.211  27.445  1.00  0.00     0.031 A 
ATOM     44  C   UNL A   1      42.699  26.833  27.497  1.00  0.00     0.074 A 
ATOM     45  C   UNL A   1      45.096  26.427  28.249  1.00  0.00     0.049 A 
ATOM     46  N   UNL A   1      42.479  28.063  27.762  1.00  0.00    -0.248 NA
ATOM     47  C   UNL A   1      41.465  26.110  27.158  1.00  0.00     0.031 C 
ATOM     48  C   UNL A   1      45.226  27.249  29.445  1.00  0.00     0.029 A 
ATOM     49  N   UNL A   1      46.411  25.981  28.014  1.00  0.00    -0.354 N 
ATOM     50  C   UNL A   1      41.133  28.164  28.061  1.00  0.00     0.074 A 
ATOM     51  C   UNL A   1      40.525  27.002  27.481  1.00  0.00     0.031 C 
ATOM     52  C   UNL A   1      46.530  27.544  29.629  1.00  0.00     0.029 A 
ATOM     53  C   UNL A   1      47.252  27.019  28.482  1.00  0.00     0.049 A 
ATOM     54  H   UNL A   1      46.687  25.126  27.610  1.00  0.00     0.167 HD
ATOM     55  C   UNL A   1      40.766  29.113  28.967  1.00  0.00     0.037 A 
ATOM     56  C   UNL A   1      47.956  27.769  27.579  1.00  0.00     0.037 A 
ATOM     57  C   UNL A   1      41.965  29.837  29.385  1.00  0.00     0.049 A 
ATOM     58  C   UNL A   1      47.439  29.188  27.537  1.00  0.00     0.074 A 
ATOM     59  C   UNL A   1      42.807  29.674  30.473  1.00  0.00     0.029 A 
ATOM     60  N   UNL A   1      42.679  30.549  28.433  1.00  0.00    -0.354 N 
ATOM     61  N   UNL A   1      46.198  29.515  27.789  1.00  0.00    -0.248 NA
ATOM     62  C   UNL A   1      48.287  30.343  27.272  1.00  0.00     0.031 C 
ATOM     63  C   UNL A   1      44.055  30.267  30.144  1.00  0.00     0.029 A 
ATOM     64  C   UNL A   1      43.968  30.785  28.861  1.00  0.00     0.049 A 
ATOM     65  H   UNL A   1      42.314  30.847  27.567  1.00  0.00     0.167 HD
ATOM     66  C   UNL A   1      46.077  30.880  27.757  1.00  0.00     0.074 A 
ATOM     67  C   UNL A   1      47.409  31.349  27.427  1.00  0.00     0.031 C 
ATOM     68  C   UNL A   1      44.898  31.520  28.019  1.00  0.00     0.037 A 
BRANCH  55  69
ATOM     69  C   UNL A   1      39.454  29.223  29.712  1.00  0.00     0.064 A 
ATOM     70  C   UNL A   1      38.353  29.854  29.085  1.00  0.00     0.173 A 
ATOM     71  C   UNL A   1      39.197  28.763  31.016  1.00  0.00     0.173 A 
ATOM     72  F   UNL A   1      38.421  30.294  27.821  1.00  0.00    -0.203 F 
ATOM     73  C   UNL A   1      37.128  30.056  29.723  1.00  0.00     0.198 A 
ATOM     74  C   UNL A   1      37.970  28.977  31.662  1.00  0.00     0.198 A 
ATOM     75  F   UNL A   1      40.092  28.055  31.710  1.00  0.00    -0.203 F 
ATOM     76  F   UNL A   1      36.135  30.674  29.070  1.00  0.00    -0.200 F 
ATOM     77  C   UNL A   1      36.939  29.627  31.017  1.00  0.00     0.200 A 
ATOM     78  F   UNL A   1      37.796  28.537  32.917  1.00  0.00    -0.200 F 
ATOM     79  F   UNL A   1      35.765  29.820  31.631  1.00  0.00    -0.200 F 
ENDBRANCH  55  69
BRANCH  56  80
ATOM     80  C   UNL A   1      48.356  26.947  26.393  1.00  0.00     0.064 A 
ATOM     81  C   UNL A   1      47.668  27.199  25.184  1.00  0.00     0.173 A 
ATOM     82  C   UNL A   1      49.629  26.372  26.300  1.00  0.00     0.173 A 
ATOM     83  F   UNL A   1      46.429  27.715  25.214  1.00  0.00    -0.203 F 
ATOM     84  C   UNL A   1      48.313  27.103  23.954  1.00  0.00     0.198 A 
ATOM     85  C   UNL A   1      50.249  26.220  25.057  1.00  0.00     0.198 A 
ATOM     86  F   UNL A   1      50.330  26.085  27.406  1.00  0.00    -0.203 F 
ATOM     87  F   UNL A   1      47.709  27.555  22.845  1.00  0.00    -0.200 F 
ATOM     88  C   UNL A   1      49.617  26.645  23.897  1.00  0.00     0.200 A 
ATOM     89  F   UNL A   1      51.510  25.765  24.993  1.00  0.00    -0.200 F 
ATOM     90  F   UNL A   1      50.278  26.654  22.730  1.00  0.00    -0.200 F 
ENDBRANCH  56  80
BRANCH  68  91
ATOM     91  C   UNL A   1      44.548  32.936  27.607  1.00  0.00     0.064 A 
ATOM     92  C   UNL A   1      43.996  33.272  26.362  1.00  0.00     0.173 A 
ATOM     93  C   UNL A   1      44.628  34.010  28.532  1.00  0.00     0.173 A 
ATOM     94  F   UNL A   1      43.678  32.340  25.456  1.00  0.00    -0.203 F 
ATOM     95  C   UNL A   1      43.683  34.588  26.020  1.00  0.00     0.198 A 
ATOM     96  C   UNL A   1      44.218  35.304  28.221  1.00  0.00     0.198 A 
ATOM     97  F   UNL A   1      45.078  33.851  29.784  1.00  0.00    -0.203 F 
ATOM     98  F   UNL A   1      43.252  34.862  24.782  1.00  0.00    -0.200 F 
ATOM     99  C   UNL A   1      43.786  35.603  26.951  1.00  0.00     0.200 A 
ATOM    100  F   UNL A   1      44.235  36.250  29.171  1.00  0.00    -0.200 F 
ATOM    101  F   UNL A   1      43.447  36.857  26.631  1.00  0.00    -0.200 F 
ENDBRANCH  68  91
ENDBRANCH  42  43
ENDBRANCH  34  37
ENDBRANCH  32  33
ENDBRANCH  31  32
ENDBRANCH  30  31
ENDBRANCH   1  30
TORSDOF 16
ENDMDL
MODEL 3
REMARK VINA RESULT:     -13.8      1.275      2.076
REMARK SMILES COc1c(C)cccc1C(=O)NC(=S)Nc1ccc(C(=O)NCCCCNC(=O)c2ccc(-c3c4nc(c(-c5c(F)c(F)c(F)c(F)c5F)c5ccc([nH]5)c(-c5c(F)c(F)c(F)c(F)c5F)c5nc(c(-c6c(F)c(F)c(F)c(F)c6F)c6ccc3[nH]6)C=C5)C=C4)cc2)cc1C
REMARK SMILES IDX 23 1 22 2 20 3 21 4 19 6 16 7 17 8 94 9 18 10 93 11 95 12
REMARK SMILES IDX 15 13 13 15 14 16 12 17 10 18 11 19 9 21 3 22 4 23 5 24 6 25
REMARK SMILES IDX 8 26 7 27 2 28 1 29 24 30 25 31 26 32 27 33 28 34 29 36
REMARK SMILES IDX 30 37 31 38 92 39 32 40 91 41 33 42 34 43 35 44 85 45 36 46
REMARK SMILES IDX 90 47 84 48 86 49 37 50 89 51 83 52 82 53 38 55 70 56 50 57
REMARK SMILES IDX 69 58 51 59 54 60 68 61 87 62 52 63 53 64 67 66 88 67 55 68
REMARK SMILES IDX 39 69 40 70 48 71 41 72 42 73 46 74 49 75 43 76 44 77 47 78
REMARK SMILES IDX 45 79 71 80 72 81 80 82 73 83 74 84 78 85 81 86 75 87 76 88
REMARK SMILES IDX 79 89 77 90 56 91 57 92 65 93 58 94 59 95 63 96 66 97 60 98
REMARK SMILES IDX 61 99 64 100 62 101
REMARK H PARENT 22 5 15 14 12 20 27 35 86 54 54 65
REMARK Flexibility Score: inf
ROOT
ATOM      1  C   UNL A   1      33.685  33.029  28.710  1.00  0.00     0.116 C 
ENDROOT
BRANCH   1   2
ATOM      2  N   UNL A   1      34.625  32.306  27.883  1.00  0.00    -0.352 N 
ATOM      3  C   UNL A   1      34.562  30.948  27.664  1.00  0.00     0.251 C 
ATOM      4  O   UNL A   1      35.455  30.302  28.217  1.00  0.00    -0.269 OA
ATOM      5  H   UNL A   1      35.351  32.813  27.452  1.00  0.00     0.163 HD
BRANCH   3   6
ATOM      6  C   UNL A   1      33.324  30.254  26.831  1.00  0.00     0.040 A 
ATOM      7  C   UNL A   1      31.934  28.825  23.896  1.00  0.00     0.043 A 
ATOM      8  C   UNL A   1      33.600  28.590  24.379  1.00  0.00     0.027 A 
ATOM      9  C   UNL A   1      30.869  30.106  24.692  1.00  0.00    -0.027 A 
ATOM     10  C   UNL A   1      34.254  29.197  25.781  1.00  0.00     0.016 A 
ATOM     11  C   UNL A   1      31.433  30.734  26.337  1.00  0.00     0.019 A 
ATOM     12  C   UNL A   1      29.835  31.009  24.063  1.00  0.00     0.046 C 
BRANCH   7  13
ATOM     13  N   UNL A   1      31.699  27.269  24.201  1.00  0.00    -0.332 N 
ATOM     14  H   UNL A   1      31.766  27.093  25.167  1.00  0.00     0.169 HD
BRANCH  13  15
ATOM     15  C   UNL A   1      31.421  26.062  23.492  1.00  0.00     0.177 C 
ATOM     16  S   UNL A   1      29.991  25.275  23.944  1.00  0.00    -0.040 S 
BRANCH  15  17
ATOM     17  N   UNL A   1      32.190  25.324  22.518  1.00  0.00    -0.299 N 
ATOM     18  C   UNL A   1      32.963  24.114  22.096  1.00  0.00     0.261 C 
ATOM     19  O   UNL A   1      33.418  23.999  20.964  1.00  0.00    -0.269 OA
ATOM     20  H   UNL A   1      32.223  25.919  21.733  1.00  0.00     0.172 HD
BRANCH  18  21
ATOM     21  C   UNL A   1      33.204  23.071  23.101  1.00  0.00     0.082 A 
ATOM     22  C   UNL A   1      34.910  23.164  23.349  1.00  0.00     0.134 A 
ATOM     23  C   UNL A   1      35.920  21.686  24.279  1.00  0.00    -0.008 A 
ATOM     24  C   UNL A   1      37.406  21.360  24.640  1.00  0.00     0.048 C 
ATOM     25  C   UNL A   1      34.903  20.370  25.046  1.00  0.00     0.007 A 
ATOM     26  C   UNL A   1      32.338  21.770  23.863  1.00  0.00     0.018 A 
ATOM     27  C   UNL A   1      33.124  20.478  24.826  1.00  0.00     0.001 A 
BRANCH  22  28
ATOM     28  O   UNL A   1      34.338  24.677  24.159  1.00  0.00    -0.496 OA
ATOM     29  C   UNL A   1      34.417  25.162  25.575  1.00  0.00     0.278 C 
ENDBRANCH  22  28
ENDBRANCH  18  21
ENDBRANCH  15  17
ENDBRANCH  13  15
ENDBRANCH   7  13
ENDBRANCH   3   6
ENDBRANCH   1   2
BRANCH   1  30
ATOM     30  C   UNL A   1      33.438  34.475  28.226  1.00  0.00     0.023 C 
BRANCH  30  31
ATOM     31  C   UNL A   1      33.639  35.610  29.224  1.00  0.00     0.023 C 
BRANCH  31  32
ATOM     32  C   UNL A   1      33.327  35.241  30.650  1.00  0.00     0.116 C 
BRANCH  32  33
ATOM     33  N   UNL A   1      34.342  35.652  31.603  1.00  0.00    -0.352 N 
ATOM     34  C   UNL A   1      35.249  34.871  32.298  1.00  0.00     0.251 C 
ATOM     35  H   UNL A   1      34.392  36.620  31.780  1.00  0.00     0.163 HD
ATOM     36  O   UNL A   1      35.770  35.312  33.318  1.00  0.00    -0.269 OA
BRANCH  34  37
ATOM     37  C   UNL A   1      35.770  33.620  31.684  1.00  0.00     0.039 A 
ATOM     38  C   UNL A   1      35.777  32.499  32.531  1.00  0.00     0.014 A 
ATOM     39  C   UNL A   1      36.672  33.698  30.637  1.00  0.00     0.014 A 
ATOM     40  C   UNL A   1      36.895  31.686  32.555  1.00  0.00     0.010 A 
ATOM     41  C   UNL A   1      37.866  33.065  30.805  1.00  0.00     0.010 A 
ATOM     42  C   UNL A   1      37.981  32.097  31.801  1.00  0.00    -0.014 A 
BRANCH  42  43
ATOM     43  C   UNL A   1      39.282  31.483  31.809  1.00  0.00     0.031 A 
ATOM     44  C   UNL A   1      39.367  30.271  30.983  1.00  0.00     0.074 A 
ATOM     45  C   UNL A   1      40.286  32.232  32.319  1.00  0.00     0.049 A 
ATOM     46  N   UNL A   1      40.223  29.336  31.145  1.00  0.00    -0.248 NA
ATOM     47  C   UNL A   1      38.403  29.961  29.917  1.00  0.00     0.031 C 
ATOM     48  C   UNL A   1      41.728  32.130  32.134  1.00  0.00     0.029 A 
ATOM     49  N   UNL A   1      40.152  33.242  33.291  1.00  0.00    -0.354 N 
ATOM     50  C   UNL A   1      40.204  28.584  29.986  1.00  0.00     0.074 A 
ATOM     51  C   UNL A   1      38.946  28.874  29.361  1.00  0.00     0.031 C 
ATOM     52  C   UNL A   1      42.342  32.739  33.169  1.00  0.00     0.029 A 
ATOM     53  C   UNL A   1      41.305  33.139  34.107  1.00  0.00     0.049 A 
ATOM     54  H   UNL A   1      39.412  33.884  33.385  1.00  0.00     0.167 HD
ATOM     55  C   UNL A   1      41.374  27.996  29.607  1.00  0.00     0.037 A 
ATOM     56  C   UNL A   1      41.180  32.680  35.390  1.00  0.00     0.037 A 
ATOM     57  C   UNL A   1      42.393  28.314  30.606  1.00  0.00     0.049 A 
ATOM     58  C   UNL A   1      41.832  31.327  35.546  1.00  0.00     0.074 A 
ATOM     59  C   UNL A   1      43.355  29.309  30.655  1.00  0.00     0.029 A 
ATOM     60  N   UNL A   1      42.209  27.872  31.908  1.00  0.00    -0.354 N 
ATOM     61  N   UNL A   1      41.929  30.453  34.578  1.00  0.00    -0.248 NA
ATOM     62  C   UNL A   1      42.473  30.882  36.777  1.00  0.00     0.031 C 
ATOM     63  C   UNL A   1      43.720  29.486  32.016  1.00  0.00     0.029 A 
ATOM     64  C   UNL A   1      42.980  28.603  32.787  1.00  0.00     0.049 A 
ATOM     65  H   UNL A   1      41.609  27.136  32.169  1.00  0.00     0.167 HD
ATOM     66  C   UNL A   1      42.649  29.373  35.017  1.00  0.00     0.074 A 
ATOM     67  C   UNL A   1      42.963  29.690  36.397  1.00  0.00     0.031 C 
ATOM     68  C   UNL A   1      42.946  28.310  34.210  1.00  0.00     0.037 A 
BRANCH  55  69
ATOM     69  C   UNL A   1      41.721  27.414  28.255  1.00  0.00     0.064 A 
ATOM     70  C   UNL A   1      42.058  26.043  28.157  1.00  0.00     0.173 A 
ATOM     71  C   UNL A   1      41.763  28.112  27.034  1.00  0.00     0.173 A 
ATOM     72  F   UNL A   1      42.008  25.229  29.220  1.00  0.00    -0.203 F 
ATOM     73  C   UNL A   1      42.454  25.441  26.961  1.00  0.00     0.198 A 
ATOM     74  C   UNL A   1      42.172  27.511  25.835  1.00  0.00     0.198 A 
ATOM     75  F   UNL A   1      41.375  29.386  26.930  1.00  0.00    -0.203 F 
ATOM     76  F   UNL A   1      42.771  24.139  26.949  1.00  0.00    -0.200 F 
ATOM     77  C   UNL A   1      42.522  26.177  25.801  1.00  0.00     0.200 A 
ATOM     78  F   UNL A   1      42.217  28.238  24.709  1.00  0.00    -0.200 F 
ATOM     79  F   UNL A   1      42.902  25.601  24.653  1.00  0.00    -0.200 F 
ENDBRANCH  55  69
BRANCH  56  80
ATOM     80  C   UNL A   1      39.869  33.095  35.983  1.00  0.00     0.064 A 
ATOM     81  C   UNL A   1      38.928  32.069  36.225  1.00  0.00     0.173 A 
ATOM     82  C   UNL A   1      39.749  34.269  36.737  1.00  0.00     0.173 A 
ATOM     83  F   UNL A   1      38.973  30.937  35.506  1.00  0.00    -0.203 F 
ATOM     84  C   UNL A   1      38.070  32.122  37.321  1.00  0.00     0.198 A 
ATOM     85  C   UNL A   1      38.842  34.340  37.798  1.00  0.00     0.198 A 
ATOM     86  F   UNL A   1      40.592  35.293  36.545  1.00  0.00    -0.203 F 
ATOM     87  F   UNL A   1      37.344  31.044  37.654  1.00  0.00    -0.200 F 
ATOM     88  C   UNL A   1      38.054  33.245  38.127  1.00  0.00     0.200 A 
ATOM     89  F   UNL A   1      38.812  35.432  38.577  1.00  0.00    -0.200 F 
ATOM     90  F   UNL A   1      37.311  33.257  39.243  1.00  0.00    -0.200 F 
ENDBRANCH  56  80
BRANCH  68  91
ATOM     91  C   UNL A   1      43.342  26.925  34.680  1.00  0.00     0.064 A 
ATOM     92  C   UNL A   1      44.663  26.547  34.969  1.00  0.00     0.173 A 
ATOM     93  C   UNL A   1      42.361  25.949  34.998  1.00  0.00     0.173 A 
ATOM     94  F   UNL A   1      45.676  27.419  34.906  1.00  0.00    -0.203 F 
ATOM     95  C   UNL A   1      44.988  25.262  35.404  1.00  0.00     0.198 A 
ATOM     96  C   UNL A   1      42.682  24.703  35.530  1.00  0.00     0.198 A 
ATOM     97  F   UNL A   1      41.049  26.168  34.838  1.00  0.00    -0.203 F 
ATOM     98  F   UNL A   1      46.275  24.929  35.568  1.00  0.00    -0.200 F 
ATOM     99  C   UNL A   1      43.999  24.343  35.693  1.00  0.00     0.200 A 
ATOM    100  F   UNL A   1      41.701  23.865  35.894  1.00  0.00    -0.200 F 
ATOM    101  F   UNL A   1      44.314  23.124  36.147  1.00  0.00    -0.200 F 
ENDBRANCH  68  91
ENDBRANCH  42  43
ENDBRANCH  34  37
ENDBRANCH  32  33
ENDBRANCH  31  32
ENDBRANCH  30  31
ENDBRANCH   1  30
TORSDOF 16
ENDMDL
