MODEL 1
REMARK VINA RESULT:     -12.3      0.000      0.000
REMARK SMILES CC[C@@H]1C=CC[C@@H]2C(=O)N(CCCC(=O)NCCCCNC(=O)c3ccc(-c4c5nc(c(-c6c(F)c(F)c(F)c(F)c6F)c6ccc([nH]6)c(-c6c(F)c(F)c(F)c(F)c6F)c6nc(c(-c7c(F)c(F)c(F)c(F)c7F)c7ccc4[nH]7)C=C6)C=C5)cc3)C(=O)[C@@H]21
REMARK SMILES IDX 17 1 16 2 14 3 15 4 13 6 12 7 11 8 10 9 3 10 4 11 89 12 5 13
REMARK SMILES IDX 7 14 87 15 6 16 8 17 88 18 9 19 2 20 1 21 18 22 19 23 20 24
REMARK SMILES IDX 21 25 22 26 23 28 24 29 25 30 86 31 26 32 85 33 27 34 28 35
REMARK SMILES IDX 29 36 79 37 30 38 84 39 78 40 80 41 31 42 83 43 77 44 76 45
REMARK SMILES IDX 32 47 64 48 44 49 63 50 45 51 48 52 62 53 81 54 46 55 47 56
REMARK SMILES IDX 61 58 82 59 49 60 33 61 34 62 42 63 35 64 36 65 40 66 43 67
REMARK SMILES IDX 37 68 38 69 41 70 39 71 65 72 66 73 74 74 67 75 68 76 72 77
REMARK SMILES IDX 75 78 69 79 70 80 73 81 71 82 50 83 51 84 59 85 52 86 53 87
REMARK SMILES IDX 57 88 60 89 54 90 55 91 58 92 56 93
REMARK H PARENT 16 5 21 27 80 46 48 57
REMARK Flexibility Score: inf
ROOT
ATOM      1  C   UNL A   1      33.415  29.835  26.807  1.00  0.00     0.116 C 
ENDROOT
BRANCH   1   2
ATOM      2  N   UNL A   1      33.678  29.716  25.396  1.00  0.00    -0.356 N 
ATOM      3  C   UNL A   1      33.025  29.029  24.424  1.00  0.00     0.220 C 
ATOM      4  O   UNL A   1      33.407  29.222  23.266  1.00  0.00    -0.275 OA
ATOM      5  H   UNL A   1      34.465  30.218  25.083  1.00  0.00     0.163 HD
BRANCH   3   6
ATOM      6  C   UNL A   1      31.838  28.112  24.682  1.00  0.00     0.102 C 
BRANCH   6   7
ATOM      7  C   UNL A   1      30.858  27.798  23.556  1.00  0.00     0.032 C 
BRANCH   7   8
ATOM      8  C   UNL A   1      31.175  26.765  22.473  1.00  0.00     0.129 C 
BRANCH   8   9
ATOM      9  N   UNL A   1      31.929  25.555  22.801  1.00  0.00    -0.282 N 
ATOM     10  C   UNL A   1      32.502  23.807  25.395  1.00  0.00     0.024 C 
ATOM     11  C   UNL A   1      33.575  24.855  25.616  1.00  0.00    -0.027 C 
ATOM     12  C   UNL A   1      32.266  23.517  23.888  1.00  0.00     0.099 C 
ATOM     13  C   UNL A   1      34.689  24.849  24.869  1.00  0.00    -0.030 C 
ATOM     14  C   UNL A   1      33.478  23.788  22.996  1.00  0.00     0.096 C 
ATOM     15  C   UNL A   1      31.261  24.477  23.310  1.00  0.00     0.233 C 
ATOM     16  C   UNL A   1      34.817  23.887  23.724  1.00  0.00     0.041 C 
ATOM     17  C   UNL A   1      33.169  25.145  22.409  1.00  0.00     0.233 C 
ATOM     18  O   UNL A   1      30.055  24.298  23.300  1.00  0.00    -0.274 OA
ATOM     19  O   UNL A   1      33.952  25.683  21.635  1.00  0.00    -0.274 OA
BRANCH  10  20
ATOM     20  C   UNL A   1      31.186  24.108  26.143  1.00  0.00     0.005 C 
ATOM     21  C   UNL A   1      30.434  22.864  26.588  1.00  0.00     0.004 C 
ENDBRANCH  10  20
ENDBRANCH   8   9
ENDBRANCH   7   8
ENDBRANCH   6   7
ENDBRANCH   3   6
ENDBRANCH   1   2
BRANCH   1  22
ATOM     22  C   UNL A   1      32.013  30.364  27.102  1.00  0.00     0.023 C 
BRANCH  22  23
ATOM     23  C   UNL A   1      31.830  31.837  26.788  1.00  0.00     0.023 C 
BRANCH  23  24
ATOM     24  C   UNL A   1      32.906  32.734  27.383  1.00  0.00     0.116 C 
BRANCH  24  25
ATOM     25  N   UNL A   1      32.461  34.090  27.684  1.00  0.00    -0.352 N 
ATOM     26  C   UNL A   1      33.001  34.971  28.594  1.00  0.00     0.251 C 
ATOM     27  H   UNL A   1      31.680  34.412  27.178  1.00  0.00     0.163 HD
ATOM     28  O   UNL A   1      32.492  36.067  28.797  1.00  0.00    -0.269 OA
BRANCH  26  29
ATOM     29  C   UNL A   1      34.185  34.542  29.366  1.00  0.00     0.039 A 
ATOM     30  C   UNL A   1      33.994  33.846  30.559  1.00  0.00     0.014 A 
ATOM     31  C   UNL A   1      35.466  34.712  28.836  1.00  0.00     0.014 A 
ATOM     32  C   UNL A   1      35.090  33.245  31.179  1.00  0.00     0.010 A 
ATOM     33  C   UNL A   1      36.532  34.021  29.395  1.00  0.00     0.010 A 
ATOM     34  C   UNL A   1      36.358  33.282  30.574  1.00  0.00    -0.014 A 
BRANCH  34  35
ATOM     35  C   UNL A   1      37.511  32.559  31.170  1.00  0.00     0.031 A 
ATOM     36  C   UNL A   1      38.016  32.946  32.533  1.00  0.00     0.074 A 
ATOM     37  C   UNL A   1      38.125  31.582  30.471  1.00  0.00     0.049 A 
ATOM     38  N   UNL A   1      39.017  32.451  33.217  1.00  0.00    -0.248 NA
ATOM     39  C   UNL A   1      37.324  34.056  33.209  1.00  0.00     0.031 C 
ATOM     40  C   UNL A   1      37.770  31.156  29.115  1.00  0.00     0.029 A 
ATOM     41  N   UNL A   1      39.178  30.766  30.806  1.00  0.00    -0.354 N 
ATOM     42  C   UNL A   1      39.069  33.185  34.394  1.00  0.00     0.074 A 
ATOM     43  C   UNL A   1      38.056  34.210  34.302  1.00  0.00     0.031 C 
ATOM     44  C   UNL A   1      38.560  30.132  28.753  1.00  0.00     0.029 A 
ATOM     45  C   UNL A   1      39.502  29.853  29.831  1.00  0.00     0.049 A 
ATOM     46  H   UNL A   1      39.656  30.829  31.665  1.00  0.00     0.167 HD
ATOM     47  C   UNL A   1      39.861  32.994  35.476  1.00  0.00     0.037 A 
ATOM     48  C   UNL A   1      40.454  28.900  29.812  1.00  0.00     0.037 A 
ATOM     49  C   UNL A   1      40.855  31.960  35.575  1.00  0.00     0.049 A 
ATOM     50  C   UNL A   1      41.337  28.730  31.022  1.00  0.00     0.074 A 
ATOM     51  C   UNL A   1      41.688  31.664  36.639  1.00  0.00     0.029 A 
ATOM     52  N   UNL A   1      41.150  31.052  34.570  1.00  0.00    -0.354 N 
ATOM     53  N   UNL A   1      41.323  29.382  32.159  1.00  0.00    -0.248 NA
ATOM     54  C   UNL A   1      42.363  27.680  30.948  1.00  0.00     0.031 C 
ATOM     55  C   UNL A   1      42.517  30.604  36.262  1.00  0.00     0.029 A 
ATOM     56  C   UNL A   1      42.163  30.203  34.985  1.00  0.00     0.049 A 
ATOM     57  H   UNL A   1      40.705  31.015  33.692  1.00  0.00     0.167 HD
ATOM     58  C   UNL A   1      42.308  28.799  32.946  1.00  0.00     0.074 A 
ATOM     59  C   UNL A   1      42.883  27.725  32.165  1.00  0.00     0.031 C 
ATOM     60  C   UNL A   1      42.707  29.125  34.200  1.00  0.00     0.037 A 
BRANCH  47  61
ATOM     61  C   UNL A   1      39.664  33.908  36.651  1.00  0.00     0.064 A 
ATOM     62  C   UNL A   1      38.859  33.536  37.738  1.00  0.00     0.173 A 
ATOM     63  C   UNL A   1      40.327  35.142  36.719  1.00  0.00     0.173 A 
ATOM     64  F   UNL A   1      38.189  32.372  37.717  1.00  0.00    -0.203 F 
ATOM     65  C   UNL A   1      38.708  34.373  38.840  1.00  0.00     0.198 A 
ATOM     66  C   UNL A   1      40.201  35.963  37.837  1.00  0.00     0.198 A 
ATOM     67  F   UNL A   1      41.111  35.546  35.707  1.00  0.00    -0.203 F 
ATOM     68  F   UNL A   1      37.899  34.015  39.846  1.00  0.00    -0.200 F 
ATOM     69  C   UNL A   1      39.388  35.580  38.893  1.00  0.00     0.200 A 
ATOM     70  F   UNL A   1      40.868  37.124  37.893  1.00  0.00    -0.200 F 
ATOM     71  F   UNL A   1      39.255  36.378  39.961  1.00  0.00    -0.200 F 
ENDBRANCH  47  61
BRANCH  48  72
ATOM     72  C   UNL A   1      40.620  28.012  28.628  1.00  0.00     0.064 A 
ATOM     73  C   UNL A   1      41.396  28.411  27.529  1.00  0.00     0.173 A 
ATOM     74  C   UNL A   1      39.963  26.775  28.544  1.00  0.00     0.173 A 
ATOM     75  F   UNL A   1      42.029  29.593  27.551  1.00  0.00    -0.203 F 
ATOM     76  C   UNL A   1      41.473  27.630  26.378  1.00  0.00     0.198 A 
ATOM     77  C   UNL A   1      40.070  25.979  27.405  1.00  0.00     0.198 A 
ATOM     78  F   UNL A   1      39.213  26.342  29.567  1.00  0.00    -0.203 F 
ATOM     79  F   UNL A   1      42.160  28.072  25.316  1.00  0.00    -0.200 F 
ATOM     80  C   UNL A   1      40.811  26.413  26.317  1.00  0.00     0.200 A 
ATOM     81  F   UNL A   1      39.442  24.796  27.358  1.00  0.00    -0.200 F 
ATOM     82  F   UNL A   1      40.875  25.667  25.205  1.00  0.00    -0.200 F 
ENDBRANCH  48  72
BRANCH  60  83
ATOM     83  C   UNL A   1      43.780  28.277  34.822  1.00  0.00     0.064 A 
ATOM     84  C   UNL A   1      45.138  28.613  34.723  1.00  0.00     0.173 A 
ATOM     85  C   UNL A   1      43.439  27.126  35.548  1.00  0.00     0.173 A 
ATOM     86  F   UNL A   1      45.517  29.697  34.030  1.00  0.00    -0.203 F 
ATOM     87  C   UNL A   1      46.117  27.805  35.294  1.00  0.00     0.198 A 
ATOM     88  C   UNL A   1      44.418  26.341  36.150  1.00  0.00     0.198 A 
ATOM     89  F   UNL A   1      42.154  26.765  35.683  1.00  0.00    -0.203 F 
ATOM     90  F   UNL A   1      47.413  28.109  35.131  1.00  0.00    -0.200 F 
ATOM     91  C   UNL A   1      45.757  26.674  36.012  1.00  0.00     0.200 A 
ATOM     92  F   UNL A   1      44.067  25.259  36.857  1.00  0.00    -0.200 F 
ATOM     93  F   UNL A   1      46.702  25.900  36.563  1.00  0.00    -0.200 F 
ENDBRANCH  60  83
ENDBRANCH  34  35
ENDBRANCH  26  29
ENDBRANCH  24  25
ENDBRANCH  23  24
ENDBRANCH  22  23
ENDBRANCH   1  22
TORSDOF 15
ENDMDL
MODEL 2
REMARK VINA RESULT:     -12.2      0.788      1.847
REMARK SMILES CC[C@@H]1C=CC[C@@H]2C(=O)N(CCCC(=O)NCCCCNC(=O)c3ccc(-c4c5nc(c(-c6c(F)c(F)c(F)c(F)c6F)c6ccc([nH]6)c(-c6c(F)c(F)c(F)c(F)c6F)c6nc(c(-c7c(F)c(F)c(F)c(F)c7F)c7ccc4[nH]7)C=C6)C=C5)cc3)C(=O)[C@@H]21
REMARK SMILES IDX 17 1 16 2 14 3 15 4 13 6 12 7 11 8 10 9 3 10 4 11 89 12 5 13
REMARK SMILES IDX 7 14 87 15 6 16 8 17 88 18 9 19 2 20 1 21 18 22 19 23 20 24
REMARK SMILES IDX 21 25 22 26 23 28 24 29 25 30 86 31 26 32 85 33 27 34 28 35
REMARK SMILES IDX 29 36 79 37 30 38 84 39 78 40 80 41 31 42 83 43 77 44 76 45
REMARK SMILES IDX 32 47 64 48 44 49 63 50 45 51 48 52 62 53 81 54 46 55 47 56
REMARK SMILES IDX 61 58 82 59 49 60 33 61 34 62 42 63 35 64 36 65 40 66 43 67
REMARK SMILES IDX 37 68 38 69 41 70 39 71 65 72 66 73 74 74 67 75 68 76 72 77
REMARK SMILES IDX 75 78 69 79 70 80 73 81 71 82 50 83 51 84 59 85 52 86 53 87
REMARK SMILES IDX 57 88 60 89 54 90 55 91 58 92 56 93
REMARK H PARENT 16 5 21 27 80 46 48 57
REMARK Flexibility Score: inf
ROOT
ATOM      1  C   UNL A   1      33.112  29.707  25.746  1.00  0.00     0.116 C 
ENDROOT
BRANCH   1   2
ATOM      2  N   UNL A   1      32.451  29.700  24.466  1.00  0.00    -0.356 N 
ATOM      3  C   UNL A   1      32.517  28.821  23.434  1.00  0.00     0.220 C 
ATOM      4  O   UNL A   1      31.726  29.007  22.504  1.00  0.00    -0.275 OA
ATOM      5  H   UNL A   1      31.848  30.464  24.314  1.00  0.00     0.163 HD
BRANCH   3   6
ATOM      6  C   UNL A   1      33.446  27.615  23.403  1.00  0.00     0.102 C 
BRANCH   6   7
ATOM      7  C   UNL A   1      33.524  26.745  22.153  1.00  0.00     0.032 C 
BRANCH   7   8
ATOM      8  C   UNL A   1      32.622  25.525  21.958  1.00  0.00     0.129 C 
BRANCH   8   9
ATOM      9  N   UNL A   1      32.728  24.375  22.856  1.00  0.00    -0.282 N 
ATOM     10  C   UNL A   1      32.099  23.747  25.910  1.00  0.00     0.024 C 
ATOM     11  C   UNL A   1      33.469  24.364  26.108  1.00  0.00    -0.027 C 
ATOM     12  C   UNL A   1      31.993  22.970  24.570  1.00  0.00     0.099 C 
ATOM     13  C   UNL A   1      34.573  23.680  25.773  1.00  0.00    -0.030 C 
ATOM     14  C   UNL A   1      33.325  22.430  24.048  1.00  0.00     0.096 C 
ATOM     15  C   UNL A   1      31.595  23.891  23.447  1.00  0.00     0.233 C 
ATOM     16  C   UNL A   1      34.451  22.356  25.077  1.00  0.00     0.041 C 
ATOM     17  C   UNL A   1      33.718  23.449  23.004  1.00  0.00     0.233 C 
ATOM     18  O   UNL A   1      30.445  24.142  23.130  1.00  0.00    -0.274 OA
ATOM     19  O   UNL A   1      34.763  23.328  22.376  1.00  0.00    -0.274 OA
BRANCH  10  20
ATOM     20  C   UNL A   1      30.941  24.750  26.093  1.00  0.00     0.005 C 
ATOM     21  C   UNL A   1      31.391  26.200  26.179  1.00  0.00     0.004 C 
ENDBRANCH  10  20
ENDBRANCH   8   9
ENDBRANCH   7   8
ENDBRANCH   6   7
ENDBRANCH   3   6
ENDBRANCH   1   2
BRANCH   1  22
ATOM     22  C   UNL A   1      32.183  30.117  26.887  1.00  0.00     0.023 C 
BRANCH  22  23
ATOM     23  C   UNL A   1      31.797  31.584  26.871  1.00  0.00     0.023 C 
BRANCH  23  24
ATOM     24  C   UNL A   1      32.924  32.524  27.274  1.00  0.00     0.116 C 
BRANCH  24  25
ATOM     25  N   UNL A   1      32.491  33.877  27.602  1.00  0.00    -0.352 N 
ATOM     26  C   UNL A   1      33.039  34.736  28.530  1.00  0.00     0.251 C 
ATOM     27  H   UNL A   1      31.714  34.217  27.101  1.00  0.00     0.163 HD
ATOM     28  O   UNL A   1      32.540  35.832  28.754  1.00  0.00    -0.269 OA
BRANCH  26  29
ATOM     29  C   UNL A   1      34.217  34.280  29.294  1.00  0.00     0.039 A 
ATOM     30  C   UNL A   1      34.022  33.473  30.415  1.00  0.00     0.014 A 
ATOM     31  C   UNL A   1      35.504  34.542  28.820  1.00  0.00     0.014 A 
ATOM     32  C   UNL A   1      35.122  32.857  31.010  1.00  0.00     0.010 A 
ATOM     33  C   UNL A   1      36.581  33.840  29.345  1.00  0.00     0.010 A 
ATOM     34  C   UNL A   1      36.404  32.993  30.448  1.00  0.00    -0.014 A 
BRANCH  34  35
ATOM     35  C   UNL A   1      37.567  32.259  31.010  1.00  0.00     0.031 A 
ATOM     36  C   UNL A   1      38.072  32.596  32.387  1.00  0.00     0.074 A 
ATOM     37  C   UNL A   1      38.190  31.319  30.271  1.00  0.00     0.049 A 
ATOM     38  N   UNL A   1      39.082  32.085  33.047  1.00  0.00    -0.248 NA
ATOM     39  C   UNL A   1      37.371  33.670  33.109  1.00  0.00     0.031 C 
ATOM     40  C   UNL A   1      37.835  30.944  28.899  1.00  0.00     0.029 A 
ATOM     41  N   UNL A   1      39.253  30.502  30.569  1.00  0.00    -0.354 N 
ATOM     42  C   UNL A   1      39.130  32.772  34.252  1.00  0.00     0.074 A 
ATOM     43  C   UNL A   1      38.105  33.789  34.205  1.00  0.00     0.031 C 
ATOM     44  C   UNL A   1      38.634  29.944  28.493  1.00  0.00     0.029 A 
ATOM     45  C   UNL A   1      39.584  29.633  29.556  1.00  0.00     0.049 A 
ATOM     46  H   UNL A   1      39.733  30.535  31.428  1.00  0.00     0.167 HD
ATOM     47  C   UNL A   1      39.928  32.547  35.323  1.00  0.00     0.037 A 
ATOM     48  C   UNL A   1      40.546  28.693  29.496  1.00  0.00     0.037 A 
ATOM     49  C   UNL A   1      40.934  31.521  35.377  1.00  0.00     0.049 A 
ATOM     50  C   UNL A   1      41.436  28.484  30.695  1.00  0.00     0.074 A 
ATOM     51  C   UNL A   1      41.774  31.191  36.425  1.00  0.00     0.029 A 
ATOM     52  N   UNL A   1      41.235  30.657  34.334  1.00  0.00    -0.354 N 
ATOM     53  N   UNL A   1      41.419  29.089  31.857  1.00  0.00    -0.248 NA
ATOM     54  C   UNL A   1      42.473  27.450  30.576  1.00  0.00     0.031 C 
ATOM     55  C   UNL A   1      42.614  30.157  36.003  1.00  0.00     0.029 A 
ATOM     56  C   UNL A   1      42.260  29.804  34.711  1.00  0.00     0.049 A 
ATOM     57  H   UNL A   1      40.787  30.651  33.457  1.00  0.00     0.167 HD
ATOM     58  C   UNL A   1      42.413  28.486  32.617  1.00  0.00     0.074 A 
ATOM     59  C   UNL A   1      42.997  27.451  31.791  1.00  0.00     0.031 C 
ATOM     60  C   UNL A   1      42.813  28.766  33.882  1.00  0.00     0.037 A 
BRANCH  47  61
ATOM     61  C   UNL A   1      39.725  33.410  36.535  1.00  0.00     0.064 A 
ATOM     62  C   UNL A   1      40.437  34.607  36.705  1.00  0.00     0.173 A 
ATOM     63  C   UNL A   1      38.774  33.068  37.508  1.00  0.00     0.173 A 
ATOM     64  F   UNL A   1      41.369  34.973  35.812  1.00  0.00    -0.203 F 
ATOM     65  C   UNL A   1      40.219  35.421  37.814  1.00  0.00     0.198 A 
ATOM     66  C   UNL A   1      38.535  33.900  38.599  1.00  0.00     0.198 A 
ATOM     67  F   UNL A   1      38.065  31.935  37.392  1.00  0.00    -0.203 F 
ATOM     68  F   UNL A   1      40.941  36.537  37.977  1.00  0.00    -0.200 F 
ATOM     69  C   UNL A   1      39.261  35.072  38.753  1.00  0.00     0.200 A 
ATOM     70  F   UNL A   1      37.600  33.569  39.500  1.00  0.00    -0.200 F 
ATOM     71  F   UNL A   1      39.040  35.863  39.812  1.00  0.00    -0.200 F 
ENDBRANCH  47  61
BRANCH  48  72
ATOM     72  C   UNL A   1      40.718  27.855  28.276  1.00  0.00     0.064 A 
ATOM     73  C   UNL A   1      40.099  26.601  28.168  1.00  0.00     0.173 A 
ATOM     74  C   UNL A   1      41.547  28.263  27.220  1.00  0.00     0.173 A 
ATOM     75  F   UNL A   1      39.312  26.156  29.159  1.00  0.00    -0.203 F 
ATOM     76  C   UNL A   1      40.337  25.769  27.076  1.00  0.00     0.198 A 
ATOM     77  C   UNL A   1      41.755  27.444  26.111  1.00  0.00     0.198 A 
ATOM     78  F   UNL A   1      42.159  29.455  27.267  1.00  0.00    -0.203 F 
ATOM     79  F   UNL A   1      39.793  24.546  27.037  1.00  0.00    -0.200 F 
ATOM     80  C   UNL A   1      41.164  26.192  26.047  1.00  0.00     0.200 A 
ATOM     81  F   UNL A   1      42.542  27.866  25.111  1.00  0.00    -0.200 F 
ATOM     82  F   UNL A   1      41.403  25.389  25.001  1.00  0.00    -0.200 F 
ENDBRANCH  48  72
BRANCH  60  83
ATOM     83  C   UNL A   1      43.897  27.905  34.465  1.00  0.00     0.064 A 
ATOM     84  C   UNL A   1      45.249  28.275  34.403  1.00  0.00     0.173 A 
ATOM     85  C   UNL A   1      43.574  26.706  35.119  1.00  0.00     0.173 A 
ATOM     86  F   UNL A   1      45.611  29.407  33.779  1.00  0.00    -0.203 F 
ATOM     87  C   UNL A   1      46.240  27.456  34.936  1.00  0.00     0.198 A 
ATOM     88  C   UNL A   1      44.564  25.908  35.684  1.00  0.00     0.198 A 
ATOM     89  F   UNL A   1      42.296  26.311  35.217  1.00  0.00    -0.203 F 
ATOM     90  F   UNL A   1      47.530  27.798  34.808  1.00  0.00    -0.200 F 
ATOM     91  C   UNL A   1      45.897  26.277  35.583  1.00  0.00     0.200 A 
ATOM     92  F   UNL A   1      44.230  24.779  36.323  1.00  0.00    -0.200 F 
ATOM     93  F   UNL A   1      46.853  25.493  36.098  1.00  0.00    -0.200 F 
ENDBRANCH  60  83
ENDBRANCH  34  35
ENDBRANCH  26  29
ENDBRANCH  24  25
ENDBRANCH  23  24
ENDBRANCH  22  23
ENDBRANCH   1  22
TORSDOF 15
ENDMDL
MODEL 3
REMARK VINA RESULT:     -12.0      5.409     10.936
REMARK SMILES CC[C@@H]1C=CC[C@@H]2C(=O)N(CCCC(=O)NCCCCNC(=O)c3ccc(-c4c5nc(c(-c6c(F)c(F)c(F)c(F)c6F)c6ccc([nH]6)c(-c6c(F)c(F)c(F)c(F)c6F)c6nc(c(-c7c(F)c(F)c(F)c(F)c7F)c7ccc4[nH]7)C=C6)C=C5)cc3)C(=O)[C@@H]21
REMARK SMILES IDX 17 1 16 2 14 3 15 4 13 6 12 7 11 8 10 9 3 10 4 11 89 12 5 13
REMARK SMILES IDX 7 14 87 15 6 16 8 17 88 18 9 19 2 20 1 21 18 22 19 23 20 24
REMARK SMILES IDX 21 25 22 26 23 28 24 29 25 30 86 31 26 32 85 33 27 34 28 35
REMARK SMILES IDX 29 36 79 37 30 38 84 39 78 40 80 41 31 42 83 43 77 44 76 45
REMARK SMILES IDX 32 47 64 48 44 49 63 50 45 51 48 52 62 53 81 54 46 55 47 56
REMARK SMILES IDX 61 58 82 59 49 60 33 61 34 62 42 63 35 64 36 65 40 66 43 67
REMARK SMILES IDX 37 68 38 69 41 70 39 71 65 72 66 73 74 74 67 75 68 76 72 77
REMARK SMILES IDX 75 78 69 79 70 80 73 81 71 82 50 83 51 84 59 85 52 86 53 87
REMARK SMILES IDX 57 88 60 89 54 90 55 91 58 92 56 93
REMARK H PARENT 16 5 21 27 80 46 48 57
REMARK Flexibility Score: inf
ROOT
ATOM      1  C   UNL A   1      36.170  21.523  25.748  1.00  0.00     0.116 C 
ENDROOT
BRANCH   1   2
ATOM      2  N   UNL A   1      34.955  20.829  25.404  1.00  0.00    -0.356 N 
ATOM      3  C   UNL A   1      33.990  21.120  24.494  1.00  0.00     0.220 C 
ATOM      4  O   UNL A   1      33.119  20.261  24.326  1.00  0.00    -0.275 OA
ATOM      5  H   UNL A   1      34.797  20.004  25.917  1.00  0.00     0.163 HD
BRANCH   3   6
ATOM      6  C   UNL A   1      33.972  22.386  23.649  1.00  0.00     0.102 C 
BRANCH   6   7
ATOM      7  C   UNL A   1      32.680  22.834  22.974  1.00  0.00     0.032 C 
BRANCH   7   8
ATOM      8  C   UNL A   1      31.939  24.101  23.404  1.00  0.00     0.129 C 
BRANCH   8   9
ATOM      9  N   UNL A   1      32.670  25.350  23.615  1.00  0.00    -0.282 N 
ATOM     10  C   UNL A   1      32.228  28.054  25.231  1.00  0.00     0.024 C 
ATOM     11  C   UNL A   1      31.427  28.422  23.997  1.00  0.00    -0.027 C 
ATOM     12  C   UNL A   1      33.441  27.145  24.894  1.00  0.00     0.099 C 
ATOM     13  C   UNL A   1      32.054  28.732  22.853  1.00  0.00    -0.030 C 
ATOM     14  C   UNL A   1      33.975  27.309  23.470  1.00  0.00     0.096 C 
ATOM     15  C   UNL A   1      33.037  25.695  24.886  1.00  0.00     0.233 C 
ATOM     16  C   UNL A   1      33.544  28.585  22.752  1.00  0.00     0.041 C 
ATOM     17  C   UNL A   1      33.360  26.137  22.741  1.00  0.00     0.233 C 
ATOM     18  O   UNL A   1      33.050  24.965  25.862  1.00  0.00    -0.274 OA
ATOM     19  O   UNL A   1      33.577  25.961  21.548  1.00  0.00    -0.274 OA
BRANCH  10  20
ATOM     20  C   UNL A   1      31.367  27.475  26.373  1.00  0.00     0.005 C 
ATOM     21  C   UNL A   1      31.556  28.184  27.704  1.00  0.00     0.004 C 
ENDBRANCH  10  20
ENDBRANCH   8   9
ENDBRANCH   7   8
ENDBRANCH   6   7
ENDBRANCH   3   6
ENDBRANCH   1   2
BRANCH   1  22
ATOM     22  C   UNL A   1      37.293  21.275  24.742  1.00  0.00     0.023 C 
BRANCH  22  23
ATOM     23  C   UNL A   1      38.079  20.003  24.998  1.00  0.00     0.023 C 
BRANCH  23  24
ATOM     24  C   UNL A   1      39.360  20.216  25.792  1.00  0.00     0.116 C 
BRANCH  24  25
ATOM     25  N   UNL A   1      40.267  19.074  25.788  1.00  0.00    -0.352 N 
ATOM     26  C   UNL A   1      41.619  19.072  26.053  1.00  0.00     0.251 C 
ATOM     27  H   UNL A   1      39.866  18.202  25.570  1.00  0.00     0.163 HD
ATOM     28  O   UNL A   1      42.283  18.047  25.956  1.00  0.00    -0.269 OA
BRANCH  26  29
ATOM     29  C   UNL A   1      42.265  20.352  26.404  1.00  0.00     0.039 A 
ATOM     30  C   UNL A   1      42.705  21.188  25.378  1.00  0.00     0.014 A 
ATOM     31  C   UNL A   1      42.307  20.774  27.734  1.00  0.00     0.014 A 
ATOM     32  C   UNL A   1      43.111  22.487  25.684  1.00  0.00     0.010 A 
ATOM     33  C   UNL A   1      42.605  22.099  28.021  1.00  0.00     0.010 A 
ATOM     34  C   UNL A   1      43.013  22.971  27.001  1.00  0.00    -0.014 A 
BRANCH  34  35
ATOM     35  C   UNL A   1      43.343  24.383  27.323  1.00  0.00     0.031 A 
ATOM     36  C   UNL A   1      44.741  24.894  27.108  1.00  0.00     0.074 A 
ATOM     37  C   UNL A   1      42.397  25.192  27.843  1.00  0.00     0.049 A 
ATOM     38  N   UNL A   1      45.233  26.085  27.343  1.00  0.00    -0.248 NA
ATOM     39  C   UNL A   1      45.728  23.935  26.585  1.00  0.00     0.031 C 
ATOM     40  C   UNL A   1      41.021  24.797  28.158  1.00  0.00     0.029 A 
ATOM     41  N   UNL A   1      42.447  26.517  28.198  1.00  0.00    -0.354 N 
ATOM     42  C   UNL A   1      46.574  26.014  26.996  1.00  0.00     0.074 A 
ATOM     43  C   UNL A   1      46.844  24.648  26.612  1.00  0.00     0.031 C 
ATOM     44  C   UNL A   1      40.348  25.866  28.615  1.00  0.00     0.029 A 
ATOM     45  C   UNL A   1      41.252  27.011  28.665  1.00  0.00     0.049 A 
ATOM     46  H   UNL A   1      43.262  27.064  28.124  1.00  0.00     0.167 HD
ATOM     47  C   UNL A   1      47.493  27.009  26.959  1.00  0.00     0.037 A 
ATOM     48  C   UNL A   1      40.925  28.248  29.087  1.00  0.00     0.037 A 
ATOM     49  C   UNL A   1      47.219  28.373  27.322  1.00  0.00     0.049 A 
ATOM     50  C   UNL A   1      41.977  29.328  29.057  1.00  0.00     0.074 A 
ATOM     51  C   UNL A   1      48.072  29.462  27.289  1.00  0.00     0.029 A 
ATOM     52  N   UNL A   1      45.996  28.834  27.784  1.00  0.00    -0.354 N 
ATOM     53  N   UNL A   1      43.222  29.263  28.653  1.00  0.00    -0.248 NA
ATOM     54  C   UNL A   1      41.572  30.658  29.532  1.00  0.00     0.031 C 
ATOM     55  C   UNL A   1      47.377  30.574  27.773  1.00  0.00     0.029 A 
ATOM     56  C   UNL A   1      46.076  30.191  28.054  1.00  0.00     0.049 A 
ATOM     57  H   UNL A   1      45.190  28.281  27.902  1.00  0.00     0.167 HD
ATOM     58  C   UNL A   1      43.735  30.547  28.790  1.00  0.00     0.074 A 
ATOM     59  C   UNL A   1      42.659  31.374  29.291  1.00  0.00     0.031 C 
ATOM     60  C   UNL A   1      44.987  31.001  28.532  1.00  0.00     0.037 A 
BRANCH  47  61
ATOM     61  C   UNL A   1      48.874  26.662  26.482  1.00  0.00     0.064 A 
ATOM     62  C   UNL A   1      49.250  26.842  25.142  1.00  0.00     0.173 A 
ATOM     63  C   UNL A   1      49.847  26.198  27.379  1.00  0.00     0.173 A 
ATOM     64  F   UNL A   1      48.353  27.268  24.239  1.00  0.00    -0.203 F 
ATOM     65  C   UNL A   1      50.542  26.551  24.714  1.00  0.00     0.198 A 
ATOM     66  C   UNL A   1      51.148  25.940  26.954  1.00  0.00     0.198 A 
ATOM     67  F   UNL A   1      49.541  26.011  28.672  1.00  0.00    -0.203 F 
ATOM     68  F   UNL A   1      50.865  26.689  23.421  1.00  0.00    -0.200 F 
ATOM     69  C   UNL A   1      51.492  26.111  25.623  1.00  0.00     0.200 A 
ATOM     70  F   UNL A   1      52.069  25.527  27.836  1.00  0.00    -0.200 F 
ATOM     71  F   UNL A   1      52.741  25.847  25.213  1.00  0.00    -0.200 F 
ENDBRANCH  47  61
BRANCH  48  72
ATOM     72  C   UNL A   1      39.545  28.555  29.553  1.00  0.00     0.064 A 
ATOM     73  C   UNL A   1      38.589  29.091  28.677  1.00  0.00     0.173 A 
ATOM     74  C   UNL A   1      39.168  28.373  30.892  1.00  0.00     0.173 A 
ATOM     75  F   UNL A   1      38.904  29.303  27.391  1.00  0.00    -0.203 F 
ATOM     76  C   UNL A   1      37.328  29.475  29.130  1.00  0.00     0.198 A 
ATOM     77  C   UNL A   1      37.894  28.724  31.336  1.00  0.00     0.198 A 
ATOM     78  F   UNL A   1      40.039  27.858  31.772  1.00  0.00    -0.203 F 
ATOM     79  F   UNL A   1      36.464  30.055  28.287  1.00  0.00    -0.200 F 
ATOM     80  C   UNL A   1      36.981  29.290  30.459  1.00  0.00     0.200 A 
ATOM     81  F   UNL A   1      37.558  28.527  32.618  1.00  0.00    -0.200 F 
ATOM     82  F   UNL A   1      35.773  29.669  30.899  1.00  0.00    -0.200 F 
ENDBRANCH  48  72
BRANCH  60  83
ATOM     83  C   UNL A   1      45.240  32.468  28.736  1.00  0.00     0.064 A 
ATOM     84  C   UNL A   1      45.745  32.970  29.945  1.00  0.00     0.173 A 
ATOM     85  C   UNL A   1      44.997  33.379  27.696  1.00  0.00     0.173 A 
ATOM     86  F   UNL A   1      45.983  32.142  30.973  1.00  0.00    -0.203 F 
ATOM     87  C   UNL A   1      45.959  34.334  30.118  1.00  0.00     0.198 A 
ATOM     88  C   UNL A   1      45.247  34.738  27.861  1.00  0.00     0.198 A 
ATOM     89  F   UNL A   1      44.525  32.951  26.516  1.00  0.00    -0.203 F 
ATOM     90  F   UNL A   1      46.380  34.799  31.303  1.00  0.00    -0.200 F 
ATOM     91  C   UNL A   1      45.717  35.217  29.075  1.00  0.00     0.200 A 
ATOM     92  F   UNL A   1      45.030  35.586  26.847  1.00  0.00    -0.200 F 
ATOM     93  F   UNL A   1      45.926  36.529  29.244  1.00  0.00    -0.200 F 
ENDBRANCH  60  83
ENDBRANCH  34  35
ENDBRANCH  26  29
ENDBRANCH  24  25
ENDBRANCH  23  24
ENDBRANCH  22  23
ENDBRANCH   1  22
TORSDOF 15
ENDMDL
