MODEL 1
REMARK VINA RESULT:     -11.2      0.000      0.000
REMARK SMILES CCCCc1[nH]ncc1C(=O)NCCCCNC(=O)c1ccc(-c2c3nc(c(-c4c(F)c(F)c(F)c(F)c4F)c4ccc([nH]4)c(-c4c(F)c(F)c(F)c(F)c4F)c4nc(c(-c5c(F)c(F)c(F)c(F)c5F)c5ccc2[nH]5)C=C4)C=C3)cc1
REMARK SMILES IDX 14 1 13 2 12 3 10 4 11 5 9 7 5 8 6 9 7 10 8 12 4 13 3 14
REMARK SMILES IDX 2 15 1 16 15 17 16 18 17 19 18 20 19 22 20 23 21 24 82 25
REMARK SMILES IDX 22 26 81 27 23 28 24 29 25 30 75 31 26 32 80 33 74 34 76 35
REMARK SMILES IDX 27 36 79 37 73 38 72 39 28 41 60 42 40 43 59 44 41 45 44 46
REMARK SMILES IDX 58 47 77 48 42 49 43 50 57 52 78 53 45 54 29 55 30 56 38 57
REMARK SMILES IDX 31 58 32 59 36 60 39 61 33 62 34 63 37 64 35 65 61 66 62 67
REMARK SMILES IDX 70 68 63 69 64 70 68 71 71 72 65 73 66 74 69 75 67 76 46 77
REMARK SMILES IDX 47 78 55 79 48 80 49 81 53 82 56 83 50 84 51 85 54 86 52 87
REMARK H PARENT 12 6 6 11 17 21 76 40 44 51
REMARK Flexibility Score: inf
ROOT
ATOM      1  C   UNL A   1      32.335  30.348  26.908  1.00  0.00     0.023 C 
ENDROOT
BRANCH   1   2
ATOM      2  C   UNL A   1      31.441  29.425  26.079  1.00  0.00     0.116 C 
BRANCH   2   3
ATOM      3  N   UNL A   1      31.808  29.471  24.688  1.00  0.00    -0.352 N 
ATOM      4  C   UNL A   1      31.193  29.066  23.538  1.00  0.00     0.254 C 
ATOM      5  O   UNL A   1      31.816  29.346  22.507  1.00  0.00    -0.269 OA
ATOM      6  H   UNL A   1      32.689  29.882  24.533  1.00  0.00     0.163 HD
BRANCH   4   7
ATOM      7  C   UNL A   1      29.896  28.395  23.436  1.00  0.00     0.080 A 
ATOM      8  C   UNL A   1      28.594  28.705  23.035  1.00  0.00     0.048 A 
ATOM      9  N   UNL A   1      27.845  27.580  23.289  1.00  0.00    -0.282 N 
ATOM     10  N   UNL A   1      28.528  26.561  23.802  1.00  0.00    -0.183 NA
ATOM     11  H   UNL A   1      26.879  27.533  23.106  1.00  0.00     0.190 HD
ATOM     12  C   UNL A   1      29.760  27.051  23.908  1.00  0.00     0.149 A 
BRANCH   8  13
ATOM     13  C   UNL A   1      27.862  29.896  22.514  1.00  0.00     0.056 C 
BRANCH  13  14
ATOM     14  C   UNL A   1      27.685  31.005  23.561  1.00  0.00     0.006 C 
BRANCH  14  15
ATOM     15  C   UNL A   1      28.904  31.914  23.757  1.00  0.00    -0.003 C 
ATOM     16  C   UNL A   1      28.853  33.181  22.917  1.00  0.00     0.004 C 
ENDBRANCH  14  15
ENDBRANCH  13  14
ENDBRANCH   8  13
ENDBRANCH   4   7
ENDBRANCH   2   3
ENDBRANCH   1   2
BRANCH   1  17
ATOM     17  C   UNL A   1      31.933  31.822  26.893  1.00  0.00     0.023 C 
BRANCH  17  18
ATOM     18  C   UNL A   1      33.051  32.787  27.264  1.00  0.00     0.116 C 
BRANCH  18  19
ATOM     19  N   UNL A   1      32.587  34.117  27.638  1.00  0.00    -0.352 N 
ATOM     20  C   UNL A   1      33.057  34.920  28.651  1.00  0.00     0.251 C 
ATOM     21  H   UNL A   1      31.849  34.485  27.101  1.00  0.00     0.163 HD
ATOM     22  O   UNL A   1      32.533  35.999  28.902  1.00  0.00    -0.269 OA
BRANCH  20  23
ATOM     23  C   UNL A   1      34.176  34.422  29.473  1.00  0.00     0.039 A 
ATOM     24  C   UNL A   1      33.890  33.686  30.625  1.00  0.00     0.014 A 
ATOM     25  C   UNL A   1      35.492  34.588  29.036  1.00  0.00     0.014 A 
ATOM     26  C   UNL A   1      34.926  33.033  31.293  1.00  0.00     0.010 A 
ATOM     27  C   UNL A   1      36.509  33.879  29.659  1.00  0.00     0.010 A 
ATOM     28  C   UNL A   1      36.233  33.085  30.784  1.00  0.00    -0.014 A 
BRANCH  28  29
ATOM     29  C   UNL A   1      37.335  32.300  31.390  1.00  0.00     0.031 A 
ATOM     30  C   UNL A   1      37.854  32.672  32.748  1.00  0.00     0.074 A 
ATOM     31  C   UNL A   1      37.942  31.337  30.670  1.00  0.00     0.049 A 
ATOM     32  N   UNL A   1      38.900  32.217  33.388  1.00  0.00    -0.248 NA
ATOM     33  C   UNL A   1      37.119  33.726  33.464  1.00  0.00     0.031 C 
ATOM     34  C   UNL A   1      37.570  30.930  29.314  1.00  0.00     0.029 A 
ATOM     35  N   UNL A   1      39.021  30.544  30.969  1.00  0.00    -0.354 N 
ATOM     36  C   UNL A   1      38.968  32.952  34.563  1.00  0.00     0.074 A 
ATOM     37  C   UNL A   1      37.883  33.910  34.530  1.00  0.00     0.031 C 
ATOM     38  C   UNL A   1      38.403  29.961  28.900  1.00  0.00     0.029 A 
ATOM     39  C   UNL A   1      39.388  29.703  29.947  1.00  0.00     0.049 A 
ATOM     40  H   UNL A   1      39.490  30.575  31.835  1.00  0.00     0.167 HD
ATOM     41  C   UNL A   1      39.847  32.827  35.584  1.00  0.00     0.037 A 
ATOM     42  C   UNL A   1      40.410  28.832  29.859  1.00  0.00     0.037 A 
ATOM     43  C   UNL A   1      40.893  31.841  35.633  1.00  0.00     0.049 A 
ATOM     44  C   UNL A   1      41.348  28.680  31.025  1.00  0.00     0.074 A 
ATOM     45  C   UNL A   1      41.773  31.567  36.664  1.00  0.00     0.029 A 
ATOM     46  N   UNL A   1      41.194  30.962  34.602  1.00  0.00    -0.354 N 
ATOM     47  N   UNL A   1      41.357  29.326  32.165  1.00  0.00    -0.248 NA
ATOM     48  C   UNL A   1      42.413  27.675  30.896  1.00  0.00     0.031 C 
ATOM     49  C   UNL A   1      42.631  30.545  36.245  1.00  0.00     0.029 A 
ATOM     50  C   UNL A   1      42.260  30.157  34.967  1.00  0.00     0.049 A 
ATOM     51  H   UNL A   1      40.721  30.918  33.740  1.00  0.00     0.167 HD
ATOM     52  C   UNL A   1      42.409  28.795  32.897  1.00  0.00     0.074 A 
ATOM     53  C   UNL A   1      43.012  27.765  32.076  1.00  0.00     0.031 C 
ATOM     54  C   UNL A   1      42.838  29.131  34.138  1.00  0.00     0.037 A 
BRANCH  41  55
ATOM     55  C   UNL A   1      39.709  33.780  36.733  1.00  0.00     0.064 A 
ATOM     56  C   UNL A   1      38.917  33.477  37.850  1.00  0.00     0.173 A 
ATOM     57  C   UNL A   1      40.391  35.006  36.723  1.00  0.00     0.173 A 
ATOM     58  F   UNL A   1      38.235  32.323  37.900  1.00  0.00    -0.203 F 
ATOM     59  C   UNL A   1      38.787  34.380  38.901  1.00  0.00     0.198 A 
ATOM     60  C   UNL A   1      40.281  35.895  37.789  1.00  0.00     0.198 A 
ATOM     61  F   UNL A   1      41.164  35.343  35.681  1.00  0.00    -0.203 F 
ATOM     62  F   UNL A   1      37.982  34.092  39.934  1.00  0.00    -0.200 F 
ATOM     63  C   UNL A   1      39.472  35.585  38.872  1.00  0.00     0.200 A 
ATOM     64  F   UNL A   1      40.950  37.055  37.765  1.00  0.00    -0.200 F 
ATOM     65  F   UNL A   1      39.346  36.453  39.886  1.00  0.00    -0.200 F 
ENDBRANCH  41  55
BRANCH  42  66
ATOM     66  C   UNL A   1      40.585  28.023  28.626  1.00  0.00     0.064 A 
ATOM     67  C   UNL A   1      39.964  26.775  28.493  1.00  0.00     0.173 A 
ATOM     68  C   UNL A   1      41.363  28.486  27.554  1.00  0.00     0.173 A 
ATOM     69  F   UNL A   1      39.227  26.284  29.501  1.00  0.00    -0.203 F 
ATOM     70  C   UNL A   1      40.121  26.013  27.338  1.00  0.00     0.198 A 
ATOM     71  C   UNL A   1      41.501  27.732  26.390  1.00  0.00     0.198 A 
ATOM     72  F   UNL A   1      41.972  29.678  27.632  1.00  0.00    -0.203 F 
ATOM     73  F   UNL A   1      39.542  24.808  27.248  1.00  0.00    -0.200 F 
ATOM     74  C   UNL A   1      40.885  26.495  26.285  1.00  0.00     0.200 A 
ATOM     75  F   UNL A   1      42.228  28.207  25.370  1.00  0.00    -0.200 F 
ATOM     76  F   UNL A   1      41.029  25.764  25.171  1.00  0.00    -0.200 F 
ENDBRANCH  42  66
BRANCH  54  77
ATOM     77  C   UNL A   1      43.996  28.361  34.698  1.00  0.00     0.064 A 
ATOM     78  C   UNL A   1      45.313  28.823  34.567  1.00  0.00     0.173 A 
ATOM     79  C   UNL A   1      43.776  27.184  35.429  1.00  0.00     0.173 A 
ATOM     80  F   UNL A   1      45.571  29.935  33.864  1.00  0.00    -0.203 F 
ATOM     81  C   UNL A   1      46.372  28.126  35.141  1.00  0.00     0.198 A 
ATOM     82  C   UNL A   1      44.837  26.503  36.021  1.00  0.00     0.198 A 
ATOM     83  F   UNL A   1      42.533  26.706  35.585  1.00  0.00    -0.203 F 
ATOM     84  F   UNL A   1      47.627  28.569  34.981  1.00  0.00    -0.200 F 
ATOM     85  C   UNL A   1      46.133  26.973  35.874  1.00  0.00     0.200 A 
ATOM     86  F   UNL A   1      44.602  25.395  36.738  1.00  0.00    -0.200 F 
ATOM     87  F   UNL A   1      47.153  26.312  36.437  1.00  0.00    -0.200 F 
ENDBRANCH  54  77
ENDBRANCH  28  29
ENDBRANCH  20  23
ENDBRANCH  18  19
ENDBRANCH  17  18
ENDBRANCH   1  17
TORSDOF 14
ENDMDL
MODEL 2
REMARK VINA RESULT:     -11.0      0.972      7.870
REMARK SMILES CCCCc1[nH]ncc1C(=O)NCCCCNC(=O)c1ccc(-c2c3nc(c(-c4c(F)c(F)c(F)c(F)c4F)c4ccc([nH]4)c(-c4c(F)c(F)c(F)c(F)c4F)c4nc(c(-c5c(F)c(F)c(F)c(F)c5F)c5ccc2[nH]5)C=C4)C=C3)cc1
REMARK SMILES IDX 14 1 13 2 12 3 10 4 11 5 9 7 5 8 6 9 7 10 8 12 4 13 3 14
REMARK SMILES IDX 2 15 1 16 15 17 16 18 17 19 18 20 19 22 20 23 21 24 82 25
REMARK SMILES IDX 22 26 81 27 23 28 24 29 25 30 75 31 26 32 80 33 74 34 76 35
REMARK SMILES IDX 27 36 79 37 73 38 72 39 28 41 60 42 40 43 59 44 41 45 44 46
REMARK SMILES IDX 58 47 77 48 42 49 43 50 57 52 78 53 45 54 29 55 30 56 38 57
REMARK SMILES IDX 31 58 32 59 36 60 39 61 33 62 34 63 37 64 35 65 61 66 62 67
REMARK SMILES IDX 70 68 63 69 64 70 68 71 71 72 65 73 66 74 69 75 67 76 46 77
REMARK SMILES IDX 47 78 55 79 48 80 49 81 53 82 56 83 50 84 51 85 54 86 52 87
REMARK H PARENT 12 6 6 11 17 21 76 40 44 51
REMARK Flexibility Score: inf
ROOT
ATOM      1  C   UNL A   1      32.761  30.133  26.744  1.00  0.00     0.023 C 
ENDROOT
BRANCH   1   2
ATOM      2  C   UNL A   1      31.919  28.970  27.274  1.00  0.00     0.116 C 
BRANCH   2   3
ATOM      3  N   UNL A   1      32.497  27.707  26.897  1.00  0.00    -0.352 N 
ATOM      4  C   UNL A   1      32.200  26.786  25.933  1.00  0.00     0.254 C 
ATOM      5  O   UNL A   1      32.990  25.837  25.883  1.00  0.00    -0.269 OA
ATOM      6  H   UNL A   1      33.270  27.454  27.451  1.00  0.00     0.163 HD
BRANCH   4   7
ATOM      7  C   UNL A   1      31.095  26.856  24.975  1.00  0.00     0.080 A 
ATOM      8  C   UNL A   1      30.508  27.804  24.134  1.00  0.00     0.048 A 
ATOM      9  N   UNL A   1      29.425  27.178  23.562  1.00  0.00    -0.282 N 
ATOM     10  N   UNL A   1      29.254  25.913  23.933  1.00  0.00    -0.183 NA
ATOM     11  H   UNL A   1      28.824  27.631  22.927  1.00  0.00     0.190 HD
ATOM     12  C   UNL A   1      30.246  25.718  24.796  1.00  0.00     0.149 A 
BRANCH   8  13
ATOM     13  C   UNL A   1      30.708  29.243  23.795  1.00  0.00     0.056 C 
BRANCH  13  14
ATOM     14  C   UNL A   1      29.483  29.885  23.129  1.00  0.00     0.006 C 
BRANCH  14  15
ATOM     15  C   UNL A   1      29.066  31.243  23.707  1.00  0.00    -0.003 C 
ATOM     16  C   UNL A   1      27.576  31.523  23.574  1.00  0.00     0.004 C 
ENDBRANCH  14  15
ENDBRANCH  13  14
ENDBRANCH   8  13
ENDBRANCH   4   7
ENDBRANCH   2   3
ENDBRANCH   1   2
BRANCH   1  17
ATOM     17  C   UNL A   1      32.178  31.521  27.000  1.00  0.00     0.023 C 
BRANCH  17  18
ATOM     18  C   UNL A   1      33.203  32.574  27.402  1.00  0.00     0.116 C 
BRANCH  18  19
ATOM     19  N   UNL A   1      32.632  33.890  27.661  1.00  0.00    -0.352 N 
ATOM     20  C   UNL A   1      33.056  34.827  28.574  1.00  0.00     0.251 C 
ATOM     21  H   UNL A   1      31.850  34.136  27.118  1.00  0.00     0.163 HD
ATOM     22  O   UNL A   1      32.444  35.877  28.737  1.00  0.00    -0.269 OA
BRANCH  20  23
ATOM     23  C   UNL A   1      34.236  34.513  29.400  1.00  0.00     0.039 A 
ATOM     24  C   UNL A   1      34.044  33.942  30.660  1.00  0.00     0.014 A 
ATOM     25  C   UNL A   1      35.520  34.678  28.876  1.00  0.00     0.014 A 
ATOM     26  C   UNL A   1      35.144  33.447  31.361  1.00  0.00     0.010 A 
ATOM     27  C   UNL A   1      36.603  34.121  29.542  1.00  0.00     0.010 A 
ATOM     28  C   UNL A   1      36.422  33.489  30.783  1.00  0.00    -0.014 A 
BRANCH  28  29
ATOM     29  C   UNL A   1      37.593  32.858  31.438  1.00  0.00     0.031 A 
ATOM     30  C   UNL A   1      38.281  31.700  30.777  1.00  0.00     0.074 A 
ATOM     31  C   UNL A   1      37.955  33.249  32.675  1.00  0.00     0.049 A 
ATOM     32  N   UNL A   1      39.217  30.916  31.246  1.00  0.00    -0.248 NA
ATOM     33  C   UNL A   1      37.825  31.354  29.423  1.00  0.00     0.031 C 
ATOM     34  C   UNL A   1      37.320  34.319  33.446  1.00  0.00     0.029 A 
ATOM     35  N   UNL A   1      38.930  32.771  33.514  1.00  0.00    -0.354 N 
ATOM     36  C   UNL A   1      39.437  29.965  30.259  1.00  0.00     0.074 A 
ATOM     37  C   UNL A   1      38.509  30.245  29.184  1.00  0.00     0.031 C 
ATOM     38  C   UNL A   1      37.924  34.419  34.642  1.00  0.00     0.029 A 
ATOM     39  C   UNL A   1      38.965  33.399  34.735  1.00  0.00     0.049 A 
ATOM     40  H   UNL A   1      39.547  32.044  33.264  1.00  0.00     0.167 HD
ATOM     41  C   UNL A   1      40.343  28.960  30.246  1.00  0.00     0.037 A 
ATOM     42  C   UNL A   1      39.739  33.169  35.812  1.00  0.00     0.037 A 
ATOM     43  C   UNL A   1      41.295  28.718  31.296  1.00  0.00     0.049 A 
ATOM     44  C   UNL A   1      40.769  32.074  35.756  1.00  0.00     0.074 A 
ATOM     45  C   UNL A   1      42.318  27.788  31.335  1.00  0.00     0.029 A 
ATOM     46  N   UNL A   1      41.341  29.417  32.493  1.00  0.00    -0.354 N 
ATOM     47  N   UNL A   1      41.021  31.229  34.786  1.00  0.00    -0.248 NA
ATOM     48  C   UNL A   1      41.623  31.904  36.939  1.00  0.00     0.031 C 
ATOM     49  C   UNL A   1      42.963  27.902  32.572  1.00  0.00     0.029 A 
ATOM     50  C   UNL A   1      42.365  28.927  33.286  1.00  0.00     0.049 A 
ATOM     51  H   UNL A   1      40.735  30.152  32.742  1.00  0.00     0.167 HD
ATOM     52  C   UNL A   1      42.075  30.443  35.230  1.00  0.00     0.074 A 
ATOM     53  C   UNL A   1      42.422  30.917  36.555  1.00  0.00     0.031 C 
ATOM     54  C   UNL A   1      42.699  29.420  34.598  1.00  0.00     0.037 A 
BRANCH  41  55
ATOM     55  C   UNL A   1      40.347  28.051  29.053  1.00  0.00     0.064 A 
ATOM     56  C   UNL A   1      41.086  28.354  27.901  1.00  0.00     0.173 A 
ATOM     57  C   UNL A   1      39.615  26.855  29.071  1.00  0.00     0.173 A 
ATOM     58  F   UNL A   1      41.791  29.493  27.830  1.00  0.00    -0.203 F 
ATOM     59  C   UNL A   1      41.066  27.508  26.795  1.00  0.00     0.198 A 
ATOM     60  C   UNL A   1      39.620  25.997  27.975  1.00  0.00     0.198 A 
ATOM     61  F   UNL A   1      38.895  26.518  30.151  1.00  0.00    -0.203 F 
ATOM     62  F   UNL A   1      41.736  27.843  25.685  1.00  0.00    -0.200 F 
ATOM     63  C   UNL A   1      40.337  26.328  26.835  1.00  0.00     0.200 A 
ATOM     64  F   UNL A   1      38.923  24.853  28.017  1.00  0.00    -0.200 F 
ATOM     65  F   UNL A   1      40.320  25.514  25.770  1.00  0.00    -0.200 F 
ENDBRANCH  41  55
BRANCH  42  66
ATOM     66  C   UNL A   1      39.580  34.008  37.026  1.00  0.00     0.064 A 
ATOM     67  C   UNL A   1      40.184  35.269  37.110  1.00  0.00     0.173 A 
ATOM     68  C   UNL A   1      38.812  33.575  38.117  1.00  0.00     0.173 A 
ATOM     69  F   UNL A   1      40.944  35.716  36.099  1.00  0.00    -0.203 F 
ATOM     70  C   UNL A   1      40.036  36.063  38.245  1.00  0.00     0.198 A 
ATOM     71  C   UNL A   1      38.646  34.380  39.242  1.00  0.00     0.198 A 
ATOM     72  F   UNL A   1      38.208  32.378  38.080  1.00  0.00    -0.203 F 
ATOM     73  F   UNL A   1      40.651  37.252  38.314  1.00  0.00    -0.200 F 
ATOM     74  C   UNL A   1      39.263  35.621  39.308  1.00  0.00     0.200 A 
ATOM     75  F   UNL A   1      37.887  33.955  40.261  1.00  0.00    -0.200 F 
ATOM     76  F   UNL A   1      39.114  36.388  40.396  1.00  0.00    -0.200 F 
ENDBRANCH  42  66
BRANCH  54  77
ATOM     77  C   UNL A   1      43.838  28.760  35.314  1.00  0.00     0.064 A 
ATOM     78  C   UNL A   1      43.631  27.669  36.170  1.00  0.00     0.173 A 
ATOM     79  C   UNL A   1      45.157  29.183  35.088  1.00  0.00     0.173 A 
ATOM     80  F   UNL A   1      42.386  27.240  36.426  1.00  0.00    -0.203 F 
ATOM     81  C   UNL A   1      44.704  27.031  36.784  1.00  0.00     0.198 A 
ATOM     82  C   UNL A   1      46.229  28.527  35.687  1.00  0.00     0.198 A 
ATOM     83  F   UNL A   1      45.404  30.219  34.274  1.00  0.00    -0.203 F 
ATOM     84  F   UNL A   1      44.483  26.008  37.621  1.00  0.00    -0.200 F 
ATOM     85  C   UNL A   1      46.002  27.454  36.536  1.00  0.00     0.200 A 
ATOM     86  F   UNL A   1      47.483  28.932  35.437  1.00  0.00    -0.200 F 
ATOM     87  F   UNL A   1      47.034  26.830  37.118  1.00  0.00    -0.200 F 
ENDBRANCH  54  77
ENDBRANCH  28  29
ENDBRANCH  20  23
ENDBRANCH  18  19
ENDBRANCH  17  18
ENDBRANCH   1  17
TORSDOF 14
ENDMDL
MODEL 3
REMARK VINA RESULT:     -11.0      1.358      7.702
REMARK SMILES CCCCc1[nH]ncc1C(=O)NCCCCNC(=O)c1ccc(-c2c3nc(c(-c4c(F)c(F)c(F)c(F)c4F)c4ccc([nH]4)c(-c4c(F)c(F)c(F)c(F)c4F)c4nc(c(-c5c(F)c(F)c(F)c(F)c5F)c5ccc2[nH]5)C=C4)C=C3)cc1
REMARK SMILES IDX 14 1 13 2 12 3 10 4 11 5 9 7 5 8 6 9 7 10 8 12 4 13 3 14
REMARK SMILES IDX 2 15 1 16 15 17 16 18 17 19 18 20 19 22 20 23 21 24 82 25
REMARK SMILES IDX 22 26 81 27 23 28 24 29 25 30 75 31 26 32 80 33 74 34 76 35
REMARK SMILES IDX 27 36 79 37 73 38 72 39 28 41 60 42 40 43 59 44 41 45 44 46
REMARK SMILES IDX 58 47 77 48 42 49 43 50 57 52 78 53 45 54 29 55 30 56 38 57
REMARK SMILES IDX 31 58 32 59 36 60 39 61 33 62 34 63 37 64 35 65 61 66 62 67
REMARK SMILES IDX 70 68 63 69 64 70 68 71 71 72 65 73 66 74 69 75 67 76 46 77
REMARK SMILES IDX 47 78 55 79 48 80 49 81 53 82 56 83 50 84 51 85 54 86 52 87
REMARK H PARENT 12 6 6 11 17 21 76 40 44 51
REMARK Flexibility Score: inf
ROOT
ATOM      1  C   UNL A   1      32.421  29.831  26.919  1.00  0.00     0.023 C 
ENDROOT
BRANCH   1   2
ATOM      2  C   UNL A   1      33.471  29.287  25.948  1.00  0.00     0.116 C 
BRANCH   2   3
ATOM      3  N   UNL A   1      33.633  27.866  26.114  1.00  0.00    -0.352 N 
ATOM      4  C   UNL A   1      33.605  26.808  25.251  1.00  0.00     0.254 C 
ATOM      5  O   UNL A   1      33.861  25.720  25.779  1.00  0.00    -0.269 OA
ATOM      6  H   UNL A   1      33.802  27.602  27.047  1.00  0.00     0.163 HD
BRANCH   4   7
ATOM      7  C   UNL A   1      33.347  26.868  23.811  1.00  0.00     0.080 A 
ATOM      8  C   UNL A   1      32.623  27.660  22.917  1.00  0.00     0.048 A 
ATOM      9  N   UNL A   1      32.776  27.071  21.684  1.00  0.00    -0.282 N 
ATOM     10  N   UNL A   1      33.539  25.982  21.679  1.00  0.00    -0.183 NA
ATOM     11  H   UNL A   1      32.353  27.427  20.869  1.00  0.00     0.190 HD
ATOM     12  C   UNL A   1      33.872  25.845  22.959  1.00  0.00     0.149 A 
BRANCH   8  13
ATOM     13  C   UNL A   1      31.727  28.850  22.986  1.00  0.00     0.056 C 
BRANCH  13  14
ATOM     14  C   UNL A   1      30.339  28.533  23.561  1.00  0.00     0.006 C 
BRANCH  14  15
ATOM     15  C   UNL A   1      29.209  29.450  23.078  1.00  0.00    -0.003 C 
ATOM     16  C   UNL A   1      29.531  30.167  21.775  1.00  0.00     0.004 C 
ENDBRANCH  14  15
ENDBRANCH  13  14
ENDBRANCH   8  13
ENDBRANCH   4   7
ENDBRANCH   2   3
ENDBRANCH   1   2
BRANCH   1  17
ATOM     17  C   UNL A   1      32.098  31.315  26.755  1.00  0.00     0.023 C 
BRANCH  17  18
ATOM     18  C   UNL A   1      33.049  32.254  27.484  1.00  0.00     0.116 C 
BRANCH  18  19
ATOM     19  N   UNL A   1      32.547  33.616  27.624  1.00  0.00    -0.352 N 
ATOM     20  C   UNL A   1      33.033  34.614  28.436  1.00  0.00     0.251 C 
ATOM     21  H   UNL A   1      31.767  33.848  27.071  1.00  0.00     0.163 HD
ATOM     22  O   UNL A   1      32.477  35.703  28.505  1.00  0.00    -0.269 OA
BRANCH  20  23
ATOM     23  C   UNL A   1      34.213  34.322  29.271  1.00  0.00     0.039 A 
ATOM     24  C   UNL A   1      34.022  33.746  30.529  1.00  0.00     0.014 A 
ATOM     25  C   UNL A   1      35.498  34.511  28.756  1.00  0.00     0.014 A 
ATOM     26  C   UNL A   1      35.126  33.272  31.237  1.00  0.00     0.010 A 
ATOM     27  C   UNL A   1      36.585  33.973  29.430  1.00  0.00     0.010 A 
ATOM     28  C   UNL A   1      36.408  33.337  30.669  1.00  0.00    -0.014 A 
BRANCH  28  29
ATOM     29  C   UNL A   1      37.585  32.728  31.333  1.00  0.00     0.031 A 
ATOM     30  C   UNL A   1      38.282  31.565  30.691  1.00  0.00     0.074 A 
ATOM     31  C   UNL A   1      37.945  33.143  32.563  1.00  0.00     0.049 A 
ATOM     32  N   UNL A   1      39.226  30.797  31.172  1.00  0.00    -0.248 NA
ATOM     33  C   UNL A   1      37.827  31.191  29.344  1.00  0.00     0.031 C 
ATOM     34  C   UNL A   1      37.302  34.221  33.317  1.00  0.00     0.029 A 
ATOM     35  N   UNL A   1      38.926  32.688  33.408  1.00  0.00    -0.354 N 
ATOM     36  C   UNL A   1      39.452  29.832  30.201  1.00  0.00     0.074 A 
ATOM     37  C   UNL A   1      38.521  30.085  29.123  1.00  0.00     0.031 C 
ATOM     38  C   UNL A   1      37.907  34.346  34.509  1.00  0.00     0.029 A 
ATOM     39  C   UNL A   1      38.957  33.337  34.618  1.00  0.00     0.049 A 
ATOM     40  H   UNL A   1      39.549  31.962  33.170  1.00  0.00     0.167 HD
ATOM     41  C   UNL A   1      40.367  28.835  30.203  1.00  0.00     0.037 A 
ATOM     42  C   UNL A   1      39.735  33.132  35.697  1.00  0.00     0.037 A 
ATOM     43  C   UNL A   1      41.323  28.618  31.255  1.00  0.00     0.049 A 
ATOM     44  C   UNL A   1      40.775  32.046  35.658  1.00  0.00     0.074 A 
ATOM     45  C   UNL A   1      42.354  27.699  31.309  1.00  0.00     0.029 A 
ATOM     46  N   UNL A   1      41.365  29.339  32.441  1.00  0.00    -0.354 N 
ATOM     47  N   UNL A   1      41.033  31.187  34.703  1.00  0.00    -0.248 NA
ATOM     48  C   UNL A   1      41.632  31.904  36.843  1.00  0.00     0.031 C 
ATOM     49  C   UNL A   1      43.000  27.839  32.542  1.00  0.00     0.029 A 
ATOM     50  C   UNL A   1      42.394  28.871  33.240  1.00  0.00     0.049 A 
ATOM     51  H   UNL A   1      40.753  30.073  32.678  1.00  0.00     0.167 HD
ATOM     52  C   UNL A   1      42.094  30.417  35.158  1.00  0.00     0.074 A 
ATOM     53  C   UNL A   1      42.439  30.917  36.474  1.00  0.00     0.031 C 
ATOM     54  C   UNL A   1      42.725  29.389  34.543  1.00  0.00     0.037 A 
BRANCH  41  55
ATOM     55  C   UNL A   1      40.377  27.906  29.026  1.00  0.00     0.064 A 
ATOM     56  C   UNL A   1      39.626  26.722  29.018  1.00  0.00     0.173 A 
ATOM     57  C   UNL A   1      41.135  28.212  27.886  1.00  0.00     0.173 A 
ATOM     58  F   UNL A   1      38.896  26.378  30.090  1.00  0.00    -0.203 F 
ATOM     59  C   UNL A   1      39.658  25.861  27.924  1.00  0.00     0.198 A 
ATOM     60  C   UNL A   1      41.143  27.363  26.783  1.00  0.00     0.198 A 
ATOM     61  F   UNL A   1      41.868  29.334  27.843  1.00  0.00    -0.203 F 
ATOM     62  F   UNL A   1      38.975  24.709  27.959  1.00  0.00    -0.200 F 
ATOM     63  C   UNL A   1      40.412  26.185  26.806  1.00  0.00     0.200 A 
ATOM     64  F   UNL A   1      41.865  27.681  25.700  1.00  0.00    -0.200 F 
ATOM     65  F   UNL A   1      40.442  25.356  25.753  1.00  0.00    -0.200 F 
ENDBRANCH  41  55
BRANCH  42  66
ATOM     66  C   UNL A   1      39.571  33.991  36.897  1.00  0.00     0.064 A 
ATOM     67  C   UNL A   1      38.790  33.567  37.981  1.00  0.00     0.173 A 
ATOM     68  C   UNL A   1      40.200  35.241  36.991  1.00  0.00     0.173 A 
ATOM     69  F   UNL A   1      38.154  32.388  37.926  1.00  0.00    -0.203 F 
ATOM     70  C   UNL A   1      38.635  34.366  39.111  1.00  0.00     0.198 A 
ATOM     71  C   UNL A   1      40.061  36.030  38.133  1.00  0.00     0.198 A 
ATOM     72  F   UNL A   1      40.963  35.687  35.983  1.00  0.00    -0.203 F 
ATOM     73  F   UNL A   1      37.857  33.952  40.120  1.00  0.00    -0.200 F 
ATOM     74  C   UNL A   1      39.275  35.594  39.188  1.00  0.00     0.200 A 
ATOM     75  F   UNL A   1      40.693  37.209  38.209  1.00  0.00    -0.200 F 
ATOM     76  F   UNL A   1      39.131  36.359  40.279  1.00  0.00    -0.200 F 
ENDBRANCH  42  66
BRANCH  54  77
ATOM     77  C   UNL A   1      43.872  28.751  35.268  1.00  0.00     0.064 A 
ATOM     78  C   UNL A   1      45.185  29.212  35.108  1.00  0.00     0.173 A 
ATOM     79  C   UNL A   1      43.641  27.711  36.181  1.00  0.00     0.173 A 
ATOM     80  F   UNL A   1      45.454  30.195  34.235  1.00  0.00    -0.203 F 
ATOM     81  C   UNL A   1      46.232  28.647  35.830  1.00  0.00     0.198 A 
ATOM     82  C   UNL A   1      44.688  27.164  36.918  1.00  0.00     0.198 A 
ATOM     83  F   UNL A   1      42.400  27.240  36.371  1.00  0.00    -0.203 F 
ATOM     84  F   UNL A   1      47.485  29.083  35.643  1.00  0.00    -0.200 F 
ATOM     85  C   UNL A   1      45.982  27.630  36.741  1.00  0.00     0.200 A 
ATOM     86  F   UNL A   1      44.442  26.189  37.805  1.00  0.00    -0.200 F 
ATOM     87  F   UNL A   1      46.989  27.097  37.445  1.00  0.00    -0.200 F 
ENDBRANCH  54  77
ENDBRANCH  28  29
ENDBRANCH  20  23
ENDBRANCH  18  19
ENDBRANCH  17  18
ENDBRANCH   1  17
TORSDOF 14
ENDMDL
