MODEL 1
REMARK VINA RESULT:     -13.0      0.000      0.000
REMARK SMILES Cc1cc2c(c(C)c1Cl)C=C(C(=O)NCCCCNC(=O)c1ccc(-c3c4nc(c(-c5c(F)c(F)c(F)c(F)c5F)c5ccc([nH]5)c(-c5c(F)c(F)c(F)c(F)c5F)c5nc(c(-c6c(F)c(F)c(F)c(F)c6F)c6ccc3[nH]6)C=C5)C=C4)cc1)[C@H](C(F)(F)F)O2
REMARK SMILES IDX 17 1 16 2 15 3 14 4 12 5 13 6 11 8 1 9 2 10 3 11 8 12 4 13
REMARK SMILES IDX 6 14 9 15 5 16 90 17 7 18 10 19 85 20 86 21 87 22 88 23
REMARK SMILES IDX 89 24 18 25 19 26 20 27 21 29 22 30 23 31 84 32 24 33 83 34
REMARK SMILES IDX 25 35 26 36 27 37 77 38 28 39 82 40 76 41 78 42 29 43 81 44
REMARK SMILES IDX 75 45 74 46 30 48 62 49 42 50 61 51 43 52 46 53 60 54 79 55
REMARK SMILES IDX 44 56 45 57 59 59 80 60 47 61 31 62 32 63 40 64 33 65 34 66
REMARK SMILES IDX 38 67 41 68 35 69 36 70 39 71 37 72 63 73 64 74 72 75 65 76
REMARK SMILES IDX 66 77 70 78 73 79 67 80 68 81 71 82 69 83 48 84 49 85 57 86
REMARK SMILES IDX 50 87 51 88 55 89 58 90 52 91 53 92 56 93 54 94
REMARK H PARENT 14 7 19 28 78 47 46 58
REMARK Flexibility Score: inf
ROOT
ATOM      1  C   UNL A   1      37.642  20.533  25.001  1.00  0.00     0.023 C 
ENDROOT
BRANCH   1   2
ATOM      2  C   UNL A   1      37.028  21.774  24.349  1.00  0.00     0.023 C 
BRANCH   2   3
ATOM      3  C   UNL A   1      36.523  22.822  25.339  1.00  0.00     0.116 C 
BRANCH   3   4
ATOM      4  N   UNL A   1      35.736  22.221  26.398  1.00  0.00    -0.352 N 
ATOM      5  C   UNL A   1      34.428  22.177  26.741  1.00  0.00     0.251 C 
ATOM      6  O   UNL A   1      34.166  21.453  27.707  1.00  0.00    -0.270 OA
ATOM      7  H   UNL A   1      36.297  21.715  27.029  1.00  0.00     0.163 HD
BRANCH   5   8
ATOM      8  C   UNL A   1      33.328  22.923  26.060  1.00  0.00     0.067 C 
ATOM      9  C   UNL A   1      29.265  27.319  23.501  1.00  0.00     0.046 C 
ATOM     10  C   UNL A   1      30.360  26.576  24.218  1.00  0.00    -0.028 A 
ATOM     11  C   UNL A   1      30.286  25.181  24.294  1.00  0.00     0.052 A 
ATOM     12  C   UNL A   1      31.454  27.235  24.817  1.00  0.00     0.047 A 
ATOM     13  C   UNL A   1      31.284  24.457  24.934  1.00  0.00     0.128 A 
ATOM     14  C   UNL A   1      32.470  26.510  25.486  1.00  0.00    -0.021 A 
ATOM     15  Cl  UNL A   1      31.522  28.970  24.721  1.00  0.00    -0.084 Cl
ATOM     16  C   UNL A   1      32.366  25.099  25.548  1.00  0.00     0.022 A 
ATOM     17  O   UNL A   1      31.118  23.099  24.951  1.00  0.00    -0.475 OA
ATOM     18  C   UNL A   1      33.653  27.197  26.126  1.00  0.00     0.047 C 
ATOM     19  C   UNL A   1      33.333  24.255  26.256  1.00  0.00     0.026 C 
ATOM     20  C   UNL A   1      32.331  22.316  25.116  1.00  0.00     0.314 C 
BRANCH  20  21
ATOM     21  C   UNL A   1      32.920  21.941  23.746  1.00  0.00     0.429 C 
ATOM     22  F   UNL A   1      33.814  22.854  23.297  1.00  0.00    -0.167 F 
ATOM     23  F   UNL A   1      33.582  20.758  23.834  1.00  0.00    -0.167 F 
ATOM     24  F   UNL A   1      31.982  21.804  22.784  1.00  0.00    -0.167 F 
ENDBRANCH  20  21
ENDBRANCH   5   8
ENDBRANCH   3   4
ENDBRANCH   2   3
ENDBRANCH   1   2
BRANCH   1  25
ATOM     25  C   UNL A   1      38.943  20.777  25.753  1.00  0.00     0.116 C 
BRANCH  25  26
ATOM     26  N   UNL A   1      39.805  19.606  25.831  1.00  0.00    -0.352 N 
ATOM     27  C   UNL A   1      41.149  19.566  26.125  1.00  0.00     0.251 C 
ATOM     28  H   UNL A   1      39.375  18.739  25.652  1.00  0.00     0.163 HD
ATOM     29  O   UNL A   1      41.775  18.519  26.095  1.00  0.00    -0.269 OA
BRANCH  27  30
ATOM     30  C   UNL A   1      41.829  20.840  26.426  1.00  0.00     0.039 A 
ATOM     31  C   UNL A   1      42.099  21.717  25.376  1.00  0.00     0.014 A 
ATOM     32  C   UNL A   1      42.081  21.200  27.753  1.00  0.00     0.014 A 
ATOM     33  C   UNL A   1      42.553  23.002  25.666  1.00  0.00     0.010 A 
ATOM     34  C   UNL A   1      42.465  22.504  28.041  1.00  0.00     0.010 A 
ATOM     35  C   UNL A   1      42.697  23.417  27.001  1.00  0.00    -0.014 A 
BRANCH  35  36
ATOM     36  C   UNL A   1      43.083  24.809  27.327  1.00  0.00     0.031 A 
ATOM     37  C   UNL A   1      44.481  25.279  27.057  1.00  0.00     0.074 A 
ATOM     38  C   UNL A   1      42.187  25.628  27.911  1.00  0.00     0.049 A 
ATOM     39  N   UNL A   1      45.019  26.447  27.293  1.00  0.00    -0.248 NA
ATOM     40  C   UNL A   1      45.408  24.297  26.471  1.00  0.00     0.031 C 
ATOM     41  C   UNL A   1      40.817  25.262  28.275  1.00  0.00     0.029 A 
ATOM     42  N   UNL A   1      42.295  26.939  28.299  1.00  0.00    -0.354 N 
ATOM     43  C   UNL A   1      46.343  26.337  26.895  1.00  0.00     0.074 A 
ATOM     44  C   UNL A   1      46.547  24.973  26.457  1.00  0.00     0.031 C 
ATOM     45  C   UNL A   1      40.199  26.335  28.795  1.00  0.00     0.029 A 
ATOM     46  C   UNL A   1      41.135  27.455  28.824  1.00  0.00     0.049 A 
ATOM     47  H   UNL A   1      43.125  27.461  28.210  1.00  0.00     0.167 HD
ATOM     48  C   UNL A   1      47.295  27.298  26.865  1.00  0.00     0.037 A 
ATOM     49  C   UNL A   1      40.857  28.698  29.262  1.00  0.00     0.037 A 
ATOM     50  C   UNL A   1      47.077  28.661  27.260  1.00  0.00     0.049 A 
ATOM     51  C   UNL A   1      41.927  29.752  29.204  1.00  0.00     0.074 A 
ATOM     52  C   UNL A   1      47.957  29.727  27.206  1.00  0.00     0.029 A 
ATOM     53  N   UNL A   1      45.885  29.149  27.776  1.00  0.00    -0.354 N 
ATOM     54  N   UNL A   1      43.158  29.653  28.764  1.00  0.00    -0.248 NA
ATOM     55  C   UNL A   1      41.572  31.089  29.701  1.00  0.00     0.031 C 
ATOM     56  C   UNL A   1      47.306  30.855  27.714  1.00  0.00     0.029 A 
ATOM     57  C   UNL A   1      46.011  30.498  28.056  1.00  0.00     0.049 A 
ATOM     58  H   UNL A   1      45.071  28.614  27.922  1.00  0.00     0.167 HD
ATOM     59  C   UNL A   1      43.717  30.915  28.909  1.00  0.00     0.074 A 
ATOM     60  C   UNL A   1      42.689  31.766  29.471  1.00  0.00     0.031 C 
ATOM     61  C   UNL A   1      44.970  31.328  28.603  1.00  0.00     0.037 A 
BRANCH  48  62
ATOM     62  C   UNL A   1      48.650  26.910  26.359  1.00  0.00     0.064 A 
ATOM     63  C   UNL A   1      48.990  27.054  25.006  1.00  0.00     0.173 A 
ATOM     64  C   UNL A   1      49.630  26.423  27.237  1.00  0.00     0.173 A 
ATOM     65  F   UNL A   1      48.081  27.502  24.127  1.00  0.00    -0.203 F 
ATOM     66  C   UNL A   1      50.255  26.703  24.544  1.00  0.00     0.198 A 
ATOM     67  C   UNL A   1      50.901  26.096  26.776  1.00  0.00     0.198 A 
ATOM     68  F   UNL A   1      49.354  26.269  28.541  1.00  0.00    -0.203 F 
ATOM     69  F   UNL A   1      50.543  26.809  23.240  1.00  0.00    -0.200 F 
ATOM     70  C   UNL A   1      51.212  26.230  25.430  1.00  0.00     0.200 A 
ATOM     71  F   UNL A   1      51.829  25.646  27.633  1.00  0.00    -0.200 F 
ATOM     72  F   UNL A   1      52.431  25.898  24.986  1.00  0.00    -0.200 F 
ENDBRANCH  48  62
BRANCH  49  73
ATOM     73  C   UNL A   1      39.489  29.023  29.735  1.00  0.00     0.064 A 
ATOM     74  C   UNL A   1      39.144  28.854  31.084  1.00  0.00     0.173 A 
ATOM     75  C   UNL A   1      38.510  29.528  28.868  1.00  0.00     0.173 A 
ATOM     76  F   UNL A   1      40.043  28.358  31.946  1.00  0.00    -0.203 F 
ATOM     77  C   UNL A   1      37.869  29.171  31.545  1.00  0.00     0.198 A 
ATOM     78  C   UNL A   1      37.241  29.862  29.334  1.00  0.00     0.198 A 
ATOM     79  F   UNL A   1      38.794  29.711  27.570  1.00  0.00    -0.203 F 
ATOM     80  F   UNL A   1      37.557  28.977  32.834  1.00  0.00    -0.200 F 
ATOM     81  C   UNL A   1      36.920  29.681  30.671  1.00  0.00     0.200 A 
ATOM     82  F   UNL A   1      36.330  30.364  28.490  1.00  0.00    -0.200 F 
ATOM     83  F   UNL A   1      35.696  29.993  31.117  1.00  0.00    -0.200 F 
ENDBRANCH  49  73
BRANCH  61  84
ATOM     84  C   UNL A   1      45.305  32.766  28.850  1.00  0.00     0.064 A 
ATOM     85  C   UNL A   1      45.948  33.170  30.028  1.00  0.00     0.173 A 
ATOM     86  C   UNL A   1      45.076  33.729  27.856  1.00  0.00     0.173 A 
ATOM     87  F   UNL A   1      46.176  32.284  31.009  1.00  0.00    -0.203 F 
ATOM     88  C   UNL A   1      46.350  34.490  30.203  1.00  0.00     0.198 A 
ATOM     89  C   UNL A   1      45.498  35.044  28.027  1.00  0.00     0.198 A 
ATOM     90  F   UNL A   1      44.470  33.386  26.709  1.00  0.00    -0.203 F 
ATOM     91  F   UNL A   1      46.951  34.860  31.343  1.00  0.00    -0.200 F 
ATOM     92  C   UNL A   1      46.135  35.423  29.199  1.00  0.00     0.200 A 
ATOM     93  F   UNL A   1      45.300  35.941  27.051  1.00  0.00    -0.200 F 
ATOM     94  F   UNL A   1      46.543  36.689  29.361  1.00  0.00    -0.200 F 
ENDBRANCH  61  84
ENDBRANCH  35  36
ENDBRANCH  27  30
ENDBRANCH  25  26
ENDBRANCH   1  25
TORSDOF 12
ENDMDL
MODEL 2
REMARK VINA RESULT:     -13.0      0.158      1.591
REMARK SMILES Cc1cc2c(c(C)c1Cl)C=C(C(=O)NCCCCNC(=O)c1ccc(-c3c4nc(c(-c5c(F)c(F)c(F)c(F)c5F)c5ccc([nH]5)c(-c5c(F)c(F)c(F)c(F)c5F)c5nc(c(-c6c(F)c(F)c(F)c(F)c6F)c6ccc3[nH]6)C=C5)C=C4)cc1)[C@H](C(F)(F)F)O2
REMARK SMILES IDX 17 1 16 2 15 3 14 4 12 5 13 6 11 8 1 9 2 10 3 11 8 12 4 13
REMARK SMILES IDX 6 14 9 15 5 16 90 17 7 18 10 19 85 20 86 21 87 22 88 23
REMARK SMILES IDX 89 24 18 25 19 26 20 27 21 29 22 30 23 31 84 32 24 33 83 34
REMARK SMILES IDX 25 35 26 36 27 37 77 38 28 39 82 40 76 41 78 42 29 43 81 44
REMARK SMILES IDX 75 45 74 46 30 48 62 49 42 50 61 51 43 52 46 53 60 54 79 55
REMARK SMILES IDX 44 56 45 57 59 59 80 60 47 61 31 62 32 63 40 64 33 65 34 66
REMARK SMILES IDX 38 67 41 68 35 69 36 70 39 71 37 72 63 73 64 74 72 75 65 76
REMARK SMILES IDX 66 77 70 78 73 79 67 80 68 81 71 82 69 83 48 84 49 85 57 86
REMARK SMILES IDX 50 87 51 88 55 89 58 90 52 91 53 92 56 93 54 94
REMARK H PARENT 14 7 19 28 78 47 46 58
REMARK Flexibility Score: inf
ROOT
ATOM      1  C   UNL A   1      37.689  20.615  25.028  1.00  0.00     0.023 C 
ENDROOT
BRANCH   1   2
ATOM      2  C   UNL A   1      37.076  21.865  24.392  1.00  0.00     0.023 C 
BRANCH   2   3
ATOM      3  C   UNL A   1      36.597  22.913  25.395  1.00  0.00     0.116 C 
BRANCH   3   4
ATOM      4  N   UNL A   1      35.792  22.317  26.444  1.00  0.00    -0.352 N 
ATOM      5  C   UNL A   1      34.478  22.277  26.766  1.00  0.00     0.251 C 
ATOM      6  O   UNL A   1      34.201  21.558  27.732  1.00  0.00    -0.270 OA
ATOM      7  H   UNL A   1      36.342  21.814  27.087  1.00  0.00     0.163 HD
BRANCH   5   8
ATOM      8  C   UNL A   1      33.391  23.020  26.064  1.00  0.00     0.067 C 
ATOM      9  C   UNL A   1      29.358  27.406  23.441  1.00  0.00     0.046 C 
ATOM     10  C   UNL A   1      30.440  26.665  24.179  1.00  0.00    -0.028 A 
ATOM     11  C   UNL A   1      30.376  25.269  24.241  1.00  0.00     0.052 A 
ATOM     12  C   UNL A   1      31.512  27.328  24.813  1.00  0.00     0.047 A 
ATOM     13  C   UNL A   1      31.363  24.547  24.900  1.00  0.00     0.128 A 
ATOM     14  C   UNL A   1      32.517  26.604  25.501  1.00  0.00    -0.021 A 
ATOM     15  Cl  UNL A   1      31.568  29.064  24.734  1.00  0.00    -0.084 Cl
ATOM     16  C   UNL A   1      32.423  25.192  25.547  1.00  0.00     0.022 A 
ATOM     17  O   UNL A   1      31.208  23.188  24.899  1.00  0.00    -0.475 OA
ATOM     18  C   UNL A   1      33.677  27.296  26.178  1.00  0.00     0.047 C 
ATOM     19  C   UNL A   1      33.379  24.350  26.273  1.00  0.00     0.026 C 
ATOM     20  C   UNL A   1      32.423  22.414  25.089  1.00  0.00     0.314 C 
BRANCH  20  21
ATOM     21  C   UNL A   1      33.051  22.057  23.731  1.00  0.00     0.429 C 
ATOM     22  F   UNL A   1      33.931  22.992  23.303  1.00  0.00    -0.167 F 
ATOM     23  F   UNL A   1      33.741  20.891  23.832  1.00  0.00    -0.167 F 
ATOM     24  F   UNL A   1      32.137  21.898  22.749  1.00  0.00    -0.167 F 
ENDBRANCH  20  21
ENDBRANCH   5   8
ENDBRANCH   3   4
ENDBRANCH   2   3
ENDBRANCH   1   2
BRANCH   1  25
ATOM     25  C   UNL A   1      39.012  20.840  25.747  1.00  0.00     0.116 C 
BRANCH  25  26
ATOM     26  N   UNL A   1      39.877  19.668  25.765  1.00  0.00    -0.352 N 
ATOM     27  C   UNL A   1      41.226  19.619  26.034  1.00  0.00     0.251 C 
ATOM     28  H   UNL A   1      39.445  18.808  25.561  1.00  0.00     0.163 HD
ATOM     29  O   UNL A   1      41.853  18.576  25.953  1.00  0.00    -0.269 OA
BRANCH  27  30
ATOM     30  C   UNL A   1      41.909  20.883  26.371  1.00  0.00     0.039 A 
ATOM     31  C   UNL A   1      42.222  21.769  25.340  1.00  0.00     0.014 A 
ATOM     32  C   UNL A   1      42.123  21.225  27.709  1.00  0.00     0.014 A 
ATOM     33  C   UNL A   1      42.679  23.046  25.659  1.00  0.00     0.010 A 
ATOM     34  C   UNL A   1      42.511  22.521  28.025  1.00  0.00     0.010 A 
ATOM     35  C   UNL A   1      42.785  23.444  27.003  1.00  0.00    -0.014 A 
BRANCH  35  36
ATOM     36  C   UNL A   1      43.175  24.828  27.357  1.00  0.00     0.031 A 
ATOM     37  C   UNL A   1      44.576  25.297  27.101  1.00  0.00     0.074 A 
ATOM     38  C   UNL A   1      42.280  25.638  27.954  1.00  0.00     0.049 A 
ATOM     39  N   UNL A   1      45.117  26.459  27.361  1.00  0.00    -0.248 NA
ATOM     40  C   UNL A   1      45.501  24.323  26.500  1.00  0.00     0.031 C 
ATOM     41  C   UNL A   1      40.908  25.270  28.306  1.00  0.00     0.029 A 
ATOM     42  N   UNL A   1      42.391  26.942  28.369  1.00  0.00    -0.354 N 
ATOM     43  C   UNL A   1      46.442  26.351  26.966  1.00  0.00     0.074 A 
ATOM     44  C   UNL A   1      46.643  24.996  26.503  1.00  0.00     0.031 C 
ATOM     45  C   UNL A   1      40.292  26.335  28.845  1.00  0.00     0.029 A 
ATOM     46  C   UNL A   1      41.232  27.451  28.899  1.00  0.00     0.049 A 
ATOM     47  H   UNL A   1      43.224  27.462  28.293  1.00  0.00     0.167 HD
ATOM     48  C   UNL A   1      47.398  27.310  26.958  1.00  0.00     0.037 A 
ATOM     49  C   UNL A   1      40.957  28.686  29.361  1.00  0.00     0.037 A 
ATOM     50  C   UNL A   1      47.183  28.665  27.379  1.00  0.00     0.049 A 
ATOM     51  C   UNL A   1      42.031  29.737  29.327  1.00  0.00     0.074 A 
ATOM     52  C   UNL A   1      48.068  29.729  27.349  1.00  0.00     0.029 A 
ATOM     53  N   UNL A   1      45.992  29.148  27.901  1.00  0.00    -0.354 N 
ATOM     54  N   UNL A   1      43.263  29.643  28.889  1.00  0.00    -0.248 NA
ATOM     55  C   UNL A   1      41.679  31.066  29.848  1.00  0.00     0.031 C 
ATOM     56  C   UNL A   1      47.419  30.849  27.876  1.00  0.00     0.029 A 
ATOM     57  C   UNL A   1      46.122  30.491  28.207  1.00  0.00     0.049 A 
ATOM     58  H   UNL A   1      45.175  28.613  28.033  1.00  0.00     0.167 HD
ATOM     59  C   UNL A   1      43.826  30.900  29.060  1.00  0.00     0.074 A 
ATOM     60  C   UNL A   1      42.799  31.743  29.636  1.00  0.00     0.031 C 
ATOM     61  C   UNL A   1      45.082  31.313  28.767  1.00  0.00     0.037 A 
BRANCH  48  62
ATOM     62  C   UNL A   1      48.753  26.927  26.449  1.00  0.00     0.064 A 
ATOM     63  C   UNL A   1      49.722  26.377  27.302  1.00  0.00     0.173 A 
ATOM     64  C   UNL A   1      49.078  27.078  25.093  1.00  0.00     0.173 A 
ATOM     65  F   UNL A   1      49.461  26.228  28.610  1.00  0.00    -0.203 F 
ATOM     66  C   UNL A   1      50.975  26.013  26.820  1.00  0.00     0.198 A 
ATOM     67  C   UNL A   1      50.324  26.689  24.611  1.00  0.00     0.198 A 
ATOM     68  F   UNL A   1      48.185  27.597  24.237  1.00  0.00    -0.203 F 
ATOM     69  F   UNL A   1      51.899  25.529  27.662  1.00  0.00    -0.200 F 
ATOM     70  C   UNL A   1      51.274  26.163  25.474  1.00  0.00     0.200 A 
ATOM     71  F   UNL A   1      50.610  26.827  23.308  1.00  0.00    -0.200 F 
ATOM     72  F   UNL A   1      52.479  25.806  25.011  1.00  0.00    -0.200 F 
ENDBRANCH  48  62
BRANCH  49  73
ATOM     73  C   UNL A   1      39.588  29.007  29.835  1.00  0.00     0.064 A 
ATOM     74  C   UNL A   1      38.632  29.525  28.950  1.00  0.00     0.173 A 
ATOM     75  C   UNL A   1      39.197  28.783  31.162  1.00  0.00     0.173 A 
ATOM     76  F   UNL A   1      38.967  29.771  27.675  1.00  0.00    -0.203 F 
ATOM     77  C   UNL A   1      37.339  29.815  29.376  1.00  0.00     0.198 A 
ATOM     78  C   UNL A   1      37.897  29.056  31.584  1.00  0.00     0.198 A 
ATOM     79  F   UNL A   1      40.074  28.284  32.045  1.00  0.00    -0.203 F 
ATOM     80  F   UNL A   1      36.452  30.333  28.516  1.00  0.00    -0.200 F 
ATOM     81  C   UNL A   1      36.971  29.574  30.692  1.00  0.00     0.200 A 
ATOM     82  F   UNL A   1      37.542  28.812  32.852  1.00  0.00    -0.200 F 
ATOM     83  F   UNL A   1      35.723  29.846  31.100  1.00  0.00    -0.200 F 
ENDBRANCH  49  73
BRANCH  61  84
ATOM     84  C   UNL A   1      45.421  32.746  29.043  1.00  0.00     0.064 A 
ATOM     85  C   UNL A   1      46.052  33.125  30.236  1.00  0.00     0.173 A 
ATOM     86  C   UNL A   1      45.210  33.727  28.063  1.00  0.00     0.173 A 
ATOM     87  F   UNL A   1      46.262  32.221  31.204  1.00  0.00    -0.203 F 
ATOM     88  C   UNL A   1      46.458  34.440  30.439  1.00  0.00     0.198 A 
ATOM     89  C   UNL A   1      45.637  35.036  28.262  1.00  0.00     0.198 A 
ATOM     90  F   UNL A   1      44.617  33.406  26.903  1.00  0.00    -0.203 F 
ATOM     91  F   UNL A   1      47.047  34.786  31.592  1.00  0.00    -0.200 F 
ATOM     92  C   UNL A   1      46.261  35.391  29.448  1.00  0.00     0.200 A 
ATOM     93  F   UNL A   1      45.456  35.951  27.299  1.00  0.00    -0.200 F 
ATOM     94  F   UNL A   1      46.674  36.651  29.637  1.00  0.00    -0.200 F 
ENDBRANCH  61  84
ENDBRANCH  35  36
ENDBRANCH  27  30
ENDBRANCH  25  26
ENDBRANCH   1  25
TORSDOF 12
ENDMDL
MODEL 3
REMARK VINA RESULT:     -13.0      5.349     10.541
REMARK SMILES Cc1cc2c(c(C)c1Cl)C=C(C(=O)NCCCCNC(=O)c1ccc(-c3c4nc(c(-c5c(F)c(F)c(F)c(F)c5F)c5ccc([nH]5)c(-c5c(F)c(F)c(F)c(F)c5F)c5nc(c(-c6c(F)c(F)c(F)c(F)c6F)c6ccc3[nH]6)C=C5)C=C4)cc1)[C@H](C(F)(F)F)O2
REMARK SMILES IDX 17 1 16 2 15 3 14 4 12 5 13 6 11 8 1 9 2 10 3 11 8 12 4 13
REMARK SMILES IDX 6 14 9 15 5 16 90 17 7 18 10 19 85 20 86 21 87 22 88 23
REMARK SMILES IDX 89 24 18 25 19 26 20 27 21 29 22 30 23 31 84 32 24 33 83 34
REMARK SMILES IDX 25 35 26 36 27 37 77 38 28 39 82 40 76 41 78 42 29 43 81 44
REMARK SMILES IDX 75 45 74 46 30 48 62 49 42 50 61 51 43 52 46 53 60 54 79 55
REMARK SMILES IDX 44 56 45 57 59 59 80 60 47 61 31 62 32 63 40 64 33 65 34 66
REMARK SMILES IDX 38 67 41 68 35 69 36 70 39 71 37 72 63 73 64 74 72 75 65 76
REMARK SMILES IDX 66 77 70 78 73 79 67 80 68 81 71 82 69 83 48 84 49 85 57 86
REMARK SMILES IDX 50 87 51 88 55 89 58 90 52 91 53 92 56 93 54 94
REMARK H PARENT 14 7 19 28 78 47 46 58
REMARK Flexibility Score: inf
ROOT
ATOM      1  C   UNL A   1      31.917  31.136  26.504  1.00  0.00     0.023 C 
ENDROOT
BRANCH   1   2
ATOM      2  C   UNL A   1      31.986  29.635  26.793  1.00  0.00     0.023 C 
BRANCH   2   3
ATOM      3  C   UNL A   1      33.298  28.972  26.377  1.00  0.00     0.116 C 
BRANCH   3   4
ATOM      4  N   UNL A   1      33.611  29.236  24.986  1.00  0.00    -0.352 N 
ATOM      5  C   UNL A   1      33.523  28.559  23.818  1.00  0.00     0.251 C 
ATOM      6  O   UNL A   1      33.831  29.210  22.814  1.00  0.00    -0.270 OA
ATOM      7  H   UNL A   1      33.984  30.138  24.859  1.00  0.00     0.163 HD
BRANCH   5   8
ATOM      8  C   UNL A   1      33.102  27.134  23.672  1.00  0.00     0.067 C 
ATOM      9  C   UNL A   1      32.469  20.655  23.741  1.00  0.00     0.046 C 
ATOM     10  C   UNL A   1      32.917  22.086  23.864  1.00  0.00    -0.028 A 
ATOM     11  C   UNL A   1      32.140  23.086  23.268  1.00  0.00     0.052 A 
ATOM     12  C   UNL A   1      34.091  22.454  24.553  1.00  0.00     0.047 A 
ATOM     13  C   UNL A   1      32.511  24.421  23.372  1.00  0.00     0.128 A 
ATOM     14  C   UNL A   1      34.489  23.810  24.652  1.00  0.00    -0.021 A 
ATOM     15  Cl  UNL A   1      35.049  21.197  25.276  1.00  0.00    -0.084 Cl
ATOM     16  C   UNL A   1      33.682  24.799  24.038  1.00  0.00     0.022 A 
ATOM     17  O   UNL A   1      31.682  25.319  22.757  1.00  0.00    -0.475 OA
ATOM     18  C   UNL A   1      35.738  24.224  25.392  1.00  0.00     0.047 C 
ATOM     19  C   UNL A   1      34.026  26.224  24.036  1.00  0.00     0.026 C 
ATOM     20  C   UNL A   1      31.729  26.677  23.272  1.00  0.00     0.314 C 
BRANCH  20  21
ATOM     21  C   UNL A   1      30.665  26.876  24.364  1.00  0.00     0.429 C 
ATOM     22  F   UNL A   1      30.218  28.152  24.428  1.00  0.00    -0.167 F 
ATOM     23  F   UNL A   1      29.583  26.097  24.105  1.00  0.00    -0.167 F 
ATOM     24  F   UNL A   1      31.106  26.551  25.599  1.00  0.00    -0.167 F 
ENDBRANCH  20  21
ENDBRANCH   5   8
ENDBRANCH   3   4
ENDBRANCH   2   3
ENDBRANCH   1   2
BRANCH   1  25
ATOM     25  C   UNL A   1      32.954  31.981  27.232  1.00  0.00     0.116 C 
BRANCH  25  26
ATOM     26  N   UNL A   1      32.528  33.351  27.477  1.00  0.00    -0.352 N 
ATOM     27  C   UNL A   1      33.069  34.258  28.360  1.00  0.00     0.251 C 
ATOM     28  H   UNL A   1      31.762  33.668  26.947  1.00  0.00     0.163 HD
ATOM     29  O   UNL A   1      32.576  35.363  28.519  1.00  0.00    -0.269 OA
BRANCH  27  30
ATOM     30  C   UNL A   1      34.237  33.835  29.155  1.00  0.00     0.039 A 
ATOM     31  C   UNL A   1      34.035  32.972  30.233  1.00  0.00     0.014 A 
ATOM     32  C   UNL A   1      35.525  34.200  28.754  1.00  0.00     0.014 A 
ATOM     33  C   UNL A   1      35.140  32.406  30.865  1.00  0.00     0.010 A 
ATOM     34  C   UNL A   1      36.621  33.579  29.339  1.00  0.00     0.010 A 
ATOM     35  C   UNL A   1      36.437  32.671  30.394  1.00  0.00    -0.014 A 
BRANCH  35  36
ATOM     36  C   UNL A   1      37.614  32.000  30.991  1.00  0.00     0.031 A 
ATOM     37  C   UNL A   1      38.064  32.371  32.372  1.00  0.00     0.074 A 
ATOM     38  C   UNL A   1      38.302  31.097  30.266  1.00  0.00     0.049 A 
ATOM     39  N   UNL A   1      39.081  31.918  33.058  1.00  0.00    -0.248 NA
ATOM     40  C   UNL A   1      37.286  33.411  33.065  1.00  0.00     0.031 C 
ATOM     41  C   UNL A   1      37.993  30.702  28.891  1.00  0.00     0.029 A 
ATOM     42  N   UNL A   1      39.405  30.346  30.588  1.00  0.00    -0.354 N 
ATOM     43  C   UNL A   1      39.070  32.622  34.253  1.00  0.00     0.074 A 
ATOM     44  C   UNL A   1      37.983  33.573  34.180  1.00  0.00     0.031 C 
ATOM     45  C   UNL A   1      38.858  29.751  28.502  1.00  0.00     0.029 A 
ATOM     46  C   UNL A   1      39.797  29.489  29.589  1.00  0.00     0.049 A 
ATOM     47  H   UNL A   1      39.870  30.415  31.453  1.00  0.00     0.167 HD
ATOM     48  C   UNL A   1      39.874  32.463  35.330  1.00  0.00     0.037 A 
ATOM     49  C   UNL A   1      40.793  28.582  29.564  1.00  0.00     0.037 A 
ATOM     50  C   UNL A   1      40.924  31.488  35.415  1.00  0.00     0.049 A 
ATOM     51  C   UNL A   1      41.662  28.414  30.779  1.00  0.00     0.074 A 
ATOM     52  C   UNL A   1      41.753  31.203  36.485  1.00  0.00     0.029 A 
ATOM     53  N   UNL A   1      41.285  30.629  34.387  1.00  0.00    -0.354 N 
ATOM     54  N   UNL A   1      41.601  29.040  31.929  1.00  0.00    -0.248 NA
ATOM     55  C   UNL A   1      42.738  27.415  30.695  1.00  0.00     0.031 C 
ATOM     56  C   UNL A   1      42.633  30.189  36.096  1.00  0.00     0.029 A 
ATOM     57  C   UNL A   1      42.332  29.821  34.794  1.00  0.00     0.049 A 
ATOM     58  H   UNL A   1      40.859  30.599  33.499  1.00  0.00     0.167 HD
ATOM     59  C   UNL A   1      42.610  28.498  32.712  1.00  0.00     0.074 A 
ATOM     60  C   UNL A   1      43.266  27.487  31.909  1.00  0.00     0.031 C 
ATOM     61  C   UNL A   1      42.960  28.813  33.982  1.00  0.00     0.037 A 
BRANCH  48  62
ATOM     62  C   UNL A   1      39.624  33.347  36.513  1.00  0.00     0.064 A 
ATOM     63  C   UNL A   1      38.737  32.968  37.531  1.00  0.00     0.173 A 
ATOM     64  C   UNL A   1      40.301  34.569  36.648  1.00  0.00     0.173 A 
ATOM     65  F   UNL A   1      38.057  31.815  37.436  1.00  0.00    -0.203 F 
ATOM     66  C   UNL A   1      38.519  33.789  38.632  1.00  0.00     0.198 A 
ATOM     67  C   UNL A   1      40.097  35.376  37.764  1.00  0.00     0.198 A 
ATOM     68  F   UNL A   1      41.160  34.976  35.703  1.00  0.00    -0.203 F 
ATOM     69  F   UNL A   1      37.635  33.425  39.571  1.00  0.00    -0.200 F 
ATOM     70  C   UNL A   1      39.203  34.989  38.752  1.00  0.00     0.200 A 
ATOM     71  F   UNL A   1      40.765  36.532  37.884  1.00  0.00    -0.200 F 
ATOM     72  F   UNL A   1      38.996  35.776  39.816  1.00  0.00    -0.200 F 
ENDBRANCH  48  62
BRANCH  49  73
ATOM     73  C   UNL A   1      40.976  27.724  28.368  1.00  0.00     0.064 A 
ATOM     74  C   UNL A   1      40.280  26.513  28.248  1.00  0.00     0.173 A 
ATOM     75  C   UNL A   1      41.822  28.099  27.314  1.00  0.00     0.173 A 
ATOM     76  F   UNL A   1      39.474  26.106  29.240  1.00  0.00    -0.203 F 
ATOM     77  C   UNL A   1      40.430  25.705  27.124  1.00  0.00     0.198 A 
ATOM     78  C   UNL A   1      41.956  27.299  26.182  1.00  0.00     0.198 A 
ATOM     79  F   UNL A   1      42.504  29.251  27.380  1.00  0.00    -0.203 F 
ATOM     80  F   UNL A   1      39.772  24.540  27.046  1.00  0.00    -0.200 F 
ATOM     81  C   UNL A   1      41.263  26.102  26.088  1.00  0.00     0.200 A 
ATOM     82  F   UNL A   1      42.753  27.691  25.178  1.00  0.00    -0.200 F 
ATOM     83  F   UNL A   1      41.400  25.328  25.003  1.00  0.00    -0.200 F 
ENDBRANCH  49  73
BRANCH  61  84
ATOM     84  C   UNL A   1      44.092  28.050  34.598  1.00  0.00     0.064 A 
ATOM     85  C   UNL A   1      43.872  26.833  35.258  1.00  0.00     0.173 A 
ATOM     86  C   UNL A   1      45.415  28.487  34.435  1.00  0.00     0.173 A 
ATOM     87  F   UNL A   1      42.622  26.384  35.446  1.00  0.00    -0.203 F 
ATOM     88  C   UNL A   1      44.940  26.080  35.736  1.00  0.00     0.198 A 
ATOM     89  C   UNL A   1      46.480  27.720  34.896  1.00  0.00     0.198 A 
ATOM     90  F   UNL A   1      45.672  29.642  33.802  1.00  0.00    -0.203 F 
ATOM     91  F   UNL A   1      44.709  24.926  36.377  1.00  0.00    -0.200 F 
ATOM     92  C   UNL A   1      46.242  26.518  35.544  1.00  0.00     0.200 A 
ATOM     93  F   UNL A   1      47.738  28.138  34.699  1.00  0.00    -0.200 F 
ATOM     94  F   UNL A   1      47.269  25.779  35.985  1.00  0.00    -0.200 F 
ENDBRANCH  61  84
ENDBRANCH  35  36
ENDBRANCH  27  30
ENDBRANCH  25  26
ENDBRANCH   1  25
TORSDOF 12
ENDMDL
