MODEL 1
REMARK VINA RESULT:     -14.1      0.000      0.000
REMARK SMILES Cc1c(CC(=O)NCCCCNC(=O)c2ccc(-c3c4nc(c(-c5c(F)c(F)c(F)c(F)c5F)c5ccc([nH]5)c(-c5c(F)c(F)c(F)c(F)c5F)c5nc(c(-c6c(F)c(F)c(F)c(F)c6F)c6ccc3[nH]6)C=C5)C=C4)cc2)cc(-c2ccccc2)cc1-c1ccccc1
REMARK SMILES IDX 9 1 8 2 7 3 5 4 6 5 4 7 3 8 1 9 2 10 87 11 78 12 86 13 79 14
REMARK SMILES IDX 88 15 89 16 93 17 90 18 92 19 91 20 80 21 81 22 85 23 82 24
REMARK SMILES IDX 84 25 83 26 10 27 11 28 12 29 13 30 14 32 15 33 16 34 77 35
REMARK SMILES IDX 17 36 76 37 18 38 19 39 20 40 70 41 21 42 75 43 69 44 71 45
REMARK SMILES IDX 22 46 74 47 68 48 67 49 23 51 55 52 35 53 54 54 36 55 39 56
REMARK SMILES IDX 53 57 72 58 37 59 38 60 52 62 73 63 40 64 24 65 25 66 33 67
REMARK SMILES IDX 26 68 27 69 31 70 34 71 28 72 29 73 32 74 30 75 56 76 57 77
REMARK SMILES IDX 65 78 58 79 59 80 63 81 66 82 60 83 61 84 64 85 62 86 41 87
REMARK SMILES IDX 42 88 50 89 43 90 44 91 48 92 51 93 45 94 46 95 49 96 47 97
REMARK H PARENT 7 6 12 31 71 50 39 61
REMARK Flexibility Score: inf
ROOT
ATOM      1  C   UNL A   1      33.077  27.897  25.757  1.00  0.00     0.023 C 
ENDROOT
BRANCH   1   2
ATOM      2  C   UNL A   1      33.631  26.479  25.553  1.00  0.00     0.116 C 
BRANCH   2   3
ATOM      3  N   UNL A   1      33.958  26.178  24.171  1.00  0.00    -0.356 N 
ATOM      4  C   UNL A   1      33.697  25.056  23.434  1.00  0.00     0.224 C 
ATOM      5  O   UNL A   1      34.059  25.048  22.254  1.00  0.00    -0.275 OA
ATOM      6  H   UNL A   1      34.442  26.888  23.692  1.00  0.00     0.163 HD
BRANCH   4   7
ATOM      7  C   UNL A   1      32.940  23.874  24.031  1.00  0.00     0.135 C 
BRANCH   7   8
ATOM      8  C   UNL A   1      33.818  22.671  24.318  1.00  0.00    -0.035 A 
ATOM      9  C   UNL A   1      32.029  21.009  23.587  1.00  0.00     0.045 C 
ATOM     10  C   UNL A   1      33.375  21.328  24.201  1.00  0.00    -0.040 A 
ATOM     11  C   UNL A   1      34.235  20.280  24.627  1.00  0.00    -0.015 A 
ATOM     12  C   UNL A   1      35.126  22.935  24.774  1.00  0.00     0.013 A 
ATOM     13  C   UNL A   1      35.523  20.600  25.111  1.00  0.00     0.017 A 
ATOM     14  C   UNL A   1      35.992  21.916  25.179  1.00  0.00    -0.017 A 
BRANCH  11  15
ATOM     15  C   UNL A   1      33.824  18.862  24.644  1.00  0.00    -0.018 A 
ATOM     16  C   UNL A   1      34.384  17.951  23.730  1.00  0.00     0.009 A 
ATOM     17  C   UNL A   1      32.881  18.382  25.565  1.00  0.00     0.009 A 
ATOM     18  C   UNL A   1      34.023  16.602  23.746  1.00  0.00     0.001 A 
ATOM     19  C   UNL A   1      32.529  17.031  25.590  1.00  0.00     0.001 A 
ATOM     20  C   UNL A   1      33.099  16.141  24.681  1.00  0.00     0.000 A 
ENDBRANCH  11  15
BRANCH  14  21
ATOM     21  C   UNL A   1      37.343  22.224  25.673  1.00  0.00    -0.018 A 
ATOM     22  C   UNL A   1      38.369  21.264  25.636  1.00  0.00     0.009 A 
ATOM     23  C   UNL A   1      37.637  23.483  26.220  1.00  0.00     0.009 A 
ATOM     24  C   UNL A   1      39.642  21.552  26.134  1.00  0.00     0.001 A 
ATOM     25  C   UNL A   1      38.909  23.772  26.721  1.00  0.00     0.001 A 
ATOM     26  C   UNL A   1      39.910  22.805  26.679  1.00  0.00     0.000 A 
ENDBRANCH  14  21
ENDBRANCH   7   8
ENDBRANCH   4   7
ENDBRANCH   2   3
ENDBRANCH   1   2
BRANCH   1  27
ATOM     27  C   UNL A   1      34.091  28.935  26.243  1.00  0.00     0.023 C 
BRANCH  27  28
ATOM     28  C   UNL A   1      33.786  29.490  27.624  1.00  0.00     0.116 C 
BRANCH  28  29
ATOM     29  N   UNL A   1      34.433  30.752  27.948  1.00  0.00    -0.352 N 
ATOM     30  C   UNL A   1      35.722  31.001  28.399  1.00  0.00     0.251 C 
ATOM     31  H   UNL A   1      33.872  31.551  27.829  1.00  0.00     0.163 HD
ATOM     32  O   UNL A   1      36.030  32.130  28.748  1.00  0.00    -0.269 OA
BRANCH  30  33
ATOM     33  C   UNL A   1      36.768  29.942  28.324  1.00  0.00     0.039 A 
ATOM     34  C   UNL A   1      36.980  29.142  29.456  1.00  0.00     0.014 A 
ATOM     35  C   UNL A   1      37.657  29.863  27.258  1.00  0.00     0.014 A 
ATOM     36  C   UNL A   1      38.200  28.484  29.619  1.00  0.00     0.010 A 
ATOM     37  C   UNL A   1      38.910  29.333  27.471  1.00  0.00     0.010 A 
ATOM     38  C   UNL A   1      39.204  28.692  28.676  1.00  0.00    -0.014 A 
BRANCH  38  39
ATOM     39  C   UNL A   1      40.612  28.402  28.910  1.00  0.00     0.031 A 
ATOM     40  C   UNL A   1      41.276  27.255  28.255  1.00  0.00     0.074 A 
ATOM     41  C   UNL A   1      41.353  29.283  29.622  1.00  0.00     0.049 A 
ATOM     42  N   UNL A   1      42.324  26.669  28.728  1.00  0.00    -0.248 NA
ATOM     43  C   UNL A   1      40.799  26.659  27.010  1.00  0.00     0.031 C 
ATOM     44  C   UNL A   1      42.810  29.362  29.679  1.00  0.00     0.029 A 
ATOM     45  N   UNL A   1      40.915  30.214  30.578  1.00  0.00    -0.354 N 
ATOM     46  C   UNL A   1      42.811  25.831  27.752  1.00  0.00     0.074 A 
ATOM     47  C   UNL A   1      41.792  25.811  26.728  1.00  0.00     0.031 C 
ATOM     48  C   UNL A   1      43.167  30.056  30.770  1.00  0.00     0.029 A 
ATOM     49  C   UNL A   1      41.957  30.313  31.528  1.00  0.00     0.049 A 
ATOM     50  H   UNL A   1      40.059  30.699  30.584  1.00  0.00     0.167 HD
ATOM     51  C   UNL A   1      44.085  25.357  27.842  1.00  0.00     0.037 A 
ATOM     52  C   UNL A   1      41.773  29.967  32.835  1.00  0.00     0.037 A 
ATOM     53  C   UNL A   1      44.765  25.876  29.022  1.00  0.00     0.049 A 
ATOM     54  C   UNL A   1      42.693  28.872  33.315  1.00  0.00     0.074 A 
ATOM     55  C   UNL A   1      45.623  26.950  29.192  1.00  0.00     0.029 A 
ATOM     56  N   UNL A   1      44.357  25.490  30.292  1.00  0.00    -0.354 N 
ATOM     57  N   UNL A   1      43.291  28.032  32.519  1.00  0.00    -0.248 NA
ATOM     58  C   UNL A   1      42.983  28.612  34.722  1.00  0.00     0.031 C 
ATOM     59  C   UNL A   1      45.723  27.221  30.574  1.00  0.00     0.029 A 
ATOM     60  C   UNL A   1      44.931  26.307  31.246  1.00  0.00     0.049 A 
ATOM     61  H   UNL A   1      43.746  24.742  30.485  1.00  0.00     0.167 HD
ATOM     62  C   UNL A   1      44.001  27.126  33.262  1.00  0.00     0.074 A 
ATOM     63  C   UNL A   1      43.790  27.540  34.635  1.00  0.00     0.031 C 
ATOM     64  C   UNL A   1      44.690  26.107  32.666  1.00  0.00     0.037 A 
BRANCH  51  65
ATOM     65  C   UNL A   1      44.804  24.685  26.696  1.00  0.00     0.064 A 
ATOM     66  C   UNL A   1      44.569  23.328  26.379  1.00  0.00     0.173 A 
ATOM     67  C   UNL A   1      45.766  25.322  25.893  1.00  0.00     0.173 A 
ATOM     68  F   UNL A   1      43.605  22.621  26.983  1.00  0.00    -0.203 F 
ATOM     69  C   UNL A   1      45.323  22.637  25.429  1.00  0.00     0.198 A 
ATOM     70  C   UNL A   1      46.557  24.620  24.977  1.00  0.00     0.198 A 
ATOM     71  F   UNL A   1      45.944  26.650  25.952  1.00  0.00    -0.203 F 
ATOM     72  F   UNL A   1      45.063  21.345  25.186  1.00  0.00    -0.200 F 
ATOM     73  C   UNL A   1      46.344  23.273  24.756  1.00  0.00     0.200 A 
ATOM     74  F   UNL A   1      47.532  25.258  24.314  1.00  0.00    -0.200 F 
ATOM     75  F   UNL A   1      47.104  22.599  23.883  1.00  0.00    -0.200 F 
ENDBRANCH  51  65
BRANCH  52  76
ATOM     76  C   UNL A   1      40.376  30.156  33.299  1.00  0.00     0.064 A 
ATOM     77  C   UNL A   1      39.929  31.466  33.553  1.00  0.00     0.173 A 
ATOM     78  C   UNL A   1      39.407  29.163  33.104  1.00  0.00     0.173 A 
ATOM     79  F   UNL A   1      40.821  32.452  33.742  1.00  0.00    -0.203 F 
ATOM     80  C   UNL A   1      38.576  31.791  33.495  1.00  0.00     0.198 A 
ATOM     81  C   UNL A   1      38.052  29.493  33.054  1.00  0.00     0.198 A 
ATOM     82  F   UNL A   1      39.773  27.902  32.838  1.00  0.00    -0.203 F 
ATOM     83  F   UNL A   1      38.189  33.067  33.632  1.00  0.00    -0.200 F 
ATOM     84  C   UNL A   1      37.641  30.809  33.214  1.00  0.00     0.200 A 
ATOM     85  F   UNL A   1      37.149  28.550  32.751  1.00  0.00    -0.200 F 
ATOM     86  F   UNL A   1      36.351  31.136  33.057  1.00  0.00    -0.200 F 
ENDBRANCH  52  76
BRANCH  64  87
ATOM     87  C   UNL A   1      45.298  24.901  33.344  1.00  0.00     0.064 A 
ATOM     88  C   UNL A   1      46.622  24.841  33.809  1.00  0.00     0.173 A 
ATOM     89  C   UNL A   1      44.488  23.787  33.684  1.00  0.00     0.173 A 
ATOM     90  F   UNL A   1      47.461  25.874  33.661  1.00  0.00    -0.203 F 
ATOM     91  C   UNL A   1      47.114  23.733  34.506  1.00  0.00     0.198 A 
ATOM     92  C   UNL A   1      44.965  22.710  34.430  1.00  0.00     0.198 A 
ATOM     93  F   UNL A   1      43.196  23.720  33.329  1.00  0.00    -0.203 F 
ATOM     94  F   UNL A   1      48.396  23.710  34.892  1.00  0.00    -0.200 F 
ATOM     95  C   UNL A   1      46.284  22.674  34.827  1.00  0.00     0.200 A 
ATOM     96  F   UNL A   1      44.131  21.719  34.778  1.00  0.00    -0.200 F 
ATOM     97  F   UNL A   1      46.748  21.638  35.536  1.00  0.00    -0.200 F 
ENDBRANCH  64  87
ENDBRANCH  38  39
ENDBRANCH  30  33
ENDBRANCH  28  29
ENDBRANCH  27  28
ENDBRANCH   1  27
TORSDOF 14
ENDMDL
MODEL 2
REMARK VINA RESULT:     -14.1      0.350      1.670
REMARK SMILES Cc1c(CC(=O)NCCCCNC(=O)c2ccc(-c3c4nc(c(-c5c(F)c(F)c(F)c(F)c5F)c5ccc([nH]5)c(-c5c(F)c(F)c(F)c(F)c5F)c5nc(c(-c6c(F)c(F)c(F)c(F)c6F)c6ccc3[nH]6)C=C5)C=C4)cc2)cc(-c2ccccc2)cc1-c1ccccc1
REMARK SMILES IDX 9 1 8 2 7 3 5 4 6 5 4 7 3 8 1 9 2 10 87 11 78 12 86 13 79 14
REMARK SMILES IDX 88 15 89 16 93 17 90 18 92 19 91 20 80 21 81 22 85 23 82 24
REMARK SMILES IDX 84 25 83 26 10 27 11 28 12 29 13 30 14 32 15 33 16 34 77 35
REMARK SMILES IDX 17 36 76 37 18 38 19 39 20 40 70 41 21 42 75 43 69 44 71 45
REMARK SMILES IDX 22 46 74 47 68 48 67 49 23 51 55 52 35 53 54 54 36 55 39 56
REMARK SMILES IDX 53 57 72 58 37 59 38 60 52 62 73 63 40 64 24 65 25 66 33 67
REMARK SMILES IDX 26 68 27 69 31 70 34 71 28 72 29 73 32 74 30 75 56 76 57 77
REMARK SMILES IDX 65 78 58 79 59 80 63 81 66 82 60 83 61 84 64 85 62 86 41 87
REMARK SMILES IDX 42 88 50 89 43 90 44 91 48 92 51 93 45 94 46 95 49 96 47 97
REMARK H PARENT 7 6 12 31 71 50 39 61
REMARK Flexibility Score: inf
ROOT
ATOM      1  C   UNL A   1      34.066  27.277  26.114  1.00  0.00     0.023 C 
ENDROOT
BRANCH   1   2
ATOM      2  C   UNL A   1      33.045  26.649  25.154  1.00  0.00     0.116 C 
BRANCH   2   3
ATOM      3  N   UNL A   1      33.608  26.281  23.867  1.00  0.00    -0.356 N 
ATOM      4  C   UNL A   1      33.554  25.092  23.196  1.00  0.00     0.224 C 
ATOM      5  O   UNL A   1      34.096  25.033  22.089  1.00  0.00    -0.275 OA
ATOM      6  H   UNL A   1      34.104  26.997  23.409  1.00  0.00     0.163 HD
BRANCH   4   7
ATOM      7  C   UNL A   1      32.809  23.891  23.770  1.00  0.00     0.135 C 
BRANCH   7   8
ATOM      8  C   UNL A   1      33.715  22.737  24.152  1.00  0.00    -0.035 A 
ATOM      9  C   UNL A   1      32.019  20.976  23.433  1.00  0.00     0.045 C 
ATOM     10  C   UNL A   1      33.325  21.374  24.084  1.00  0.00    -0.040 A 
ATOM     11  C   UNL A   1      34.203  20.380  24.597  1.00  0.00    -0.015 A 
ATOM     12  C   UNL A   1      34.993  23.071  24.648  1.00  0.00     0.013 A 
ATOM     13  C   UNL A   1      35.456  20.771  25.116  1.00  0.00     0.017 A 
ATOM     14  C   UNL A   1      35.876  22.105  25.138  1.00  0.00    -0.017 A 
BRANCH  11  15
ATOM     15  C   UNL A   1      33.841  18.951  24.667  1.00  0.00    -0.018 A 
ATOM     16  C   UNL A   1      32.879  18.508  25.593  1.00  0.00     0.009 A 
ATOM     17  C   UNL A   1      34.431  18.002  23.820  1.00  0.00     0.009 A 
ATOM     18  C   UNL A   1      32.509  17.163  25.659  1.00  0.00     0.001 A 
ATOM     19  C   UNL A   1      34.052  16.658  23.875  1.00  0.00     0.001 A 
ATOM     20  C   UNL A   1      33.092  16.239  24.795  1.00  0.00     0.000 A 
ENDBRANCH  11  15
BRANCH  14  21
ATOM     21  C   UNL A   1      37.193  22.487  25.671  1.00  0.00    -0.018 A 
ATOM     22  C   UNL A   1      38.247  21.560  25.742  1.00  0.00     0.009 A 
ATOM     23  C   UNL A   1      37.425  23.787  26.146  1.00  0.00     0.009 A 
ATOM     24  C   UNL A   1      39.486  21.918  26.277  1.00  0.00     0.001 A 
ATOM     25  C   UNL A   1      38.663  24.147  26.684  1.00  0.00     0.001 A 
ATOM     26  C   UNL A   1      39.693  23.211  26.751  1.00  0.00     0.000 A 
ENDBRANCH  14  21
ENDBRANCH   7   8
ENDBRANCH   4   7
ENDBRANCH   2   3
ENDBRANCH   1   2
BRANCH   1  27
ATOM     27  C   UNL A   1      34.087  28.806  26.142  1.00  0.00     0.023 C 
BRANCH  27  28
ATOM     28  C   UNL A   1      34.033  29.395  27.543  1.00  0.00     0.116 C 
BRANCH  28  29
ATOM     29  N   UNL A   1      34.692  30.681  27.707  1.00  0.00    -0.352 N 
ATOM     30  C   UNL A   1      35.988  30.971  28.114  1.00  0.00     0.251 C 
ATOM     31  H   UNL A   1      34.136  31.465  27.499  1.00  0.00     0.163 HD
ATOM     32  O   UNL A   1      36.307  32.131  28.322  1.00  0.00    -0.269 OA
BRANCH  30  33
ATOM     33  C   UNL A   1      37.025  29.901  28.157  1.00  0.00     0.039 A 
ATOM     34  C   UNL A   1      37.180  29.179  29.349  1.00  0.00     0.014 A 
ATOM     35  C   UNL A   1      37.958  29.744  27.139  1.00  0.00     0.014 A 
ATOM     36  C   UNL A   1      38.385  28.525  29.609  1.00  0.00     0.010 A 
ATOM     37  C   UNL A   1      39.196  29.220  27.442  1.00  0.00     0.010 A 
ATOM     38  C   UNL A   1      39.431  28.661  28.699  1.00  0.00    -0.014 A 
BRANCH  38  39
ATOM     39  C   UNL A   1      40.824  28.377  29.013  1.00  0.00     0.031 A 
ATOM     40  C   UNL A   1      41.532  27.239  28.390  1.00  0.00     0.074 A 
ATOM     41  C   UNL A   1      41.516  29.257  29.775  1.00  0.00     0.049 A 
ATOM     42  N   UNL A   1      42.555  26.656  28.920  1.00  0.00    -0.248 NA
ATOM     43  C   UNL A   1      41.133  26.651  27.115  1.00  0.00     0.031 C 
ATOM     44  C   UNL A   1      42.967  29.344  29.918  1.00  0.00     0.029 A 
ATOM     45  N   UNL A   1      41.016  30.178  30.710  1.00  0.00    -0.354 N 
ATOM     46  C   UNL A   1      43.104  25.829  27.968  1.00  0.00     0.074 A 
ATOM     47  C   UNL A   1      42.148  25.811  26.885  1.00  0.00     0.031 C 
ATOM     48  C   UNL A   1      43.254  30.031  31.034  1.00  0.00     0.029 A 
ATOM     49  C   UNL A   1      42.000  30.275  31.721  1.00  0.00     0.049 A 
ATOM     50  H   UNL A   1      40.158  30.658  30.669  1.00  0.00     0.167 HD
ATOM     51  C   UNL A   1      44.373  25.362  28.129  1.00  0.00     0.037 A 
ATOM     52  C   UNL A   1      41.741  29.917  33.012  1.00  0.00     0.037 A 
ATOM     53  C   UNL A   1      44.979  25.875  29.352  1.00  0.00     0.049 A 
ATOM     54  C   UNL A   1      42.638  28.824  33.537  1.00  0.00     0.074 A 
ATOM     55  C   UNL A   1      45.818  26.953  29.580  1.00  0.00     0.029 A 
ATOM     56  N   UNL A   1      44.499  25.476  30.592  1.00  0.00    -0.354 N 
ATOM     57  N   UNL A   1      43.287  27.995  32.772  1.00  0.00    -0.248 NA
ATOM     58  C   UNL A   1      42.846  28.555  34.957  1.00  0.00     0.031 C 
ATOM     59  C   UNL A   1      45.835  27.213  30.968  1.00  0.00     0.029 A 
ATOM     60  C   UNL A   1      45.011  26.289  31.585  1.00  0.00     0.049 A 
ATOM     61  H   UNL A   1      43.883  24.724  30.743  1.00  0.00     0.167 HD
ATOM     62  C   UNL A   1      43.958  27.086  33.548  1.00  0.00     0.074 A 
ATOM     63  C   UNL A   1      43.664  27.488  34.909  1.00  0.00     0.031 C 
ATOM     64  C   UNL A   1      44.687  26.076  32.987  1.00  0.00     0.037 A 
BRANCH  51  65
ATOM     65  C   UNL A   1      45.163  24.703  27.023  1.00  0.00     0.064 A 
ATOM     66  C   UNL A   1      46.051  25.447  26.215  1.00  0.00     0.173 A 
ATOM     67  C   UNL A   1      45.056  23.342  26.688  1.00  0.00     0.173 A 
ATOM     68  F   UNL A   1      46.339  26.728  26.479  1.00  0.00    -0.203 F 
ATOM     69  C   UNL A   1      46.678  24.903  25.091  1.00  0.00     0.198 A 
ATOM     70  C   UNL A   1      45.642  22.809  25.535  1.00  0.00     0.198 A 
ATOM     71  F   UNL A   1      44.407  22.483  27.488  1.00  0.00    -0.203 F 
ATOM     72  F   UNL A   1      47.497  25.666  24.354  1.00  0.00    -0.200 F 
ATOM     73  C   UNL A   1      46.443  23.595  24.729  1.00  0.00     0.200 A 
ATOM     74  F   UNL A   1      45.422  21.527  25.208  1.00  0.00    -0.200 F 
ATOM     75  F   UNL A   1      47.001  23.087  23.622  1.00  0.00    -0.200 F 
ENDBRANCH  51  65
BRANCH  52  76
ATOM     76  C   UNL A   1      40.318  30.094  33.394  1.00  0.00     0.064 A 
ATOM     77  C   UNL A   1      39.846  31.401  33.620  1.00  0.00     0.173 A 
ATOM     78  C   UNL A   1      39.371  29.093  33.145  1.00  0.00     0.173 A 
ATOM     79  F   UNL A   1      40.716  32.395  33.858  1.00  0.00    -0.203 F 
ATOM     80  C   UNL A   1      38.495  31.714  33.483  1.00  0.00     0.198 A 
ATOM     81  C   UNL A   1      38.018  29.411  33.016  1.00  0.00     0.198 A 
ATOM     82  F   UNL A   1      39.763  27.835  32.903  1.00  0.00    -0.203 F 
ATOM     83  F   UNL A   1      38.090  32.986  33.595  1.00  0.00    -0.200 F 
ATOM     84  C   UNL A   1      37.587  30.723  33.150  1.00  0.00     0.200 A 
ATOM     85  F   UNL A   1      37.142  28.459  32.663  1.00  0.00    -0.200 F 
ATOM     86  F   UNL A   1      36.305  31.039  32.918  1.00  0.00    -0.200 F 
ENDBRANCH  52  76
BRANCH  64  87
ATOM     87  C   UNL A   1      45.262  24.868  33.690  1.00  0.00     0.064 A 
ATOM     88  C   UNL A   1      44.546  23.686  33.941  1.00  0.00     0.173 A 
ATOM     89  C   UNL A   1      46.643  24.817  34.010  1.00  0.00     0.173 A 
ATOM     90  F   UNL A   1      43.264  23.557  33.579  1.00  0.00    -0.203 F 
ATOM     91  C   UNL A   1      45.147  22.564  34.520  1.00  0.00     0.198 A 
ATOM     92  C   UNL A   1      47.252  23.676  34.533  1.00  0.00     0.198 A 
ATOM     93  F   UNL A   1      47.456  25.863  33.798  1.00  0.00    -0.203 F 
ATOM     94  F   UNL A   1      44.409  21.476  34.776  1.00  0.00    -0.200 F 
ATOM     95  C   UNL A   1      46.501  22.554  34.804  1.00  0.00     0.200 A 
ATOM     96  F   UNL A   1      48.575  23.668  34.749  1.00  0.00    -0.200 F 
ATOM     97  F   UNL A   1      47.080  21.460  35.313  1.00  0.00    -0.200 F 
ENDBRANCH  64  87
ENDBRANCH  38  39
ENDBRANCH  30  33
ENDBRANCH  28  29
ENDBRANCH  27  28
ENDBRANCH   1  27
TORSDOF 14
ENDMDL
MODEL 3
REMARK VINA RESULT:     -13.7      3.440      6.416
REMARK SMILES Cc1c(CC(=O)NCCCCNC(=O)c2ccc(-c3c4nc(c(-c5c(F)c(F)c(F)c(F)c5F)c5ccc([nH]5)c(-c5c(F)c(F)c(F)c(F)c5F)c5nc(c(-c6c(F)c(F)c(F)c(F)c6F)c6ccc3[nH]6)C=C5)C=C4)cc2)cc(-c2ccccc2)cc1-c1ccccc1
REMARK SMILES IDX 9 1 8 2 7 3 5 4 6 5 4 7 3 8 1 9 2 10 87 11 78 12 86 13 79 14
REMARK SMILES IDX 88 15 89 16 93 17 90 18 92 19 91 20 80 21 81 22 85 23 82 24
REMARK SMILES IDX 84 25 83 26 10 27 11 28 12 29 13 30 14 32 15 33 16 34 77 35
REMARK SMILES IDX 17 36 76 37 18 38 19 39 20 40 70 41 21 42 75 43 69 44 71 45
REMARK SMILES IDX 22 46 74 47 68 48 67 49 23 51 55 52 35 53 54 54 36 55 39 56
REMARK SMILES IDX 53 57 72 58 37 59 38 60 52 62 73 63 40 64 24 65 25 66 33 67
REMARK SMILES IDX 26 68 27 69 31 70 34 71 28 72 29 73 32 74 30 75 56 76 57 77
REMARK SMILES IDX 65 78 58 79 59 80 63 81 66 82 60 83 61 84 64 85 62 86 41 87
REMARK SMILES IDX 42 88 50 89 43 90 44 91 48 92 51 93 45 94 46 95 49 96 47 97
REMARK H PARENT 7 6 12 31 71 50 39 61
REMARK Flexibility Score: inf
ROOT
ATOM      1  C   UNL A   1      35.293  32.560  28.034  1.00  0.00     0.023 C 
ENDROOT
BRANCH   1   2
ATOM      2  C   UNL A   1      35.208  31.083  27.619  1.00  0.00     0.116 C 
BRANCH   2   3
ATOM      3  N   UNL A   1      33.909  30.484  27.866  1.00  0.00    -0.356 N 
ATOM      4  C   UNL A   1      33.243  29.518  27.165  1.00  0.00     0.224 C 
ATOM      5  O   UNL A   1      32.147  29.150  27.594  1.00  0.00    -0.275 OA
ATOM      6  H   UNL A   1      33.436  30.825  28.658  1.00  0.00     0.163 HD
BRANCH   4   7
ATOM      7  C   UNL A   1      33.853  28.879  25.921  1.00  0.00     0.135 C 
BRANCH   7   8
ATOM      8  C   UNL A   1      32.874  28.038  25.125  1.00  0.00    -0.035 A 
ATOM      9  C   UNL A   1      34.021  25.850  25.748  1.00  0.00     0.045 C 
ATOM     10  C   UNL A   1      32.993  26.634  24.962  1.00  0.00    -0.040 A 
ATOM     11  C   UNL A   1      32.100  25.964  24.082  1.00  0.00    -0.015 A 
ATOM     12  C   UNL A   1      31.826  28.727  24.479  1.00  0.00     0.013 A 
ATOM     13  C   UNL A   1      31.090  26.706  23.431  1.00  0.00     0.017 A 
ATOM     14  C   UNL A   1      30.927  28.082  23.626  1.00  0.00    -0.017 A 
BRANCH  11  15
ATOM     15  C   UNL A   1      32.213  24.527  23.767  1.00  0.00    -0.018 A 
ATOM     16  C   UNL A   1      32.956  24.102  22.651  1.00  0.00     0.009 A 
ATOM     17  C   UNL A   1      31.597  23.550  24.564  1.00  0.00     0.009 A 
ATOM     18  C   UNL A   1      33.091  22.745  22.350  1.00  0.00     0.001 A 
ATOM     19  C   UNL A   1      31.744  22.192  24.271  1.00  0.00     0.001 A 
ATOM     20  C   UNL A   1      32.490  21.790  23.165  1.00  0.00     0.000 A 
ENDBRANCH  11  15
BRANCH  14  21
ATOM     21  C   UNL A   1      29.859  28.832  22.947  1.00  0.00    -0.018 A 
ATOM     22  C   UNL A   1      30.155  29.889  22.069  1.00  0.00     0.009 A 
ATOM     23  C   UNL A   1      28.509  28.526  23.180  1.00  0.00     0.009 A 
ATOM     24  C   UNL A   1      29.137  30.618  21.451  1.00  0.00     0.001 A 
ATOM     25  C   UNL A   1      27.488  29.256  22.564  1.00  0.00     0.001 A 
ATOM     26  C   UNL A   1      27.804  30.303  21.702  1.00  0.00     0.000 A 
ENDBRANCH  14  21
ENDBRANCH   7   8
ENDBRANCH   4   7
ENDBRANCH   2   3
ENDBRANCH   1   2
BRANCH   1  27
ATOM     27  C   UNL A   1      34.124  33.073  28.877  1.00  0.00     0.023 C 
BRANCH  27  28
ATOM     28  C   UNL A   1      34.281  34.517  29.327  1.00  0.00     0.116 C 
BRANCH  28  29
ATOM     29  N   UNL A   1      33.376  34.945  30.383  1.00  0.00    -0.352 N 
ATOM     30  C   UNL A   1      33.431  34.711  31.750  1.00  0.00     0.251 C 
ATOM     31  H   UNL A   1      32.609  35.482  30.082  1.00  0.00     0.163 HD
ATOM     32  O   UNL A   1      32.491  35.044  32.455  1.00  0.00    -0.269 OA
BRANCH  30  33
ATOM     33  C   UNL A   1      34.679  34.196  32.380  1.00  0.00     0.039 A 
ATOM     34  C   UNL A   1      35.807  35.029  32.389  1.00  0.00     0.014 A 
ATOM     35  C   UNL A   1      34.811  32.867  32.766  1.00  0.00     0.014 A 
ATOM     36  C   UNL A   1      37.079  34.470  32.524  1.00  0.00     0.010 A 
ATOM     37  C   UNL A   1      36.062  32.290  32.762  1.00  0.00     0.010 A 
ATOM     38  C   UNL A   1      37.197  33.083  32.582  1.00  0.00    -0.014 A 
BRANCH  38  39
ATOM     39  C   UNL A   1      38.437  32.362  32.331  1.00  0.00     0.031 A 
ATOM     40  C   UNL A   1      38.460  31.153  31.480  1.00  0.00     0.074 A 
ATOM     41  C   UNL A   1      39.604  32.893  32.765  1.00  0.00     0.049 A 
ATOM     42  N   UNL A   1      39.359  30.231  31.572  1.00  0.00    -0.248 NA
ATOM     43  C   UNL A   1      37.454  30.875  30.460  1.00  0.00     0.031 C 
ATOM     44  C   UNL A   1      40.951  32.528  32.334  1.00  0.00     0.029 A 
ATOM     45  N   UNL A   1      39.808  33.795  33.822  1.00  0.00    -0.354 N 
ATOM     46  C   UNL A   1      39.222  29.405  30.480  1.00  0.00     0.074 A 
ATOM     47  C   UNL A   1      37.984  29.807  29.854  1.00  0.00     0.031 C 
ATOM     48  C   UNL A   1      41.833  32.952  33.252  1.00  0.00     0.029 A 
ATOM     49  C   UNL A   1      41.069  33.468  34.372  1.00  0.00     0.049 A 
ATOM     50  H   UNL A   1      39.199  34.509  34.118  1.00  0.00     0.167 HD
ATOM     51  C   UNL A   1      40.238  28.565  30.136  1.00  0.00     0.037 A 
ATOM     52  C   UNL A   1      41.202  33.044  35.662  1.00  0.00     0.037 A 
ATOM     53  C   UNL A   1      41.381  28.718  31.028  1.00  0.00     0.049 A 
ATOM     54  C   UNL A   1      41.825  31.677  35.797  1.00  0.00     0.074 A 
ATOM     55  C   UNL A   1      42.544  29.461  30.913  1.00  0.00     0.029 A 
ATOM     56  N   UNL A   1      41.289  28.327  32.357  1.00  0.00    -0.354 N 
ATOM     57  N   UNL A   1      41.843  30.796  34.838  1.00  0.00    -0.248 NA
ATOM     58  C   UNL A   1      42.441  31.182  37.024  1.00  0.00     0.031 C 
ATOM     59  C   UNL A   1      43.152  29.527  32.186  1.00  0.00     0.029 A 
ATOM     60  C   UNL A   1      42.362  28.819  33.074  1.00  0.00     0.049 A 
ATOM     61  H   UNL A   1      40.564  27.778  32.734  1.00  0.00     0.167 HD
ATOM     62  C   UNL A   1      42.421  29.639  35.293  1.00  0.00     0.074 A 
ATOM     63  C   UNL A   1      42.794  29.935  36.662  1.00  0.00     0.031 C 
ATOM     64  C   UNL A   1      42.526  28.537  34.491  1.00  0.00     0.037 A 
BRANCH  51  65
ATOM     65  C   UNL A   1      40.308  27.847  28.809  1.00  0.00     0.064 A 
ATOM     66  C   UNL A   1      39.723  26.573  28.634  1.00  0.00     0.173 A 
ATOM     67  C   UNL A   1      40.974  28.353  27.679  1.00  0.00     0.173 A 
ATOM     68  F   UNL A   1      38.965  26.010  29.584  1.00  0.00    -0.203 F 
ATOM     69  C   UNL A   1      39.900  25.819  27.473  1.00  0.00     0.198 A 
ATOM     70  C   UNL A   1      41.195  27.579  26.534  1.00  0.00     0.198 A 
ATOM     71  F   UNL A   1      41.400  29.624  27.640  1.00  0.00    -0.203 F 
ATOM     72  F   UNL A   1      39.333  24.608  27.374  1.00  0.00    -0.200 F 
ATOM     73  C   UNL A   1      40.669  26.306  26.438  1.00  0.00     0.200 A 
ATOM     74  F   UNL A   1      41.926  28.075  25.526  1.00  0.00    -0.200 F 
ATOM     75  F   UNL A   1      40.883  25.562  25.345  1.00  0.00    -0.200 F 
ENDBRANCH  51  65
BRANCH  52  76
ATOM     76  C   UNL A   1      40.157  33.586  36.567  1.00  0.00     0.064 A 
ATOM     77  C   UNL A   1      39.040  32.779  36.854  1.00  0.00     0.173 A 
ATOM     78  C   UNL A   1      40.429  34.653  37.431  1.00  0.00     0.173 A 
ATOM     79  F   UNL A   1      38.742  31.740  36.057  1.00  0.00    -0.203 F 
ATOM     80  C   UNL A   1      38.301  32.959  38.021  1.00  0.00     0.198 A 
ATOM     81  C   UNL A   1      39.681  34.834  38.595  1.00  0.00     0.198 A 
ATOM     82  F   UNL A   1      41.491  35.443  37.219  1.00  0.00    -0.203 F 
ATOM     83  F   UNL A   1      37.312  32.107  38.323  1.00  0.00    -0.200 F 
ATOM     84  C   UNL A   1      38.642  33.967  38.906  1.00  0.00     0.200 A 
ATOM     85  F   UNL A   1      40.029  35.790  39.468  1.00  0.00    -0.200 F 
ATOM     86  F   UNL A   1      37.998  34.080  40.076  1.00  0.00    -0.200 F 
ENDBRANCH  52  76
BRANCH  64  87
ATOM     87  C   UNL A   1      42.896  27.135  34.915  1.00  0.00     0.064 A 
ATOM     88  C   UNL A   1      41.976  26.082  35.049  1.00  0.00     0.173 A 
ATOM     89  C   UNL A   1      44.259  26.768  35.060  1.00  0.00     0.173 A 
ATOM     90  F   UNL A   1      40.670  26.263  34.821  1.00  0.00    -0.203 F 
ATOM     91  C   UNL A   1      42.380  24.780  35.362  1.00  0.00     0.198 A 
ATOM     92  C   UNL A   1      44.662  25.457  35.315  1.00  0.00     0.198 A 
ATOM     93  F   UNL A   1      45.248  27.664  34.932  1.00  0.00    -0.203 F 
ATOM     94  F   UNL A   1      41.458  23.821  35.519  1.00  0.00    -0.200 F 
ATOM     95  C   UNL A   1      43.722  24.465  35.482  1.00  0.00     0.200 A 
ATOM     96  F   UNL A   1      45.969  25.162  35.373  1.00  0.00    -0.200 F 
ATOM     97  F   UNL A   1      44.105  23.207  35.735  1.00  0.00    -0.200 F 
ENDBRANCH  64  87
ENDBRANCH  38  39
ENDBRANCH  30  33
ENDBRANCH  28  29
ENDBRANCH  27  28
ENDBRANCH   1  27
TORSDOF 14
ENDMDL
