MODEL 1
REMARK VINA RESULT:     -13.4      0.000      0.000
REMARK SMILES COc1ccc(/C=C/c2cc(C(=O)NCCCCNC(=O)c3ccc(-c4c5nc(c(-c6c(F)c(F)c(F)c(F)c6F)c6ccc([nH]6)c(-c6c(F)c(F)c(F)c(F)c6F)c6nc(c(-c7c(F)c(F)c(F)c(F)c7F)c7ccc4[nH]7)C=C6)C=C5)cc3)c3ccccc3n2)c(OC)c1
REMARK SMILES IDX 16 1 15 2 14 3 12 4 13 5 11 7 9 8 10 9 91 10 90 11 85 12
REMARK SMILES IDX 89 13 86 14 88 15 87 16 8 17 7 18 6 19 3 20 4 21 95 22 5 23
REMARK SMILES IDX 92 24 2 25 1 26 93 27 94 28 17 29 18 30 19 31 20 32 21 34
REMARK SMILES IDX 22 35 23 36 84 37 24 38 83 39 25 40 26 41 27 42 77 43 28 44
REMARK SMILES IDX 82 45 76 46 78 47 29 48 81 49 75 50 74 51 30 53 62 54 42 55
REMARK SMILES IDX 61 56 43 57 46 58 60 59 79 60 44 61 45 62 59 64 80 65 47 66
REMARK SMILES IDX 31 67 32 68 40 69 33 70 34 71 38 72 41 73 35 74 36 75 39 76
REMARK SMILES IDX 37 77 63 78 64 79 72 80 65 81 66 82 70 83 73 84 67 85 68 86
REMARK SMILES IDX 71 87 69 88 48 89 49 90 57 91 50 92 51 93 55 94 58 95 52 96
REMARK SMILES IDX 53 97 56 98 54 99
REMARK H PARENT 14 6 19 33 78 52 46 63
REMARK Flexibility Score: inf
ROOT
ATOM      1  C   UNL A   1      31.810  30.170  26.542  1.00  0.00     0.023 C 
ENDROOT
BRANCH   1   2
ATOM      2  C   UNL A   1      33.196  29.746  26.048  1.00  0.00     0.116 C 
BRANCH   2   3
ATOM      3  N   UNL A   1      33.184  29.717  24.598  1.00  0.00    -0.352 N 
ATOM      4  C   UNL A   1      33.527  28.652  23.805  1.00  0.00     0.252 C 
ATOM      5  O   UNL A   1      34.187  28.828  22.788  1.00  0.00    -0.269 OA
ATOM      6  H   UNL A   1      32.904  30.543  24.140  1.00  0.00     0.163 HD
BRANCH   4   7
ATOM      7  C   UNL A   1      32.895  27.354  24.103  1.00  0.00     0.051 A 
ATOM      8  C   UNL A   1      32.916  25.056  24.570  1.00  0.00     0.065 A 
ATOM      9  C   UNL A   1      33.642  26.185  24.241  1.00  0.00     0.042 A 
ATOM     10  N   UNL A   1      31.710  25.160  25.167  1.00  0.00    -0.248 NA
ATOM     11  C   UNL A   1      30.937  26.139  24.709  1.00  0.00     0.072 A 
ATOM     12  C   UNL A   1      31.485  27.263  24.077  1.00  0.00     0.013 A 
ATOM     13  C   UNL A   1      29.572  25.915  24.669  1.00  0.00     0.029 A 
ATOM     14  C   UNL A   1      30.625  28.108  23.338  1.00  0.00     0.011 A 
ATOM     15  C   UNL A   1      28.743  26.706  23.876  1.00  0.00     0.002 A 
ATOM     16  C   UNL A   1      29.276  27.792  23.193  1.00  0.00     0.001 A 
BRANCH   8  17
ATOM     17  C   UNL A   1      32.865  23.887  23.643  1.00  0.00     0.029 C 
ATOM     18  C   UNL A   1      31.995  22.924  24.039  1.00  0.00     0.014 C 
BRANCH  18  19
ATOM     19  C   UNL A   1      32.225  21.456  24.116  1.00  0.00     0.017 A 
ATOM     20  C   UNL A   1      32.881  18.706  24.244  1.00  0.00     0.122 A 
ATOM     21  C   UNL A   1      32.486  19.286  23.041  1.00  0.00     0.047 A 
ATOM     22  C   UNL A   1      33.001  19.504  25.379  1.00  0.00     0.093 A 
ATOM     23  C   UNL A   1      32.149  20.644  22.978  1.00  0.00     0.016 A 
ATOM     24  C   UNL A   1      32.693  20.872  25.326  1.00  0.00     0.129 A 
BRANCH  20  25
ATOM     25  O   UNL A   1      33.161  17.368  24.195  1.00  0.00    -0.497 OA
ATOM     26  C   UNL A   1      34.025  16.958  23.137  1.00  0.00     0.278 C 
ENDBRANCH  20  25
BRANCH  24  27
ATOM     27  O   UNL A   1      32.836  21.697  26.422  1.00  0.00    -0.496 OA
ATOM     28  C   UNL A   1      34.144  21.832  26.974  1.00  0.00     0.278 C 
ENDBRANCH  24  27
ENDBRANCH  18  19
ENDBRANCH   8  17
ENDBRANCH   4   7
ENDBRANCH   2   3
ENDBRANCH   1   2
BRANCH   1  29
ATOM     29  C   UNL A   1      31.616  31.692  26.618  1.00  0.00     0.023 C 
BRANCH  29  30
ATOM     30  C   UNL A   1      32.808  32.460  27.176  1.00  0.00     0.116 C 
BRANCH  30  31
ATOM     31  N   UNL A   1      32.478  33.840  27.495  1.00  0.00    -0.352 N 
ATOM     32  C   UNL A   1      33.015  34.652  28.464  1.00  0.00     0.251 C 
ATOM     33  H   UNL A   1      31.774  34.248  26.941  1.00  0.00     0.163 HD
ATOM     34  O   UNL A   1      32.526  35.744  28.707  1.00  0.00    -0.269 OA
BRANCH  32  35
ATOM     35  C   UNL A   1      34.177  34.165  29.230  1.00  0.00     0.039 A 
ATOM     36  C   UNL A   1      33.952  33.462  30.415  1.00  0.00     0.014 A 
ATOM     37  C   UNL A   1      35.474  34.372  28.756  1.00  0.00     0.014 A 
ATOM     38  C   UNL A   1      35.036  32.914  31.099  1.00  0.00     0.010 A 
ATOM     39  C   UNL A   1      36.545  33.763  29.399  1.00  0.00     0.010 A 
ATOM     40  C   UNL A   1      36.336  33.030  30.577  1.00  0.00    -0.014 A 
BRANCH  40  41
ATOM     41  C   UNL A   1      37.489  32.391  31.255  1.00  0.00     0.031 A 
ATOM     42  C   UNL A   1      38.222  31.263  30.588  1.00  0.00     0.074 A 
ATOM     43  C   UNL A   1      37.835  32.792  32.493  1.00  0.00     0.049 A 
ATOM     44  N   UNL A   1      39.219  30.544  31.035  1.00  0.00    -0.248 NA
ATOM     45  C   UNL A   1      37.753  30.872  29.248  1.00  0.00     0.031 C 
ATOM     46  C   UNL A   1      37.165  33.843  33.260  1.00  0.00     0.029 A 
ATOM     47  N   UNL A   1      38.834  32.357  33.328  1.00  0.00    -0.354 N 
ATOM     48  C   UNL A   1      39.488  29.613  30.040  1.00  0.00     0.074 A 
ATOM     49  C   UNL A   1      38.511  29.817  28.994  1.00  0.00     0.031 C 
ATOM     50  C   UNL A   1      37.786  33.990  34.440  1.00  0.00     0.029 A 
ATOM     51  C   UNL A   1      38.872  33.018  34.532  1.00  0.00     0.049 A 
ATOM     52  H   UNL A   1      39.464  31.640  33.087  1.00  0.00     0.167 HD
ATOM     53  C   UNL A   1      40.478  28.691  29.995  1.00  0.00     0.037 A 
ATOM     54  C   UNL A   1      39.687  32.852  35.589  1.00  0.00     0.037 A 
ATOM     55  C   UNL A   1      41.457  28.509  31.035  1.00  0.00     0.049 A 
ATOM     56  C   UNL A   1      40.769  31.808  35.519  1.00  0.00     0.074 A 
ATOM     57  C   UNL A   1      42.535  27.642  31.062  1.00  0.00     0.029 A 
ATOM     58  N   UNL A   1      41.471  29.203  32.236  1.00  0.00    -0.354 N 
ATOM     59  N   UNL A   1      41.063  30.984  34.542  1.00  0.00    -0.248 NA
ATOM     60  C   UNL A   1      41.637  31.675  36.697  1.00  0.00     0.031 C 
ATOM     61  C   UNL A   1      43.167  27.772  32.303  1.00  0.00     0.029 A 
ATOM     62  C   UNL A   1      42.522  28.764  33.023  1.00  0.00     0.049 A 
ATOM     63  H   UNL A   1      40.828  29.904  32.491  1.00  0.00     0.167 HD
ATOM     64  C   UNL A   1      42.166  30.259  34.973  1.00  0.00     0.074 A 
ATOM     65  C   UNL A   1      42.499  30.753  36.293  1.00  0.00     0.031 C 
ATOM     66  C   UNL A   1      42.843  29.273  34.334  1.00  0.00     0.037 A 
BRANCH  53  67
ATOM     67  C   UNL A   1      40.552  27.810  28.781  1.00  0.00     0.064 A 
ATOM     68  C   UNL A   1      39.832  26.607  28.696  1.00  0.00     0.173 A 
ATOM     69  C   UNL A   1      41.327  28.186  27.673  1.00  0.00     0.173 A 
ATOM     70  F   UNL A   1      39.084  26.194  29.731  1.00  0.00    -0.203 F 
ATOM     71  C   UNL A   1      39.911  25.801  27.564  1.00  0.00     0.198 A 
ATOM     72  C   UNL A   1      41.376  27.395  26.528  1.00  0.00     0.198 A 
ATOM     73  F   UNL A   1      42.032  29.327  27.697  1.00  0.00    -0.203 F 
ATOM     74  F   UNL A   1      39.258  24.632  27.529  1.00  0.00    -0.200 F 
ATOM     75  C   UNL A   1      40.676  26.199  26.479  1.00  0.00     0.200 A 
ATOM     76  F   UNL A   1      42.104  27.788  25.475  1.00  0.00    -0.200 F 
ATOM     77  F   UNL A   1      40.744  25.427  25.385  1.00  0.00    -0.200 F 
ENDBRANCH  53  67
BRANCH  54  78
ATOM     78  C   UNL A   1      39.525  33.705  36.796  1.00  0.00     0.064 A 
ATOM     79  C   UNL A   1      38.743  33.280  37.880  1.00  0.00     0.173 A 
ATOM     80  C   UNL A   1      40.136  34.964  36.890  1.00  0.00     0.173 A 
ATOM     81  F   UNL A   1      38.122  32.092  37.832  1.00  0.00    -0.203 F 
ATOM     82  C   UNL A   1      38.560  34.090  38.999  1.00  0.00     0.198 A 
ATOM     83  C   UNL A   1      39.979  35.760  38.022  1.00  0.00     0.198 A 
ATOM     84  F   UNL A   1      40.899  35.417  35.883  1.00  0.00    -0.203 F 
ATOM     85  F   UNL A   1      37.766  33.680  39.998  1.00  0.00    -0.200 F 
ATOM     86  C   UNL A   1      39.182  35.328  39.071  1.00  0.00     0.200 A 
ATOM     87  F   UNL A   1      40.596  36.948  38.095  1.00  0.00    -0.200 F 
ATOM     88  F   UNL A   1      39.008  36.105  40.148  1.00  0.00    -0.200 F 
ENDBRANCH  54  78
BRANCH  66  89
ATOM     89  C   UNL A   1      44.035  28.689  35.036  1.00  0.00     0.064 A 
ATOM     90  C   UNL A   1      43.916  27.602  35.915  1.00  0.00     0.173 A 
ATOM     91  C   UNL A   1      45.320  29.198  34.792  1.00  0.00     0.173 A 
ATOM     92  F   UNL A   1      42.708  27.088  36.193  1.00  0.00    -0.203 F 
ATOM     93  C   UNL A   1      45.035  27.066  36.547  1.00  0.00     0.198 A 
ATOM     94  C   UNL A   1      46.440  28.637  35.398  1.00  0.00     0.198 A 
ATOM     95  F   UNL A   1      45.491  30.231  33.955  1.00  0.00    -0.203 F 
ATOM     96  F   UNL A   1      44.890  26.063  37.424  1.00  0.00    -0.200 F 
ATOM     97  C   UNL A   1      46.296  27.578  36.281  1.00  0.00     0.200 A 
ATOM     98  F   UNL A   1      47.660  29.121  35.127  1.00  0.00    -0.200 F 
ATOM     99  F   UNL A   1      47.373  27.054  36.882  1.00  0.00    -0.200 F 
ENDBRANCH  66  89
ENDBRANCH  40  41
ENDBRANCH  32  35
ENDBRANCH  30  31
ENDBRANCH  29  30
ENDBRANCH   1  29
TORSDOF 15
ENDMDL
MODEL 2
REMARK VINA RESULT:     -13.4      1.184      2.179
REMARK SMILES COc1ccc(/C=C/c2cc(C(=O)NCCCCNC(=O)c3ccc(-c4c5nc(c(-c6c(F)c(F)c(F)c(F)c6F)c6ccc([nH]6)c(-c6c(F)c(F)c(F)c(F)c6F)c6nc(c(-c7c(F)c(F)c(F)c(F)c7F)c7ccc4[nH]7)C=C6)C=C5)cc3)c3ccccc3n2)c(OC)c1
REMARK SMILES IDX 16 1 15 2 14 3 12 4 13 5 11 7 9 8 10 9 91 10 90 11 85 12
REMARK SMILES IDX 89 13 86 14 88 15 87 16 8 17 7 18 6 19 3 20 4 21 95 22 5 23
REMARK SMILES IDX 92 24 2 25 1 26 93 27 94 28 17 29 18 30 19 31 20 32 21 34
REMARK SMILES IDX 22 35 23 36 84 37 24 38 83 39 25 40 26 41 27 42 77 43 28 44
REMARK SMILES IDX 82 45 76 46 78 47 29 48 81 49 75 50 74 51 30 53 62 54 42 55
REMARK SMILES IDX 61 56 43 57 46 58 60 59 79 60 44 61 45 62 59 64 80 65 47 66
REMARK SMILES IDX 31 67 32 68 40 69 33 70 34 71 38 72 41 73 35 74 36 75 39 76
REMARK SMILES IDX 37 77 63 78 64 79 72 80 65 81 66 82 70 83 73 84 67 85 68 86
REMARK SMILES IDX 71 87 69 88 48 89 49 90 57 91 50 92 51 93 55 94 58 95 52 96
REMARK SMILES IDX 53 97 56 98 54 99
REMARK H PARENT 14 6 19 33 78 52 46 63
REMARK Flexibility Score: inf
ROOT
ATOM      1  C   UNL A   1      31.860  30.519  26.852  1.00  0.00     0.023 C 
ENDROOT
BRANCH   1   2
ATOM      2  C   UNL A   1      33.279  30.118  26.440  1.00  0.00     0.116 C 
BRANCH   2   3
ATOM      3  N   UNL A   1      33.281  29.801  25.025  1.00  0.00    -0.352 N 
ATOM      4  C   UNL A   1      33.581  28.584  24.467  1.00  0.00     0.252 C 
ATOM      5  O   UNL A   1      34.259  28.523  23.449  1.00  0.00    -0.269 OA
ATOM      6  H   UNL A   1      33.044  30.529  24.406  1.00  0.00     0.163 HD
BRANCH   4   7
ATOM      7  C   UNL A   1      32.886  27.401  25.006  1.00  0.00     0.051 A 
ATOM      8  C   UNL A   1      32.780  25.357  26.150  1.00  0.00     0.065 A 
ATOM      9  C   UNL A   1      33.571  26.375  25.654  1.00  0.00     0.042 A 
ATOM     10  N   UNL A   1      31.472  25.563  26.411  1.00  0.00    -0.248 NA
ATOM     11  C   UNL A   1      30.830  26.311  25.518  1.00  0.00     0.072 A 
ATOM     12  C   UNL A   1      31.516  27.222  24.706  1.00  0.00     0.013 A 
ATOM     13  C   UNL A   1      29.506  26.004  25.255  1.00  0.00     0.029 A 
ATOM     14  C   UNL A   1      30.852  27.752  23.576  1.00  0.00     0.011 A 
ATOM     15  C   UNL A   1      28.884  26.469  24.099  1.00  0.00     0.002 A 
ATOM     16  C   UNL A   1      29.567  27.327  23.247  1.00  0.00     0.001 A 
BRANCH   8  17
ATOM     17  C   UNL A   1      32.926  23.962  25.639  1.00  0.00     0.029 C 
ATOM     18  C   UNL A   1      33.809  23.217  26.350  1.00  0.00     0.014 C 
BRANCH  18  19
ATOM     19  C   UNL A   1      34.902  22.350  25.834  1.00  0.00     0.017 A 
ATOM     20  C   UNL A   1      36.985  20.601  25.052  1.00  0.00     0.122 A 
ATOM     21  C   UNL A   1      37.270  21.889  25.497  1.00  0.00     0.047 A 
ATOM     22  C   UNL A   1      35.664  20.160  25.040  1.00  0.00     0.093 A 
ATOM     23  C   UNL A   1      36.241  22.760  25.874  1.00  0.00     0.016 A 
ATOM     24  C   UNL A   1      34.624  21.012  25.439  1.00  0.00     0.129 A 
BRANCH  20  25
ATOM     25  O   UNL A   1      38.065  19.845  24.685  1.00  0.00    -0.497 OA
ATOM     26  C   UNL A   1      39.206  19.952  25.534  1.00  0.00     0.278 C 
ENDBRANCH  20  25
BRANCH  24  27
ATOM     27  O   UNL A   1      33.310  20.595  25.476  1.00  0.00    -0.496 OA
ATOM     28  C   UNL A   1      32.675  20.315  24.231  1.00  0.00     0.278 C 
ENDBRANCH  24  27
ENDBRANCH  18  19
ENDBRANCH   8  17
ENDBRANCH   4   7
ENDBRANCH   2   3
ENDBRANCH   1   2
BRANCH   1  29
ATOM     29  C   UNL A   1      31.618  32.036  26.859  1.00  0.00     0.023 C 
BRANCH  29  30
ATOM     30  C   UNL A   1      32.839  32.874  27.222  1.00  0.00     0.116 C 
BRANCH  30  31
ATOM     31  N   UNL A   1      32.484  34.230  27.610  1.00  0.00    -0.352 N 
ATOM     32  C   UNL A   1      32.989  34.991  28.635  1.00  0.00     0.251 C 
ATOM     33  H   UNL A   1      31.786  34.660  27.065  1.00  0.00     0.163 HD
ATOM     34  O   UNL A   1      32.482  36.062  28.928  1.00  0.00    -0.269 OA
BRANCH  32  35
ATOM     35  C   UNL A   1      34.141  34.476  29.398  1.00  0.00     0.039 A 
ATOM     36  C   UNL A   1      33.901  33.744  30.562  1.00  0.00     0.014 A 
ATOM     37  C   UNL A   1      35.444  34.686  28.941  1.00  0.00     0.014 A 
ATOM     38  C   UNL A   1      34.975  33.170  31.241  1.00  0.00     0.010 A 
ATOM     39  C   UNL A   1      36.505  34.051  29.576  1.00  0.00     0.010 A 
ATOM     40  C   UNL A   1      36.280  33.290  30.733  1.00  0.00    -0.014 A 
BRANCH  40  41
ATOM     41  C   UNL A   1      37.422  32.625  31.404  1.00  0.00     0.031 A 
ATOM     42  C   UNL A   1      38.103  31.458  30.748  1.00  0.00     0.074 A 
ATOM     43  C   UNL A   1      37.805  33.038  32.627  1.00  0.00     0.049 A 
ATOM     44  N   UNL A   1      39.083  30.714  31.192  1.00  0.00    -0.248 NA
ATOM     45  C   UNL A   1      37.597  31.057  29.425  1.00  0.00     0.031 C 
ATOM     46  C   UNL A   1      37.186  34.127  33.383  1.00  0.00     0.029 A 
ATOM     47  N   UNL A   1      38.803  32.585  33.454  1.00  0.00    -0.354 N 
ATOM     48  C   UNL A   1      39.301  29.754  30.213  1.00  0.00     0.074 A 
ATOM     49  C   UNL A   1      38.313  29.970  29.179  1.00  0.00     0.031 C 
ATOM     50  C   UNL A   1      37.833  34.276  34.550  1.00  0.00     0.029 A 
ATOM     51  C   UNL A   1      38.886  33.269  34.642  1.00  0.00     0.049 A 
ATOM     52  H   UNL A   1      39.403  31.842  33.216  1.00  0.00     0.167 HD
ATOM     53  C   UNL A   1      40.258  28.797  30.169  1.00  0.00     0.037 A 
ATOM     54  C   UNL A   1      39.714  33.095  35.688  1.00  0.00     0.037 A 
ATOM     55  C   UNL A   1      41.249  28.601  31.195  1.00  0.00     0.049 A 
ATOM     56  C   UNL A   1      40.758  32.013  35.621  1.00  0.00     0.074 A 
ATOM     57  C   UNL A   1      42.296  27.698  31.222  1.00  0.00     0.029 A 
ATOM     58  N   UNL A   1      41.308  29.319  32.381  1.00  0.00    -0.354 N 
ATOM     59  N   UNL A   1      41.005  31.159  34.657  1.00  0.00    -0.248 NA
ATOM     60  C   UNL A   1      41.642  31.874  36.786  1.00  0.00     0.031 C 
ATOM     61  C   UNL A   1      42.955  27.831  32.448  1.00  0.00     0.029 A 
ATOM     62  C   UNL A   1      42.358  28.859  33.159  1.00  0.00     0.049 A 
ATOM     63  H   UNL A   1      40.695  30.048  32.633  1.00  0.00     0.167 HD
ATOM     64  C   UNL A   1      42.090  30.405  35.083  1.00  0.00     0.074 A 
ATOM     65  C   UNL A   1      42.464  30.913  36.386  1.00  0.00     0.031 C 
ATOM     66  C   UNL A   1      42.720  29.383  34.452  1.00  0.00     0.037 A 
BRANCH  53  67
ATOM     67  C   UNL A   1      40.278  27.889  28.973  1.00  0.00     0.064 A 
ATOM     68  C   UNL A   1      41.032  28.192  27.828  1.00  0.00     0.173 A 
ATOM     69  C   UNL A   1      39.560  26.684  28.981  1.00  0.00     0.173 A 
ATOM     70  F   UNL A   1      41.729  29.338  27.762  1.00  0.00    -0.203 F 
ATOM     71  C   UNL A   1      41.041  27.340  26.727  1.00  0.00     0.198 A 
ATOM     72  C   UNL A   1      39.598  25.817  27.892  1.00  0.00     0.198 A 
ATOM     73  F   UNL A   1      38.826  26.341  30.050  1.00  0.00    -0.203 F 
ATOM     74  F   UNL A   1      41.725  27.678  25.625  1.00  0.00    -0.200 F 
ATOM     75  C   UNL A   1      40.331  26.151  26.763  1.00  0.00     0.200 A 
ATOM     76  F   UNL A   1      38.923  24.660  27.934  1.00  0.00    -0.200 F 
ATOM     77  F   UNL A   1      40.346  25.327  25.706  1.00  0.00    -0.200 F 
ENDBRANCH  53  67
BRANCH  54  78
ATOM     78  C   UNL A   1      39.604  33.979  36.880  1.00  0.00     0.064 A 
ATOM     79  C   UNL A   1      40.264  35.215  36.924  1.00  0.00     0.173 A 
ATOM     80  C   UNL A   1      38.848  33.605  38.001  1.00  0.00     0.173 A 
ATOM     81  F   UNL A   1      41.015  35.610  35.885  1.00  0.00    -0.203 F 
ATOM     82  C   UNL A   1      40.193  36.031  38.051  1.00  0.00     0.198 A 
ATOM     83  C   UNL A   1      38.751  34.436  39.115  1.00  0.00     0.198 A 
ATOM     84  F   UNL A   1      38.192  32.434  38.009  1.00  0.00    -0.203 F 
ATOM     85  F   UNL A   1      40.875  37.184  38.085  1.00  0.00    -0.200 F 
ATOM     86  C   UNL A   1      39.432  35.643  39.144  1.00  0.00     0.200 A 
ATOM     87  F   UNL A   1      38.001  34.065  40.162  1.00  0.00    -0.200 F 
ATOM     88  F   UNL A   1      39.360  36.429  40.226  1.00  0.00    -0.200 F 
ENDBRANCH  54  78
BRANCH  66  89
ATOM     89  C   UNL A   1      43.903  28.772  35.146  1.00  0.00     0.064 A 
ATOM     90  C   UNL A   1      43.760  27.726  36.070  1.00  0.00     0.173 A 
ATOM     91  C   UNL A   1      45.203  29.212  34.849  1.00  0.00     0.173 A 
ATOM     92  F   UNL A   1      42.539  27.278  36.399  1.00  0.00    -0.203 F 
ATOM     93  C   UNL A   1      44.871  27.163  36.692  1.00  0.00     0.198 A 
ATOM     94  C   UNL A   1      46.313  28.623  35.447  1.00  0.00     0.198 A 
ATOM     95  F   UNL A   1      45.397  30.203  33.967  1.00  0.00    -0.203 F 
ATOM     96  F   UNL A   1      44.706  26.202  37.611  1.00  0.00    -0.200 F 
ATOM     97  C   UNL A   1      46.147  27.606  36.374  1.00  0.00     0.200 A 
ATOM     98  F   UNL A   1      47.546  29.040  35.125  1.00  0.00    -0.200 F 
ATOM     99  F   UNL A   1      47.215  27.056  36.967  1.00  0.00    -0.200 F 
ENDBRANCH  66  89
ENDBRANCH  40  41
ENDBRANCH  32  35
ENDBRANCH  30  31
ENDBRANCH  29  30
ENDBRANCH   1  29
TORSDOF 15
ENDMDL
MODEL 3
REMARK VINA RESULT:     -13.3      5.351     11.112
REMARK SMILES COc1ccc(/C=C/c2cc(C(=O)NCCCCNC(=O)c3ccc(-c4c5nc(c(-c6c(F)c(F)c(F)c(F)c6F)c6ccc([nH]6)c(-c6c(F)c(F)c(F)c(F)c6F)c6nc(c(-c7c(F)c(F)c(F)c(F)c7F)c7ccc4[nH]7)C=C6)C=C5)cc3)c3ccccc3n2)c(OC)c1
REMARK SMILES IDX 16 1 15 2 14 3 12 4 13 5 11 7 9 8 10 9 91 10 90 11 85 12
REMARK SMILES IDX 89 13 86 14 88 15 87 16 8 17 7 18 6 19 3 20 4 21 95 22 5 23
REMARK SMILES IDX 92 24 2 25 1 26 93 27 94 28 17 29 18 30 19 31 20 32 21 34
REMARK SMILES IDX 22 35 23 36 84 37 24 38 83 39 25 40 26 41 27 42 77 43 28 44
REMARK SMILES IDX 82 45 76 46 78 47 29 48 81 49 75 50 74 51 30 53 62 54 42 55
REMARK SMILES IDX 61 56 43 57 46 58 60 59 79 60 44 61 45 62 59 64 80 65 47 66
REMARK SMILES IDX 31 67 32 68 40 69 33 70 34 71 38 72 41 73 35 74 36 75 39 76
REMARK SMILES IDX 37 77 63 78 64 79 72 80 65 81 66 82 70 83 73 84 67 85 68 86
REMARK SMILES IDX 71 87 69 88 48 89 49 90 57 91 50 92 51 93 55 94 58 95 52 96
REMARK SMILES IDX 53 97 56 98 54 99
REMARK H PARENT 14 6 19 33 78 52 46 63
REMARK Flexibility Score: inf
ROOT
ATOM      1  C   UNL A   1      37.318  21.271  24.586  1.00  0.00     0.023 C 
ENDROOT
BRANCH   1   2
ATOM      2  C   UNL A   1      36.938  22.193  25.748  1.00  0.00     0.116 C 
BRANCH   2   3
ATOM      3  N   UNL A   1      35.804  21.618  26.446  1.00  0.00    -0.352 N 
ATOM      4  C   UNL A   1      34.657  22.277  26.808  1.00  0.00     0.252 C 
ATOM      5  O   UNL A   1      34.147  22.069  27.903  1.00  0.00    -0.269 OA
ATOM      6  H   UNL A   1      35.863  20.664  26.681  1.00  0.00     0.163 HD
BRANCH   4   7
ATOM      7  C   UNL A   1      33.963  23.056  25.766  1.00  0.00     0.051 A 
ATOM      8  C   UNL A   1      33.040  25.011  24.860  1.00  0.00     0.065 A 
ATOM      9  C   UNL A   1      33.643  24.401  25.943  1.00  0.00     0.042 A 
ATOM     10  N   UNL A   1      33.187  24.512  23.615  1.00  0.00    -0.248 NA
ATOM     11  C   UNL A   1      33.147  23.186  23.532  1.00  0.00     0.072 A 
ATOM     12  C   UNL A   1      33.460  22.378  24.633  1.00  0.00     0.013 A 
ATOM     13  C   UNL A   1      32.572  22.629  22.403  1.00  0.00     0.029 A 
ATOM     14  C   UNL A   1      33.102  21.011  24.591  1.00  0.00     0.011 A 
ATOM     15  C   UNL A   1      32.153  21.301  22.398  1.00  0.00     0.002 A 
ATOM     16  C   UNL A   1      32.400  20.497  23.504  1.00  0.00     0.001 A 
BRANCH   8  17
ATOM     17  C   UNL A   1      31.656  25.560  24.968  1.00  0.00     0.029 C 
ATOM     18  C   UNL A   1      31.053  25.743  23.767  1.00  0.00     0.014 C 
BRANCH  18  19
ATOM     19  C   UNL A   1      30.310  26.939  23.287  1.00  0.00     0.017 A 
ATOM     20  C   UNL A   1      28.956  29.316  22.562  1.00  0.00     0.122 A 
ATOM     21  C   UNL A   1      28.268  28.260  23.153  1.00  0.00     0.047 A 
ATOM     22  C   UNL A   1      30.333  29.214  22.375  1.00  0.00     0.093 A 
ATOM     23  C   UNL A   1      28.933  27.078  23.501  1.00  0.00     0.016 A 
ATOM     24  C   UNL A   1      31.018  28.047  22.743  1.00  0.00     0.129 A 
BRANCH  20  25
ATOM     25  O   UNL A   1      28.203  30.412  22.240  1.00  0.00    -0.497 OA
ATOM     26  C   UNL A   1      27.765  31.203  23.342  1.00  0.00     0.278 C 
ENDBRANCH  20  25
BRANCH  24  27
ATOM     27  O   UNL A   1      32.386  27.927  22.607  1.00  0.00    -0.496 OA
ATOM     28  C   UNL A   1      33.201  28.832  23.349  1.00  0.00     0.278 C 
ENDBRANCH  24  27
ENDBRANCH  18  19
ENDBRANCH   8  17
ENDBRANCH   4   7
ENDBRANCH   2   3
ENDBRANCH   1   2
BRANCH   1  29
ATOM     29  C   UNL A   1      38.100  20.020  25.014  1.00  0.00     0.023 C 
BRANCH  29  30
ATOM     30  C   UNL A   1      39.228  20.281  26.005  1.00  0.00     0.116 C 
BRANCH  30  31
ATOM     31  N   UNL A   1      40.207  19.205  26.026  1.00  0.00    -0.352 N 
ATOM     32  C   UNL A   1      41.574  19.287  26.126  1.00  0.00     0.251 C 
ATOM     33  H   UNL A   1      39.839  18.294  25.962  1.00  0.00     0.163 HD
ATOM     34  O   UNL A   1      42.272  18.297  25.980  1.00  0.00    -0.269 OA
BRANCH  32  35
ATOM     35  C   UNL A   1      42.187  20.604  26.380  1.00  0.00     0.039 A 
ATOM     36  C   UNL A   1      42.530  21.407  25.291  1.00  0.00     0.014 A 
ATOM     37  C   UNL A   1      42.384  21.051  27.689  1.00  0.00     0.014 A 
ATOM     38  C   UNL A   1      43.021  22.692  25.518  1.00  0.00     0.010 A 
ATOM     39  C   UNL A   1      42.803  22.357  27.911  1.00  0.00     0.010 A 
ATOM     40  C   UNL A   1      43.128  23.188  26.828  1.00  0.00    -0.014 A 
BRANCH  40  41
ATOM     41  C   UNL A   1      43.580  24.577  27.082  1.00  0.00     0.031 A 
ATOM     42  C   UNL A   1      42.608  25.603  27.589  1.00  0.00     0.074 A 
ATOM     43  C   UNL A   1      44.851  24.922  26.800  1.00  0.00     0.049 A 
ATOM     44  N   UNL A   1      42.795  26.876  27.825  1.00  0.00    -0.248 NA
ATOM     45  C   UNL A   1      41.232  25.142  27.839  1.00  0.00     0.031 C 
ATOM     46  C   UNL A   1      45.870  24.024  26.257  1.00  0.00     0.029 A 
ATOM     47  N   UNL A   1      45.501  26.125  26.926  1.00  0.00    -0.354 N 
ATOM     48  C   UNL A   1      41.564  27.368  28.238  1.00  0.00     0.074 A 
ATOM     49  C   UNL A   1      40.623  26.272  28.162  1.00  0.00     0.031 C 
ATOM     50  C   UNL A   1      47.023  24.698  26.120  1.00  0.00     0.029 A 
ATOM     51  C   UNL A   1      46.815  26.084  26.527  1.00  0.00     0.049 A 
ATOM     52  H   UNL A   1      45.066  26.938  27.269  1.00  0.00     0.167 HD
ATOM     53  C   UNL A   1      41.255  28.614  28.668  1.00  0.00     0.037 A 
ATOM     54  C   UNL A   1      47.742  27.059  26.490  1.00  0.00     0.037 A 
ATOM     55  C   UNL A   1      42.205  29.693  28.757  1.00  0.00     0.049 A 
ATOM     56  C   UNL A   1      47.368  28.440  26.957  1.00  0.00     0.074 A 
ATOM     57  C   UNL A   1      42.008  30.977  29.232  1.00  0.00     0.029 A 
ATOM     58  N   UNL A   1      43.530  29.613  28.354  1.00  0.00    -0.354 N 
ATOM     59  N   UNL A   1      46.220  28.876  27.419  1.00  0.00    -0.248 NA
ATOM     60  C   UNL A   1      48.421  29.463  26.906  1.00  0.00     0.031 C 
ATOM     61  C   UNL A   1      43.199  31.691  29.064  1.00  0.00     0.029 A 
ATOM     62  C   UNL A   1      44.156  30.834  28.543  1.00  0.00     0.049 A 
ATOM     63  H   UNL A   1      43.962  28.807  27.987  1.00  0.00     0.167 HD
ATOM     64  C   UNL A   1      46.421  30.211  27.740  1.00  0.00     0.074 A 
ATOM     65  C   UNL A   1      47.805  30.509  27.437  1.00  0.00     0.031 C 
ATOM     66  C   UNL A   1      45.538  31.110  28.242  1.00  0.00     0.037 A 
BRANCH  53  67
ATOM     67  C   UNL A   1      39.834  28.877  29.074  1.00  0.00     0.064 A 
ATOM     68  C   UNL A   1      38.874  29.328  28.155  1.00  0.00     0.173 A 
ATOM     69  C   UNL A   1      39.416  28.644  30.394  1.00  0.00     0.173 A 
ATOM     70  F   UNL A   1      39.222  29.578  26.883  1.00  0.00    -0.203 F 
ATOM     71  C   UNL A   1      37.559  29.567  28.548  1.00  0.00     0.198 A 
ATOM     72  C   UNL A   1      38.093  28.851  30.776  1.00  0.00     0.198 A 
ATOM     73  F   UNL A   1      40.290  28.208  31.313  1.00  0.00    -0.203 F 
ATOM     74  F   UNL A   1      36.675  30.050  27.665  1.00  0.00    -0.200 F 
ATOM     75  C   UNL A   1      37.169  29.321  29.855  1.00  0.00     0.200 A 
ATOM     76  F   UNL A   1      37.713  28.598  32.035  1.00  0.00    -0.200 F 
ATOM     77  F   UNL A   1      35.901  29.543  30.230  1.00  0.00    -0.200 F 
ENDBRANCH  53  67
BRANCH  54  78
ATOM     78  C   UNL A   1      49.118  26.760  26.011  1.00  0.00     0.064 A 
ATOM     79  C   UNL A   1      50.093  26.260  26.885  1.00  0.00     0.173 A 
ATOM     80  C   UNL A   1      49.491  26.976  24.676  1.00  0.00     0.173 A 
ATOM     81  F   UNL A   1      49.791  26.054  28.176  1.00  0.00    -0.203 F 
ATOM     82  C   UNL A   1      51.393  26.011  26.450  1.00  0.00     0.198 A 
ATOM     83  C   UNL A   1      50.782  26.696  24.234  1.00  0.00     0.198 A 
ATOM     84  F   UNL A   1      48.595  27.448  23.796  1.00  0.00    -0.203 F 
ATOM     85  F   UNL A   1      52.318  25.582  27.320  1.00  0.00    -0.200 F 
ATOM     86  C   UNL A   1      51.735  26.224  25.123  1.00  0.00     0.200 A 
ATOM     87  F   UNL A   1      51.104  26.888  22.947  1.00  0.00    -0.200 F 
ATOM     88  F   UNL A   1      52.984  25.982  24.704  1.00  0.00    -0.200 F 
ENDBRANCH  54  78
BRANCH  66  89
ATOM     89  C   UNL A   1      46.052  32.492  28.531  1.00  0.00     0.064 A 
ATOM     90  C   UNL A   1      46.703  32.802  29.733  1.00  0.00     0.173 A 
ATOM     91  C   UNL A   1      45.927  33.509  27.571  1.00  0.00     0.173 A 
ATOM     92  F   UNL A   1      46.836  31.870  30.689  1.00  0.00    -0.203 F 
ATOM     93  C   UNL A   1      47.184  34.086  29.977  1.00  0.00     0.198 A 
ATOM     94  C   UNL A   1      46.439  34.781  27.803  1.00  0.00     0.198 A 
ATOM     95  F   UNL A   1      45.319  33.263  26.401  1.00  0.00    -0.203 F 
ATOM     96  F   UNL A   1      47.755  34.373  31.155  1.00  0.00    -0.200 F 
ATOM     97  C   UNL A   1      47.059  35.072  29.008  1.00  0.00     0.200 A 
ATOM     98  F   UNL A   1      46.334  35.727  26.860  1.00  0.00    -0.200 F 
ATOM     99  F   UNL A   1      47.532  36.304  29.241  1.00  0.00    -0.200 F 
ENDBRANCH  66  89
ENDBRANCH  40  41
ENDBRANCH  32  35
ENDBRANCH  30  31
ENDBRANCH  29  30
ENDBRANCH   1  29
TORSDOF 15
ENDMDL
