MODEL 1
REMARK VINA RESULT:     -12.7      0.000      0.000
REMARK SMILES Nc1nc(SCc2c(C(=O)NCCCCNC(=O)c3ccc(-c4c5nc(c(-c6c(F)c(F)c(F)c(F)c6F)c6ccc([nH]6)c(-c6c(F)c(F)c(F)c(F)c6F)c6nc(c(-c7c(F)c(F)c(F)c(F)c7F)c7ccc4[nH]7)C=C6)C=C5)cc3)sc3cccc(F)c23)n[nH]1
REMARK SMILES IDX 12 1 11 2 9 3 10 4 8 6 7 7 89 8 82 9 83 10 87 11 84 12 86 13
REMARK SMILES IDX 88 14 85 15 6 16 5 17 4 18 2 19 3 20 91 21 90 22 1 24 13 27
REMARK SMILES IDX 14 28 15 29 16 30 17 31 18 33 19 34 20 35 81 36 21 37 80 38
REMARK SMILES IDX 22 39 23 40 24 41 74 42 25 43 79 44 73 45 75 46 26 47 78 48
REMARK SMILES IDX 72 49 71 50 27 52 59 53 39 54 58 55 40 56 43 57 57 58 76 59
REMARK SMILES IDX 41 60 42 61 56 63 77 64 44 65 28 66 29 67 37 68 30 69 31 70
REMARK SMILES IDX 35 71 38 72 32 73 33 74 36 75 34 76 60 77 61 78 69 79 62 80
REMARK SMILES IDX 63 81 67 82 70 83 64 84 65 85 68 86 66 87 45 88 46 89 54 90
REMARK SMILES IDX 47 91 48 92 52 93 55 94 49 95 50 96 53 97 51 98
REMARK H PARENT 11 5 91 23 1 25 1 26 16 32 75 51 43 62
REMARK Flexibility Score: inf
ROOT
ATOM      1  C   UNL A   1      33.371  27.967  26.367  1.00  0.00     0.116 C 
ENDROOT
BRANCH   1   2
ATOM      2  N   UNL A   1      33.697  28.027  24.958  1.00  0.00    -0.351 N 
ATOM      3  C   UNL A   1      33.633  27.058  23.972  1.00  0.00     0.261 C 
ATOM      4  O   UNL A   1      33.885  27.434  22.826  1.00  0.00    -0.268 OA
ATOM      5  H   UNL A   1      34.019  28.904  24.649  1.00  0.00     0.163 HD
BRANCH   3   6
ATOM      6  C   UNL A   1      33.426  25.669  24.332  1.00  0.00     0.097 A 
ATOM      7  C   UNL A   1      32.328  24.827  24.476  1.00  0.00    -0.003 A 
ATOM      8  C   UNL A   1      32.642  23.970  25.626  1.00  0.00     0.033 A 
ATOM      9  S   UNL A   1      34.853  24.732  24.605  1.00  0.00    -0.130 S 
ATOM     10  C   UNL A   1      34.019  23.772  25.752  1.00  0.00     0.038 A 
ATOM     11  C   UNL A   1      31.826  23.343  26.599  1.00  0.00     0.132 A 
ATOM     12  C   UNL A   1      34.583  22.922  26.721  1.00  0.00     0.020 A 
ATOM     13  C   UNL A   1      32.379  22.600  27.646  1.00  0.00     0.040 A 
ATOM     14  F   UNL A   1      30.501  23.559  26.599  1.00  0.00    -0.206 F 
ATOM     15  C   UNL A   1      33.748  22.370  27.692  1.00  0.00     0.005 A 
BRANCH   7  16
ATOM     16  C   UNL A   1      30.961  24.899  23.839  1.00  0.00     0.116 C 
BRANCH  16  17
ATOM     17  S   UNL A   1      29.825  26.187  24.398  1.00  0.00    -0.080 SA
BRANCH  17  18
ATOM     18  C   UNL A   1      30.243  27.717  23.683  1.00  0.00     0.210 A 
ATOM     19  C   UNL A   1      30.493  29.321  22.338  1.00  0.00     0.216 A 
ATOM     20  N   UNL A   1      30.338  28.015  22.351  1.00  0.00    -0.186 NA
ATOM     21  N   UNL A   1      30.678  29.748  23.620  1.00  0.00    -0.245 N 
ATOM     22  N   UNL A   1      30.552  28.738  24.492  1.00  0.00    -0.145 NA
ATOM     23  H   UNL A   1      30.879  30.678  23.872  1.00  0.00     0.193 HD
BRANCH  19  24
ATOM     24  N   UNL A   1      30.420  30.187  21.316  1.00  0.00    -0.368 N 
ATOM     25  H   UNL A   1      30.847  29.971  20.456  1.00  0.00     0.159 HD
ATOM     26  H   UNL A   1      29.938  31.039  21.427  1.00  0.00     0.159 HD
ENDBRANCH  19  24
ENDBRANCH  17  18
ENDBRANCH  16  17
ENDBRANCH   7  16
ENDBRANCH   3   6
ENDBRANCH   1   2
BRANCH   1  27
ATOM     27  C   UNL A   1      34.223  28.884  27.250  1.00  0.00     0.023 C 
BRANCH  27  28
ATOM     28  C   UNL A   1      33.695  30.321  27.416  1.00  0.00     0.023 C 
BRANCH  28  29
ATOM     29  C   UNL A   1      34.757  31.413  27.576  1.00  0.00     0.116 C 
BRANCH  29  30
ATOM     30  N   UNL A   1      34.639  32.142  28.828  1.00  0.00    -0.352 N 
ATOM     31  C   UNL A   1      35.334  31.988  30.005  1.00  0.00     0.251 C 
ATOM     32  H   UNL A   1      33.957  32.852  28.834  1.00  0.00     0.163 HD
ATOM     33  O   UNL A   1      34.940  32.594  31.001  1.00  0.00    -0.269 OA
BRANCH  31  34
ATOM     34  C   UNL A   1      36.536  31.120  30.115  1.00  0.00     0.039 A 
ATOM     35  C   UNL A   1      37.788  31.687  29.829  1.00  0.00     0.014 A 
ATOM     36  C   UNL A   1      36.458  29.754  30.400  1.00  0.00     0.014 A 
ATOM     37  C   UNL A   1      38.936  30.896  29.840  1.00  0.00     0.010 A 
ATOM     38  C   UNL A   1      37.606  28.971  30.457  1.00  0.00     0.010 A 
ATOM     39  C   UNL A   1      38.843  29.533  30.149  1.00  0.00    -0.014 A 
BRANCH  39  40
ATOM     40  C   UNL A   1      40.061  28.724  30.168  1.00  0.00     0.031 A 
ATOM     41  C   UNL A   1      40.749  28.569  31.482  1.00  0.00     0.074 A 
ATOM     42  C   UNL A   1      40.513  28.008  29.119  1.00  0.00     0.049 A 
ATOM     43  N   UNL A   1      41.939  28.956  31.815  1.00  0.00    -0.248 NA
ATOM     44  C   UNL A   1      40.006  27.918  32.568  1.00  0.00     0.031 C 
ATOM     45  C   UNL A   1      39.856  27.738  27.839  1.00  0.00     0.029 A 
ATOM     46  N   UNL A   1      41.675  27.298  29.028  1.00  0.00    -0.354 N 
ATOM     47  C   UNL A   1      42.158  28.487  33.110  1.00  0.00     0.074 A 
ATOM     48  C   UNL A   1      40.904  27.932  33.555  1.00  0.00     0.031 C 
ATOM     49  C   UNL A   1      40.543  26.780  27.176  1.00  0.00     0.029 A 
ATOM     50  C   UNL A   1      41.763  26.489  27.909  1.00  0.00     0.049 A 
ATOM     51  H   UNL A   1      42.391  27.356  29.703  1.00  0.00     0.167 HD
ATOM     52  C   UNL A   1      43.404  28.454  33.665  1.00  0.00     0.037 A 
ATOM     53  C   UNL A   1      42.760  25.621  27.618  1.00  0.00     0.037 A 
ATOM     54  C   UNL A   1      44.321  29.309  32.959  1.00  0.00     0.049 A 
ATOM     55  C   UNL A   1      43.963  26.045  28.373  1.00  0.00     0.074 A 
ATOM     56  C   UNL A   1      44.387  30.665  32.698  1.00  0.00     0.029 A 
ATOM     57  N   UNL A   1      45.240  28.737  32.118  1.00  0.00    -0.354 N 
ATOM     58  N   UNL A   1      44.635  27.136  28.134  1.00  0.00    -0.248 NA
ATOM     59  C   UNL A   1      44.224  25.420  29.661  1.00  0.00     0.031 C 
ATOM     60  C   UNL A   1      44.953  30.764  31.393  1.00  0.00     0.029 A 
ATOM     61  C   UNL A   1      45.218  29.464  30.958  1.00  0.00     0.049 A 
ATOM     62  H   UNL A   1      45.806  27.954  32.310  1.00  0.00     0.167 HD
ATOM     63  C   UNL A   1      45.080  27.555  29.378  1.00  0.00     0.074 A 
ATOM     64  C   UNL A   1      44.906  26.402  30.253  1.00  0.00     0.031 C 
ATOM     65  C   UNL A   1      45.294  28.878  29.641  1.00  0.00     0.037 A 
BRANCH  52  66
ATOM     66  C   UNL A   1      43.886  27.440  34.676  1.00  0.00     0.064 A 
ATOM     67  C   UNL A   1      43.890  26.068  34.338  1.00  0.00     0.173 A 
ATOM     68  C   UNL A   1      44.061  27.723  36.046  1.00  0.00     0.173 A 
ATOM     69  F   UNL A   1      43.715  25.673  33.068  1.00  0.00    -0.203 F 
ATOM     70  C   UNL A   1      43.980  25.064  35.307  1.00  0.00     0.198 A 
ATOM     71  C   UNL A   1      44.208  26.720  37.004  1.00  0.00     0.198 A 
ATOM     72  F   UNL A   1      43.992  28.972  36.524  1.00  0.00    -0.203 F 
ATOM     73  F   UNL A   1      43.852  23.779  34.949  1.00  0.00    -0.200 F 
ATOM     74  C   UNL A   1      44.134  25.391  36.641  1.00  0.00     0.200 A 
ATOM     75  F   UNL A   1      44.341  27.055  38.295  1.00  0.00    -0.200 F 
ATOM     76  F   UNL A   1      44.161  24.435  37.578  1.00  0.00    -0.200 F 
ENDBRANCH  52  66
BRANCH  53  77
ATOM     77  C   UNL A   1      42.671  24.315  26.929  1.00  0.00     0.064 A 
ATOM     78  C   UNL A   1      43.175  24.143  25.631  1.00  0.00     0.173 A 
ATOM     79  C   UNL A   1      42.349  23.144  27.642  1.00  0.00     0.173 A 
ATOM     80  F   UNL A   1      43.544  25.206  24.903  1.00  0.00    -0.203 F 
ATOM     81  C   UNL A   1      43.373  22.870  25.088  1.00  0.00     0.198 A 
ATOM     82  C   UNL A   1      42.540  21.875  27.094  1.00  0.00     0.198 A 
ATOM     83  F   UNL A   1      41.935  23.206  28.915  1.00  0.00    -0.203 F 
ATOM     84  F   UNL A   1      43.918  22.741  23.870  1.00  0.00    -0.200 F 
ATOM     85  C   UNL A   1      43.066  21.738  25.824  1.00  0.00     0.200 A 
ATOM     86  F   UNL A   1      42.273  20.787  27.831  1.00  0.00    -0.200 F 
ATOM     87  F   UNL A   1      43.318  20.518  25.328  1.00  0.00    -0.200 F 
ENDBRANCH  53  77
BRANCH  65  88
ATOM     88  C   UNL A   1      45.316  29.829  28.480  1.00  0.00     0.064 A 
ATOM     89  C   UNL A   1      44.160  30.417  27.935  1.00  0.00     0.173 A 
ATOM     90  C   UNL A   1      46.554  30.281  28.006  1.00  0.00     0.173 A 
ATOM     91  F   UNL A   1      42.945  30.112  28.407  1.00  0.00    -0.203 F 
ATOM     92  C   UNL A   1      44.244  31.380  26.933  1.00  0.00     0.198 A 
ATOM     93  C   UNL A   1      46.636  31.271  27.030  1.00  0.00     0.198 A 
ATOM     94  F   UNL A   1      47.691  29.799  28.531  1.00  0.00    -0.203 F 
ATOM     95  F   UNL A   1      43.125  31.920  26.423  1.00  0.00    -0.200 F 
ATOM     96  C   UNL A   1      45.482  31.813  26.487  1.00  0.00     0.200 A 
ATOM     97  F   UNL A   1      47.835  31.722  26.637  1.00  0.00    -0.200 F 
ATOM     98  F   UNL A   1      45.563  32.774  25.556  1.00  0.00    -0.200 F 
ENDBRANCH  65  88
ENDBRANCH  39  40
ENDBRANCH  31  34
ENDBRANCH  29  30
ENDBRANCH  28  29
ENDBRANCH  27  28
ENDBRANCH   1  27
TORSDOF 15
ENDMDL
MODEL 2
REMARK VINA RESULT:     -12.7      3.878      9.010
REMARK SMILES Nc1nc(SCc2c(C(=O)NCCCCNC(=O)c3ccc(-c4c5nc(c(-c6c(F)c(F)c(F)c(F)c6F)c6ccc([nH]6)c(-c6c(F)c(F)c(F)c(F)c6F)c6nc(c(-c7c(F)c(F)c(F)c(F)c7F)c7ccc4[nH]7)C=C6)C=C5)cc3)sc3cccc(F)c23)n[nH]1
REMARK SMILES IDX 12 1 11 2 9 3 10 4 8 6 7 7 89 8 82 9 83 10 87 11 84 12 86 13
REMARK SMILES IDX 88 14 85 15 6 16 5 17 4 18 2 19 3 20 91 21 90 22 1 24 13 27
REMARK SMILES IDX 14 28 15 29 16 30 17 31 18 33 19 34 20 35 81 36 21 37 80 38
REMARK SMILES IDX 22 39 23 40 24 41 74 42 25 43 79 44 73 45 75 46 26 47 78 48
REMARK SMILES IDX 72 49 71 50 27 52 59 53 39 54 58 55 40 56 43 57 57 58 76 59
REMARK SMILES IDX 41 60 42 61 56 63 77 64 44 65 28 66 29 67 37 68 30 69 31 70
REMARK SMILES IDX 35 71 38 72 32 73 33 74 36 75 34 76 60 77 61 78 69 79 62 80
REMARK SMILES IDX 63 81 67 82 70 83 64 84 65 85 68 86 66 87 45 88 46 89 54 90
REMARK SMILES IDX 47 91 48 92 52 93 55 94 49 95 50 96 53 97 51 98
REMARK H PARENT 11 5 91 23 1 25 1 26 16 32 75 51 43 62
REMARK Flexibility Score: inf
ROOT
ATOM      1  C   UNL A   1      36.218  23.685  25.297  1.00  0.00     0.116 C 
ENDROOT
BRANCH   1   2
ATOM      2  N   UNL A   1      35.249  23.275  26.290  1.00  0.00    -0.351 N 
ATOM      3  C   UNL A   1      33.894  23.536  26.395  1.00  0.00     0.261 C 
ATOM      4  O   UNL A   1      33.300  22.962  27.310  1.00  0.00    -0.268 OA
ATOM      5  H   UNL A   1      35.614  22.716  27.013  1.00  0.00     0.163 HD
BRANCH   3   6
ATOM      6  C   UNL A   1      33.282  24.546  25.554  1.00  0.00     0.097 A 
ATOM      7  C   UNL A   1      32.556  24.552  24.367  1.00  0.00    -0.003 A 
ATOM      8  C   UNL A   1      33.008  25.743  23.638  1.00  0.00     0.033 A 
ATOM      9  S   UNL A   1      33.375  26.175  26.125  1.00  0.00    -0.130 S 
ATOM     10  C   UNL A   1      33.411  26.753  24.514  1.00  0.00     0.038 A 
ATOM     11  C   UNL A   1      33.115  26.031  22.255  1.00  0.00     0.132 A 
ATOM     12  C   UNL A   1      33.810  28.030  24.077  1.00  0.00     0.020 A 
ATOM     13  C   UNL A   1      33.632  27.249  21.802  1.00  0.00     0.040 A 
ATOM     14  F   UNL A   1      32.834  25.081  21.351  1.00  0.00    -0.206 F 
ATOM     15  C   UNL A   1      33.954  28.251  22.708  1.00  0.00     0.005 A 
BRANCH   7  16
ATOM     16  C   UNL A   1      31.700  23.472  23.749  1.00  0.00     0.116 C 
BRANCH  16  17
ATOM     17  S   UNL A   1      32.526  22.049  23.004  1.00  0.00    -0.080 SA
BRANCH  17  18
ATOM     18  C   UNL A   1      32.981  20.901  24.229  1.00  0.00     0.210 A 
ATOM     19  C   UNL A   1      32.976  19.316  25.618  1.00  0.00     0.216 A 
ATOM     20  N   UNL A   1      32.151  20.130  24.997  1.00  0.00    -0.186 NA
ATOM     21  N   UNL A   1      34.254  19.722  25.372  1.00  0.00    -0.245 N 
ATOM     22  N   UNL A   1      34.281  20.750  24.512  1.00  0.00    -0.145 NA
ATOM     23  H   UNL A   1      35.053  19.313  25.775  1.00  0.00     0.193 HD
BRANCH  19  24
ATOM     24  N   UNL A   1      32.719  18.205  26.326  1.00  0.00    -0.368 N 
ATOM     25  H   UNL A   1      31.791  17.972  26.557  1.00  0.00     0.159 HD
ATOM     26  H   UNL A   1      33.459  17.622  26.614  1.00  0.00     0.159 HD
ENDBRANCH  19  24
ENDBRANCH  17  18
ENDBRANCH  16  17
ENDBRANCH   7  16
ENDBRANCH   3   6
ENDBRANCH   1   2
BRANCH   1  27
ATOM     27  C   UNL A   1      37.661  23.739  25.809  1.00  0.00     0.023 C 
BRANCH  27  28
ATOM     28  C   UNL A   1      38.418  22.398  25.797  1.00  0.00     0.023 C 
BRANCH  28  29
ATOM     29  C   UNL A   1      39.491  22.224  26.875  1.00  0.00     0.116 C 
BRANCH  29  30
ATOM     30  N   UNL A   1      40.829  22.077  26.327  1.00  0.00    -0.352 N 
ATOM     31  C   UNL A   1      41.792  23.030  26.087  1.00  0.00     0.251 C 
ATOM     32  H   UNL A   1      41.084  21.156  26.091  1.00  0.00     0.163 HD
ATOM     33  O   UNL A   1      42.789  22.706  25.443  1.00  0.00    -0.269 OA
BRANCH  31  34
ATOM     34  C   UNL A   1      41.669  24.430  26.574  1.00  0.00     0.039 A 
ATOM     35  C   UNL A   1      42.084  24.711  27.885  1.00  0.00     0.014 A 
ATOM     36  C   UNL A   1      41.077  25.444  25.816  1.00  0.00     0.014 A 
ATOM     37  C   UNL A   1      41.917  25.990  28.415  1.00  0.00     0.010 A 
ATOM     38  C   UNL A   1      40.949  26.731  26.326  1.00  0.00     0.010 A 
ATOM     39  C   UNL A   1      41.341  27.001  27.636  1.00  0.00    -0.014 A 
BRANCH  39  40
ATOM     40  C   UNL A   1      41.186  28.337  28.207  1.00  0.00     0.031 A 
ATOM     41  C   UNL A   1      42.258  29.329  27.907  1.00  0.00     0.074 A 
ATOM     42  C   UNL A   1      40.084  28.761  28.858  1.00  0.00     0.049 A 
ATOM     43  N   UNL A   1      43.056  29.923  28.735  1.00  0.00    -0.248 NA
ATOM     44  C   UNL A   1      42.481  29.688  26.501  1.00  0.00     0.031 C 
ATOM     45  C   UNL A   1      38.788  28.096  28.999  1.00  0.00     0.029 A 
ATOM     46  N   UNL A   1      39.892  29.956  29.489  1.00  0.00    -0.354 N 
ATOM     47  C   UNL A   1      43.801  30.832  27.984  1.00  0.00     0.074 A 
ATOM     48  C   UNL A   1      43.466  30.582  26.604  1.00  0.00     0.031 C 
ATOM     49  C   UNL A   1      37.891  28.969  29.512  1.00  0.00     0.029 A 
ATOM     50  C   UNL A   1      38.586  30.191  29.878  1.00  0.00     0.049 A 
ATOM     51  H   UNL A   1      40.622  30.598  29.651  1.00  0.00     0.167 HD
ATOM     52  C   UNL A   1      44.525  31.829  28.567  1.00  0.00     0.037 A 
ATOM     53  C   UNL A   1      38.103  31.324  30.441  1.00  0.00     0.037 A 
ATOM     54  C   UNL A   1      44.758  31.568  29.963  1.00  0.00     0.049 A 
ATOM     55  C   UNL A   1      39.245  32.045  31.054  1.00  0.00     0.074 A 
ATOM     56  C   UNL A   1      45.403  30.575  30.676  1.00  0.00     0.029 A 
ATOM     57  N   UNL A   1      44.022  32.257  30.893  1.00  0.00    -0.354 N 
ATOM     58  N   UNL A   1      39.905  31.625  32.096  1.00  0.00    -0.248 NA
ATOM     59  C   UNL A   1      39.899  33.087  30.278  1.00  0.00     0.031 C 
ATOM     60  C   UNL A   1      44.634  30.414  31.866  1.00  0.00     0.029 A 
ATOM     61  C   UNL A   1      43.589  31.337  31.811  1.00  0.00     0.049 A 
ATOM     62  H   UNL A   1      43.841  33.225  30.900  1.00  0.00     0.167 HD
ATOM     63  C   UNL A   1      41.209  32.040  31.877  1.00  0.00     0.074 A 
ATOM     64  C   UNL A   1      41.119  33.034  30.815  1.00  0.00     0.031 C 
ATOM     65  C   UNL A   1      42.266  31.342  32.388  1.00  0.00     0.037 A 
BRANCH  52  66
ATOM     66  C   UNL A   1      44.794  33.187  27.961  1.00  0.00     0.064 A 
ATOM     67  C   UNL A   1      46.123  33.568  27.669  1.00  0.00     0.173 A 
ATOM     68  C   UNL A   1      43.847  34.231  27.930  1.00  0.00     0.173 A 
ATOM     69  F   UNL A   1      47.114  32.665  27.684  1.00  0.00    -0.203 F 
ATOM     70  C   UNL A   1      46.482  34.900  27.445  1.00  0.00     0.198 A 
ATOM     71  C   UNL A   1      44.201  35.552  27.651  1.00  0.00     0.198 A 
ATOM     72  F   UNL A   1      42.568  34.036  28.271  1.00  0.00    -0.203 F 
ATOM     73  F   UNL A   1      47.773  35.226  27.298  1.00  0.00    -0.200 F 
ATOM     74  C   UNL A   1      45.521  35.892  27.441  1.00  0.00     0.200 A 
ATOM     75  F   UNL A   1      43.257  36.504  27.666  1.00  0.00    -0.200 F 
ATOM     76  F   UNL A   1      45.868  37.177  27.287  1.00  0.00    -0.200 F 
ENDBRANCH  52  66
BRANCH  53  77
ATOM     77  C   UNL A   1      36.771  31.943  30.268  1.00  0.00     0.064 A 
ATOM     78  C   UNL A   1      35.903  32.113  31.357  1.00  0.00     0.173 A 
ATOM     79  C   UNL A   1      36.444  32.635  29.086  1.00  0.00     0.173 A 
ATOM     80  F   UNL A   1      36.166  31.521  32.531  1.00  0.00    -0.203 F 
ATOM     81  C   UNL A   1      34.787  32.952  31.277  1.00  0.00     0.198 A 
ATOM     82  C   UNL A   1      35.326  33.466  29.006  1.00  0.00     0.198 A 
ATOM     83  F   UNL A   1      37.255  32.595  28.019  1.00  0.00    -0.203 F 
ATOM     84  F   UNL A   1      34.017  33.144  32.358  1.00  0.00    -0.200 F 
ATOM     85  C   UNL A   1      34.507  33.637  30.106  1.00  0.00     0.200 A 
ATOM     86  F   UNL A   1      35.087  34.150  27.879  1.00  0.00    -0.200 F 
ATOM     87  F   UNL A   1      33.476  34.492  30.051  1.00  0.00    -0.200 F 
ENDBRANCH  53  77
BRANCH  65  88
ATOM     88  C   UNL A   1      41.979  30.294  33.424  1.00  0.00     0.064 A 
ATOM     89  C   UNL A   1      41.683  28.955  33.114  1.00  0.00     0.173 A 
ATOM     90  C   UNL A   1      42.163  30.617  34.774  1.00  0.00     0.173 A 
ATOM     91  F   UNL A   1      41.593  28.548  31.842  1.00  0.00    -0.203 F 
ATOM     92  C   UNL A   1      41.537  27.996  34.114  1.00  0.00     0.198 A 
ATOM     93  C   UNL A   1      42.053  29.649  35.770  1.00  0.00     0.198 A 
ATOM     94  F   UNL A   1      42.505  31.867  35.126  1.00  0.00    -0.203 F 
ATOM     95  F   UNL A   1      41.246  26.726  33.791  1.00  0.00    -0.200 F 
ATOM     96  C   UNL A   1      41.731  28.343  35.440  1.00  0.00     0.200 A 
ATOM     97  F   UNL A   1      42.290  29.978  37.048  1.00  0.00    -0.200 F 
ATOM     98  F   UNL A   1      41.636  27.410  36.400  1.00  0.00    -0.200 F 
ENDBRANCH  65  88
ENDBRANCH  39  40
ENDBRANCH  31  34
ENDBRANCH  29  30
ENDBRANCH  28  29
ENDBRANCH  27  28
ENDBRANCH   1  27
TORSDOF 15
ENDMDL
MODEL 3
REMARK VINA RESULT:     -12.6      5.557     11.162
REMARK SMILES Nc1nc(SCc2c(C(=O)NCCCCNC(=O)c3ccc(-c4c5nc(c(-c6c(F)c(F)c(F)c(F)c6F)c6ccc([nH]6)c(-c6c(F)c(F)c(F)c(F)c6F)c6nc(c(-c7c(F)c(F)c(F)c(F)c7F)c7ccc4[nH]7)C=C6)C=C5)cc3)sc3cccc(F)c23)n[nH]1
REMARK SMILES IDX 12 1 11 2 9 3 10 4 8 6 7 7 89 8 82 9 83 10 87 11 84 12 86 13
REMARK SMILES IDX 88 14 85 15 6 16 5 17 4 18 2 19 3 20 91 21 90 22 1 24 13 27
REMARK SMILES IDX 14 28 15 29 16 30 17 31 18 33 19 34 20 35 81 36 21 37 80 38
REMARK SMILES IDX 22 39 23 40 24 41 74 42 25 43 79 44 73 45 75 46 26 47 78 48
REMARK SMILES IDX 72 49 71 50 27 52 59 53 39 54 58 55 40 56 43 57 57 58 76 59
REMARK SMILES IDX 41 60 42 61 56 63 77 64 44 65 28 66 29 67 37 68 30 69 31 70
REMARK SMILES IDX 35 71 38 72 32 73 33 74 36 75 34 76 60 77 61 78 69 79 62 80
REMARK SMILES IDX 63 81 67 82 70 83 64 84 65 85 68 86 66 87 45 88 46 89 54 90
REMARK SMILES IDX 47 91 48 92 52 93 55 94 49 95 50 96 53 97 51 98
REMARK H PARENT 11 5 91 23 1 25 1 26 16 32 75 51 43 62
REMARK Flexibility Score: inf
ROOT
ATOM      1  C   UNL A   1      45.679  24.340  24.867  1.00  0.00     0.116 C 
ENDROOT
BRANCH   1   2
ATOM      2  N   UNL A   1      46.898  24.476  25.634  1.00  0.00    -0.351 N 
ATOM      3  C   UNL A   1      47.107  24.528  27.001  1.00  0.00     0.261 C 
ATOM      4  O   UNL A   1      48.283  24.548  27.369  1.00  0.00    -0.268 OA
ATOM      5  H   UNL A   1      47.718  24.542  25.093  1.00  0.00     0.163 HD
BRANCH   3   6
ATOM      6  C   UNL A   1      45.983  24.700  27.901  1.00  0.00     0.097 A 
ATOM      7  C   UNL A   1      45.378  25.772  28.550  1.00  0.00    -0.003 A 
ATOM      8  C   UNL A   1      44.985  25.259  29.868  1.00  0.00     0.033 A 
ATOM      9  S   UNL A   1      45.070  23.278  28.262  1.00  0.00    -0.130 S 
ATOM     10  C   UNL A   1      44.703  23.891  29.818  1.00  0.00     0.038 A 
ATOM     11  C   UNL A   1      44.858  25.881  31.134  1.00  0.00     0.132 A 
ATOM     12  C   UNL A   1      44.223  23.169  30.927  1.00  0.00     0.020 A 
ATOM     13  C   UNL A   1      44.507  25.150  32.273  1.00  0.00     0.040 A 
ATOM     14  F   UNL A   1      45.198  27.170  31.282  1.00  0.00    -0.206 F 
ATOM     15  C   UNL A   1      44.166  23.808  32.165  1.00  0.00     0.005 A 
BRANCH   7  16
ATOM     16  C   UNL A   1      45.351  27.236  28.184  1.00  0.00     0.116 C 
BRANCH  16  17
ATOM     17  S   UNL A   1      46.881  27.999  27.600  1.00  0.00    -0.080 SA
BRANCH  17  18
ATOM     18  C   UNL A   1      46.925  28.017  25.861  1.00  0.00     0.210 A 
ATOM     19  C   UNL A   1      47.530  27.833  23.851  1.00  0.00     0.216 A 
ATOM     20  N   UNL A   1      48.031  27.990  25.056  1.00  0.00    -0.186 NA
ATOM     21  N   UNL A   1      46.175  27.959  23.925  1.00  0.00    -0.245 N 
ATOM     22  N   UNL A   1      45.768  28.107  25.193  1.00  0.00    -0.145 NA
ATOM     23  H   UNL A   1      45.572  27.944  23.146  1.00  0.00     0.193 HD
BRANCH  19  24
ATOM     24  N   UNL A   1      48.142  27.519  22.698  1.00  0.00    -0.368 N 
ATOM     25  H   UNL A   1      48.553  26.632  22.585  1.00  0.00     0.159 HD
ATOM     26  H   UNL A   1      48.178  28.176  21.966  1.00  0.00     0.159 HD
ENDBRANCH  19  24
ENDBRANCH  17  18
ENDBRANCH  16  17
ENDBRANCH   7  16
ENDBRANCH   3   6
ENDBRANCH   1   2
BRANCH   1  27
ATOM     27  C   UNL A   1      45.485  22.962  24.228  1.00  0.00     0.023 C 
BRANCH  27  28
ATOM     28  C   UNL A   1      44.179  22.237  24.600  1.00  0.00     0.023 C 
BRANCH  28  29
ATOM     29  C   UNL A   1      43.015  23.132  25.036  1.00  0.00     0.116 C 
BRANCH  29  30
ATOM     30  N   UNL A   1      41.892  22.382  25.574  1.00  0.00    -0.352 N 
ATOM     31  C   UNL A   1      41.003  22.720  26.567  1.00  0.00     0.251 C 
ATOM     32  H   UNL A   1      41.747  21.498  25.165  1.00  0.00     0.163 HD
ATOM     33  O   UNL A   1      40.239  21.853  26.991  1.00  0.00    -0.269 OA
BRANCH  31  34
ATOM     34  C   UNL A   1      40.933  24.089  27.145  1.00  0.00     0.039 A 
ATOM     35  C   UNL A   1      40.214  25.067  26.440  1.00  0.00     0.014 A 
ATOM     36  C   UNL A   1      41.625  24.456  28.302  1.00  0.00     0.014 A 
ATOM     37  C   UNL A   1      40.184  26.383  26.899  1.00  0.00     0.010 A 
ATOM     38  C   UNL A   1      41.561  25.758  28.787  1.00  0.00     0.010 A 
ATOM     39  C   UNL A   1      40.866  26.731  28.072  1.00  0.00    -0.014 A 
BRANCH  39  40
ATOM     40  C   UNL A   1      40.812  28.114  28.542  1.00  0.00     0.031 A 
ATOM     41  C   UNL A   1      41.900  29.026  28.085  1.00  0.00     0.074 A 
ATOM     42  C   UNL A   1      39.782  28.641  29.234  1.00  0.00     0.049 A 
ATOM     43  N   UNL A   1      42.783  29.643  28.803  1.00  0.00    -0.248 NA
ATOM     44  C   UNL A   1      42.030  29.263  26.643  1.00  0.00     0.031 C 
ATOM     45  C   UNL A   1      38.473  28.052  29.523  1.00  0.00     0.029 A 
ATOM     46  N   UNL A   1      39.690  29.889  29.778  1.00  0.00    -0.354 N 
ATOM     47  C   UNL A   1      43.507  30.454  27.928  1.00  0.00     0.074 A 
ATOM     48  C   UNL A   1      43.058  30.114  26.601  1.00  0.00     0.031 C 
ATOM     49  C   UNL A   1      37.656  29.005  30.026  1.00  0.00     0.029 A 
ATOM     50  C   UNL A   1      38.427  30.217  30.241  1.00  0.00     0.049 A 
ATOM     51  H   UNL A   1      40.456  30.505  29.835  1.00  0.00     0.167 HD
ATOM     52  C   UNL A   1      44.314  31.457  28.375  1.00  0.00     0.037 A 
ATOM     53  C   UNL A   1      38.038  31.412  30.743  1.00  0.00     0.037 A 
ATOM     54  C   UNL A   1      44.642  31.295  29.767  1.00  0.00     0.049 A 
ATOM     55  C   UNL A   1      39.252  32.122  31.211  1.00  0.00     0.074 A 
ATOM     56  C   UNL A   1      45.296  30.330  30.510  1.00  0.00     0.029 A 
ATOM     57  N   UNL A   1      44.009  32.089  30.688  1.00  0.00    -0.354 N 
ATOM     58  N   UNL A   1      39.971  31.753  32.233  1.00  0.00    -0.248 NA
ATOM     59  C   UNL A   1      39.889  33.068  30.308  1.00  0.00     0.031 C 
ATOM     60  C   UNL A   1      44.613  30.300  31.762  1.00  0.00     0.029 A 
ATOM     61  C   UNL A   1      43.607  31.266  31.707  1.00  0.00     0.049 A 
ATOM     62  H   UNL A   1      43.869  33.062  30.630  1.00  0.00     0.167 HD
ATOM     63  C   UNL A   1      41.272  32.086  31.888  1.00  0.00     0.074 A 
ATOM     64  C   UNL A   1      41.143  32.998  30.758  1.00  0.00     0.031 C 
ATOM     65  C   UNL A   1      42.333  31.380  32.376  1.00  0.00     0.037 A 
BRANCH  52  66
ATOM     66  C   UNL A   1      44.594  32.749  27.642  1.00  0.00     0.064 A 
ATOM     67  C   UNL A   1      45.798  32.891  26.917  1.00  0.00     0.173 A 
ATOM     68  C   UNL A   1      43.879  33.944  27.863  1.00  0.00     0.173 A 
ATOM     69  F   UNL A   1      46.573  31.827  26.659  1.00  0.00    -0.203 F 
ATOM     70  C   UNL A   1      46.283  34.140  26.518  1.00  0.00     0.198 A 
ATOM     71  C   UNL A   1      44.338  35.183  27.414  1.00  0.00     0.198 A 
ATOM     72  F   UNL A   1      42.768  33.976  28.609  1.00  0.00    -0.203 F 
ATOM     73  F   UNL A   1      47.490  34.234  25.945  1.00  0.00    -0.200 F 
ATOM     74  C   UNL A   1      45.555  35.286  26.772  1.00  0.00     0.200 A 
ATOM     75  F   UNL A   1      43.626  36.286  27.682  1.00  0.00    -0.200 F 
ATOM     76  F   UNL A   1      46.043  36.490  26.445  1.00  0.00    -0.200 F 
ENDBRANCH  52  66
BRANCH  53  77
ATOM     77  C   UNL A   1      36.724  32.079  30.617  1.00  0.00     0.064 A 
ATOM     78  C   UNL A   1      35.826  32.125  31.695  1.00  0.00     0.173 A 
ATOM     79  C   UNL A   1      36.447  32.928  29.529  1.00  0.00     0.173 A 
ATOM     80  F   UNL A   1      36.043  31.378  32.787  1.00  0.00    -0.203 F 
ATOM     81  C   UNL A   1      34.731  32.993  31.696  1.00  0.00     0.198 A 
ATOM     82  C   UNL A   1      35.348  33.788  29.529  1.00  0.00     0.198 A 
ATOM     83  F   UNL A   1      37.288  33.010  28.489  1.00  0.00    -0.203 F 
ATOM     84  F   UNL A   1      33.932  33.059  32.771  1.00  0.00    -0.200 F 
ATOM     85  C   UNL A   1      34.500  33.832  30.619  1.00  0.00     0.200 A 
ATOM     86  F   UNL A   1      35.157  34.621  28.496  1.00  0.00    -0.200 F 
ATOM     87  F   UNL A   1      33.488  34.711  30.649  1.00  0.00    -0.200 F 
ENDBRANCH  53  77
BRANCH  65  88
ATOM     88  C   UNL A   1      42.082  30.430  33.512  1.00  0.00     0.064 A 
ATOM     89  C   UNL A   1      41.717  29.084  33.334  1.00  0.00     0.173 A 
ATOM     90  C   UNL A   1      42.371  30.852  34.816  1.00  0.00     0.173 A 
ATOM     91  F   UNL A   1      41.523  28.581  32.108  1.00  0.00    -0.203 F 
ATOM     92  C   UNL A   1      41.606  28.216  34.417  1.00  0.00     0.198 A 
ATOM     93  C   UNL A   1      42.296  29.973  35.893  1.00  0.00     0.198 A 
ATOM     94  F   UNL A   1      42.782  32.111  35.040  1.00  0.00    -0.203 F 
ATOM     95  F   UNL A   1      41.248  26.937  34.220  1.00  0.00    -0.200 F 
ATOM     96  C   UNL A   1      41.904  28.659  35.694  1.00  0.00     0.200 A 
ATOM     97  F   UNL A   1      42.632  30.392  37.121  1.00  0.00    -0.200 F 
ATOM     98  F   UNL A   1      41.843  27.811  36.732  1.00  0.00    -0.200 F 
ENDBRANCH  65  88
ENDBRANCH  39  40
ENDBRANCH  31  34
ENDBRANCH  29  30
ENDBRANCH  28  29
ENDBRANCH  27  28
ENDBRANCH   1  27
TORSDOF 15
ENDMDL
