MODEL 1
REMARK VINA RESULT:     -12.6      0.000      0.000
REMARK SMILES Cc1nc(-c2ccc(OCC(=O)NCCCCNC(=O)c3ccc(-c4c5nc(c(-c6c(F)c(F)c(F)c(F)c6F)c6ccc([nH]6)c(-c6c(F)c(F)c(F)c(F)c6F)c6nc(c(-c7c(F)c(F)c(F)c(F)c7F)c7ccc4[nH]7)C=C6)C=C5)cc3)cc2)[nH]c1C
REMARK SMILES IDX 15 1 14 2 13 3 11 4 12 5 10 7 9 8 8 9 5 10 6 11 85 12 7 13
REMARK SMILES IDX 84 14 4 15 1 16 2 17 3 18 87 19 86 20 88 21 16 23 17 24
REMARK SMILES IDX 18 25 19 26 20 28 21 29 22 30 83 31 23 32 82 33 24 34 25 35
REMARK SMILES IDX 26 36 76 37 27 38 81 39 75 40 77 41 28 42 80 43 74 44 73 45
REMARK SMILES IDX 29 47 61 48 41 49 60 50 42 51 45 52 59 53 78 54 43 55 44 56
REMARK SMILES IDX 58 58 79 59 46 60 30 61 31 62 39 63 32 64 33 65 37 66 40 67
REMARK SMILES IDX 34 68 35 69 38 70 36 71 62 72 63 73 71 74 64 75 65 76 69 77
REMARK SMILES IDX 72 78 66 79 67 80 70 81 68 82 47 83 48 84 56 85 49 86 50 87
REMARK SMILES IDX 54 88 57 89 51 90 52 91 55 92 53 93
REMARK H PARENT 13 6 86 22 18 27 77 46 45 57
REMARK Flexibility Score: inf
ROOT
ATOM      1  C   UNL A   1      31.645  28.049  26.882  1.00  0.00     0.023 C 
ENDROOT
BRANCH   1   2
ATOM      2  C   UNL A   1      32.233  26.699  26.475  1.00  0.00     0.116 C 
BRANCH   2   3
ATOM      3  N   UNL A   1      31.500  25.583  27.039  1.00  0.00    -0.353 N 
ATOM      4  C   UNL A   1      31.100  24.433  26.419  1.00  0.00     0.257 C 
ATOM      5  O   UNL A   1      30.507  23.580  27.083  1.00  0.00    -0.271 OA
ATOM      6  H   UNL A   1      31.258  25.664  27.989  1.00  0.00     0.163 HD
BRANCH   4   7
ATOM      7  C   UNL A   1      31.429  24.214  24.938  1.00  0.00     0.329 C 
BRANCH   7   8
ATOM      8  O   UNL A   1      30.377  24.459  24.017  1.00  0.00    -0.484 OA
BRANCH   8   9
ATOM      9  C   UNL A   1      30.203  25.739  23.573  1.00  0.00     0.120 A 
ATOM     10  C   UNL A   1      29.568  28.353  22.756  1.00  0.00     0.017 A 
ATOM     11  C   UNL A   1      28.661  27.614  23.520  1.00  0.00     0.016 A 
ATOM     12  C   UNL A   1      30.799  27.780  22.416  1.00  0.00     0.016 A 
ATOM     13  C   UNL A   1      28.976  26.313  23.918  1.00  0.00     0.047 A 
ATOM     14  C   UNL A   1      31.119  26.484  22.831  1.00  0.00     0.047 A 
BRANCH  10  15
ATOM     15  C   UNL A   1      29.261  29.721  22.366  1.00  0.00     0.137 A 
ATOM     16  C   UNL A   1      27.867  32.192  20.229  1.00  0.00     0.069 C 
ATOM     17  C   UNL A   1      28.532  31.462  21.329  1.00  0.00     0.059 A 
ATOM     18  N   UNL A   1      28.752  30.110  21.216  1.00  0.00    -0.234 NA
ATOM     19  C   UNL A   1      28.984  31.922  22.550  1.00  0.00     0.035 A 
ATOM     20  N   UNL A   1      29.451  30.802  23.191  1.00  0.00    -0.342 N 
ATOM     21  C   UNL A   1      29.002  33.269  23.160  1.00  0.00     0.066 C 
ATOM     22  H   UNL A   1      29.853  30.778  24.090  1.00  0.00     0.168 HD
ENDBRANCH  10  15
ENDBRANCH   8   9
ENDBRANCH   7   8
ENDBRANCH   4   7
ENDBRANCH   2   3
ENDBRANCH   1   2
BRANCH   1  23
ATOM     23  C   UNL A   1      31.640  29.114  25.782  1.00  0.00     0.023 C 
BRANCH  23  24
ATOM     24  C   UNL A   1      32.865  30.019  25.738  1.00  0.00     0.116 C 
BRANCH  24  25
ATOM     25  N   UNL A   1      32.608  31.356  26.250  1.00  0.00    -0.352 N 
ATOM     26  C   UNL A   1      33.290  32.066  27.209  1.00  0.00     0.251 C 
ATOM     27  H   UNL A   1      31.835  31.817  25.855  1.00  0.00     0.163 HD
ATOM     28  O   UNL A   1      32.850  33.141  27.607  1.00  0.00    -0.269 OA
BRANCH  26  29
ATOM     29  C   UNL A   1      34.536  31.523  27.793  1.00  0.00     0.039 A 
ATOM     30  C   UNL A   1      35.627  32.379  27.963  1.00  0.00     0.014 A 
ATOM     31  C   UNL A   1      34.630  30.184  28.181  1.00  0.00     0.014 A 
ATOM     32  C   UNL A   1      36.785  31.911  28.589  1.00  0.00     0.010 A 
ATOM     33  C   UNL A   1      35.754  29.740  28.874  1.00  0.00     0.010 A 
ATOM     34  C   UNL A   1      36.844  30.599  29.087  1.00  0.00    -0.014 A 
BRANCH  34  35
ATOM     35  C   UNL A   1      38.028  30.113  29.843  1.00  0.00     0.031 A 
ATOM     36  C   UNL A   1      38.280  30.590  31.247  1.00  0.00     0.074 A 
ATOM     37  C   UNL A   1      38.912  29.294  29.243  1.00  0.00     0.049 A 
ATOM     38  N   UNL A   1      39.291  30.335  32.040  1.00  0.00    -0.248 NA
ATOM     39  C   UNL A   1      37.276  31.492  31.829  1.00  0.00     0.031 C 
ATOM     40  C   UNL A   1      38.806  28.796  27.870  1.00  0.00     0.029 A 
ATOM     41  N   UNL A   1      40.083  28.743  29.704  1.00  0.00    -0.354 N 
ATOM     42  C   UNL A   1      39.051  31.054  33.203  1.00  0.00     0.074 A 
ATOM     43  C   UNL A   1      37.829  31.800  32.994  1.00  0.00     0.031 C 
ATOM     44  C   UNL A   1      39.854  27.998  27.610  1.00  0.00     0.029 A 
ATOM     45  C   UNL A   1      40.728  27.962  28.777  1.00  0.00     0.049 A 
ATOM     46  H   UNL A   1      40.428  28.896  30.614  1.00  0.00     0.167 HD
ATOM     47  C   UNL A   1      39.772  31.073  34.350  1.00  0.00     0.037 A 
ATOM     48  C   UNL A   1      41.898  27.298  28.856  1.00  0.00     0.037 A 
ATOM     49  C   UNL A   1      40.978  30.316  34.562  1.00  0.00     0.049 A 
ATOM     50  C   UNL A   1      42.688  27.351  30.135  1.00  0.00     0.074 A 
ATOM     51  C   UNL A   1      41.748  30.224  35.709  1.00  0.00     0.029 A 
ATOM     52  N   UNL A   1      41.594  29.524  33.603  1.00  0.00    -0.354 N 
ATOM     53  N   UNL A   1      42.415  27.978  31.253  1.00  0.00    -0.248 NA
ATOM     54  C   UNL A   1      43.950  26.597  30.166  1.00  0.00     0.031 C 
ATOM     55  C   UNL A   1      42.859  29.423  35.426  1.00  0.00     0.029 A 
ATOM     56  C   UNL A   1      42.749  28.963  34.124  1.00  0.00     0.049 A 
ATOM     57  H   UNL A   1      41.259  29.383  32.688  1.00  0.00     0.167 HD
ATOM     58  C   UNL A   1      43.447  27.668  32.129  1.00  0.00     0.074 A 
ATOM     59  C   UNL A   1      44.347  26.787  31.416  1.00  0.00     0.031 C 
ATOM     60  C   UNL A   1      43.632  28.077  33.408  1.00  0.00     0.037 A 
BRANCH  47  61
ATOM     61  C   UNL A   1      39.275  31.944  35.470  1.00  0.00     0.064 A 
ATOM     62  C   UNL A   1      38.429  31.445  36.473  1.00  0.00     0.173 A 
ATOM     63  C   UNL A   1      39.682  33.283  35.565  1.00  0.00     0.173 A 
ATOM     64  F   UNL A   1      38.001  30.174  36.426  1.00  0.00    -0.203 F 
ATOM     65  C   UNL A   1      37.984  32.262  37.509  1.00  0.00     0.198 A 
ATOM     66  C   UNL A   1      39.263  34.088  36.621  1.00  0.00     0.198 A 
ATOM     67  F   UNL A   1      40.496  33.811  34.638  1.00  0.00    -0.203 F 
ATOM     68  F   UNL A   1      37.134  31.778  38.426  1.00  0.00    -0.200 F 
ATOM     69  C   UNL A   1      38.407  33.580  37.587  1.00  0.00     0.200 A 
ATOM     70  F   UNL A   1      39.686  35.357  36.702  1.00  0.00    -0.200 F 
ATOM     71  F   UNL A   1      37.985  34.364  38.589  1.00  0.00    -0.200 F 
ENDBRANCH  47  61
BRANCH  48  72
ATOM     72  C   UNL A   1      42.386  26.511  27.692  1.00  0.00     0.064 A 
ATOM     73  C   UNL A   1      41.918  25.211  27.453  1.00  0.00     0.173 A 
ATOM     74  C   UNL A   1      43.336  27.034  26.802  1.00  0.00     0.173 A 
ATOM     75  F   UNL A   1      41.024  24.658  28.287  1.00  0.00    -0.203 F 
ATOM     76  C   UNL A   1      42.398  24.456  26.385  1.00  0.00     0.198 A 
ATOM     77  C   UNL A   1      43.792  26.290  25.716  1.00  0.00     0.198 A 
ATOM     78  F   UNL A   1      43.814  28.274  26.981  1.00  0.00    -0.203 F 
ATOM     79  F   UNL A   1      41.971  23.198  26.211  1.00  0.00    -0.200 F 
ATOM     80  C   UNL A   1      43.331  24.998  25.513  1.00  0.00     0.200 A 
ATOM     81  F   UNL A   1      44.680  26.824  24.866  1.00  0.00    -0.200 F 
ATOM     82  F   UNL A   1      43.790  24.274  24.484  1.00  0.00    -0.200 F 
ENDBRANCH  48  72
BRANCH  60  83
ATOM     83  C   UNL A   1      44.829  27.540  34.140  1.00  0.00     0.064 A 
ATOM     84  C   UNL A   1      46.044  28.241  34.187  1.00  0.00     0.173 A 
ATOM     85  C   UNL A   1      44.745  26.328  34.840  1.00  0.00     0.173 A 
ATOM     86  F   UNL A   1      46.182  29.398  33.523  1.00  0.00    -0.203 F 
ATOM     87  C   UNL A   1      47.137  27.732  34.884  1.00  0.00     0.198 A 
ATOM     88  C   UNL A   1      45.828  25.838  35.564  1.00  0.00     0.198 A 
ATOM     89  F   UNL A   1      43.604  25.621  34.834  1.00  0.00    -0.203 F 
ATOM     90  F   UNL A   1      48.303  28.393  34.871  1.00  0.00    -0.200 F 
ATOM     91  C   UNL A   1      47.026  26.537  35.579  1.00  0.00     0.200 A 
ATOM     92  F   UNL A   1      45.713  24.692  36.248  1.00  0.00    -0.200 F 
ATOM     93  F   UNL A   1      48.076  26.054  36.257  1.00  0.00    -0.200 F 
ENDBRANCH  60  83
ENDBRANCH  34  35
ENDBRANCH  26  29
ENDBRANCH  24  25
ENDBRANCH  23  24
ENDBRANCH   1  23
TORSDOF 14
ENDMDL
MODEL 2
REMARK VINA RESULT:     -12.3      4.254      7.783
REMARK SMILES Cc1nc(-c2ccc(OCC(=O)NCCCCNC(=O)c3ccc(-c4c5nc(c(-c6c(F)c(F)c(F)c(F)c6F)c6ccc([nH]6)c(-c6c(F)c(F)c(F)c(F)c6F)c6nc(c(-c7c(F)c(F)c(F)c(F)c7F)c7ccc4[nH]7)C=C6)C=C5)cc3)cc2)[nH]c1C
REMARK SMILES IDX 15 1 14 2 13 3 11 4 12 5 10 7 9 8 8 9 5 10 6 11 85 12 7 13
REMARK SMILES IDX 84 14 4 15 1 16 2 17 3 18 87 19 86 20 88 21 16 23 17 24
REMARK SMILES IDX 18 25 19 26 20 28 21 29 22 30 83 31 23 32 82 33 24 34 25 35
REMARK SMILES IDX 26 36 76 37 27 38 81 39 75 40 77 41 28 42 80 43 74 44 73 45
REMARK SMILES IDX 29 47 61 48 41 49 60 50 42 51 45 52 59 53 78 54 43 55 44 56
REMARK SMILES IDX 58 58 79 59 46 60 30 61 31 62 39 63 32 64 33 65 37 66 40 67
REMARK SMILES IDX 34 68 35 69 38 70 36 71 62 72 63 73 71 74 64 75 65 76 69 77
REMARK SMILES IDX 72 78 66 79 67 80 70 81 68 82 47 83 48 84 56 85 49 86 50 87
REMARK SMILES IDX 54 88 57 89 51 90 52 91 55 92 53 93
REMARK H PARENT 13 6 86 22 18 27 77 46 45 57
REMARK Flexibility Score: inf
ROOT
ATOM      1  C   UNL A   1      34.407  35.341  28.672  1.00  0.00     0.023 C 
ENDROOT
BRANCH   1   2
ATOM      2  C   UNL A   1      33.252  35.338  29.672  1.00  0.00     0.116 C 
BRANCH   2   3
ATOM      3  N   UNL A   1      33.065  36.629  30.305  1.00  0.00    -0.353 N 
ATOM      4  C   UNL A   1      33.239  36.961  31.618  1.00  0.00     0.257 C 
ATOM      5  O   UNL A   1      33.058  38.132  31.960  1.00  0.00    -0.271 OA
ATOM      6  H   UNL A   1      32.776  37.360  29.712  1.00  0.00     0.163 HD
BRANCH   4   7
ATOM      7  C   UNL A   1      33.688  35.891  32.620  1.00  0.00     0.329 C 
BRANCH   7   8
ATOM      8  O   UNL A   1      35.027  35.985  33.082  1.00  0.00    -0.484 OA
BRANCH   8   9
ATOM      9  C   UNL A   1      35.734  34.825  33.227  1.00  0.00     0.120 A 
ATOM     10  C   UNL A   1      37.216  32.436  33.234  1.00  0.00     0.017 A 
ATOM     11  C   UNL A   1      37.053  33.160  32.050  1.00  0.00     0.016 A 
ATOM     12  C   UNL A   1      36.644  32.922  34.415  1.00  0.00     0.016 A 
ATOM     13  C   UNL A   1      36.311  34.343  32.048  1.00  0.00     0.047 A 
ATOM     14  C   UNL A   1      35.915  34.115  34.413  1.00  0.00     0.047 A 
BRANCH  10  15
ATOM     15  C   UNL A   1      38.017  31.221  33.251  1.00  0.00     0.137 A 
ATOM     16  C   UNL A   1      38.662  27.815  32.474  1.00  0.00     0.069 C 
ATOM     17  C   UNL A   1      38.737  29.214  32.946  1.00  0.00     0.059 A 
ATOM     18  N   UNL A   1      37.632  30.027  32.853  1.00  0.00    -0.234 NA
ATOM     19  C   UNL A   1      39.802  29.910  33.482  1.00  0.00     0.035 A 
ATOM     20  N   UNL A   1      39.322  31.182  33.676  1.00  0.00    -0.342 N 
ATOM     21  C   UNL A   1      41.189  29.513  33.802  1.00  0.00     0.066 C 
ATOM     22  H   UNL A   1      39.827  31.937  34.055  1.00  0.00     0.168 HD
ENDBRANCH  10  15
ENDBRANCH   8   9
ENDBRANCH   7   8
ENDBRANCH   4   7
ENDBRANCH   2   3
ENDBRANCH   1   2
BRANCH   1  23
ATOM     23  C   UNL A   1      34.714  33.985  28.029  1.00  0.00     0.023 C 
BRANCH  23  24
ATOM     24  C   UNL A   1      34.486  32.770  28.920  1.00  0.00     0.116 C 
BRANCH  24  25
ATOM     25  N   UNL A   1      33.751  31.704  28.256  1.00  0.00    -0.352 N 
ATOM     26  C   UNL A   1      34.200  30.483  27.812  1.00  0.00     0.251 C 
ATOM     27  H   UNL A   1      32.796  31.883  28.102  1.00  0.00     0.163 HD
ATOM     28  O   UNL A   1      33.458  29.757  27.156  1.00  0.00    -0.269 OA
BRANCH  26  29
ATOM     29  C   UNL A   1      35.588  30.054  28.090  1.00  0.00     0.039 A 
ATOM     30  C   UNL A   1      36.563  30.258  27.110  1.00  0.00     0.014 A 
ATOM     31  C   UNL A   1      35.933  29.465  29.309  1.00  0.00     0.014 A 
ATOM     32  C   UNL A   1      37.896  29.938  27.382  1.00  0.00     0.010 A 
ATOM     33  C   UNL A   1      37.271  29.219  29.606  1.00  0.00     0.010 A 
ATOM     34  C   UNL A   1      38.269  29.455  28.647  1.00  0.00    -0.014 A 
BRANCH  34  35
ATOM     35  C   UNL A   1      39.693  29.203  28.987  1.00  0.00     0.031 A 
ATOM     36  C   UNL A   1      40.496  30.246  29.714  1.00  0.00     0.074 A 
ATOM     37  C   UNL A   1      40.283  28.061  28.585  1.00  0.00     0.049 A 
ATOM     38  N   UNL A   1      41.766  30.239  30.036  1.00  0.00    -0.248 NA
ATOM     39  C   UNL A   1      39.785  31.471  30.109  1.00  0.00     0.031 C 
ATOM     40  C   UNL A   1      39.627  26.990  27.833  1.00  0.00     0.029 A 
ATOM     41  N   UNL A   1      41.573  27.614  28.738  1.00  0.00    -0.354 N 
ATOM     42  C   UNL A   1      42.006  31.458  30.657  1.00  0.00     0.074 A 
ATOM     43  C   UNL A   1      40.765  32.203  30.617  1.00  0.00     0.031 C 
ATOM     44  C   UNL A   1      40.510  26.002  27.612  1.00  0.00     0.029 A 
ATOM     45  C   UNL A   1      41.803  26.387  28.165  1.00  0.00     0.049 A 
ATOM     46  H   UNL A   1      42.267  28.125  29.215  1.00  0.00     0.167 HD
ATOM     47  C   UNL A   1      43.149  31.906  31.229  1.00  0.00     0.037 A 
ATOM     48  C   UNL A   1      42.935  25.658  28.085  1.00  0.00     0.037 A 
ATOM     49  C   UNL A   1      44.377  31.155  31.283  1.00  0.00     0.049 A 
ATOM     50  C   UNL A   1      44.195  26.188  28.713  1.00  0.00     0.074 A 
ATOM     51  C   UNL A   1      45.572  31.499  31.890  1.00  0.00     0.029 A 
ATOM     52  N   UNL A   1      44.568  29.910  30.702  1.00  0.00    -0.354 N 
ATOM     53  N   UNL A   1      44.392  27.311  29.359  1.00  0.00    -0.248 NA
ATOM     54  C   UNL A   1      45.394  25.343  28.605  1.00  0.00     0.031 C 
ATOM     55  C   UNL A   1      46.502  30.488  31.628  1.00  0.00     0.029 A 
ATOM     56  C   UNL A   1      45.870  29.484  30.913  1.00  0.00     0.049 A 
ATOM     57  H   UNL A   1      43.880  29.403  30.212  1.00  0.00     0.167 HD
ATOM     58  C   UNL A   1      45.720  27.293  29.763  1.00  0.00     0.074 A 
ATOM     59  C   UNL A   1      46.280  26.041  29.300  1.00  0.00     0.031 C 
ATOM     60  C   UNL A   1      46.413  28.230  30.456  1.00  0.00     0.037 A 
BRANCH  47  61
ATOM     61  C   UNL A   1      43.128  33.277  31.844  1.00  0.00     0.064 A 
ATOM     62  C   UNL A   1      42.873  33.469  33.211  1.00  0.00     0.173 A 
ATOM     63  C   UNL A   1      43.409  34.411  31.066  1.00  0.00     0.173 A 
ATOM     64  F   UNL A   1      42.590  32.421  33.999  1.00  0.00    -0.203 F 
ATOM     65  C   UNL A   1      42.866  34.745  33.768  1.00  0.00     0.198 A 
ATOM     66  C   UNL A   1      43.435  35.683  31.633  1.00  0.00     0.198 A 
ATOM     67  F   UNL A   1      43.667  34.286  29.756  1.00  0.00    -0.203 F 
ATOM     68  F   UNL A   1      42.567  34.908  35.065  1.00  0.00    -0.200 F 
ATOM     69  C   UNL A   1      43.155  35.850  32.981  1.00  0.00     0.200 A 
ATOM     70  F   UNL A   1      43.730  36.746  30.874  1.00  0.00    -0.200 F 
ATOM     71  F   UNL A   1      43.157  37.077  33.520  1.00  0.00    -0.200 F 
ENDBRANCH  47  61
BRANCH  48  72
ATOM     72  C   UNL A   1      42.922  24.339  27.397  1.00  0.00     0.064 A 
ATOM     73  C   UNL A   1      43.254  24.230  26.040  1.00  0.00     0.173 A 
ATOM     74  C   UNL A   1      42.567  23.164  28.077  1.00  0.00     0.173 A 
ATOM     75  F   UNL A   1      43.581  25.328  25.341  1.00  0.00    -0.203 F 
ATOM     76  C   UNL A   1      43.208  23.003  25.382  1.00  0.00     0.198 A 
ATOM     77  C   UNL A   1      42.552  21.933  27.427  1.00  0.00     0.198 A 
ATOM     78  F   UNL A   1      42.244  23.211  29.378  1.00  0.00    -0.203 F 
ATOM     79  F   UNL A   1      43.481  22.937  24.072  1.00  0.00    -0.200 F 
ATOM     80  C   UNL A   1      42.864  21.853  26.077  1.00  0.00     0.200 A 
ATOM     81  F   UNL A   1      42.235  20.822  28.106  1.00  0.00    -0.200 F 
ATOM     82  F   UNL A   1      42.823  20.673  25.446  1.00  0.00    -0.200 F 
ENDBRANCH  48  72
BRANCH  60  83
ATOM     83  C   UNL A   1      47.843  27.920  30.799  1.00  0.00     0.064 A 
ATOM     84  C   UNL A   1      48.904  28.296  29.961  1.00  0.00     0.173 A 
ATOM     85  C   UNL A   1      48.157  27.276  32.005  1.00  0.00     0.173 A 
ATOM     86  F   UNL A   1      48.657  28.901  28.790  1.00  0.00    -0.203 F 
ATOM     87  C   UNL A   1      50.222  28.012  30.305  1.00  0.00     0.198 A 
ATOM     88  C   UNL A   1      49.478  27.024  32.363  1.00  0.00     0.198 A 
ATOM     89  F   UNL A   1      47.181  26.901  32.847  1.00  0.00    -0.203 F 
ATOM     90  F   UNL A   1      51.216  28.334  29.465  1.00  0.00    -0.200 F 
ATOM     91  C   UNL A   1      50.510  27.386  31.509  1.00  0.00     0.200 A 
ATOM     92  F   UNL A   1      49.754  26.433  33.533  1.00  0.00    -0.200 F 
ATOM     93  F   UNL A   1      51.780  27.122  31.843  1.00  0.00    -0.200 F 
ENDBRANCH  60  83
ENDBRANCH  34  35
ENDBRANCH  26  29
ENDBRANCH  24  25
ENDBRANCH  23  24
ENDBRANCH   1  23
TORSDOF 14
ENDMDL
MODEL 3
REMARK VINA RESULT:     -12.2      0.681      7.401
REMARK SMILES Cc1nc(-c2ccc(OCC(=O)NCCCCNC(=O)c3ccc(-c4c5nc(c(-c6c(F)c(F)c(F)c(F)c6F)c6ccc([nH]6)c(-c6c(F)c(F)c(F)c(F)c6F)c6nc(c(-c7c(F)c(F)c(F)c(F)c7F)c7ccc4[nH]7)C=C6)C=C5)cc3)cc2)[nH]c1C
REMARK SMILES IDX 15 1 14 2 13 3 11 4 12 5 10 7 9 8 8 9 5 10 6 11 85 12 7 13
REMARK SMILES IDX 84 14 4 15 1 16 2 17 3 18 87 19 86 20 88 21 16 23 17 24
REMARK SMILES IDX 18 25 19 26 20 28 21 29 22 30 83 31 23 32 82 33 24 34 25 35
REMARK SMILES IDX 26 36 76 37 27 38 81 39 75 40 77 41 28 42 80 43 74 44 73 45
REMARK SMILES IDX 29 47 61 48 41 49 60 50 42 51 45 52 59 53 78 54 43 55 44 56
REMARK SMILES IDX 58 58 79 59 46 60 30 61 31 62 39 63 32 64 33 65 37 66 40 67
REMARK SMILES IDX 34 68 35 69 38 70 36 71 62 72 63 73 71 74 64 75 65 76 69 77
REMARK SMILES IDX 72 78 66 79 67 80 70 81 68 82 47 83 48 84 56 85 49 86 50 87
REMARK SMILES IDX 54 88 57 89 51 90 52 91 55 92 53 93
REMARK H PARENT 13 6 86 22 18 27 77 46 45 57
REMARK Flexibility Score: inf
ROOT
ATOM      1  C   UNL A   1      32.328  26.922  26.582  1.00  0.00     0.023 C 
ENDROOT
BRANCH   1   2
ATOM      2  C   UNL A   1      33.368  26.200  25.728  1.00  0.00     0.116 C 
BRANCH   2   3
ATOM      3  N   UNL A   1      33.289  24.758  25.863  1.00  0.00    -0.353 N 
ATOM      4  C   UNL A   1      32.727  23.857  25.004  1.00  0.00     0.257 C 
ATOM      5  O   UNL A   1      32.788  22.658  25.283  1.00  0.00    -0.271 OA
ATOM      6  H   UNL A   1      33.691  24.381  26.678  1.00  0.00     0.163 HD
BRANCH   4   7
ATOM      7  C   UNL A   1      32.075  24.349  23.706  1.00  0.00     0.329 C 
BRANCH   7   8
ATOM      8  O   UNL A   1      30.680  24.600  23.760  1.00  0.00    -0.484 OA
BRANCH   8   9
ATOM      9  C   UNL A   1      30.246  25.862  23.465  1.00  0.00     0.120 A 
ATOM     10  C   UNL A   1      29.625  28.511  22.757  1.00  0.00     0.017 A 
ATOM     11  C   UNL A   1      30.850  27.952  22.386  1.00  0.00     0.016 A 
ATOM     12  C   UNL A   1      28.709  27.732  23.473  1.00  0.00     0.016 A 
ATOM     13  C   UNL A   1      31.160  26.638  22.745  1.00  0.00     0.047 A 
ATOM     14  C   UNL A   1      29.014  26.411  23.816  1.00  0.00     0.047 A 
BRANCH  10  15
ATOM     15  C   UNL A   1      29.282  29.868  22.357  1.00  0.00     0.137 A 
ATOM     16  C   UNL A   1      27.769  32.281  20.235  1.00  0.00     0.069 C 
ATOM     17  C   UNL A   1      28.486  31.579  21.321  1.00  0.00     0.059 A 
ATOM     18  N   UNL A   1      28.723  30.229  21.222  1.00  0.00    -0.234 NA
ATOM     19  C   UNL A   1      28.978  32.067  22.515  1.00  0.00     0.035 A 
ATOM     20  N   UNL A   1      29.486  30.965  23.157  1.00  0.00    -0.342 N 
ATOM     21  C   UNL A   1      28.998  33.424  23.102  1.00  0.00     0.066 C 
ATOM     22  H   UNL A   1      29.923  30.963  24.039  1.00  0.00     0.168 HD
ENDBRANCH  10  15
ENDBRANCH   8   9
ENDBRANCH   7   8
ENDBRANCH   4   7
ENDBRANCH   2   3
ENDBRANCH   1   2
BRANCH   1  23
ATOM     23  C   UNL A   1      31.801  28.235  25.994  1.00  0.00     0.023 C 
BRANCH  23  24
ATOM     24  C   UNL A   1      32.859  29.285  25.681  1.00  0.00     0.116 C 
BRANCH  24  25
ATOM     25  N   UNL A   1      32.473  30.626  26.092  1.00  0.00    -0.352 N 
ATOM     26  C   UNL A   1      33.082  31.470  26.989  1.00  0.00     0.251 C 
ATOM     27  H   UNL A   1      31.659  30.979  25.667  1.00  0.00     0.163 HD
ATOM     28  O   UNL A   1      32.539  32.525  27.306  1.00  0.00    -0.269 OA
BRANCH  26  29
ATOM     29  C   UNL A   1      34.374  31.097  27.604  1.00  0.00     0.039 A 
ATOM     30  C   UNL A   1      35.328  32.094  27.823  1.00  0.00     0.014 A 
ATOM     31  C   UNL A   1      34.644  29.777  27.975  1.00  0.00     0.014 A 
ATOM     32  C   UNL A   1      36.521  31.781  28.478  1.00  0.00     0.010 A 
ATOM     33  C   UNL A   1      35.799  29.482  28.697  1.00  0.00     0.010 A 
ATOM     34  C   UNL A   1      36.750  30.481  28.959  1.00  0.00    -0.014 A 
BRANCH  34  35
ATOM     35  C   UNL A   1      37.967  30.152  29.745  1.00  0.00     0.031 A 
ATOM     36  C   UNL A   1      38.990  29.196  29.196  1.00  0.00     0.074 A 
ATOM     37  C   UNL A   1      38.122  30.664  30.981  1.00  0.00     0.049 A 
ATOM     38  N   UNL A   1      40.078  28.732  29.760  1.00  0.00    -0.248 NA
ATOM     39  C   UNL A   1      38.745  28.669  27.846  1.00  0.00     0.031 C 
ATOM     40  C   UNL A   1      37.180  31.567  31.646  1.00  0.00     0.029 A 
ATOM     41  N   UNL A   1      39.120  30.489  31.908  1.00  0.00    -0.354 N 
ATOM     42  C   UNL A   1      40.636  27.854  28.841  1.00  0.00     0.074 A 
ATOM     43  C   UNL A   1      39.739  27.805  27.705  1.00  0.00     0.031 C 
ATOM     44  C   UNL A   1      37.656  31.883  32.860  1.00  0.00     0.029 A 
ATOM     45  C   UNL A   1      38.912  31.173  33.080  1.00  0.00     0.049 A 
ATOM     46  H   UNL A   1      39.911  29.925  31.746  1.00  0.00     0.167 HD
ATOM     47  C   UNL A   1      41.801  27.169  28.925  1.00  0.00     0.037 A 
ATOM     48  C   UNL A   1      39.645  31.216  34.210  1.00  0.00     0.037 A 
ATOM     49  C   UNL A   1      42.700  27.233  30.048  1.00  0.00     0.049 A 
ATOM     50  C   UNL A   1      40.927  30.430  34.284  1.00  0.00     0.074 A 
ATOM     51  C   UNL A   1      43.932  26.621  30.203  1.00  0.00     0.029 A 
ATOM     52  N   UNL A   1      42.461  27.948  31.212  1.00  0.00    -0.354 N 
ATOM     53  N   UNL A   1      41.480  29.659  33.380  1.00  0.00    -0.248 NA
ATOM     54  C   UNL A   1      41.691  30.526  35.536  1.00  0.00     0.031 C 
ATOM     55  C   UNL A   1      44.411  26.919  31.482  1.00  0.00     0.029 A 
ATOM     56  C   UNL A   1      43.509  27.770  32.101  1.00  0.00     0.049 A 
ATOM     57  H   UNL A   1      41.663  28.501  31.382  1.00  0.00     0.167 HD
ATOM     58  C   UNL A   1      42.668  29.207  33.938  1.00  0.00     0.074 A 
ATOM     59  C   UNL A   1      42.763  29.800  35.255  1.00  0.00     0.031 C 
ATOM     60  C   UNL A   1      43.597  28.376  33.406  1.00  0.00     0.037 A 
BRANCH  47  61
ATOM     61  C   UNL A   1      42.174  26.284  27.768  1.00  0.00     0.064 A 
ATOM     62  C   UNL A   1      43.074  26.706  26.777  1.00  0.00     0.173 A 
ATOM     63  C   UNL A   1      41.657  24.984  27.670  1.00  0.00     0.173 A 
ATOM     64  F   UNL A   1      43.592  27.943  26.816  1.00  0.00    -0.203 F 
ATOM     65  C   UNL A   1      43.416  25.872  25.716  1.00  0.00     0.198 A 
ATOM     66  C   UNL A   1      42.027  24.140  26.626  1.00  0.00     0.198 A 
ATOM     67  F   UNL A   1      40.798  24.526  28.593  1.00  0.00    -0.203 F 
ATOM     68  F   UNL A   1      44.236  26.316  24.753  1.00  0.00    -0.200 F 
ATOM     69  C   UNL A   1      42.899  24.587  25.645  1.00  0.00     0.200 A 
ATOM     70  F   UNL A   1      41.538  22.894  26.569  1.00  0.00    -0.200 F 
ATOM     71  F   UNL A   1      43.236  23.782  24.628  1.00  0.00    -0.200 F 
ENDBRANCH  47  61
BRANCH  48  72
ATOM     72  C   UNL A   1      39.194  32.047  35.358  1.00  0.00     0.064 A 
ATOM     73  C   UNL A   1      38.403  31.500  36.378  1.00  0.00     0.173 A 
ATOM     74  C   UNL A   1      39.533  33.405  35.455  1.00  0.00     0.173 A 
ATOM     75  F   UNL A   1      38.036  30.211  36.321  1.00  0.00    -0.203 F 
ATOM     76  C   UNL A   1      37.948  32.282  37.436  1.00  0.00     0.198 A 
ATOM     77  C   UNL A   1      39.104  34.179  36.530  1.00  0.00     0.198 A 
ATOM     78  F   UNL A   1      40.291  33.979  34.509  1.00  0.00    -0.203 F 
ATOM     79  F   UNL A   1      37.151  31.745  38.370  1.00  0.00    -0.200 F 
ATOM     80  C   UNL A   1      38.304  33.621  37.516  1.00  0.00     0.200 A 
ATOM     81  F   UNL A   1      39.464  35.468  36.612  1.00  0.00    -0.200 F 
ATOM     82  F   UNL A   1      37.869  34.373  38.536  1.00  0.00    -0.200 F 
ENDBRANCH  48  72
BRANCH  60  83
ATOM     83  C   UNL A   1      44.823  28.091  34.227  1.00  0.00     0.064 A 
ATOM     84  C   UNL A   1      45.959  28.914  34.173  1.00  0.00     0.173 A 
ATOM     85  C   UNL A   1      44.843  27.004  35.114  1.00  0.00     0.173 A 
ATOM     86  F   UNL A   1      45.996  29.958  33.331  1.00  0.00    -0.203 F 
ATOM     87  C   UNL A   1      47.079  28.640  34.954  1.00  0.00     0.198 A 
ATOM     88  C   UNL A   1      45.951  26.753  35.919  1.00  0.00     0.198 A 
ATOM     89  F   UNL A   1      43.781  26.190  35.211  1.00  0.00    -0.203 F 
ATOM     90  F   UNL A   1      48.171  29.409  34.846  1.00  0.00    -0.200 F 
ATOM     91  C   UNL A   1      47.071  27.567  35.832  1.00  0.00     0.200 A 
ATOM     92  F   UNL A   1      45.935  25.726  36.778  1.00  0.00    -0.200 F 
ATOM     93  F   UNL A   1      48.146  27.311  36.590  1.00  0.00    -0.200 F 
ENDBRANCH  60  83
ENDBRANCH  34  35
ENDBRANCH  26  29
ENDBRANCH  24  25
ENDBRANCH  23  24
ENDBRANCH   1  23
TORSDOF 14
ENDMDL
