MODEL 1
REMARK VINA RESULT:     -12.6      0.000      0.000
REMARK SMILES Cc1ccccc1N(CCC(=O)NCCCCNC(=O)c1ccc(-c2c3nc(c(-c4c(F)c(F)c(F)c(F)c4F)c4ccc([nH]4)c(-c4c(F)c(F)c(F)c(F)c4F)c4nc(c(-c5c(F)c(F)c(F)c(F)c5F)c5ccc2[nH]5)C=C4)C=C3)cc1)C(=O)[C@@H]1C=C[C@H]([NH3+])C1
REMARK SMILES IDX 14 1 13 2 11 3 12 4 10 6 9 7 8 8 7 9 1 10 2 11 3 12 4 13
REMARK SMILES IDX 6 14 5 15 84 16 85 17 86 18 87 19 91 20 88 21 89 22 90 23
REMARK SMILES IDX 15 27 16 28 17 29 18 30 19 31 20 33 21 34 22 35 83 36 23 37
REMARK SMILES IDX 82 38 24 39 25 40 26 41 76 42 27 43 81 44 75 45 77 46 28 47
REMARK SMILES IDX 80 48 74 49 73 50 29 52 61 53 41 54 60 55 42 56 45 57 59 58
REMARK SMILES IDX 78 59 43 60 44 61 58 63 79 64 46 65 30 66 31 67 39 68 32 69
REMARK SMILES IDX 33 70 37 71 40 72 34 73 35 74 38 75 36 76 62 77 63 78 71 79
REMARK SMILES IDX 64 80 65 81 69 82 72 83 66 84 67 85 70 86 68 87 47 88 48 89
REMARK SMILES IDX 56 90 49 91 50 92 54 93 57 94 51 95 52 96 55 97 53 98
REMARK H PARENT 13 5 90 24 90 25 90 26 18 32 77 51 45 62
REMARK Flexibility Score: inf
ROOT
ATOM      1  C   UNL A   1      34.555  30.318  27.617  1.00  0.00     0.116 C 
ENDROOT
BRANCH   1   2
ATOM      2  N   UNL A   1      33.282  29.614  27.572  1.00  0.00    -0.356 N 
ATOM      3  C   UNL A   1      32.948  28.374  27.129  1.00  0.00     0.221 C 
ATOM      4  O   UNL A   1      31.811  27.957  27.361  1.00  0.00    -0.275 OA
ATOM      5  H   UNL A   1      32.524  30.132  27.929  1.00  0.00     0.163 HD
BRANCH   3   6
ATOM      6  C   UNL A   1      33.919  27.529  26.347  1.00  0.00     0.122 C 
BRANCH   6   7
ATOM      7  C   UNL A   1      33.710  27.726  24.833  1.00  0.00     0.135 C 
BRANCH   7   8
ATOM      8  N   UNL A   1      32.770  26.741  24.225  1.00  0.00    -0.311 N 
BRANCH   8   9
ATOM      9  C   UNL A   1      33.161  25.295  24.395  1.00  0.00     0.047 A 
ATOM     10  C   UNL A   1      31.663  24.492  26.413  1.00  0.00     0.046 C 
ATOM     11  C   UNL A   1      32.589  24.304  25.240  1.00  0.00    -0.027 A 
ATOM     12  C   UNL A   1      32.916  22.925  25.042  1.00  0.00     0.005 A 
ATOM     13  C   UNL A   1      33.887  22.500  24.151  1.00  0.00     0.000 A 
ATOM     14  C   UNL A   1      34.214  24.801  23.566  1.00  0.00     0.026 A 
ATOM     15  C   UNL A   1      34.576  23.452  23.443  1.00  0.00     0.002 A 
ENDBRANCH   8   9
BRANCH   8  16
ATOM     16  C   UNL A   1      31.691  27.216  23.427  1.00  0.00     0.234 C 
ATOM     17  O   UNL A   1      31.645  27.115  22.198  1.00  0.00    -0.274 OA
BRANCH  16  18
ATOM     18  C   UNL A   1      30.463  27.936  24.088  1.00  0.00     0.108 C 
ATOM     19  C   UNL A   1      29.205  27.701  23.288  1.00  0.00    -0.012 C 
ATOM     20  C   UNL A   1      30.551  29.474  24.029  1.00  0.00     0.087 C 
ATOM     21  C   UNL A   1      28.844  28.782  22.582  1.00  0.00     0.033 C 
ATOM     22  C   UNL A   1      29.793  29.918  22.774  1.00  0.00     0.205 C 
BRANCH  22  23
ATOM     23  N   UNL A   1      30.672  30.067  21.623  1.00  0.00    -0.352 N 
ATOM     24  H   UNL A   1      31.207  29.209  21.491  1.00  0.00     0.345 HD
ATOM     25  H   UNL A   1      31.311  30.846  21.782  1.00  0.00     0.345 HD
ATOM     26  H   UNL A   1      30.113  30.250  20.790  1.00  0.00     0.345 HD
ENDBRANCH  22  23
ENDBRANCH  16  18
ENDBRANCH   8  16
ENDBRANCH   7   8
ENDBRANCH   6   7
ENDBRANCH   3   6
ENDBRANCH   1   2
BRANCH   1  27
ATOM     27  C   UNL A   1      34.505  31.798  27.999  1.00  0.00     0.023 C 
BRANCH  27  28
ATOM     28  C   UNL A   1      35.845  32.531  28.056  1.00  0.00     0.023 C 
BRANCH  28  29
ATOM     29  C   UNL A   1      35.892  33.791  28.904  1.00  0.00     0.116 C 
BRANCH  29  30
ATOM     30  N   UNL A   1      34.568  34.291  29.296  1.00  0.00    -0.352 N 
ATOM     31  C   UNL A   1      34.009  34.358  30.567  1.00  0.00     0.251 C 
ATOM     32  H   UNL A   1      34.002  34.624  28.562  1.00  0.00     0.163 HD
ATOM     33  O   UNL A   1      32.963  34.927  30.797  1.00  0.00    -0.269 OA
BRANCH  31  34
ATOM     34  C   UNL A   1      34.819  33.783  31.661  1.00  0.00     0.039 A 
ATOM     35  C   UNL A   1      35.848  34.591  32.152  1.00  0.00     0.014 A 
ATOM     36  C   UNL A   1      34.858  32.393  31.758  1.00  0.00     0.014 A 
ATOM     37  C   UNL A   1      37.063  33.995  32.454  1.00  0.00     0.010 A 
ATOM     38  C   UNL A   1      36.088  31.810  31.998  1.00  0.00     0.010 A 
ATOM     39  C   UNL A   1      37.209  32.627  32.225  1.00  0.00    -0.014 A 
BRANCH  39  40
ATOM     40  C   UNL A   1      38.517  32.024  31.987  1.00  0.00     0.031 A 
ATOM     41  C   UNL A   1      38.622  30.740  31.269  1.00  0.00     0.074 A 
ATOM     42  C   UNL A   1      39.648  32.660  32.386  1.00  0.00     0.049 A 
ATOM     43  N   UNL A   1      39.661  29.975  31.330  1.00  0.00    -0.248 NA
ATOM     44  C   UNL A   1      37.529  30.164  30.490  1.00  0.00     0.031 C 
ATOM     45  C   UNL A   1      41.021  32.369  31.973  1.00  0.00     0.029 A 
ATOM     46  N   UNL A   1      39.800  33.579  33.442  1.00  0.00    -0.354 N 
ATOM     47  C   UNL A   1      39.512  29.021  30.357  1.00  0.00     0.074 A 
ATOM     48  C   UNL A   1      38.122  29.074  29.988  1.00  0.00     0.031 C 
ATOM     49  C   UNL A   1      41.865  32.820  32.912  1.00  0.00     0.029 A 
ATOM     50  C   UNL A   1      41.058  33.293  34.021  1.00  0.00     0.049 A 
ATOM     51  H   UNL A   1      39.163  34.277  33.719  1.00  0.00     0.167 HD
ATOM     52  C   UNL A   1      40.626  28.424  29.854  1.00  0.00     0.037 A 
ATOM     53  C   UNL A   1      41.193  32.895  35.318  1.00  0.00     0.037 A 
ATOM     54  C   UNL A   1      41.782  28.623  30.728  1.00  0.00     0.049 A 
ATOM     55  C   UNL A   1      41.893  31.569  35.494  1.00  0.00     0.074 A 
ATOM     56  C   UNL A   1      42.966  29.328  30.612  1.00  0.00     0.029 A 
ATOM     57  N   UNL A   1      41.700  28.207  32.056  1.00  0.00    -0.354 N 
ATOM     58  N   UNL A   1      42.098  30.728  34.520  1.00  0.00    -0.248 NA
ATOM     59  C   UNL A   1      42.357  31.059  36.781  1.00  0.00     0.031 C 
ATOM     60  C   UNL A   1      43.547  29.417  31.908  1.00  0.00     0.029 A 
ATOM     61  C   UNL A   1      42.742  28.724  32.798  1.00  0.00     0.049 A 
ATOM     62  H   UNL A   1      40.994  27.623  32.416  1.00  0.00     0.167 HD
ATOM     63  C   UNL A   1      42.628  29.570  35.023  1.00  0.00     0.074 A 
ATOM     64  C   UNL A   1      42.810  29.839  36.436  1.00  0.00     0.031 C 
ATOM     65  C   UNL A   1      42.827  28.475  34.232  1.00  0.00     0.037 A 
BRANCH  52  66
ATOM     66  C   UNL A   1      40.718  27.828  28.466  1.00  0.00     0.064 A 
ATOM     67  C   UNL A   1      40.248  26.522  28.222  1.00  0.00     0.173 A 
ATOM     68  C   UNL A   1      41.388  28.427  27.373  1.00  0.00     0.173 A 
ATOM     69  F   UNL A   1      39.617  25.825  29.178  1.00  0.00    -0.203 F 
ATOM     70  C   UNL A   1      40.435  25.874  26.994  1.00  0.00     0.198 A 
ATOM     71  C   UNL A   1      41.517  27.804  26.130  1.00  0.00     0.198 A 
ATOM     72  F   UNL A   1      42.012  29.605  27.475  1.00  0.00    -0.203 F 
ATOM     73  F   UNL A   1      40.024  24.607  26.839  1.00  0.00    -0.200 F 
ATOM     74  C   UNL A   1      41.054  26.521  25.943  1.00  0.00     0.200 A 
ATOM     75  F   UNL A   1      42.131  28.450  25.128  1.00  0.00    -0.200 F 
ATOM     76  F   UNL A   1      41.228  25.906  24.766  1.00  0.00    -0.200 F 
ENDBRANCH  52  66
BRANCH  53  77
ATOM     77  C   UNL A   1      40.125  33.417  36.207  1.00  0.00     0.064 A 
ATOM     78  C   UNL A   1      39.056  32.562  36.541  1.00  0.00     0.173 A 
ATOM     79  C   UNL A   1      40.326  34.548  37.006  1.00  0.00     0.173 A 
ATOM     80  F   UNL A   1      38.827  31.461  35.808  1.00  0.00    -0.203 F 
ATOM     81  C   UNL A   1      38.297  32.769  37.690  1.00  0.00     0.198 A 
ATOM     82  C   UNL A   1      39.556  34.757  38.151  1.00  0.00     0.198 A 
ATOM     83  F   UNL A   1      41.341  35.385  36.750  1.00  0.00    -0.203 F 
ATOM     84  F   UNL A   1      37.358  31.878  38.040  1.00  0.00    -0.200 F 
ATOM     85  C   UNL A   1      38.568  33.851  38.510  1.00  0.00     0.200 A 
ATOM     86  F   UNL A   1      39.839  35.785  38.965  1.00  0.00    -0.200 F 
ATOM     87  F   UNL A   1      37.907  33.999  39.666  1.00  0.00    -0.200 F 
ENDBRANCH  53  77
BRANCH  65  88
ATOM     88  C   UNL A   1      43.174  27.091  34.726  1.00  0.00     0.064 A 
ATOM     89  C   UNL A   1      44.470  26.688  35.094  1.00  0.00     0.173 A 
ATOM     90  C   UNL A   1      42.149  26.149  34.976  1.00  0.00     0.173 A 
ATOM     91  F   UNL A   1      45.508  27.532  35.025  1.00  0.00    -0.203 F 
ATOM     92  C   UNL A   1      44.732  25.413  35.603  1.00  0.00     0.198 A 
ATOM     93  C   UNL A   1      42.406  24.898  35.537  1.00  0.00     0.198 A 
ATOM     94  F   UNL A   1      40.866  26.426  34.704  1.00  0.00    -0.203 F 
ATOM     95  F   UNL A   1      45.991  25.061  35.897  1.00  0.00    -0.200 F 
ATOM     96  C   UNL A   1      43.700  24.521  35.834  1.00  0.00     0.200 A 
ATOM     97  F   UNL A   1      41.390  24.065  35.803  1.00  0.00    -0.200 F 
ATOM     98  F   UNL A   1      43.951  23.315  36.359  1.00  0.00    -0.200 F 
ENDBRANCH  65  88
ENDBRANCH  39  40
ENDBRANCH  31  34
ENDBRANCH  29  30
ENDBRANCH  28  29
ENDBRANCH  27  28
ENDBRANCH   1  27
TORSDOF 17
ENDMDL
MODEL 2
REMARK VINA RESULT:     -12.4      2.917      4.457
REMARK SMILES Cc1ccccc1N(CCC(=O)NCCCCNC(=O)c1ccc(-c2c3nc(c(-c4c(F)c(F)c(F)c(F)c4F)c4ccc([nH]4)c(-c4c(F)c(F)c(F)c(F)c4F)c4nc(c(-c5c(F)c(F)c(F)c(F)c5F)c5ccc2[nH]5)C=C4)C=C3)cc1)C(=O)[C@@H]1C=C[C@H]([NH3+])C1
REMARK SMILES IDX 14 1 13 2 11 3 12 4 10 6 9 7 8 8 7 9 1 10 2 11 3 12 4 13
REMARK SMILES IDX 6 14 5 15 84 16 85 17 86 18 87 19 91 20 88 21 89 22 90 23
REMARK SMILES IDX 15 27 16 28 17 29 18 30 19 31 20 33 21 34 22 35 83 36 23 37
REMARK SMILES IDX 82 38 24 39 25 40 26 41 76 42 27 43 81 44 75 45 77 46 28 47
REMARK SMILES IDX 80 48 74 49 73 50 29 52 61 53 41 54 60 55 42 56 45 57 59 58
REMARK SMILES IDX 78 59 43 60 44 61 58 63 79 64 46 65 30 66 31 67 39 68 32 69
REMARK SMILES IDX 33 70 37 71 40 72 34 73 35 74 38 75 36 76 62 77 63 78 71 79
REMARK SMILES IDX 64 80 65 81 69 82 72 83 66 84 67 85 70 86 68 87 47 88 48 89
REMARK SMILES IDX 56 90 49 91 50 92 54 93 57 94 51 95 52 96 55 97 53 98
REMARK H PARENT 13 5 90 24 90 25 90 26 18 32 77 51 45 62
REMARK Flexibility Score: inf
ROOT
ATOM      1  C   UNL A   1      32.400  28.746  25.757  1.00  0.00     0.116 C 
ENDROOT
BRANCH   1   2
ATOM      2  N   UNL A   1      31.321  27.774  25.841  1.00  0.00    -0.356 N 
ATOM      3  C   UNL A   1      31.310  26.460  26.187  1.00  0.00     0.221 C 
ATOM      4  O   UNL A   1      30.220  25.903  26.336  1.00  0.00    -0.275 OA
ATOM      5  H   UNL A   1      30.436  28.134  25.603  1.00  0.00     0.163 HD
BRANCH   3   6
ATOM      6  C   UNL A   1      32.588  25.681  26.359  1.00  0.00     0.122 C 
BRANCH   6   7
ATOM      7  C   UNL A   1      32.314  24.167  26.276  1.00  0.00     0.135 C 
BRANCH   7   8
ATOM      8  N   UNL A   1      32.818  23.535  25.023  1.00  0.00    -0.311 N 
BRANCH   8   9
ATOM      9  C   UNL A   1      33.962  22.572  25.208  1.00  0.00     0.047 A 
ATOM     10  C   UNL A   1      32.809  20.209  25.000  1.00  0.00     0.046 C 
ATOM     11  C   UNL A   1      33.977  21.157  25.063  1.00  0.00    -0.027 A 
ATOM     12  C   UNL A   1      35.225  20.461  24.999  1.00  0.00     0.005 A 
ATOM     13  C   UNL A   1      36.446  21.077  25.220  1.00  0.00     0.000 A 
ATOM     14  C   UNL A   1      35.241  23.128  25.519  1.00  0.00     0.026 A 
ATOM     15  C   UNL A   1      36.448  22.414  25.532  1.00  0.00     0.002 A 
ENDBRANCH   8   9
BRANCH   8  16
ATOM     16  C   UNL A   1      32.307  23.979  23.771  1.00  0.00     0.234 C 
ATOM     17  O   UNL A   1      31.118  23.914  23.448  1.00  0.00    -0.274 OA
BRANCH  16  18
ATOM     18  C   UNL A   1      33.266  24.583  22.684  1.00  0.00     0.108 C 
ATOM     19  C   UNL A   1      33.988  25.797  23.216  1.00  0.00    -0.012 C 
ATOM     20  C   UNL A   1      32.519  25.202  21.486  1.00  0.00     0.087 C 
ATOM     21  C   UNL A   1      33.492  26.939  22.720  1.00  0.00     0.033 C 
ATOM     22  C   UNL A   1      32.355  26.696  21.785  1.00  0.00     0.205 C 
BRANCH  22  23
ATOM     23  N   UNL A   1      31.081  26.995  22.420  1.00  0.00    -0.352 N 
ATOM     24  H   UNL A   1      31.095  27.950  22.778  1.00  0.00     0.345 HD
ATOM     25  H   UNL A   1      30.924  26.344  23.191  1.00  0.00     0.345 HD
ATOM     26  H   UNL A   1      30.329  26.900  21.738  1.00  0.00     0.345 HD
ENDBRANCH  22  23
ENDBRANCH  16  18
ENDBRANCH   8  16
ENDBRANCH   7   8
ENDBRANCH   6   7
ENDBRANCH   3   6
ENDBRANCH   1   2
BRANCH   1  27
ATOM     27  C   UNL A   1      33.207  28.984  27.035  1.00  0.00     0.023 C 
BRANCH  27  28
ATOM     28  C   UNL A   1      33.154  30.394  27.620  1.00  0.00     0.023 C 
BRANCH  28  29
ATOM     29  C   UNL A   1      34.304  31.320  27.261  1.00  0.00     0.116 C 
BRANCH  29  30
ATOM     30  N   UNL A   1      34.903  31.997  28.419  1.00  0.00    -0.352 N 
ATOM     31  C   UNL A   1      35.893  31.533  29.276  1.00  0.00     0.251 C 
ATOM     32  H   UNL A   1      34.557  32.899  28.613  1.00  0.00     0.163 HD
ATOM     33  O   UNL A   1      36.421  32.233  30.114  1.00  0.00    -0.269 OA
BRANCH  31  34
ATOM     34  C   UNL A   1      36.355  30.148  29.042  1.00  0.00     0.039 A 
ATOM     35  C   UNL A   1      36.665  29.405  30.184  1.00  0.00     0.014 A 
ATOM     36  C   UNL A   1      36.923  29.871  27.801  1.00  0.00     0.014 A 
ATOM     37  C   UNL A   1      37.784  28.586  30.151  1.00  0.00     0.010 A 
ATOM     38  C   UNL A   1      38.074  29.104  27.789  1.00  0.00     0.010 A 
ATOM     39  C   UNL A   1      38.561  28.568  28.993  1.00  0.00    -0.014 A 
BRANCH  39  40
ATOM     40  C   UNL A   1      39.975  28.207  29.023  1.00  0.00     0.031 A 
ATOM     41  C   UNL A   1      40.396  26.830  28.701  1.00  0.00     0.074 A 
ATOM     42  C   UNL A   1      40.916  29.143  29.306  1.00  0.00     0.049 A 
ATOM     43  N   UNL A   1      41.539  26.338  29.043  1.00  0.00    -0.248 NA
ATOM     44  C   UNL A   1      39.527  25.859  28.039  1.00  0.00     0.031 C 
ATOM     45  C   UNL A   1      42.359  29.044  29.086  1.00  0.00     0.029 A 
ATOM     46  N   UNL A   1      40.770  30.316  30.072  1.00  0.00    -0.354 N 
ATOM     47  C   UNL A   1      41.684  25.155  28.367  1.00  0.00     0.074 A 
ATOM     48  C   UNL A   1      40.363  24.823  27.903  1.00  0.00     0.031 C 
ATOM     49  C   UNL A   1      42.987  29.887  29.918  1.00  0.00     0.029 A 
ATOM     50  C   UNL A   1      41.979  30.455  30.793  1.00  0.00     0.049 A 
ATOM     51  H   UNL A   1      39.989  30.915  30.099  1.00  0.00     0.167 HD
ATOM     52  C   UNL A   1      42.940  24.691  28.129  1.00  0.00     0.037 A 
ATOM     53  C   UNL A   1      42.023  30.444  32.156  1.00  0.00     0.037 A 
ATOM     54  C   UNL A   1      43.926  25.343  28.989  1.00  0.00     0.049 A 
ATOM     55  C   UNL A   1      42.922  29.383  32.742  1.00  0.00     0.074 A 
ATOM     56  C   UNL A   1      44.970  26.222  28.765  1.00  0.00     0.029 A 
ATOM     57  N   UNL A   1      43.758  25.279  30.372  1.00  0.00    -0.354 N 
ATOM     58  N   UNL A   1      43.393  28.379  32.058  1.00  0.00    -0.248 NA
ATOM     59  C   UNL A   1      43.310  29.331  34.149  1.00  0.00     0.031 C 
ATOM     60  C   UNL A   1      45.361  26.762  30.021  1.00  0.00     0.029 A 
ATOM     61  C   UNL A   1      44.591  26.174  31.011  1.00  0.00     0.049 A 
ATOM     62  H   UNL A   1      43.129  24.675  30.831  1.00  0.00     0.167 HD
ATOM     63  C   UNL A   1      44.056  27.525  32.898  1.00  0.00     0.074 A 
ATOM     64  C   UNL A   1      44.012  28.184  34.190  1.00  0.00     0.031 C 
ATOM     65  C   UNL A   1      44.544  26.329  32.460  1.00  0.00     0.037 A 
BRANCH  52  66
ATOM     66  C   UNL A   1      43.307  23.787  26.971  1.00  0.00     0.064 A 
ATOM     67  C   UNL A   1      42.944  22.425  26.992  1.00  0.00     0.173 A 
ATOM     68  C   UNL A   1      44.138  24.159  25.888  1.00  0.00     0.173 A 
ATOM     69  F   UNL A   1      42.180  21.929  27.976  1.00  0.00    -0.203 F 
ATOM     70  C   UNL A   1      43.377  21.518  26.016  1.00  0.00     0.198 A 
ATOM     71  C   UNL A   1      44.515  23.267  24.882  1.00  0.00     0.198 A 
ATOM     72  F   UNL A   1      44.683  25.375  25.790  1.00  0.00    -0.203 F 
ATOM     73  F   UNL A   1      43.054  20.221  26.122  1.00  0.00    -0.200 F 
ATOM     74  C   UNL A   1      44.149  21.942  24.952  1.00  0.00     0.200 A 
ATOM     75  F   UNL A   1      45.273  23.702  23.864  1.00  0.00    -0.200 F 
ATOM     76  F   UNL A   1      44.558  21.078  24.015  1.00  0.00    -0.200 F 
ENDBRANCH  52  66
BRANCH  53  77
ATOM     77  C   UNL A   1      40.778  30.947  32.788  1.00  0.00     0.064 A 
ATOM     78  C   UNL A   1      40.537  32.335  32.779  1.00  0.00     0.173 A 
ATOM     79  C   UNL A   1      39.692  30.102  33.042  1.00  0.00     0.173 A 
ATOM     80  F   UNL A   1      41.546  33.187  32.536  1.00  0.00    -0.203 F 
ATOM     81  C   UNL A   1      39.248  32.846  32.903  1.00  0.00     0.198 A 
ATOM     82  C   UNL A   1      38.403  30.619  33.174  1.00  0.00     0.198 A 
ATOM     83  F   UNL A   1      39.856  28.771  33.040  1.00  0.00    -0.203 F 
ATOM     84  F   UNL A   1      39.038  34.165  32.781  1.00  0.00    -0.200 F 
ATOM     85  C   UNL A   1      38.178  31.984  33.071  1.00  0.00     0.200 A 
ATOM     86  F   UNL A   1      37.361  29.784  33.303  1.00  0.00    -0.200 F 
ATOM     87  F   UNL A   1      36.927  32.464  33.090  1.00  0.00    -0.200 F 
ENDBRANCH  53  77
BRANCH  65  88
ATOM     88  C   UNL A   1      45.069  25.222  33.343  1.00  0.00     0.064 A 
ATOM     89  C   UNL A   1      46.433  24.916  33.492  1.00  0.00     0.173 A 
ATOM     90  C   UNL A   1      44.188  24.510  34.190  1.00  0.00     0.173 A 
ATOM     91  F   UNL A   1      47.379  25.606  32.841  1.00  0.00    -0.203 F 
ATOM     92  C   UNL A   1      46.876  23.920  34.369  1.00  0.00     0.198 A 
ATOM     93  C   UNL A   1      44.639  23.557  35.103  1.00  0.00     0.198 A 
ATOM     94  F   UNL A   1      42.867  24.736  34.170  1.00  0.00    -0.203 F 
ATOM     95  F   UNL A   1      48.184  23.635  34.442  1.00  0.00    -0.200 F 
ATOM     96  C   UNL A   1      45.982  23.248  35.180  1.00  0.00     0.200 A 
ATOM     97  F   UNL A   1      43.766  22.951  35.920  1.00  0.00    -0.200 F 
ATOM     98  F   UNL A   1      46.415  22.323  36.047  1.00  0.00    -0.200 F 
ENDBRANCH  65  88
ENDBRANCH  39  40
ENDBRANCH  31  34
ENDBRANCH  29  30
ENDBRANCH  28  29
ENDBRANCH  27  28
ENDBRANCH   1  27
TORSDOF 17
ENDMDL
MODEL 3
REMARK VINA RESULT:     -12.4      3.139      5.619
REMARK SMILES Cc1ccccc1N(CCC(=O)NCCCCNC(=O)c1ccc(-c2c3nc(c(-c4c(F)c(F)c(F)c(F)c4F)c4ccc([nH]4)c(-c4c(F)c(F)c(F)c(F)c4F)c4nc(c(-c5c(F)c(F)c(F)c(F)c5F)c5ccc2[nH]5)C=C4)C=C3)cc1)C(=O)[C@@H]1C=C[C@H]([NH3+])C1
REMARK SMILES IDX 14 1 13 2 11 3 12 4 10 6 9 7 8 8 7 9 1 10 2 11 3 12 4 13
REMARK SMILES IDX 6 14 5 15 84 16 85 17 86 18 87 19 91 20 88 21 89 22 90 23
REMARK SMILES IDX 15 27 16 28 17 29 18 30 19 31 20 33 21 34 22 35 83 36 23 37
REMARK SMILES IDX 82 38 24 39 25 40 26 41 76 42 27 43 81 44 75 45 77 46 28 47
REMARK SMILES IDX 80 48 74 49 73 50 29 52 61 53 41 54 60 55 42 56 45 57 59 58
REMARK SMILES IDX 78 59 43 60 44 61 58 63 79 64 46 65 30 66 31 67 39 68 32 69
REMARK SMILES IDX 33 70 37 71 40 72 34 73 35 74 38 75 36 76 62 77 63 78 71 79
REMARK SMILES IDX 64 80 65 81 69 82 72 83 66 84 67 85 70 86 68 87 47 88 48 89
REMARK SMILES IDX 56 90 49 91 50 92 54 93 57 94 51 95 52 96 55 97 53 98
REMARK H PARENT 13 5 90 24 90 25 90 26 18 32 77 51 45 62
REMARK Flexibility Score: inf
ROOT
ATOM      1  C   UNL A   1      32.894  29.545  26.027  1.00  0.00     0.116 C 
ENDROOT
BRANCH   1   2
ATOM      2  N   UNL A   1      32.794  29.551  24.575  1.00  0.00    -0.356 N 
ATOM      3  C   UNL A   1      33.178  28.646  23.637  1.00  0.00     0.221 C 
ATOM      4  O   UNL A   1      32.822  28.826  22.470  1.00  0.00    -0.275 OA
ATOM      5  H   UNL A   1      32.370  30.359  24.205  1.00  0.00     0.163 HD
BRANCH   3   6
ATOM      6  C   UNL A   1      34.042  27.465  23.991  1.00  0.00     0.122 C 
BRANCH   6   7
ATOM      7  C   UNL A   1      33.846  26.326  22.971  1.00  0.00     0.135 C 
BRANCH   7   8
ATOM      8  N   UNL A   1      33.264  25.087  23.561  1.00  0.00    -0.311 N 
BRANCH   8   9
ATOM      9  C   UNL A   1      31.885  25.246  24.150  1.00  0.00     0.047 A 
ATOM     10  C   UNL A   1      32.261  24.782  26.719  1.00  0.00     0.046 C 
ATOM     11  C   UNL A   1      31.486  25.249  25.515  1.00  0.00    -0.027 A 
ATOM     12  C   UNL A   1      30.178  25.703  25.874  1.00  0.00     0.005 A 
ATOM     13  C   UNL A   1      29.203  26.012  24.939  1.00  0.00     0.000 A 
ATOM     14  C   UNL A   1      30.810  25.487  23.240  1.00  0.00     0.026 A 
ATOM     15  C   UNL A   1      29.508  25.854  23.611  1.00  0.00     0.002 A 
ENDBRANCH   8   9
BRANCH   8  16
ATOM     16  C   UNL A   1      34.075  23.922  23.662  1.00  0.00     0.234 C 
ATOM     17  O   UNL A   1      33.642  22.770  23.572  1.00  0.00    -0.274 OA
BRANCH  16  18
ATOM     18  C   UNL A   1      35.618  24.041  23.919  1.00  0.00     0.108 C 
ATOM     19  C   UNL A   1      36.360  22.878  23.305  1.00  0.00    -0.012 C 
ATOM     20  C   UNL A   1      36.006  23.869  25.402  1.00  0.00     0.087 C 
ATOM     21  C   UNL A   1      36.762  21.990  24.224  1.00  0.00     0.033 C 
ATOM     22  C   UNL A   1      36.358  22.391  25.604  1.00  0.00     0.205 C 
BRANCH  22  23
ATOM     23  N   UNL A   1      35.220  21.610  26.064  1.00  0.00    -0.352 N 
ATOM     24  H   UNL A   1      34.606  21.408  25.275  1.00  0.00     0.345 HD
ATOM     25  H   UNL A   1      34.706  22.141  26.768  1.00  0.00     0.345 HD
ATOM     26  H   UNL A   1      35.549  20.735  26.471  1.00  0.00     0.345 HD
ENDBRANCH  22  23
ENDBRANCH  16  18
ENDBRANCH   8  16
ENDBRANCH   7   8
ENDBRANCH   6   7
ENDBRANCH   3   6
ENDBRANCH   1   2
BRANCH   1  27
ATOM     27  C   UNL A   1      32.545  30.852  26.742  1.00  0.00     0.023 C 
BRANCH  27  28
ATOM     28  C   UNL A   1      33.489  31.289  27.860  1.00  0.00     0.023 C 
BRANCH  28  29
ATOM     29  C   UNL A   1      34.974  31.076  27.614  1.00  0.00     0.116 C 
BRANCH  29  30
ATOM     30  N   UNL A   1      35.839  31.764  28.581  1.00  0.00    -0.352 N 
ATOM     31  C   UNL A   1      37.006  31.304  29.179  1.00  0.00     0.251 C 
ATOM     32  H   UNL A   1      35.555  32.671  28.839  1.00  0.00     0.163 HD
ATOM     33  O   UNL A   1      37.725  32.012  29.852  1.00  0.00    -0.269 OA
BRANCH  31  34
ATOM     34  C   UNL A   1      37.391  29.912  28.861  1.00  0.00     0.039 A 
ATOM     35  C   UNL A   1      37.551  29.056  29.955  1.00  0.00     0.014 A 
ATOM     36  C   UNL A   1      38.043  29.696  27.649  1.00  0.00     0.014 A 
ATOM     37  C   UNL A   1      38.610  28.161  29.938  1.00  0.00     0.010 A 
ATOM     38  C   UNL A   1      39.136  28.849  27.661  1.00  0.00     0.010 A 
ATOM     39  C   UNL A   1      39.481  28.181  28.849  1.00  0.00    -0.014 A 
BRANCH  39  40
ATOM     40  C   UNL A   1      40.860  27.713  28.960  1.00  0.00     0.031 A 
ATOM     41  C   UNL A   1      41.200  26.320  28.615  1.00  0.00     0.074 A 
ATOM     42  C   UNL A   1      41.844  28.566  29.339  1.00  0.00     0.049 A 
ATOM     43  N   UNL A   1      42.278  25.732  29.014  1.00  0.00    -0.248 NA
ATOM     44  C   UNL A   1      40.311  25.439  27.861  1.00  0.00     0.031 C 
ATOM     45  C   UNL A   1      43.288  28.366  29.212  1.00  0.00     0.029 A 
ATOM     46  N   UNL A   1      41.732  29.722  30.137  1.00  0.00    -0.354 N 
ATOM     47  C   UNL A   1      42.383  24.564  28.305  1.00  0.00     0.074 A 
ATOM     48  C   UNL A   1      41.076  24.347  27.742  1.00  0.00     0.031 C 
ATOM     49  C   UNL A   1      43.917  29.132  30.115  1.00  0.00     0.029 A 
ATOM     50  C   UNL A   1      42.895  29.746  30.941  1.00  0.00     0.049 A 
ATOM     51  H   UNL A   1      40.997  30.376  30.134  1.00  0.00     0.167 HD
ATOM     52  C   UNL A   1      43.615  24.015  28.134  1.00  0.00     0.037 A 
ATOM     53  C   UNL A   1      42.844  29.688  32.302  1.00  0.00     0.037 A 
ATOM     54  C   UNL A   1      44.584  24.563  29.082  1.00  0.00     0.049 A 
ATOM     55  C   UNL A   1      43.621  28.543  32.907  1.00  0.00     0.074 A 
ATOM     56  C   UNL A   1      45.702  25.367  28.960  1.00  0.00     0.029 A 
ATOM     57  N   UNL A   1      44.316  24.466  30.447  1.00  0.00    -0.354 N 
ATOM     58  N   UNL A   1      44.063  27.529  32.219  1.00  0.00    -0.248 NA
ATOM     59  C   UNL A   1      43.905  28.417  34.334  1.00  0.00     0.031 C 
ATOM     60  C   UNL A   1      46.044  25.835  30.259  1.00  0.00     0.029 A 
ATOM     61  C   UNL A   1      45.167  25.275  31.173  1.00  0.00     0.049 A 
ATOM     62  H   UNL A   1      43.615  23.898  30.840  1.00  0.00     0.167 HD
ATOM     63  C   UNL A   1      44.602  26.602  33.069  1.00  0.00     0.074 A 
ATOM     64  C   UNL A   1      44.518  27.220  34.378  1.00  0.00     0.031 C 
ATOM     65  C   UNL A   1      45.031  25.386  32.620  1.00  0.00     0.037 A 
BRANCH  52  66
ATOM     66  C   UNL A   1      43.994  23.123  26.970  1.00  0.00     0.064 A 
ATOM     67  C   UNL A   1      44.813  23.618  25.934  1.00  0.00     0.173 A 
ATOM     68  C   UNL A   1      43.468  21.831  26.738  1.00  0.00     0.173 A 
ATOM     69  F   UNL A   1      45.358  24.842  26.010  1.00  0.00    -0.203 F 
ATOM     70  C   UNL A   1      45.079  22.884  24.772  1.00  0.00     0.198 A 
ATOM     71  C   UNL A   1      43.786  21.076  25.607  1.00  0.00     0.198 A 
ATOM     72  F   UNL A   1      42.568  21.269  27.551  1.00  0.00    -0.203 F 
ATOM     73  F   UNL A   1      45.811  23.431  23.791  1.00  0.00    -0.200 F 
ATOM     74  C   UNL A   1      44.579  21.606  24.615  1.00  0.00     0.200 A 
ATOM     75  F   UNL A   1      43.280  19.840  25.475  1.00  0.00    -0.200 F 
ATOM     76  F   UNL A   1      44.837  20.900  23.507  1.00  0.00    -0.200 F 
ENDBRANCH  52  66
BRANCH  53  77
ATOM     77  C   UNL A   1      41.598  30.263  32.869  1.00  0.00     0.064 A 
ATOM     78  C   UNL A   1      41.447  31.663  32.868  1.00  0.00     0.173 A 
ATOM     79  C   UNL A   1      40.448  29.485  33.046  1.00  0.00     0.173 A 
ATOM     80  F   UNL A   1      42.521  32.450  32.696  1.00  0.00    -0.203 F 
ATOM     81  C   UNL A   1      40.188  32.254  32.924  1.00  0.00     0.198 A 
ATOM     82  C   UNL A   1      39.189  30.083  33.111  1.00  0.00     0.198 A 
ATOM     83  F   UNL A   1      40.527  28.147  33.034  1.00  0.00    -0.203 F 
ATOM     84  F   UNL A   1      40.070  33.585  32.810  1.00  0.00    -0.200 F 
ATOM     85  C   UNL A   1      39.057  31.461  33.016  1.00  0.00     0.200 A 
ATOM     86  F   UNL A   1      38.090  29.315  33.167  1.00  0.00    -0.200 F 
ATOM     87  F   UNL A   1      37.840  32.020  32.970  1.00  0.00    -0.200 F 
ENDBRANCH  53  77
BRANCH  65  88
ATOM     88  C   UNL A   1      45.412  24.215  33.494  1.00  0.00     0.064 A 
ATOM     89  C   UNL A   1      44.594  23.092  33.706  1.00  0.00     0.173 A 
ATOM     90  C   UNL A   1      46.711  24.136  34.048  1.00  0.00     0.173 A 
ATOM     91  F   UNL A   1      43.389  22.988  33.129  1.00  0.00    -0.203 F 
ATOM     92  C   UNL A   1      45.015  22.004  34.476  1.00  0.00     0.198 A 
ATOM     93  C   UNL A   1      47.148  23.024  34.769  1.00  0.00     0.198 A 
ATOM     94  F   UNL A   1      47.600  25.126  33.886  1.00  0.00    -0.203 F 
ATOM     95  F   UNL A   1      44.180  20.977  34.686  1.00  0.00    -0.200 F 
ATOM     96  C   UNL A   1      46.294  21.965  34.999  1.00  0.00     0.200 A 
ATOM     97  F   UNL A   1      48.407  22.980  35.225  1.00  0.00    -0.200 F 
ATOM     98  F   UNL A   1      46.707  20.904  35.704  1.00  0.00    -0.200 F 
ENDBRANCH  65  88
ENDBRANCH  39  40
ENDBRANCH  31  34
ENDBRANCH  29  30
ENDBRANCH  28  29
ENDBRANCH  27  28
ENDBRANCH   1  27
TORSDOF 17
ENDMDL
