MODEL 1
REMARK VINA RESULT:     -14.6      0.000      0.000
REMARK SMILES Cc1cccc(OC2(C(=O)NCCCCNC(=O)c3ccc(-c4c5nc(c(-c6c(F)c(F)c(F)c(F)c6F)c6ccc([nH]6)c(-c6c(F)c(F)c(F)c(F)c6F)c6nc(c(-c7c(F)c(F)c(F)c(F)c7F)c7ccc4[nH]7)C=C6)C=C5)cc3)CCN(C(=O)c3cnc[nH]c3=O)CC2)c1
REMARK SMILES IDX 13 1 12 2 11 3 9 4 10 5 8 7 82 8 95 9 83 10 94 11 84 12
REMARK SMILES IDX 85 13 86 14 7 15 6 16 1 17 2 18 3 19 96 20 4 21 5 22 87 23
REMARK SMILES IDX 88 24 92 25 89 26 91 27 93 28 90 29 14 31 15 32 16 33 17 34
REMARK SMILES IDX 18 36 19 37 20 38 81 39 21 40 80 41 22 42 23 43 24 44 74 45
REMARK SMILES IDX 25 46 79 47 73 48 75 49 26 50 78 51 72 52 71 53 27 55 59 56
REMARK SMILES IDX 39 57 58 58 40 59 43 60 57 61 76 62 41 63 42 64 56 66 77 67
REMARK SMILES IDX 44 68 28 69 29 70 37 71 30 72 31 73 35 74 38 75 32 76 33 77
REMARK SMILES IDX 36 78 34 79 60 80 61 81 69 82 62 83 63 84 67 85 70 86 64 87
REMARK SMILES IDX 65 88 68 89 66 90 45 91 46 92 54 93 47 94 48 95 52 96 55 97
REMARK SMILES IDX 49 98 50 99 53 100 51 101
REMARK H PARENT 11 6 91 30 16 35 75 54 43 65
REMARK Flexibility Score: inf
ROOT
ATOM      1  C   UNL A   1      37.439  21.417  25.306  1.00  0.00     0.023 C 
ENDROOT
BRANCH   1   2
ATOM      2  C   UNL A   1      36.618  22.654  25.741  1.00  0.00     0.116 C 
BRANCH   2   3
ATOM      3  N   UNL A   1      35.586  22.473  26.765  1.00  0.00    -0.353 N 
ATOM      4  C   UNL A   1      34.233  22.249  26.748  1.00  0.00     0.264 C 
ATOM      5  O   UNL A   1      33.789  21.746  27.791  1.00  0.00    -0.270 OA
ATOM      6  H   UNL A   1      35.948  22.525  27.679  1.00  0.00     0.163 HD
BRANCH   4   7
ATOM      7  C   UNL A   1      33.278  22.577  25.546  1.00  0.00     0.190 C 
ATOM      8  C   UNL A   1      31.831  22.460  25.998  1.00  0.00     0.080 C 
ATOM      9  C   UNL A   1      33.545  24.029  25.052  1.00  0.00     0.080 C 
ATOM     10  C   UNL A   1      30.794  22.990  25.038  1.00  0.00     0.124 C 
ATOM     11  C   UNL A   1      32.443  24.511  24.088  1.00  0.00     0.124 C 
ATOM     12  N   UNL A   1      31.142  24.360  24.733  1.00  0.00    -0.338 N 
ATOM     13  C   UNL A   1      30.571  25.375  25.485  1.00  0.00     0.261 C 
ATOM     14  O   UNL A   1      30.168  25.224  26.636  1.00  0.00    -0.269 OA
BRANCH   7  15
ATOM     15  O   UNL A   1      33.728  21.761  24.446  1.00  0.00    -0.477 OA
BRANCH  15  16
ATOM     16  C   UNL A   1      33.611  20.442  24.182  1.00  0.00     0.121 A 
ATOM     17  C   UNL A   1      34.836  16.932  24.992  1.00  0.00     0.044 C 
ATOM     18  C   UNL A   1      34.034  18.049  24.391  1.00  0.00    -0.047 A 
ATOM     19  C   UNL A   1      32.911  17.769  23.611  1.00  0.00     0.003 A 
ATOM     20  C   UNL A   1      34.397  19.387  24.626  1.00  0.00     0.049 A 
ATOM     21  C   UNL A   1      32.153  18.814  23.092  1.00  0.00     0.004 A 
ATOM     22  C   UNL A   1      32.498  20.136  23.389  1.00  0.00     0.046 A 
ENDBRANCH  15  16
ENDBRANCH   7  15
BRANCH  13  23
ATOM     23  C   UNL A   1      30.425  26.664  24.792  1.00  0.00     0.123 A 
ATOM     24  C   UNL A   1      29.497  26.825  23.840  1.00  0.00     0.132 A 
ATOM     25  C   UNL A   1      31.333  27.794  25.056  1.00  0.00     0.263 A 
ATOM     26  N   UNL A   1      29.289  27.986  23.133  1.00  0.00    -0.246 NA
ATOM     27  N   UNL A   1      31.085  28.916  24.319  1.00  0.00    -0.312 N 
ATOM     28  O   UNL A   1      32.260  27.749  25.858  1.00  0.00    -0.269 OA
ATOM     29  C   UNL A   1      30.084  28.968  23.395  1.00  0.00     0.199 A 
ATOM     30  H   UNL A   1      31.646  29.712  24.458  1.00  0.00     0.171 HD
ENDBRANCH  13  23
ENDBRANCH   4   7
ENDBRANCH   2   3
ENDBRANCH   1   2
BRANCH   1  31
ATOM     31  C   UNL A   1      38.896  21.378  25.750  1.00  0.00     0.023 C 
BRANCH  31  32
ATOM     32  C   UNL A   1      39.285  22.615  26.530  1.00  0.00     0.116 C 
BRANCH  32  33
ATOM     33  N   UNL A   1      40.718  22.919  26.517  1.00  0.00    -0.352 N 
ATOM     34  C   UNL A   1      41.350  24.156  26.582  1.00  0.00     0.251 C 
ATOM     35  H   UNL A   1      41.317  22.140  26.453  1.00  0.00     0.163 HD
ATOM     36  O   UNL A   1      42.548  24.260  26.540  1.00  0.00    -0.269 OA
BRANCH  34  37
ATOM     37  C   UNL A   1      40.494  25.345  26.843  1.00  0.00     0.039 A 
ATOM     38  C   UNL A   1      40.786  26.521  26.143  1.00  0.00     0.014 A 
ATOM     39  C   UNL A   1      39.679  25.368  27.968  1.00  0.00     0.014 A 
ATOM     40  C   UNL A   1      40.494  27.743  26.739  1.00  0.00     0.010 A 
ATOM     41  C   UNL A   1      39.519  26.571  28.622  1.00  0.00     0.010 A 
ATOM     42  C   UNL A   1      39.990  27.753  28.038  1.00  0.00    -0.014 A 
BRANCH  42  43
ATOM     43  C   UNL A   1      40.027  28.930  28.900  1.00  0.00     0.031 A 
ATOM     44  C   UNL A   1      38.977  29.964  28.786  1.00  0.00     0.074 A 
ATOM     45  C   UNL A   1      40.971  29.027  29.865  1.00  0.00     0.049 A 
ATOM     46  N   UNL A   1      39.109  31.184  29.182  1.00  0.00    -0.248 NA
ATOM     47  C   UNL A   1      37.688  29.703  28.157  1.00  0.00     0.031 C 
ATOM     48  C   UNL A   1      40.999  29.963  30.987  1.00  0.00     0.029 A 
ATOM     49  N   UNL A   1      42.229  28.401  29.905  1.00  0.00    -0.354 N 
ATOM     50  C   UNL A   1      37.874  31.788  29.110  1.00  0.00     0.074 A 
ATOM     51  C   UNL A   1      37.036  30.838  28.419  1.00  0.00     0.031 C 
ATOM     52  C   UNL A   1      42.264  30.085  31.420  1.00  0.00     0.029 A 
ATOM     53  C   UNL A   1      43.103  29.344  30.494  1.00  0.00     0.049 A 
ATOM     54  H   UNL A   1      42.454  27.496  29.590  1.00  0.00     0.167 HD
ATOM     55  C   UNL A   1      37.675  32.974  29.756  1.00  0.00     0.037 A 
ATOM     56  C   UNL A   1      44.161  29.867  29.811  1.00  0.00     0.037 A 
ATOM     57  C   UNL A   1      38.916  33.463  30.350  1.00  0.00     0.049 A 
ATOM     58  C   UNL A   1      44.132  31.374  29.693  1.00  0.00     0.074 A 
ATOM     59  C   UNL A   1      39.436  33.386  31.632  1.00  0.00     0.029 A 
ATOM     60  N   UNL A   1      39.964  33.859  29.524  1.00  0.00    -0.354 N 
ATOM     61  N   UNL A   1      43.054  32.091  29.846  1.00  0.00    -0.248 NA
ATOM     62  C   UNL A   1      45.298  32.180  29.342  1.00  0.00     0.031 C 
ATOM     63  C   UNL A   1      40.817  33.694  31.567  1.00  0.00     0.029 A 
ATOM     64  C   UNL A   1      41.133  33.976  30.249  1.00  0.00     0.049 A 
ATOM     65  H   UNL A   1      39.883  34.031  28.557  1.00  0.00     0.167 HD
ATOM     66  C   UNL A   1      43.344  33.406  29.587  1.00  0.00     0.074 A 
ATOM     67  C   UNL A   1      44.765  33.414  29.300  1.00  0.00     0.031 C 
ATOM     68  C   UNL A   1      42.378  34.370  29.609  1.00  0.00     0.037 A 
BRANCH  55  69
ATOM     69  C   UNL A   1      36.307  33.528  30.105  1.00  0.00     0.064 A 
ATOM     70  C   UNL A   1      35.448  34.020  29.096  1.00  0.00     0.173 A 
ATOM     71  C   UNL A   1      35.808  33.670  31.412  1.00  0.00     0.173 A 
ATOM     72  F   UNL A   1      35.717  33.842  27.796  1.00  0.00    -0.203 F 
ATOM     73  C   UNL A   1      34.271  34.719  29.382  1.00  0.00     0.198 A 
ATOM     74  C   UNL A   1      34.664  34.420  31.704  1.00  0.00     0.198 A 
ATOM     75  F   UNL A   1      36.371  33.032  32.444  1.00  0.00    -0.203 F 
ATOM     76  F   UNL A   1      33.506  35.172  28.380  1.00  0.00    -0.200 F 
ATOM     77  C   UNL A   1      33.903  34.959  30.689  1.00  0.00     0.200 A 
ATOM     78  F   UNL A   1      34.305  34.612  32.982  1.00  0.00    -0.200 F 
ATOM     79  F   UNL A   1      32.804  35.674  30.967  1.00  0.00    -0.200 F 
ENDBRANCH  55  69
BRANCH  56  80
ATOM     80  C   UNL A   1      44.701  28.951  28.771  1.00  0.00     0.064 A 
ATOM     81  C   UNL A   1      45.538  27.893  29.176  1.00  0.00     0.173 A 
ATOM     82  C   UNL A   1      44.132  28.875  27.495  1.00  0.00     0.173 A 
ATOM     83  F   UNL A   1      46.106  27.915  30.393  1.00  0.00    -0.203 F 
ATOM     84  C   UNL A   1      45.694  26.752  28.392  1.00  0.00     0.198 A 
ATOM     85  C   UNL A   1      44.305  27.737  26.704  1.00  0.00     0.198 A 
ATOM     86  F   UNL A   1      43.311  29.841  27.059  1.00  0.00    -0.203 F 
ATOM     87  F   UNL A   1      46.397  25.712  28.860  1.00  0.00    -0.200 F 
ATOM     88  C   UNL A   1      45.055  26.665  27.167  1.00  0.00     0.200 A 
ATOM     89  F   UNL A   1      43.657  27.634  25.535  1.00  0.00    -0.200 F 
ATOM     90  F   UNL A   1      45.119  25.532  26.455  1.00  0.00    -0.200 F 
ENDBRANCH  56  80
BRANCH  68  91
ATOM     91  C   UNL A   1      42.527  35.789  29.117  1.00  0.00     0.064 A 
ATOM     92  C   UNL A   1      41.903  36.288  27.962  1.00  0.00     0.173 A 
ATOM     93  C   UNL A   1      43.203  36.751  29.908  1.00  0.00     0.173 A 
ATOM     94  F   UNL A   1      41.134  35.506  27.192  1.00  0.00    -0.203 F 
ATOM     95  C   UNL A   1      41.999  37.633  27.592  1.00  0.00     0.198 A 
ATOM     96  C   UNL A   1      43.248  38.102  29.566  1.00  0.00     0.198 A 
ATOM     97  F   UNL A   1      43.816  36.412  31.051  1.00  0.00    -0.203 F 
ATOM     98  F   UNL A   1      41.420  38.051  26.458  1.00  0.00    -0.200 F 
ATOM     99  C   UNL A   1      42.660  38.541  28.399  1.00  0.00     0.200 A 
ATOM    100  F   UNL A   1      43.845  38.977  30.387  1.00  0.00    -0.200 F 
ATOM    101  F   UNL A   1      42.709  39.837  28.064  1.00  0.00    -0.200 F 
ENDBRANCH  68  91
ENDBRANCH  42  43
ENDBRANCH  34  37
ENDBRANCH  32  33
ENDBRANCH  31  32
ENDBRANCH   1  31
TORSDOF 14
ENDMDL
MODEL 2
REMARK VINA RESULT:     -14.6      3.771      9.522
REMARK SMILES Cc1cccc(OC2(C(=O)NCCCCNC(=O)c3ccc(-c4c5nc(c(-c6c(F)c(F)c(F)c(F)c6F)c6ccc([nH]6)c(-c6c(F)c(F)c(F)c(F)c6F)c6nc(c(-c7c(F)c(F)c(F)c(F)c7F)c7ccc4[nH]7)C=C6)C=C5)cc3)CCN(C(=O)c3cnc[nH]c3=O)CC2)c1
REMARK SMILES IDX 13 1 12 2 11 3 9 4 10 5 8 7 82 8 95 9 83 10 94 11 84 12
REMARK SMILES IDX 85 13 86 14 7 15 6 16 1 17 2 18 3 19 96 20 4 21 5 22 87 23
REMARK SMILES IDX 88 24 92 25 89 26 91 27 93 28 90 29 14 31 15 32 16 33 17 34
REMARK SMILES IDX 18 36 19 37 20 38 81 39 21 40 80 41 22 42 23 43 24 44 74 45
REMARK SMILES IDX 25 46 79 47 73 48 75 49 26 50 78 51 72 52 71 53 27 55 59 56
REMARK SMILES IDX 39 57 58 58 40 59 43 60 57 61 76 62 41 63 42 64 56 66 77 67
REMARK SMILES IDX 44 68 28 69 29 70 37 71 30 72 31 73 35 74 38 75 32 76 33 77
REMARK SMILES IDX 36 78 34 79 60 80 61 81 69 82 62 83 63 84 67 85 70 86 64 87
REMARK SMILES IDX 65 88 68 89 66 90 45 91 46 92 54 93 47 94 48 95 52 96 55 97
REMARK SMILES IDX 49 98 50 99 53 100 51 101
REMARK H PARENT 11 6 91 30 16 35 75 54 43 65
REMARK Flexibility Score: inf
ROOT
ATOM      1  C   UNL A   1      33.779  29.841  26.672  1.00  0.00     0.023 C 
ENDROOT
BRANCH   1   2
ATOM      2  C   UNL A   1      33.668  28.379  27.166  1.00  0.00     0.116 C 
BRANCH   2   3
ATOM      3  N   UNL A   1      32.333  27.784  27.266  1.00  0.00    -0.353 N 
ATOM      4  C   UNL A   1      31.444  27.241  26.372  1.00  0.00     0.264 C 
ATOM      5  O   UNL A   1      30.612  26.479  26.885  1.00  0.00    -0.270 OA
ATOM      6  H   UNL A   1      31.994  27.769  28.190  1.00  0.00     0.163 HD
BRANCH   4   7
ATOM      7  C   UNL A   1      31.431  27.522  24.828  1.00  0.00     0.190 C 
ATOM      8  C   UNL A   1      30.259  26.795  24.188  1.00  0.00     0.080 C 
ATOM      9  C   UNL A   1      31.284  29.052  24.580  1.00  0.00     0.080 C 
ATOM     10  C   UNL A   1      29.955  27.165  22.756  1.00  0.00     0.124 C 
ATOM     11  C   UNL A   1      30.960  29.358  23.103  1.00  0.00     0.124 C 
ATOM     12  N   UNL A   1      29.778  28.600  22.705  1.00  0.00    -0.338 N 
ATOM     13  C   UNL A   1      28.497  29.116  22.826  1.00  0.00     0.261 C 
ATOM     14  O   UNL A   1      27.582  28.537  23.407  1.00  0.00    -0.269 OA
BRANCH   7  15
ATOM     15  O   UNL A   1      32.764  27.235  24.360  1.00  0.00    -0.477 OA
BRANCH  15  16
ATOM     16  C   UNL A   1      33.464  26.084  24.253  1.00  0.00     0.121 A 
ATOM     17  C   UNL A   1      35.551  23.468  26.063  1.00  0.00     0.044 C 
ATOM     18  C   UNL A   1      34.792  24.171  24.975  1.00  0.00    -0.047 A 
ATOM     19  C   UNL A   1      34.584  23.545  23.745  1.00  0.00     0.003 A 
ATOM     20  C   UNL A   1      34.268  25.456  25.195  1.00  0.00     0.049 A 
ATOM     21  C   UNL A   1      33.846  24.191  22.759  1.00  0.00     0.004 A 
ATOM     22  C   UNL A   1      33.283  25.443  23.021  1.00  0.00     0.046 A 
ENDBRANCH  15  16
ENDBRANCH   7  15
BRANCH  13  23
ATOM     23  C   UNL A   1      28.275  30.408  22.160  1.00  0.00     0.123 A 
ATOM     24  C   UNL A   1      27.952  30.459  20.861  1.00  0.00     0.132 A 
ATOM     25  C   UNL A   1      28.474  31.689  22.862  1.00  0.00     0.263 A 
ATOM     26  N   UNL A   1      27.733  31.615  20.149  1.00  0.00    -0.246 NA
ATOM     27  N   UNL A   1      28.252  32.801  22.104  1.00  0.00    -0.312 N 
ATOM     28  O   UNL A   1      28.831  31.774  24.032  1.00  0.00    -0.269 OA
ATOM     29  C   UNL A   1      27.894  32.723  20.791  1.00  0.00     0.199 A 
ATOM     30  H   UNL A   1      28.353  33.689  22.518  1.00  0.00     0.171 HD
ENDBRANCH  13  23
ENDBRANCH   4   7
ENDBRANCH   2   3
ENDBRANCH   1   2
BRANCH   1  31
ATOM     31  C   UNL A   1      33.339  30.924  27.649  1.00  0.00     0.023 C 
BRANCH  31  32
ATOM     32  C   UNL A   1      34.354  32.040  27.755  1.00  0.00     0.116 C 
BRANCH  32  33
ATOM     33  N   UNL A   1      34.706  32.418  29.126  1.00  0.00    -0.352 N 
ATOM     34  C   UNL A   1      35.532  31.760  30.030  1.00  0.00     0.251 C 
ATOM     35  H   UNL A   1      34.302  33.254  29.453  1.00  0.00     0.163 HD
ATOM     36  O   UNL A   1      35.717  32.179  31.143  1.00  0.00    -0.269 OA
BRANCH  34  37
ATOM     37  C   UNL A   1      36.293  30.584  29.527  1.00  0.00     0.039 A 
ATOM     38  C   UNL A   1      36.582  29.561  30.437  1.00  0.00     0.014 A 
ATOM     39  C   UNL A   1      36.963  30.671  28.313  1.00  0.00     0.014 A 
ATOM     40  C   UNL A   1      37.735  28.806  30.248  1.00  0.00     0.010 A 
ATOM     41  C   UNL A   1      38.175  30.025  28.199  1.00  0.00     0.010 A 
ATOM     42  C   UNL A   1      38.595  29.143  29.204  1.00  0.00    -0.014 A 
BRANCH  42  43
ATOM     43  C   UNL A   1      39.989  28.714  29.146  1.00  0.00     0.031 A 
ATOM     44  C   UNL A   1      40.321  27.335  28.732  1.00  0.00     0.074 A 
ATOM     45  C   UNL A   1      40.977  29.607  29.384  1.00  0.00     0.049 A 
ATOM     46  N   UNL A   1      41.427  26.736  29.016  1.00  0.00    -0.248 NA
ATOM     47  C   UNL A   1      39.388  26.494  27.993  1.00  0.00     0.031 C 
ATOM     48  C   UNL A   1      42.402  29.449  29.098  1.00  0.00     0.029 A 
ATOM     49  N   UNL A   1      40.903  30.796  30.130  1.00  0.00    -0.354 N 
ATOM     50  C   UNL A   1      41.469  25.562  28.296  1.00  0.00     0.074 A 
ATOM     51  C   UNL A   1      40.154  25.436  27.715  1.00  0.00     0.031 C 
ATOM     52  C   UNL A   1      43.098  30.290  29.881  1.00  0.00     0.029 A 
ATOM     53  C   UNL A   1      42.149  30.904  30.793  1.00  0.00     0.049 A 
ATOM     54  H   UNL A   1      40.145  31.421  30.182  1.00  0.00     0.167 HD
ATOM     55  C   UNL A   1      42.655  24.897  28.177  1.00  0.00     0.037 A 
ATOM     56  C   UNL A   1      42.243  30.876  32.153  1.00  0.00     0.037 A 
ATOM     57  C   UNL A   1      43.698  25.538  28.973  1.00  0.00     0.049 A 
ATOM     58  C   UNL A   1      43.122  29.768  32.685  1.00  0.00     0.074 A 
ATOM     59  C   UNL A   1      44.704  26.436  28.652  1.00  0.00     0.029 A 
ATOM     60  N   UNL A   1      43.605  25.531  30.361  1.00  0.00    -0.354 N 
ATOM     61  N   UNL A   1      43.438  28.703  32.001  1.00  0.00    -0.248 NA
ATOM     62  C   UNL A   1      43.666  29.746  34.039  1.00  0.00     0.031 C 
ATOM     63  C   UNL A   1      45.186  27.006  29.855  1.00  0.00     0.029 A 
ATOM     64  C   UNL A   1      44.486  26.442  30.909  1.00  0.00     0.049 A 
ATOM     65  H   UNL A   1      42.995  24.958  30.880  1.00  0.00     0.167 HD
ATOM     66  C   UNL A   1      44.167  27.855  32.794  1.00  0.00     0.074 A 
ATOM     67  C   UNL A   1      44.304  28.563  34.052  1.00  0.00     0.031 C 
ATOM     68  C   UNL A   1      44.574  26.631  32.348  1.00  0.00     0.037 A 
BRANCH  55  69
ATOM     69  C   UNL A   1      42.938  23.858  27.109  1.00  0.00     0.064 A 
ATOM     70  C   UNL A   1      42.620  22.498  27.322  1.00  0.00     0.173 A 
ATOM     71  C   UNL A   1      43.583  24.119  25.886  1.00  0.00     0.173 A 
ATOM     72  F   UNL A   1      41.891  22.103  28.374  1.00  0.00    -0.203 F 
ATOM     73  C   UNL A   1      43.042  21.481  26.460  1.00  0.00     0.198 A 
ATOM     74  C   UNL A   1      44.057  23.100  25.053  1.00  0.00     0.198 A 
ATOM     75  F   UNL A   1      43.716  25.367  25.423  1.00  0.00    -0.203 F 
ATOM     76  F   UNL A   1      42.719  20.207  26.725  1.00  0.00    -0.200 F 
ATOM     77  C   UNL A   1      43.800  21.779  25.349  1.00  0.00     0.200 A 
ATOM     78  F   UNL A   1      44.764  23.415  23.957  1.00  0.00    -0.200 F 
ATOM     79  F   UNL A   1      44.249  20.802  24.549  1.00  0.00    -0.200 F 
ENDBRANCH  55  69
BRANCH  56  80
ATOM     80  C   UNL A   1      41.027  31.388  32.839  1.00  0.00     0.064 A 
ATOM     81  C   UNL A   1      40.867  32.782  32.972  1.00  0.00     0.173 A 
ATOM     82  C   UNL A   1      39.895  30.586  33.018  1.00  0.00     0.173 A 
ATOM     83  F   UNL A   1      41.921  33.597  32.804  1.00  0.00    -0.203 F 
ATOM     84  C   UNL A   1      39.608  33.352  33.150  1.00  0.00     0.198 A 
ATOM     85  C   UNL A   1      38.637  31.162  33.214  1.00  0.00     0.198 A 
ATOM     86  F   UNL A   1      39.977  29.255  32.885  1.00  0.00    -0.203 F 
ATOM     87  F   UNL A   1      39.474  34.686  33.149  1.00  0.00    -0.200 F 
ATOM     88  C   UNL A   1      38.491  32.541  33.244  1.00  0.00     0.200 A 
ATOM     89  F   UNL A   1      37.549  30.380  33.267  1.00  0.00    -0.200 F 
ATOM     90  F   UNL A   1      37.268  33.087  33.313  1.00  0.00    -0.200 F 
ENDBRANCH  56  80
BRANCH  68  91
ATOM     91  C   UNL A   1      45.168  25.529  33.192  1.00  0.00     0.064 A 
ATOM     92  C   UNL A   1      46.533  25.198  33.201  1.00  0.00     0.173 A 
ATOM     93  C   UNL A   1      44.372  24.861  34.155  1.00  0.00     0.173 A 
ATOM     94  F   UNL A   1      47.412  25.842  32.422  1.00  0.00    -0.203 F 
ATOM     95  C   UNL A   1      47.052  24.228  34.064  1.00  0.00     0.198 A 
ATOM     96  C   UNL A   1      44.905  23.937  35.053  1.00  0.00     0.198 A 
ATOM     97  F   UNL A   1      43.060  25.107  34.272  1.00  0.00    -0.203 F 
ATOM     98  F   UNL A   1      48.355  23.918  34.005  1.00  0.00    -0.200 F 
ATOM     99  C   UNL A   1      46.242  23.607  34.997  1.00  0.00     0.200 A 
ATOM    100  F   UNL A   1      44.116  23.385  35.986  1.00  0.00    -0.200 F 
ATOM    101  F   UNL A   1      46.754  22.713  35.853  1.00  0.00    -0.200 F 
ENDBRANCH  68  91
ENDBRANCH  42  43
ENDBRANCH  34  37
ENDBRANCH  32  33
ENDBRANCH  31  32
ENDBRANCH   1  31
TORSDOF 14
ENDMDL
MODEL 3
REMARK VINA RESULT:     -14.6      3.569     10.296
REMARK SMILES Cc1cccc(OC2(C(=O)NCCCCNC(=O)c3ccc(-c4c5nc(c(-c6c(F)c(F)c(F)c(F)c6F)c6ccc([nH]6)c(-c6c(F)c(F)c(F)c(F)c6F)c6nc(c(-c7c(F)c(F)c(F)c(F)c7F)c7ccc4[nH]7)C=C6)C=C5)cc3)CCN(C(=O)c3cnc[nH]c3=O)CC2)c1
REMARK SMILES IDX 13 1 12 2 11 3 9 4 10 5 8 7 82 8 95 9 83 10 94 11 84 12
REMARK SMILES IDX 85 13 86 14 7 15 6 16 1 17 2 18 3 19 96 20 4 21 5 22 87 23
REMARK SMILES IDX 88 24 92 25 89 26 91 27 93 28 90 29 14 31 15 32 16 33 17 34
REMARK SMILES IDX 18 36 19 37 20 38 81 39 21 40 80 41 22 42 23 43 24 44 74 45
REMARK SMILES IDX 25 46 79 47 73 48 75 49 26 50 78 51 72 52 71 53 27 55 59 56
REMARK SMILES IDX 39 57 58 58 40 59 43 60 57 61 76 62 41 63 42 64 56 66 77 67
REMARK SMILES IDX 44 68 28 69 29 70 37 71 30 72 31 73 35 74 38 75 32 76 33 77
REMARK SMILES IDX 36 78 34 79 60 80 61 81 69 82 62 83 63 84 67 85 70 86 64 87
REMARK SMILES IDX 65 88 68 89 66 90 45 91 46 92 54 93 47 94 48 95 52 96 55 97
REMARK SMILES IDX 49 98 50 99 53 100 51 101
REMARK H PARENT 11 6 91 30 16 35 75 54 43 65
REMARK Flexibility Score: inf
ROOT
ATOM      1  C   UNL A   1      32.647  30.169  26.527  1.00  0.00     0.023 C 
ENDROOT
BRANCH   1   2
ATOM      2  C   UNL A   1      33.571  28.952  26.285  1.00  0.00     0.116 C 
BRANCH   2   3
ATOM      3  N   UNL A   1      34.041  28.702  24.919  1.00  0.00    -0.353 N 
ATOM      4  C   UNL A   1      33.561  28.000  23.842  1.00  0.00     0.264 C 
ATOM      5  O   UNL A   1      34.028  28.362  22.753  1.00  0.00    -0.270 OA
ATOM      6  H   UNL A   1      34.902  29.139  24.730  1.00  0.00     0.163 HD
BRANCH   4   7
ATOM      7  C   UNL A   1      32.514  26.833  23.918  1.00  0.00     0.190 C 
ATOM      8  C   UNL A   1      32.395  26.166  22.558  1.00  0.00     0.080 C 
ATOM      9  C   UNL A   1      32.982  25.782  24.967  1.00  0.00     0.080 C 
ATOM     10  C   UNL A   1      31.624  24.869  22.524  1.00  0.00     0.124 C 
ATOM     11  C   UNL A   1      32.163  24.480  24.868  1.00  0.00     0.124 C 
ATOM     12  N   UNL A   1      32.221  23.981  23.497  1.00  0.00    -0.338 N 
ATOM     13  C   UNL A   1      33.201  23.095  23.077  1.00  0.00     0.261 C 
ATOM     14  O   UNL A   1      33.916  23.288  22.096  1.00  0.00    -0.269 OA
BRANCH   7  15
ATOM     15  O   UNL A   1      31.330  27.399  24.518  1.00  0.00    -0.477 OA
BRANCH  15  16
ATOM     16  C   UNL A   1      30.286  28.083  24.003  1.00  0.00     0.121 A 
ATOM     17  C   UNL A   1      29.125  31.289  22.313  1.00  0.00     0.044 C 
ATOM     18  C   UNL A   1      29.103  29.903  22.891  1.00  0.00    -0.047 A 
ATOM     19  C   UNL A   1      27.969  29.101  22.755  1.00  0.00     0.003 A 
ATOM     20  C   UNL A   1      30.232  29.398  23.558  1.00  0.00     0.049 A 
ATOM     21  C   UNL A   1      27.975  27.806  23.262  1.00  0.00     0.004 A 
ATOM     22  C   UNL A   1      29.130  27.303  23.868  1.00  0.00     0.046 A 
ENDBRANCH  15  16
ENDBRANCH   7  15
BRANCH  13  23
ATOM     23  C   UNL A   1      33.306  21.856  23.862  1.00  0.00     0.123 A 
ATOM     24  C   UNL A   1      32.306  20.965  23.866  1.00  0.00     0.132 A 
ATOM     25  C   UNL A   1      34.467  21.581  24.728  1.00  0.00     0.263 A 
ATOM     26  N   UNL A   1      32.307  19.785  24.573  1.00  0.00    -0.246 NA
ATOM     27  N   UNL A   1      34.408  20.401  25.410  1.00  0.00    -0.312 N 
ATOM     28  O   UNL A   1      35.415  22.348  24.856  1.00  0.00    -0.269 OA
ATOM     29  C   UNL A   1      33.343  19.557  25.308  1.00  0.00     0.199 A 
ATOM     30  H   UNL A   1      35.160  20.150  25.995  1.00  0.00     0.171 HD
ENDBRANCH  13  23
ENDBRANCH   4   7
ENDBRANCH   2   3
ENDBRANCH   1   2
BRANCH   1  31
ATOM     31  C   UNL A   1      33.196  31.271  27.424  1.00  0.00     0.023 C 
BRANCH  31  32
ATOM     32  C   UNL A   1      34.705  31.226  27.519  1.00  0.00     0.116 C 
BRANCH  32  33
ATOM     33  N   UNL A   1      35.262  31.870  28.712  1.00  0.00    -0.352 N 
ATOM     34  C   UNL A   1      36.199  31.380  29.613  1.00  0.00     0.251 C 
ATOM     35  H   UNL A   1      34.925  32.776  28.901  1.00  0.00     0.163 HD
ATOM     36  O   UNL A   1      36.553  32.016  30.571  1.00  0.00    -0.269 OA
BRANCH  34  37
ATOM     37  C   UNL A   1      36.855  30.086  29.279  1.00  0.00     0.039 A 
ATOM     38  C   UNL A   1      37.111  29.198  30.329  1.00  0.00     0.014 A 
ATOM     39  C   UNL A   1      37.478  29.934  28.046  1.00  0.00     0.014 A 
ATOM     40  C   UNL A   1      38.201  28.339  30.226  1.00  0.00     0.010 A 
ATOM     41  C   UNL A   1      38.637  29.189  27.999  1.00  0.00     0.010 A 
ATOM     42  C   UNL A   1      39.037  28.445  29.116  1.00  0.00    -0.014 A 
BRANCH  42  43
ATOM     43  C   UNL A   1      40.394  27.910  29.084  1.00  0.00     0.031 A 
ATOM     44  C   UNL A   1      40.624  26.502  28.698  1.00  0.00     0.074 A 
ATOM     45  C   UNL A   1      41.446  28.729  29.319  1.00  0.00     0.049 A 
ATOM     46  N   UNL A   1      41.678  25.825  29.006  1.00  0.00    -0.248 NA
ATOM     47  C   UNL A   1      39.639  25.722  27.961  1.00  0.00     0.031 C 
ATOM     48  C   UNL A   1      42.857  28.457  29.055  1.00  0.00     0.029 A 
ATOM     49  N   UNL A   1      41.455  29.933  30.044  1.00  0.00    -0.354 N 
ATOM     50  C   UNL A   1      41.638  24.639  28.307  1.00  0.00     0.074 A 
ATOM     51  C   UNL A   1      40.324  24.603  27.712  1.00  0.00     0.031 C 
ATOM     52  C   UNL A   1      43.606  29.256  29.832  1.00  0.00     0.029 A 
ATOM     53  C   UNL A   1      42.697  29.958  30.721  1.00  0.00     0.049 A 
ATOM     54  H   UNL A   1      40.746  30.615  30.075  1.00  0.00     0.167 HD
ATOM     55  C   UNL A   1      42.771  23.883  28.214  1.00  0.00     0.037 A 
ATOM     56  C   UNL A   1      42.772  29.947  32.082  1.00  0.00     0.037 A 
ATOM     57  C   UNL A   1      43.851  24.456  29.013  1.00  0.00     0.049 A 
ATOM     58  C   UNL A   1      43.558  28.784  32.644  1.00  0.00     0.074 A 
ATOM     59  C   UNL A   1      44.926  25.269  28.690  1.00  0.00     0.029 A 
ATOM     60  N   UNL A   1      43.741  24.482  30.400  1.00  0.00    -0.354 N 
ATOM     61  N   UNL A   1      43.799  27.686  31.983  1.00  0.00    -0.248 NA
ATOM     62  C   UNL A   1      44.083  28.746  34.006  1.00  0.00     0.031 C 
ATOM     63  C   UNL A   1      45.436  25.822  29.890  1.00  0.00     0.029 A 
ATOM     64  C   UNL A   1      44.683  25.333  30.943  1.00  0.00     0.049 A 
ATOM     65  H   UNL A   1      43.083  23.967  30.921  1.00  0.00     0.167 HD
ATOM     66  C   UNL A   1      44.452  26.800  32.799  1.00  0.00     0.074 A 
ATOM     67  C   UNL A   1      44.628  27.518  34.047  1.00  0.00     0.031 C 
ATOM     68  C   UNL A   1      44.769  25.540  32.380  1.00  0.00     0.037 A 
BRANCH  55  69
ATOM     69  C   UNL A   1      42.986  22.807  27.168  1.00  0.00     0.064 A 
ATOM     70  C   UNL A   1      42.315  21.567  27.260  1.00  0.00     0.173 A 
ATOM     71  C   UNL A   1      43.888  22.901  26.093  1.00  0.00     0.173 A 
ATOM     72  F   UNL A   1      41.332  21.363  28.146  1.00  0.00    -0.203 F 
ATOM     73  C   UNL A   1      42.629  20.477  26.442  1.00  0.00     0.198 A 
ATOM     74  C   UNL A   1      44.247  21.797  25.313  1.00  0.00     0.198 A 
ATOM     75  F   UNL A   1      44.402  24.077  25.718  1.00  0.00    -0.203 F 
ATOM     76  F   UNL A   1      41.965  19.322  26.587  1.00  0.00    -0.200 F 
ATOM     77  C   UNL A   1      43.628  20.579  25.498  1.00  0.00     0.200 A 
ATOM     78  F   UNL A   1      45.198  21.927  24.376  1.00  0.00    -0.200 F 
ATOM     79  F   UNL A   1      43.967  19.522  24.747  1.00  0.00    -0.200 F 
ENDBRANCH  55  69
BRANCH  56  80
ATOM     80  C   UNL A   1      41.591  30.563  32.743  1.00  0.00     0.064 A 
ATOM     81  C   UNL A   1      41.482  31.968  32.750  1.00  0.00     0.173 A 
ATOM     82  C   UNL A   1      40.438  29.822  33.020  1.00  0.00     0.173 A 
ATOM     83  F   UNL A   1      42.558  32.726  32.485  1.00  0.00    -0.203 F 
ATOM     84  C   UNL A   1      40.248  32.597  32.901  1.00  0.00     0.198 A 
ATOM     85  C   UNL A   1      39.206  30.457  33.188  1.00  0.00     0.198 A 
ATOM     86  F   UNL A   1      40.472  28.482  33.010  1.00  0.00    -0.203 F 
ATOM     87  F   UNL A   1      40.158  33.928  32.779  1.00  0.00    -0.200 F 
ATOM     88  C   UNL A   1      39.106  31.838  33.093  1.00  0.00     0.200 A 
ATOM     89  F   UNL A   1      38.093  29.723  33.337  1.00  0.00    -0.200 F 
ATOM     90  F   UNL A   1      37.905  32.431  33.138  1.00  0.00    -0.200 F 
ENDBRANCH  56  80
BRANCH  68  91
ATOM     91  C   UNL A   1      45.267  24.412  33.251  1.00  0.00     0.064 A 
ATOM     92  C   UNL A   1      44.502  23.281  33.582  1.00  0.00     0.173 A 
ATOM     93  C   UNL A   1      46.622  24.373  33.661  1.00  0.00     0.173 A 
ATOM     94  F   UNL A   1      43.241  23.141  33.151  1.00  0.00    -0.203 F 
ATOM     95  C   UNL A   1      45.035  22.219  34.320  1.00  0.00     0.198 A 
ATOM     96  C   UNL A   1      47.164  23.286  34.347  1.00  0.00     0.198 A 
ATOM     97  F   UNL A   1      47.467  25.376  33.384  1.00  0.00    -0.203 F 
ATOM     98  F   UNL A   1      44.252  21.181  34.645  1.00  0.00    -0.200 F 
ATOM     99  C   UNL A   1      46.366  22.217  34.691  1.00  0.00     0.200 A 
ATOM    100  F   UNL A   1      48.469  23.275  34.652  1.00  0.00    -0.200 F 
ATOM    101  F   UNL A   1      46.883  21.175  35.358  1.00  0.00    -0.200 F 
ENDBRANCH  68  91
ENDBRANCH  42  43
ENDBRANCH  34  37
ENDBRANCH  32  33
ENDBRANCH  31  32
ENDBRANCH   1  31
TORSDOF 14
ENDMDL
