MODEL 1
REMARK VINA RESULT:     -12.5      0.000      0.000
REMARK SMILES C[C@@H](C(=O)NCCCCNC(=O)c1ccc(-c2c3nc(c(-c4c(F)c(F)c(F)c(F)c4F)c4ccc([nH]4)c(-c4c(F)c(F)c(F)c(F)c4F)c4nc(c(-c5c(F)c(F)c(F)c(F)c5F)c5ccc2[nH]5)C=C4)C=C3)cc1)[C@H](C)n1ncc2ccc([N+](=O)[O-])cc21
REMARK SMILES IDX 7 1 6 2 5 3 3 4 4 5 2 7 1 8 76 9 77 10 78 11 79 12 89 13
REMARK SMILES IDX 80 14 81 15 88 16 82 17 84 18 83 19 85 20 86 21 87 22 8 23
REMARK SMILES IDX 9 24 10 25 11 26 12 28 13 29 14 30 75 31 15 32 74 33 16 34
REMARK SMILES IDX 17 35 18 36 68 37 19 38 73 39 67 40 69 41 20 42 72 43 66 44
REMARK SMILES IDX 65 45 21 47 53 48 33 49 52 50 34 51 37 52 51 53 70 54 35 55
REMARK SMILES IDX 36 56 50 58 71 59 38 60 22 61 23 62 31 63 24 64 25 65 29 66
REMARK SMILES IDX 32 67 26 68 27 69 30 70 28 71 54 72 55 73 63 74 56 75 57 76
REMARK SMILES IDX 61 77 64 78 58 79 59 80 62 81 60 82 39 83 40 84 48 85 41 86
REMARK SMILES IDX 42 87 46 88 49 89 43 90 44 91 47 92 45 93
REMARK H PARENT 5 6 10 27 69 46 37 57
REMARK Flexibility Score: inf
ROOT
ATOM      1  C   UNL A   1      32.027  30.503  26.275  1.00  0.00     0.023 C 
ENDROOT
BRANCH   1   2
ATOM      2  C   UNL A   1      31.286  29.978  25.043  1.00  0.00     0.116 C 
BRANCH   2   3
ATOM      3  N   UNL A   1      32.148  29.298  24.096  1.00  0.00    -0.356 N 
ATOM      4  C   UNL A   1      32.575  28.006  24.046  1.00  0.00     0.224 C 
ATOM      5  O   UNL A   1      32.931  27.608  22.934  1.00  0.00    -0.275 OA
ATOM      6  H   UNL A   1      32.479  29.867  23.365  1.00  0.00     0.163 HD
BRANCH   4   7
ATOM      7  C   UNL A   1      32.498  27.071  25.262  1.00  0.00     0.100 C 
ATOM      8  C   UNL A   1      33.756  27.054  26.132  1.00  0.00     0.020 C 
BRANCH   7   9
ATOM      9  C   UNL A   1      32.043  25.634  24.839  1.00  0.00     0.117 C 
ATOM     10  C   UNL A   1      30.544  25.531  24.516  1.00  0.00     0.034 C 
BRANCH   9  11
ATOM     11  N   UNL A   1      32.383  24.548  25.765  1.00  0.00    -0.261 N 
ATOM     12  N   UNL A   1      31.554  24.252  26.790  1.00  0.00    -0.180 NA
ATOM     13  C   UNL A   1      33.424  23.649  25.620  1.00  0.00     0.075 A 
ATOM     14  C   UNL A   1      32.106  23.167  27.338  1.00  0.00     0.143 A 
ATOM     15  C   UNL A   1      33.250  22.720  26.643  1.00  0.00     0.020 A 
ATOM     16  C   UNL A   1      34.481  23.562  24.698  1.00  0.00     0.114 A 
ATOM     17  C   UNL A   1      34.145  21.639  26.762  1.00  0.00     0.019 A 
ATOM     18  C   UNL A   1      35.360  22.474  24.833  1.00  0.00     0.271 A 
ATOM     19  C   UNL A   1      35.197  21.519  25.843  1.00  0.00     0.086 A 
BRANCH  18  20
ATOM     20  N   UNL A   1      36.474  22.337  23.884  1.00  0.00     0.062 N 
ATOM     21  O   UNL A   1      37.431  21.622  24.217  1.00  0.00    -0.258 OA
ATOM     22  O   UNL A   1      36.388  22.936  22.803  1.00  0.00    -0.258 OA
ENDBRANCH  18  20
ENDBRANCH   9  11
ENDBRANCH   7   9
ENDBRANCH   4   7
ENDBRANCH   2   3
ENDBRANCH   1   2
BRANCH   1  23
ATOM     23  C   UNL A   1      31.646  31.911  26.736  1.00  0.00     0.023 C 
BRANCH  23  24
ATOM     24  C   UNL A   1      32.751  32.723  27.401  1.00  0.00     0.116 C 
BRANCH  24  25
ATOM     25  N   UNL A   1      32.365  34.095  27.692  1.00  0.00    -0.352 N 
ATOM     26  C   UNL A   1      32.941  35.001  28.554  1.00  0.00     0.251 C 
ATOM     27  H   UNL A   1      31.578  34.422  27.201  1.00  0.00     0.163 HD
ATOM     28  O   UNL A   1      32.417  36.092  28.742  1.00  0.00    -0.269 OA
BRANCH  26  29
ATOM     29  C   UNL A   1      34.172  34.638  29.291  1.00  0.00     0.039 A 
ATOM     30  C   UNL A   1      34.059  34.227  30.623  1.00  0.00     0.014 A 
ATOM     31  C   UNL A   1      35.422  34.668  28.668  1.00  0.00     0.014 A 
ATOM     32  C   UNL A   1      35.184  33.746  31.298  1.00  0.00     0.010 A 
ATOM     33  C   UNL A   1      36.532  34.136  29.323  1.00  0.00     0.010 A 
ATOM     34  C   UNL A   1      36.416  33.645  30.633  1.00  0.00    -0.014 A 
BRANCH  34  35
ATOM     35  C   UNL A   1      37.578  32.958  31.257  1.00  0.00     0.031 A 
ATOM     36  C   UNL A   1      38.196  31.756  30.603  1.00  0.00     0.074 A 
ATOM     37  C   UNL A   1      37.999  33.358  32.473  1.00  0.00     0.049 A 
ATOM     38  N   UNL A   1      39.120  30.952  31.063  1.00  0.00    -0.248 NA
ATOM     39  C   UNL A   1      37.694  31.397  29.268  1.00  0.00     0.031 C 
ATOM     40  C   UNL A   1      37.446  34.482  33.233  1.00  0.00     0.029 A 
ATOM     41  N   UNL A   1      38.970  32.849  33.300  1.00  0.00    -0.354 N 
ATOM     42  C   UNL A   1      39.297  29.981  30.086  1.00  0.00     0.074 A 
ATOM     43  C   UNL A   1      38.366  30.281  29.018  1.00  0.00     0.031 C 
ATOM     44  C   UNL A   1      38.079  34.571  34.412  1.00  0.00     0.029 A 
ATOM     45  C   UNL A   1      39.053  33.489  34.513  1.00  0.00     0.049 A 
ATOM     46  H   UNL A   1      39.551  32.094  33.047  1.00  0.00     0.167 HD
ATOM     47  C   UNL A   1      40.167  28.945  30.080  1.00  0.00     0.037 A 
ATOM     48  C   UNL A   1      39.808  33.220  35.596  1.00  0.00     0.037 A 
ATOM     49  C   UNL A   1      41.118  28.673  31.124  1.00  0.00     0.049 A 
ATOM     50  C   UNL A   1      40.757  32.053  35.560  1.00  0.00     0.074 A 
ATOM     51  C   UNL A   1      42.115  27.712  31.153  1.00  0.00     0.029 A 
ATOM     52  N   UNL A   1      41.187  29.355  32.329  1.00  0.00    -0.354 N 
ATOM     53  N   UNL A   1      40.979  31.199  34.592  1.00  0.00    -0.248 NA
ATOM     54  C   UNL A   1      41.556  31.810  36.770  1.00  0.00     0.031 C 
ATOM     55  C   UNL A   1      42.752  27.779  32.396  1.00  0.00     0.029 A 
ATOM     56  C   UNL A   1      42.182  28.811  33.125  1.00  0.00     0.049 A 
ATOM     57  H   UNL A   1      40.613  30.115  32.582  1.00  0.00     0.167 HD
ATOM     58  C   UNL A   1      41.952  30.331  35.066  1.00  0.00     0.074 A 
ATOM     59  C   UNL A   1      42.294  30.771  36.402  1.00  0.00     0.031 C 
ATOM     60  C   UNL A   1      42.509  29.258  34.453  1.00  0.00     0.037 A 
BRANCH  47  61
ATOM     61  C   UNL A   1      40.147  28.014  28.904  1.00  0.00     0.064 A 
ATOM     62  C   UNL A   1      40.862  28.298  27.732  1.00  0.00     0.173 A 
ATOM     63  C   UNL A   1      39.480  26.783  28.988  1.00  0.00     0.173 A 
ATOM     64  F   UNL A   1      41.511  29.465  27.602  1.00  0.00    -0.203 F 
ATOM     65  C   UNL A   1      40.903  27.385  26.681  1.00  0.00     0.198 A 
ATOM     66  C   UNL A   1      39.541  25.863  27.945  1.00  0.00     0.198 A 
ATOM     67  F   UNL A   1      38.787  26.464  30.092  1.00  0.00    -0.203 F 
ATOM     68  F   UNL A   1      41.574  27.684  25.561  1.00  0.00    -0.200 F 
ATOM     69  C   UNL A   1      40.251  26.165  26.792  1.00  0.00     0.200 A 
ATOM     70  F   UNL A   1      38.921  24.680  28.059  1.00  0.00    -0.200 F 
ATOM     71  F   UNL A   1      40.307  25.281  25.787  1.00  0.00    -0.200 F 
ENDBRANCH  47  61
BRANCH  48  72
ATOM     72  C   UNL A   1      39.685  34.055  36.819  1.00  0.00     0.064 A 
ATOM     73  C   UNL A   1      40.415  35.244  36.958  1.00  0.00     0.173 A 
ATOM     74  C   UNL A   1      38.861  33.666  37.886  1.00  0.00     0.173 A 
ATOM     75  F   UNL A   1      41.235  35.644  35.975  1.00  0.00    -0.203 F 
ATOM     76  C   UNL A   1      40.344  35.999  38.127  1.00  0.00     0.198 A 
ATOM     77  C   UNL A   1      38.770  34.436  39.042  1.00  0.00     0.198 A 
ATOM     78  F   UNL A   1      38.141  32.537  37.802  1.00  0.00    -0.203 F 
ATOM     79  F   UNL A   1      41.094  37.102  38.255  1.00  0.00    -0.200 F 
ATOM     80  C   UNL A   1      39.519  35.596  39.166  1.00  0.00     0.200 A 
ATOM     81  F   UNL A   1      37.962  34.051  40.040  1.00  0.00    -0.200 F 
ATOM     82  F   UNL A   1      39.455  36.321  40.292  1.00  0.00    -0.200 F 
ENDBRANCH  48  72
BRANCH  60  83
ATOM     83  C   UNL A   1      43.550  28.494  35.213  1.00  0.00     0.064 A 
ATOM     84  C   UNL A   1      43.216  27.366  35.975  1.00  0.00     0.173 A 
ATOM     85  C   UNL A   1      44.901  28.866  35.144  1.00  0.00     0.173 A 
ATOM     86  F   UNL A   1      41.934  26.982  36.087  1.00  0.00    -0.203 F 
ATOM     87  C   UNL A   1      44.195  26.645  36.654  1.00  0.00     0.198 A 
ATOM     88  C   UNL A   1      45.881  28.128  35.802  1.00  0.00     0.198 A 
ATOM     89  F   UNL A   1      45.272  29.936  34.425  1.00  0.00    -0.203 F 
ATOM     90  F   UNL A   1      43.848  25.593  37.408  1.00  0.00    -0.200 F 
ATOM     91  C   UNL A   1      45.527  27.023  36.560  1.00  0.00     0.200 A 
ATOM     92  F   UNL A   1      47.168  28.486  35.702  1.00  0.00    -0.200 F 
ATOM     93  F   UNL A   1      46.469  26.322  37.207  1.00  0.00    -0.200 F 
ENDBRANCH  60  83
ENDBRANCH  34  35
ENDBRANCH  26  29
ENDBRANCH  24  25
ENDBRANCH  23  24
ENDBRANCH   1  23
TORSDOF 14
ENDMDL
MODEL 2
REMARK VINA RESULT:     -12.5      1.479      2.766
REMARK SMILES C[C@@H](C(=O)NCCCCNC(=O)c1ccc(-c2c3nc(c(-c4c(F)c(F)c(F)c(F)c4F)c4ccc([nH]4)c(-c4c(F)c(F)c(F)c(F)c4F)c4nc(c(-c5c(F)c(F)c(F)c(F)c5F)c5ccc2[nH]5)C=C4)C=C3)cc1)[C@H](C)n1ncc2ccc([N+](=O)[O-])cc21
REMARK SMILES IDX 7 1 6 2 5 3 3 4 4 5 2 7 1 8 76 9 77 10 78 11 79 12 89 13
REMARK SMILES IDX 80 14 81 15 88 16 82 17 84 18 83 19 85 20 86 21 87 22 8 23
REMARK SMILES IDX 9 24 10 25 11 26 12 28 13 29 14 30 75 31 15 32 74 33 16 34
REMARK SMILES IDX 17 35 18 36 68 37 19 38 73 39 67 40 69 41 20 42 72 43 66 44
REMARK SMILES IDX 65 45 21 47 53 48 33 49 52 50 34 51 37 52 51 53 70 54 35 55
REMARK SMILES IDX 36 56 50 58 71 59 38 60 22 61 23 62 31 63 24 64 25 65 29 66
REMARK SMILES IDX 32 67 26 68 27 69 30 70 28 71 54 72 55 73 63 74 56 75 57 76
REMARK SMILES IDX 61 77 64 78 58 79 59 80 62 81 60 82 39 83 40 84 48 85 41 86
REMARK SMILES IDX 42 87 46 88 49 89 43 90 44 91 47 92 45 93
REMARK H PARENT 5 6 10 27 69 46 37 57
REMARK Flexibility Score: inf
ROOT
ATOM      1  C   UNL A   1      32.410  30.084  25.956  1.00  0.00     0.023 C 
ENDROOT
BRANCH   1   2
ATOM      2  C   UNL A   1      31.370  29.257  25.196  1.00  0.00     0.116 C 
BRANCH   2   3
ATOM      3  N   UNL A   1      31.244  29.627  23.801  1.00  0.00    -0.356 N 
ATOM      4  C   UNL A   1      30.875  28.896  22.712  1.00  0.00     0.224 C 
ATOM      5  O   UNL A   1      30.447  29.547  21.756  1.00  0.00    -0.275 OA
ATOM      6  H   UNL A   1      31.460  30.567  23.607  1.00  0.00     0.163 HD
BRANCH   4   7
ATOM      7  C   UNL A   1      30.871  27.360  22.722  1.00  0.00     0.100 C 
ATOM      8  C   UNL A   1      29.767  26.733  23.575  1.00  0.00     0.020 C 
BRANCH   7   9
ATOM      9  C   UNL A   1      32.290  26.796  23.070  1.00  0.00     0.117 C 
ATOM     10  C   UNL A   1      33.441  27.570  22.408  1.00  0.00     0.034 C 
BRANCH   9  11
ATOM     11  N   UNL A   1      32.499  25.367  22.815  1.00  0.00    -0.261 N 
ATOM     12  N   UNL A   1      33.009  24.961  21.632  1.00  0.00    -0.180 NA
ATOM     13  C   UNL A   1      32.371  24.347  23.741  1.00  0.00     0.075 A 
ATOM     14  C   UNL A   1      33.167  23.645  21.793  1.00  0.00     0.143 A 
ATOM     15  C   UNL A   1      32.821  23.202  23.088  1.00  0.00     0.020 A 
ATOM     16  C   UNL A   1      31.916  24.324  25.070  1.00  0.00     0.114 A 
ATOM     17  C   UNL A   1      32.846  21.972  23.774  1.00  0.00     0.019 A 
ATOM     18  C   UNL A   1      31.952  23.086  25.737  1.00  0.00     0.271 A 
ATOM     19  C   UNL A   1      32.415  21.926  25.107  1.00  0.00     0.086 A 
BRANCH  18  20
ATOM     20  N   UNL A   1      31.497  23.017  27.132  1.00  0.00     0.062 N 
ATOM     21  O   UNL A   1      32.330  22.708  27.997  1.00  0.00    -0.258 OA
ATOM     22  O   UNL A   1      30.308  23.281  27.366  1.00  0.00    -0.258 OA
ENDBRANCH  18  20
ENDBRANCH   9  11
ENDBRANCH   7   9
ENDBRANCH   4   7
ENDBRANCH   2   3
ENDBRANCH   1   2
BRANCH   1  23
ATOM     23  C   UNL A   1      31.903  31.381  26.588  1.00  0.00     0.023 C 
BRANCH  23  24
ATOM     24  C   UNL A   1      32.938  32.215  27.334  1.00  0.00     0.116 C 
BRANCH  24  25
ATOM     25  N   UNL A   1      32.516  33.588  27.566  1.00  0.00    -0.352 N 
ATOM     26  C   UNL A   1      33.036  34.529  28.425  1.00  0.00     0.251 C 
ATOM     27  H   UNL A   1      31.746  33.886  27.030  1.00  0.00     0.163 HD
ATOM     28  O   UNL A   1      32.486  35.616  28.555  1.00  0.00    -0.269 OA
BRANCH  26  29
ATOM     29  C   UNL A   1      34.238  34.211  29.227  1.00  0.00     0.039 A 
ATOM     30  C   UNL A   1      34.071  33.567  30.457  1.00  0.00     0.014 A 
ATOM     31  C   UNL A   1      35.519  34.512  28.759  1.00  0.00     0.014 A 
ATOM     32  C   UNL A   1      35.191  33.129  31.168  1.00  0.00     0.010 A 
ATOM     33  C   UNL A   1      36.634  34.026  29.441  1.00  0.00     0.010 A 
ATOM     34  C   UNL A   1      36.478  33.307  30.637  1.00  0.00    -0.014 A 
BRANCH  34  35
ATOM     35  C   UNL A   1      37.669  32.683  31.270  1.00  0.00     0.031 A 
ATOM     36  C   UNL A   1      38.340  31.499  30.635  1.00  0.00     0.074 A 
ATOM     37  C   UNL A   1      38.073  33.121  32.479  1.00  0.00     0.049 A 
ATOM     38  N   UNL A   1      39.300  30.745  31.106  1.00  0.00    -0.248 NA
ATOM     39  C   UNL A   1      37.854  31.097  29.307  1.00  0.00     0.031 C 
ATOM     40  C   UNL A   1      37.471  34.230  33.222  1.00  0.00     0.029 A 
ATOM     41  N   UNL A   1      39.067  32.668  33.313  1.00  0.00    -0.354 N 
ATOM     42  C   UNL A   1      39.519  29.767  30.144  1.00  0.00     0.074 A 
ATOM     43  C   UNL A   1      38.575  30.008  29.073  1.00  0.00     0.031 C 
ATOM     44  C   UNL A   1      38.101  34.367  34.399  1.00  0.00     0.029 A 
ATOM     45  C   UNL A   1      39.122  33.331  34.515  1.00  0.00     0.049 A 
ATOM     46  H   UNL A   1      39.680  31.936  33.071  1.00  0.00     0.167 HD
ATOM     47  C   UNL A   1      40.434  28.770  30.154  1.00  0.00     0.037 A 
ATOM     48  C   UNL A   1      39.889  33.113  35.601  1.00  0.00     0.037 A 
ATOM     49  C   UNL A   1      41.397  28.558  31.201  1.00  0.00     0.049 A 
ATOM     50  C   UNL A   1      40.889  31.989  35.582  1.00  0.00     0.074 A 
ATOM     51  C   UNL A   1      42.435  27.643  31.244  1.00  0.00     0.029 A 
ATOM     52  N   UNL A   1      41.436  29.262  32.395  1.00  0.00    -0.354 N 
ATOM     53  N   UNL A   1      41.148  31.130  34.628  1.00  0.00    -0.248 NA
ATOM     54  C   UNL A   1      41.699  31.801  36.795  1.00  0.00     0.031 C 
ATOM     55  C   UNL A   1      43.070  27.758  32.485  1.00  0.00     0.029 A 
ATOM     56  C   UNL A   1      42.455  28.774  33.198  1.00  0.00     0.049 A 
ATOM     57  H   UNL A   1      40.829  29.999  32.637  1.00  0.00     0.167 HD
ATOM     58  C   UNL A   1      42.159  30.314  35.115  1.00  0.00     0.074 A 
ATOM     59  C   UNL A   1      42.482  30.790  36.443  1.00  0.00     0.031 C 
ATOM     60  C   UNL A   1      42.763  29.257  34.518  1.00  0.00     0.037 A 
BRANCH  47  61
ATOM     61  C   UNL A   1      40.455  27.821  28.992  1.00  0.00     0.064 A 
ATOM     62  C   UNL A   1      39.675  26.655  28.984  1.00  0.00     0.173 A 
ATOM     63  C   UNL A   1      41.191  28.131  27.840  1.00  0.00     0.173 A 
ATOM     64  F   UNL A   1      38.959  26.314  30.065  1.00  0.00    -0.203 F 
ATOM     65  C   UNL A   1      39.640  25.828  27.864  1.00  0.00     0.198 A 
ATOM     66  C   UNL A   1      41.135  27.314  26.713  1.00  0.00     0.198 A 
ATOM     67  F   UNL A   1      41.947  29.239  27.797  1.00  0.00    -0.203 F 
ATOM     68  F   UNL A   1      38.906  24.708  27.884  1.00  0.00    -0.200 F 
ATOM     69  C   UNL A   1      40.361  26.163  26.727  1.00  0.00     0.200 A 
ATOM     70  F   UNL A   1      41.823  27.645  25.612  1.00  0.00    -0.200 F 
ATOM     71  F   UNL A   1      40.311  25.375  25.644  1.00  0.00    -0.200 F 
ENDBRANCH  47  61
BRANCH  48  72
ATOM     72  C   UNL A   1      39.730  33.961  36.811  1.00  0.00     0.064 A 
ATOM     73  C   UNL A   1      38.909  33.557  37.872  1.00  0.00     0.173 A 
ATOM     74  C   UNL A   1      40.369  35.206  36.916  1.00  0.00     0.173 A 
ATOM     75  F   UNL A   1      38.257  32.387  37.806  1.00  0.00    -0.203 F 
ATOM     76  C   UNL A   1      38.713  34.376  38.983  1.00  0.00     0.198 A 
ATOM     77  C   UNL A   1      40.195  36.011  38.040  1.00  0.00     0.198 A 
ATOM     78  F   UNL A   1      41.166  35.638  35.929  1.00  0.00    -0.203 F 
ATOM     79  F   UNL A   1      37.880  33.989  39.959  1.00  0.00    -0.200 F 
ATOM     80  C   UNL A   1      39.360  35.599  39.067  1.00  0.00     0.200 A 
ATOM     81  F   UNL A   1      40.831  37.187  38.124  1.00  0.00    -0.200 F 
ATOM     82  F   UNL A   1      39.168  36.388  40.134  1.00  0.00    -0.200 F 
ENDBRANCH  48  72
BRANCH  60  83
ATOM     83  C   UNL A   1      43.838  28.553  35.289  1.00  0.00     0.064 A 
ATOM     84  C   UNL A   1      45.176  28.966  35.217  1.00  0.00     0.173 A 
ATOM     85  C   UNL A   1      43.522  27.485  36.142  1.00  0.00     0.173 A 
ATOM     86  F   UNL A   1      45.530  29.971  34.401  1.00  0.00    -0.203 F 
ATOM     87  C   UNL A   1      46.163  28.324  35.960  1.00  0.00     0.198 A 
ATOM     88  C   UNL A   1      44.506  26.863  36.904  1.00  0.00     0.198 A 
ATOM     89  F   UNL A   1      42.256  27.056  36.248  1.00  0.00    -0.203 F 
ATOM     90  F   UNL A   1      47.442  28.709  35.846  1.00  0.00    -0.200 F 
ATOM     91  C   UNL A   1      45.826  27.279  36.809  1.00  0.00     0.200 A 
ATOM     92  F   UNL A   1      44.179  25.861  37.731  1.00  0.00    -0.200 F 
ATOM     93  F   UNL A   1      46.776  26.668  37.530  1.00  0.00    -0.200 F 
ENDBRANCH  60  83
ENDBRANCH  34  35
ENDBRANCH  26  29
ENDBRANCH  24  25
ENDBRANCH  23  24
ENDBRANCH   1  23
TORSDOF 14
ENDMDL
MODEL 3
REMARK VINA RESULT:     -12.4      5.785     11.130
REMARK SMILES C[C@@H](C(=O)NCCCCNC(=O)c1ccc(-c2c3nc(c(-c4c(F)c(F)c(F)c(F)c4F)c4ccc([nH]4)c(-c4c(F)c(F)c(F)c(F)c4F)c4nc(c(-c5c(F)c(F)c(F)c(F)c5F)c5ccc2[nH]5)C=C4)C=C3)cc1)[C@H](C)n1ncc2ccc([N+](=O)[O-])cc21
REMARK SMILES IDX 7 1 6 2 5 3 3 4 4 5 2 7 1 8 76 9 77 10 78 11 79 12 89 13
REMARK SMILES IDX 80 14 81 15 88 16 82 17 84 18 83 19 85 20 86 21 87 22 8 23
REMARK SMILES IDX 9 24 10 25 11 26 12 28 13 29 14 30 75 31 15 32 74 33 16 34
REMARK SMILES IDX 17 35 18 36 68 37 19 38 73 39 67 40 69 41 20 42 72 43 66 44
REMARK SMILES IDX 65 45 21 47 53 48 33 49 52 50 34 51 37 52 51 53 70 54 35 55
REMARK SMILES IDX 36 56 50 58 71 59 38 60 22 61 23 62 31 63 24 64 25 65 29 66
REMARK SMILES IDX 32 67 26 68 27 69 30 70 28 71 54 72 55 73 63 74 56 75 57 76
REMARK SMILES IDX 61 77 64 78 58 79 59 80 62 81 60 82 39 83 40 84 48 85 41 86
REMARK SMILES IDX 42 87 46 88 49 89 43 90 44 91 47 92 45 93
REMARK H PARENT 5 6 10 27 69 46 37 57
REMARK Flexibility Score: inf
ROOT
ATOM      1  C   UNL A   1      37.022  21.285  24.936  1.00  0.00     0.023 C 
ENDROOT
BRANCH   1   2
ATOM      2  C   UNL A   1      35.567  20.948  25.266  1.00  0.00     0.116 C 
BRANCH   2   3
ATOM      3  N   UNL A   1      35.156  21.388  26.584  1.00  0.00    -0.356 N 
ATOM      4  C   UNL A   1      34.222  22.301  26.971  1.00  0.00     0.224 C 
ATOM      5  O   UNL A   1      33.788  22.164  28.117  1.00  0.00    -0.275 OA
ATOM      6  H   UNL A   1      35.632  20.952  27.327  1.00  0.00     0.163 HD
BRANCH   4   7
ATOM      7  C   UNL A   1      33.653  23.349  26.002  1.00  0.00     0.100 C 
ATOM      8  C   UNL A   1      34.349  24.710  26.057  1.00  0.00     0.020 C 
BRANCH   7   9
ATOM      9  C   UNL A   1      32.099  23.464  26.146  1.00  0.00     0.117 C 
ATOM     10  C   UNL A   1      31.337  22.242  25.610  1.00  0.00     0.034 C 
BRANCH   9  11
ATOM     11  N   UNL A   1      31.483  24.668  25.578  1.00  0.00    -0.261 N 
ATOM     12  N   UNL A   1      30.819  25.528  26.381  1.00  0.00    -0.180 NA
ATOM     13  C   UNL A   1      31.638  25.129  24.283  1.00  0.00     0.075 A 
ATOM     14  C   UNL A   1      30.503  26.538  25.567  1.00  0.00     0.143 A 
ATOM     15  C   UNL A   1      31.008  26.371  24.259  1.00  0.00     0.020 A 
ATOM     16  C   UNL A   1      32.267  24.584  23.151  1.00  0.00     0.114 A 
ATOM     17  C   UNL A   1      31.007  27.129  23.073  1.00  0.00     0.019 A 
ATOM     18  C   UNL A   1      32.256  25.359  21.978  1.00  0.00     0.271 A 
ATOM     19  C   UNL A   1      31.643  26.616  21.934  1.00  0.00     0.086 A 
BRANCH  18  20
ATOM     20  N   UNL A   1      32.911  24.833  20.772  1.00  0.00     0.062 N 
ATOM     21  O   UNL A   1      33.376  23.685  20.822  1.00  0.00    -0.258 OA
ATOM     22  O   UNL A   1      32.952  25.564  19.772  1.00  0.00    -0.258 OA
ENDBRANCH  18  20
ENDBRANCH   9  11
ENDBRANCH   7   9
ENDBRANCH   4   7
ENDBRANCH   2   3
ENDBRANCH   1   2
BRANCH   1  23
ATOM     23  C   UNL A   1      38.013  20.122  25.009  1.00  0.00     0.023 C 
BRANCH  23  24
ATOM     24  C   UNL A   1      39.278  20.366  25.824  1.00  0.00     0.116 C 
BRANCH  24  25
ATOM     25  N   UNL A   1      40.190  19.233  25.828  1.00  0.00    -0.352 N 
ATOM     26  C   UNL A   1      41.541  19.199  26.092  1.00  0.00     0.251 C 
ATOM     27  H   UNL A   1      39.781  18.365  25.611  1.00  0.00     0.163 HD
ATOM     28  O   UNL A   1      42.170  18.157  25.955  1.00  0.00    -0.269 OA
BRANCH  26  29
ATOM     29  C   UNL A   1      42.244  20.436  26.499  1.00  0.00     0.039 A 
ATOM     30  C   UNL A   1      42.910  21.180  25.520  1.00  0.00     0.014 A 
ATOM     31  C   UNL A   1      42.219  20.879  27.823  1.00  0.00     0.014 A 
ATOM     32  C   UNL A   1      43.462  22.421  25.849  1.00  0.00     0.010 A 
ATOM     33  C   UNL A   1      42.719  22.142  28.138  1.00  0.00     0.010 A 
ATOM     34  C   UNL A   1      43.320  22.935  27.148  1.00  0.00    -0.014 A 
BRANCH  34  35
ATOM     35  C   UNL A   1      43.720  24.328  27.477  1.00  0.00     0.031 A 
ATOM     36  C   UNL A   1      42.694  25.337  27.904  1.00  0.00     0.074 A 
ATOM     37  C   UNL A   1      44.999  24.707  27.278  1.00  0.00     0.049 A 
ATOM     38  N   UNL A   1      42.834  26.623  28.099  1.00  0.00    -0.248 NA
ATOM     39  C   UNL A   1      41.326  24.840  28.118  1.00  0.00     0.031 C 
ATOM     40  C   UNL A   1      46.079  23.831  26.818  1.00  0.00     0.029 A 
ATOM     41  N   UNL A   1      45.603  25.933  27.410  1.00  0.00    -0.354 N 
ATOM     42  C   UNL A   1      41.572  27.094  28.438  1.00  0.00     0.074 A 
ATOM     43  C   UNL A   1      40.672  25.960  28.397  1.00  0.00     0.031 C 
ATOM     44  C   UNL A   1      47.207  24.547  26.699  1.00  0.00     0.029 A 
ATOM     45  C   UNL A   1      46.925  25.939  27.034  1.00  0.00     0.049 A 
ATOM     46  H   UNL A   1      45.133  26.732  27.742  1.00  0.00     0.167 HD
ATOM     47  C   UNL A   1      41.206  28.355  28.765  1.00  0.00     0.037 A 
ATOM     48  C   UNL A   1      47.804  26.955  26.940  1.00  0.00     0.037 A 
ATOM     49  C   UNL A   1      42.110  29.472  28.844  1.00  0.00     0.049 A 
ATOM     50  C   UNL A   1      47.361  28.347  27.301  1.00  0.00     0.074 A 
ATOM     51  C   UNL A   1      41.850  30.761  29.275  1.00  0.00     0.029 A 
ATOM     52  N   UNL A   1      43.445  29.436  28.474  1.00  0.00    -0.354 N 
ATOM     53  N   UNL A   1      46.188  28.761  27.709  1.00  0.00    -0.248 NA
ATOM     54  C   UNL A   1      48.365  29.415  27.182  1.00  0.00     0.031 C 
ATOM     55  C   UNL A   1      43.015  31.519  29.117  1.00  0.00     0.029 A 
ATOM     56  C   UNL A   1      44.012  30.691  28.629  1.00  0.00     0.049 A 
ATOM     57  H   UNL A   1      43.921  28.636  28.149  1.00  0.00     0.167 HD
ATOM     58  C   UNL A   1      46.315  30.127  27.912  1.00  0.00     0.074 A 
ATOM     59  C   UNL A   1      47.686  30.473  27.601  1.00  0.00     0.031 C 
ATOM     60  C   UNL A   1      45.377  31.020  28.314  1.00  0.00     0.037 A 
BRANCH  47  61
ATOM     61  C   UNL A   1      39.761  28.612  29.074  1.00  0.00     0.064 A 
ATOM     62  C   UNL A   1      39.239  28.418  30.360  1.00  0.00     0.173 A 
ATOM     63  C   UNL A   1      38.914  29.148  28.092  1.00  0.00     0.173 A 
ATOM     64  F   UNL A   1      40.009  27.902  31.330  1.00  0.00    -0.203 F 
ATOM     65  C   UNL A   1      37.916  28.741  30.651  1.00  0.00     0.198 A 
ATOM     66  C   UNL A   1      37.598  29.492  28.392  1.00  0.00     0.198 A 
ATOM     67  F   UNL A   1      39.368  29.358  26.847  1.00  0.00    -0.203 F 
ATOM     68  F   UNL A   1      37.431  28.527  31.881  1.00  0.00    -0.200 F 
ATOM     69  C   UNL A   1      37.100  29.287  29.671  1.00  0.00     0.200 A 
ATOM     70  F   UNL A   1      36.815  30.030  27.447  1.00  0.00    -0.200 F 
ATOM     71  F   UNL A   1      35.834  29.615  29.958  1.00  0.00    -0.200 F 
ENDBRANCH  47  61
BRANCH  48  72
ATOM     72  C   UNL A   1      49.189  26.703  26.464  1.00  0.00     0.064 A 
ATOM     73  C   UNL A   1      49.533  26.884  25.118  1.00  0.00     0.173 A 
ATOM     74  C   UNL A   1      50.188  26.247  27.338  1.00  0.00     0.173 A 
ATOM     75  F   UNL A   1      48.606  27.294  24.240  1.00  0.00    -0.203 F 
ATOM     76  C   UNL A   1      50.817  26.594  24.658  1.00  0.00     0.198 A 
ATOM     77  C   UNL A   1      51.478  25.986  26.882  1.00  0.00     0.198 A 
ATOM     78  F   UNL A   1      49.910  26.060  28.637  1.00  0.00    -0.203 F 
ATOM     79  F   UNL A   1      51.104  26.724  23.355  1.00  0.00    -0.200 F 
ATOM     80  C   UNL A   1      51.789  26.150  25.541  1.00  0.00     0.200 A 
ATOM     81  F   UNL A   1      52.418  25.568  27.741  1.00  0.00    -0.200 F 
ATOM     82  F   UNL A   1      53.021  25.868  25.098  1.00  0.00    -0.200 F 
ENDBRANCH  48  72
BRANCH  60  83
ATOM     83  C   UNL A   1      45.803  32.450  28.450  1.00  0.00     0.064 A 
ATOM     84  C   UNL A   1      45.662  33.357  27.390  1.00  0.00     0.173 A 
ATOM     85  C   UNL A   1      46.313  32.931  29.665  1.00  0.00     0.173 A 
ATOM     86  F   UNL A   1      45.195  32.941  26.203  1.00  0.00    -0.203 F 
ATOM     87  C   UNL A   1      46.032  34.691  27.537  1.00  0.00     0.198 A 
ATOM     88  C   UNL A   1      46.658  34.270  29.817  1.00  0.00     0.198 A 
ATOM     89  F   UNL A   1      46.463  32.103  30.710  1.00  0.00    -0.203 F 
ATOM     90  F   UNL A   1      45.926  35.532  26.498  1.00  0.00    -0.200 F 
ATOM     91  C   UNL A   1      46.522  35.148  28.752  1.00  0.00     0.200 A 
ATOM     92  F   UNL A   1      47.120  34.714  30.994  1.00  0.00    -0.200 F 
ATOM     93  F   UNL A   1      46.870  36.435  28.894  1.00  0.00    -0.200 F 
ENDBRANCH  60  83
ENDBRANCH  34  35
ENDBRANCH  26  29
ENDBRANCH  24  25
ENDBRANCH  23  24
ENDBRANCH   1  23
TORSDOF 14
ENDMDL
