MODEL 1
REMARK VINA RESULT:     -12.7      0.000      0.000
REMARK SMILES [NH3+][C@]1(C(=O)NCCCCNC(=O)c2ccc(-c3c4nc(c(-c5c(F)c(F)c(F)c(F)c5F)c5ccc([nH]5)c(-c5c(F)c(F)c(F)c(F)c5F)c5nc(c(-c6c(F)c(F)c(F)c(F)c6F)c6ccc3[nH]6)C=C5)C=C4)cc2)CC[C@@H]([NH+]2CCC(C(F)(F)F)CC2)C1
REMARK SMILES IDX 7 1 6 2 5 3 3 4 4 5 2 7 76 8 89 9 77 10 78 11 1 12 79 16
REMARK SMILES IDX 80 17 88 18 81 20 87 21 82 22 83 23 84 24 85 25 86 26 8 27
REMARK SMILES IDX 9 28 10 29 11 30 12 32 13 33 14 34 75 35 15 36 74 37 16 38
REMARK SMILES IDX 17 39 18 40 68 41 19 42 73 43 67 44 69 45 20 46 72 47 66 48
REMARK SMILES IDX 65 49 21 51 53 52 33 53 52 54 34 55 37 56 51 57 70 58 35 59
REMARK SMILES IDX 36 60 50 62 71 63 38 64 22 65 23 66 31 67 24 68 25 69 29 70
REMARK SMILES IDX 32 71 26 72 27 73 30 74 28 75 54 76 55 77 63 78 56 79 57 80
REMARK SMILES IDX 61 81 64 82 58 83 59 84 62 85 60 86 39 87 40 88 48 89 41 90
REMARK SMILES IDX 42 91 46 92 49 93 43 94 44 95 47 96 45 97
REMARK H PARENT 5 6 1 13 1 14 1 15 79 19 10 31 69 50 37 61
REMARK Flexibility Score: inf
ROOT
ATOM      1  C   UNL A   1      31.892  30.450  26.702  1.00  0.00     0.023 C 
ENDROOT
BRANCH   1   2
ATOM      2  C   UNL A   1      31.673  29.878  25.302  1.00  0.00     0.116 C 
BRANCH   2   3
ATOM      3  N   UNL A   1      32.928  29.602  24.634  1.00  0.00    -0.351 N 
ATOM      4  C   UNL A   1      33.293  28.718  23.671  1.00  0.00     0.281 C 
ATOM      5  O   UNL A   1      34.504  28.721  23.399  1.00  0.00    -0.268 OA
ATOM      6  H   UNL A   1      33.668  30.175  24.941  1.00  0.00     0.163 HD
BRANCH   4   7
ATOM      7  C   UNL A   1      32.323  27.803  22.871  1.00  0.00     0.179 C 
ATOM      8  C   UNL A   1      33.146  26.941  21.897  1.00  0.00     0.085 C 
ATOM      9  C   UNL A   1      31.702  26.747  23.808  1.00  0.00     0.144 C 
ATOM     10  C   UNL A   1      32.276  25.719  21.644  1.00  0.00     0.072 C 
ATOM     11  C   UNL A   1      31.581  25.441  22.990  1.00  0.00     0.191 C 
BRANCH   7  12
ATOM     12  N   UNL A   1      31.239  28.496  22.145  1.00  0.00    -0.345 N 
ATOM     13  H   UNL A   1      30.370  28.413  22.673  1.00  0.00     0.345 HD
ATOM     14  H   UNL A   1      31.121  28.071  21.225  1.00  0.00     0.345 HD
ATOM     15  H   UNL A   1      31.478  29.481  22.036  1.00  0.00     0.345 HD
ENDBRANCH   7  12
BRANCH  11  16
ATOM     16  N   UNL A   1      32.048  24.214  23.665  1.00  0.00    -0.332 N 
ATOM     17  C   UNL A   1      31.015  23.520  24.448  1.00  0.00     0.263 C 
ATOM     18  C   UNL A   1      32.710  23.302  22.720  1.00  0.00     0.263 C 
ATOM     19  H   UNL A   1      32.734  24.531  24.350  1.00  0.00     0.348 HD
ATOM     20  C   UNL A   1      31.623  22.362  25.238  1.00  0.00     0.074 C 
ATOM     21  C   UNL A   1      33.359  22.127  23.450  1.00  0.00     0.074 C 
ATOM     22  C   UNL A   1      32.339  21.378  24.313  1.00  0.00     0.106 C 
BRANCH  22  23
ATOM     23  C   UNL A   1      33.004  20.272  25.108  1.00  0.00     0.392 C 
ATOM     24  F   UNL A   1      34.201  19.944  24.571  1.00  0.00    -0.171 F 
ATOM     25  F   UNL A   1      33.228  20.663  26.383  1.00  0.00    -0.171 F 
ATOM     26  F   UNL A   1      32.250  19.154  25.147  1.00  0.00    -0.171 F 
ENDBRANCH  22  23
ENDBRANCH  11  16
ENDBRANCH   4   7
ENDBRANCH   2   3
ENDBRANCH   1   2
BRANCH   1  27
ATOM     27  C   UNL A   1      31.597  31.949  26.826  1.00  0.00     0.023 C 
BRANCH  27  28
ATOM     28  C   UNL A   1      32.777  32.818  27.255  1.00  0.00     0.116 C 
BRANCH  28  29
ATOM     29  N   UNL A   1      32.398  34.176  27.619  1.00  0.00    -0.352 N 
ATOM     30  C   UNL A   1      32.952  35.001  28.567  1.00  0.00     0.251 C 
ATOM     31  H   UNL A   1      31.640  34.554  27.117  1.00  0.00     0.163 HD
ATOM     32  O   UNL A   1      32.452  36.094  28.811  1.00  0.00    -0.269 OA
BRANCH  30  33
ATOM     33  C   UNL A   1      34.133  34.543  29.326  1.00  0.00     0.039 A 
ATOM     34  C   UNL A   1      33.941  33.984  30.593  1.00  0.00     0.014 A 
ATOM     35  C   UNL A   1      35.415  34.630  28.778  1.00  0.00     0.014 A 
ATOM     36  C   UNL A   1      35.029  33.441  31.278  1.00  0.00     0.010 A 
ATOM     37  C   UNL A   1      36.486  34.030  29.433  1.00  0.00     0.010 A 
ATOM     38  C   UNL A   1      36.302  33.423  30.685  1.00  0.00    -0.014 A 
BRANCH  38  39
ATOM     39  C   UNL A   1      37.452  32.761  31.352  1.00  0.00     0.031 A 
ATOM     40  C   UNL A   1      38.142  31.603  30.690  1.00  0.00     0.074 A 
ATOM     41  C   UNL A   1      37.828  33.163  32.582  1.00  0.00     0.049 A 
ATOM     42  N   UNL A   1      39.098  30.837  31.151  1.00  0.00    -0.248 NA
ATOM     43  C   UNL A   1      37.679  31.240  29.342  1.00  0.00     0.031 C 
ATOM     44  C   UNL A   1      37.209  34.248  33.346  1.00  0.00     0.029 A 
ATOM     45  N   UNL A   1      38.816  32.696  33.413  1.00  0.00    -0.354 N 
ATOM     46  C   UNL A   1      39.346  29.902  30.155  1.00  0.00     0.074 A 
ATOM     47  C   UNL A   1      38.404  30.159  29.087  1.00  0.00     0.031 C 
ATOM     48  C   UNL A   1      37.840  34.373  34.525  1.00  0.00     0.029 A 
ATOM     49  C   UNL A   1      38.881  33.355  34.617  1.00  0.00     0.049 A 
ATOM     50  H   UNL A   1      39.420  31.957  33.170  1.00  0.00     0.167 HD
ATOM     51  C   UNL A   1      40.290  28.933  30.123  1.00  0.00     0.037 A 
ATOM     52  C   UNL A   1      39.684  33.152  35.679  1.00  0.00     0.037 A 
ATOM     53  C   UNL A   1      41.241  28.692  31.175  1.00  0.00     0.049 A 
ATOM     54  C   UNL A   1      40.717  32.057  35.619  1.00  0.00     0.074 A 
ATOM     55  C   UNL A   1      42.259  27.755  31.221  1.00  0.00     0.029 A 
ATOM     56  N   UNL A   1      41.294  29.398  32.367  1.00  0.00    -0.354 N 
ATOM     57  N   UNL A   1      40.975  31.214  34.650  1.00  0.00    -0.248 NA
ATOM     58  C   UNL A   1      41.574  31.889  36.802  1.00  0.00     0.031 C 
ATOM     59  C   UNL A   1      42.907  27.873  32.454  1.00  0.00     0.029 A 
ATOM     60  C   UNL A   1      42.322  28.912  33.159  1.00  0.00     0.049 A 
ATOM     61  H   UNL A   1      40.691  30.137  32.614  1.00  0.00     0.167 HD
ATOM     62  C   UNL A   1      42.042  30.442  35.088  1.00  0.00     0.074 A 
ATOM     63  C   UNL A   1      42.393  30.925  36.406  1.00  0.00     0.031 C 
ATOM     64  C   UNL A   1      42.672  29.422  34.459  1.00  0.00     0.037 A 
BRANCH  51  65
ATOM     65  C   UNL A   1      40.359  28.068  28.899  1.00  0.00     0.064 A 
ATOM     66  C   UNL A   1      41.136  28.435  27.790  1.00  0.00     0.173 A 
ATOM     67  C   UNL A   1      39.693  26.834  28.856  1.00  0.00     0.173 A 
ATOM     68  F   UNL A   1      41.781  29.610  27.778  1.00  0.00    -0.203 F 
ATOM     69  C   UNL A   1      41.231  27.605  26.676  1.00  0.00     0.198 A 
ATOM     70  C   UNL A   1      39.813  25.993  27.752  1.00  0.00     0.198 A 
ATOM     71  F   UNL A   1      38.942  26.433  29.892  1.00  0.00    -0.203 F 
ATOM     72  F   UNL A   1      41.950  27.994  25.614  1.00  0.00    -0.200 F 
ATOM     73  C   UNL A   1      40.577  26.382  26.661  1.00  0.00     0.200 A 
ATOM     74  F   UNL A   1      39.192  24.807  27.744  1.00  0.00    -0.200 F 
ATOM     75  F   UNL A   1      40.682  25.579  25.594  1.00  0.00    -0.200 F 
ENDBRANCH  51  65
BRANCH  52  76
ATOM     76  C   UNL A   1      39.560  34.005  36.891  1.00  0.00     0.064 A 
ATOM     77  C   UNL A   1      40.237  35.230  36.980  1.00  0.00     0.173 A 
ATOM     78  C   UNL A   1      38.797  33.598  37.995  1.00  0.00     0.173 A 
ATOM     79  F   UNL A   1      40.996  35.651  35.959  1.00  0.00    -0.203 F 
ATOM     80  C   UNL A   1      40.183  35.999  38.141  1.00  0.00     0.198 A 
ATOM     81  C   UNL A   1      38.719  34.384  39.144  1.00  0.00     0.198 A 
ATOM     82  F   UNL A   1      38.127  32.438  37.959  1.00  0.00    -0.203 F 
ATOM     83  F   UNL A   1      40.889  37.135  38.222  1.00  0.00    -0.200 F 
ATOM     84  C   UNL A   1      39.422  35.577  39.221  1.00  0.00     0.200 A 
ATOM     85  F   UNL A   1      37.973  33.979  40.180  1.00  0.00    -0.200 F 
ATOM     86  F   UNL A   1      39.376  36.313  40.339  1.00  0.00    -0.200 F 
ENDBRANCH  52  76
BRANCH  64  87
ATOM     87  C   UNL A   1      43.835  28.790  35.166  1.00  0.00     0.064 A 
ATOM     88  C   UNL A   1      45.146  29.254  34.984  1.00  0.00     0.173 A 
ATOM     89  C   UNL A   1      43.628  27.735  36.067  1.00  0.00     0.173 A 
ATOM     90  F   UNL A   1      45.397  30.250  34.122  1.00  0.00    -0.203 F 
ATOM     91  C   UNL A   1      46.211  28.666  35.661  1.00  0.00     0.198 A 
ATOM     92  C   UNL A   1      44.692  27.170  36.763  1.00  0.00     0.198 A 
ATOM     93  F   UNL A   1      42.391  27.261  36.280  1.00  0.00    -0.203 F 
ATOM     94  F   UNL A   1      47.462  29.093  35.438  1.00  0.00    -0.200 F 
ATOM     95  C   UNL A   1      45.982  27.630  36.555  1.00  0.00     0.200 A 
ATOM     96  F   UNL A   1      44.467  26.178  37.636  1.00  0.00    -0.200 F 
ATOM     97  F   UNL A   1      47.008  27.071  37.211  1.00  0.00    -0.200 F 
ENDBRANCH  64  87
ENDBRANCH  38  39
ENDBRANCH  30  33
ENDBRANCH  28  29
ENDBRANCH  27  28
ENDBRANCH   1  27
TORSDOF 14
ENDMDL
MODEL 2
REMARK VINA RESULT:     -12.7      0.336      2.028
REMARK SMILES [NH3+][C@]1(C(=O)NCCCCNC(=O)c2ccc(-c3c4nc(c(-c5c(F)c(F)c(F)c(F)c5F)c5ccc([nH]5)c(-c5c(F)c(F)c(F)c(F)c5F)c5nc(c(-c6c(F)c(F)c(F)c(F)c6F)c6ccc3[nH]6)C=C5)C=C4)cc2)CC[C@@H]([NH+]2CCC(C(F)(F)F)CC2)C1
REMARK SMILES IDX 7 1 6 2 5 3 3 4 4 5 2 7 76 8 89 9 77 10 78 11 1 12 79 16
REMARK SMILES IDX 80 17 88 18 81 20 87 21 82 22 83 23 84 24 85 25 86 26 8 27
REMARK SMILES IDX 9 28 10 29 11 30 12 32 13 33 14 34 75 35 15 36 74 37 16 38
REMARK SMILES IDX 17 39 18 40 68 41 19 42 73 43 67 44 69 45 20 46 72 47 66 48
REMARK SMILES IDX 65 49 21 51 53 52 33 53 52 54 34 55 37 56 51 57 70 58 35 59
REMARK SMILES IDX 36 60 50 62 71 63 38 64 22 65 23 66 31 67 24 68 25 69 29 70
REMARK SMILES IDX 32 71 26 72 27 73 30 74 28 75 54 76 55 77 63 78 56 79 57 80
REMARK SMILES IDX 61 81 64 82 58 83 59 84 62 85 60 86 39 87 40 88 48 89 41 90
REMARK SMILES IDX 42 91 46 92 49 93 43 94 44 95 47 96 45 97
REMARK H PARENT 5 6 1 13 1 14 1 15 79 19 10 31 69 50 37 61
REMARK Flexibility Score: inf
ROOT
ATOM      1  C   UNL A   1      31.948  30.344  26.672  1.00  0.00     0.023 C 
ENDROOT
BRANCH   1   2
ATOM      2  C   UNL A   1      31.690  29.750  25.289  1.00  0.00     0.116 C 
BRANCH   2   3
ATOM      3  N   UNL A   1      32.914  29.609  24.529  1.00  0.00    -0.351 N 
ATOM      4  C   UNL A   1      33.303  28.763  23.541  1.00  0.00     0.281 C 
ATOM      5  O   UNL A   1      34.482  28.897  23.180  1.00  0.00    -0.268 OA
ATOM      6  H   UNL A   1      33.607  30.262  24.780  1.00  0.00     0.163 HD
BRANCH   4   7
ATOM      7  C   UNL A   1      32.383  27.740  22.815  1.00  0.00     0.179 C 
ATOM      8  C   UNL A   1      33.237  26.916  21.835  1.00  0.00     0.085 C 
ATOM      9  C   UNL A   1      31.894  26.670  23.814  1.00  0.00     0.144 C 
ATOM     10  C   UNL A   1      32.466  25.616  21.661  1.00  0.00     0.072 C 
ATOM     11  C   UNL A   1      31.853  25.330  23.045  1.00  0.00     0.191 C 
BRANCH   7  12
ATOM     12  N   UNL A   1      31.214  28.311  22.116  1.00  0.00    -0.345 N 
ATOM     13  H   UNL A   1      31.383  28.305  21.110  1.00  0.00     0.345 HD
ATOM     14  H   UNL A   1      31.066  29.271  22.431  1.00  0.00     0.345 HD
ATOM     15  H   UNL A   1      30.386  27.754  22.325  1.00  0.00     0.345 HD
ENDBRANCH   7  12
BRANCH  11  16
ATOM     16  N   UNL A   1      32.451  24.173  23.739  1.00  0.00    -0.332 N 
ATOM     17  C   UNL A   1      31.475  23.237  24.316  1.00  0.00     0.263 C 
ATOM     18  C   UNL A   1      33.420  23.475  22.879  1.00  0.00     0.263 C 
ATOM     19  H   UNL A   1      32.948  24.567  24.538  1.00  0.00     0.348 HD
ATOM     20  C   UNL A   1      32.179  22.167  25.149  1.00  0.00     0.074 C 
ATOM     21  C   UNL A   1      34.176  22.400  23.658  1.00  0.00     0.074 C 
ATOM     22  C   UNL A   1      33.211  21.408  24.314  1.00  0.00     0.106 C 
BRANCH  22  23
ATOM     23  C   UNL A   1      33.958  20.399  25.163  1.00  0.00     0.392 C 
ATOM     24  F   UNL A   1      33.287  20.140  26.308  1.00  0.00    -0.171 F 
ATOM     25  F   UNL A   1      34.097  19.225  24.504  1.00  0.00    -0.171 F 
ATOM     26  F   UNL A   1      35.191  20.831  25.496  1.00  0.00    -0.171 F 
ENDBRANCH  22  23
ENDBRANCH  11  16
ENDBRANCH   4   7
ENDBRANCH   2   3
ENDBRANCH   1   2
BRANCH   1  27
ATOM     27  C   UNL A   1      31.677  31.849  26.776  1.00  0.00     0.023 C 
BRANCH  27  28
ATOM     28  C   UNL A   1      32.839  32.692  27.295  1.00  0.00     0.116 C 
BRANCH  28  29
ATOM     29  N   UNL A   1      32.462  34.056  27.637  1.00  0.00    -0.352 N 
ATOM     30  C   UNL A   1      33.014  34.894  28.575  1.00  0.00     0.251 C 
ATOM     31  H   UNL A   1      31.707  34.428  27.127  1.00  0.00     0.163 HD
ATOM     32  O   UNL A   1      32.516  35.992  28.800  1.00  0.00    -0.269 OA
BRANCH  30  33
ATOM     33  C   UNL A   1      34.192  34.445  29.344  1.00  0.00     0.039 A 
ATOM     34  C   UNL A   1      33.987  33.807  30.571  1.00  0.00     0.014 A 
ATOM     35  C   UNL A   1      35.484  34.619  28.844  1.00  0.00     0.014 A 
ATOM     36  C   UNL A   1      35.078  33.274  31.259  1.00  0.00     0.010 A 
ATOM     37  C   UNL A   1      36.561  34.030  29.499  1.00  0.00     0.010 A 
ATOM     38  C   UNL A   1      36.367  33.344  30.708  1.00  0.00    -0.014 A 
BRANCH  38  39
ATOM     39  C   UNL A   1      37.526  32.696  31.374  1.00  0.00     0.031 A 
ATOM     40  C   UNL A   1      38.235  31.552  30.707  1.00  0.00     0.074 A 
ATOM     41  C   UNL A   1      37.893  33.097  32.607  1.00  0.00     0.049 A 
ATOM     42  N   UNL A   1      39.202  30.799  31.165  1.00  0.00    -0.248 NA
ATOM     43  C   UNL A   1      37.780  31.191  29.355  1.00  0.00     0.031 C 
ATOM     44  C   UNL A   1      37.255  34.167  33.376  1.00  0.00     0.029 A 
ATOM     45  N   UNL A   1      38.886  32.639  33.438  1.00  0.00    -0.354 N 
ATOM     46  C   UNL A   1      39.465  29.873  30.165  1.00  0.00     0.074 A 
ATOM     47  C   UNL A   1      38.522  30.123  29.096  1.00  0.00     0.031 C 
ATOM     48  C   UNL A   1      37.881  34.294  34.558  1.00  0.00     0.029 A 
ATOM     49  C   UNL A   1      38.938  33.291  34.646  1.00  0.00     0.049 A 
ATOM     50  H   UNL A   1      39.501  31.911  33.191  1.00  0.00     0.167 HD
ATOM     51  C   UNL A   1      40.424  28.919  30.129  1.00  0.00     0.037 A 
ATOM     52  C   UNL A   1      39.742  33.094  35.709  1.00  0.00     0.037 A 
ATOM     53  C   UNL A   1      41.377  28.686  31.182  1.00  0.00     0.049 A 
ATOM     54  C   UNL A   1      40.790  32.016  35.645  1.00  0.00     0.074 A 
ATOM     55  C   UNL A   1      42.408  27.764  31.225  1.00  0.00     0.029 A 
ATOM     56  N   UNL A   1      41.416  29.386  32.378  1.00  0.00    -0.354 N 
ATOM     57  N   UNL A   1      41.064  31.183  34.671  1.00  0.00    -0.248 NA
ATOM     58  C   UNL A   1      41.647  31.853  36.829  1.00  0.00     0.031 C 
ATOM     59  C   UNL A   1      43.052  27.885  32.460  1.00  0.00     0.029 A 
ATOM     60  C   UNL A   1      42.449  28.910  33.169  1.00  0.00     0.049 A 
ATOM     61  H   UNL A   1      40.801  30.114  32.628  1.00  0.00     0.167 HD
ATOM     62  C   UNL A   1      42.141  30.425  35.107  1.00  0.00     0.074 A 
ATOM     63  C   UNL A   1      42.482  30.905  36.429  1.00  0.00     0.031 C 
ATOM     64  C   UNL A   1      42.788  29.417  34.473  1.00  0.00     0.037 A 
BRANCH  51  65
ATOM     65  C   UNL A   1      40.510  28.062  28.900  1.00  0.00     0.064 A 
ATOM     66  C   UNL A   1      39.789  26.863  28.796  1.00  0.00     0.173 A 
ATOM     67  C   UNL A   1      41.269  28.471  27.793  1.00  0.00     0.173 A 
ATOM     68  F   UNL A   1      39.059  26.423  29.831  1.00  0.00    -0.203 F 
ATOM     69  C   UNL A   1      39.839  26.096  27.635  1.00  0.00     0.198 A 
ATOM     70  C   UNL A   1      41.294  27.716  26.623  1.00  0.00     0.198 A 
ATOM     71  F   UNL A   1      41.972  29.613  27.839  1.00  0.00    -0.203 F 
ATOM     72  F   UNL A   1      39.171  24.936  27.573  1.00  0.00    -0.200 F 
ATOM     73  C   UNL A   1      40.583  26.527  26.547  1.00  0.00     0.200 A 
ATOM     74  F   UNL A   1      42.003  28.140  25.569  1.00  0.00    -0.200 F 
ATOM     75  F   UNL A   1      40.617  25.795  25.426  1.00  0.00    -0.200 F 
ENDBRANCH  51  65
BRANCH  52  76
ATOM     76  C   UNL A   1      39.601  33.938  36.926  1.00  0.00     0.064 A 
ATOM     77  C   UNL A   1      38.813  33.516  38.006  1.00  0.00     0.173 A 
ATOM     78  C   UNL A   1      40.218  35.193  37.019  1.00  0.00     0.173 A 
ATOM     79  F   UNL A   1      38.185  32.332  37.954  1.00  0.00    -0.203 F 
ATOM     80  C   UNL A   1      38.619  34.333  39.117  1.00  0.00     0.198 A 
ATOM     81  C   UNL A   1      40.049  35.997  38.146  1.00  0.00     0.198 A 
ATOM     82  F   UNL A   1      40.987  35.642  36.016  1.00  0.00    -0.203 F 
ATOM     83  F   UNL A   1      37.810  33.931  40.108  1.00  0.00    -0.200 F 
ATOM     84  C   UNL A   1      39.239  35.572  39.188  1.00  0.00     0.200 A 
ATOM     85  F   UNL A   1      40.659  37.187  38.215  1.00  0.00    -0.200 F 
ATOM     86  F   UNL A   1      39.047  36.359  40.254  1.00  0.00    -0.200 F 
ENDBRANCH  52  76
BRANCH  64  87
ATOM     87  C   UNL A   1      43.960  28.800  35.179  1.00  0.00     0.064 A 
ATOM     88  C   UNL A   1      43.806  27.704  36.041  1.00  0.00     0.173 A 
ATOM     89  C   UNL A   1      45.257  29.287  34.957  1.00  0.00     0.173 A 
ATOM     90  F   UNL A   1      42.584  27.213  36.296  1.00  0.00    -0.203 F 
ATOM     91  C   UNL A   1      44.906  27.134  36.674  1.00  0.00     0.198 A 
ATOM     92  C   UNL A   1      46.357  28.696  35.570  1.00  0.00     0.198 A 
ATOM     93  F   UNL A   1      45.456  30.329  34.136  1.00  0.00    -0.203 F 
ATOM     94  F   UNL A   1      44.732  26.117  37.529  1.00  0.00    -0.200 F 
ATOM     95  C   UNL A   1      46.181  27.625  36.432  1.00  0.00     0.200 A 
ATOM     96  F   UNL A   1      47.589  29.163  35.325  1.00  0.00    -0.200 F 
ATOM     97  F   UNL A   1      47.240  27.070  37.038  1.00  0.00    -0.200 F 
ENDBRANCH  64  87
ENDBRANCH  38  39
ENDBRANCH  30  33
ENDBRANCH  28  29
ENDBRANCH  27  28
ENDBRANCH   1  27
TORSDOF 14
ENDMDL
MODEL 3
REMARK VINA RESULT:     -12.6      1.343      7.487
REMARK SMILES [NH3+][C@]1(C(=O)NCCCCNC(=O)c2ccc(-c3c4nc(c(-c5c(F)c(F)c(F)c(F)c5F)c5ccc([nH]5)c(-c5c(F)c(F)c(F)c(F)c5F)c5nc(c(-c6c(F)c(F)c(F)c(F)c6F)c6ccc3[nH]6)C=C5)C=C4)cc2)CC[C@@H]([NH+]2CCC(C(F)(F)F)CC2)C1
REMARK SMILES IDX 7 1 6 2 5 3 3 4 4 5 2 7 76 8 89 9 77 10 78 11 1 12 79 16
REMARK SMILES IDX 80 17 88 18 81 20 87 21 82 22 83 23 84 24 85 25 86 26 8 27
REMARK SMILES IDX 9 28 10 29 11 30 12 32 13 33 14 34 75 35 15 36 74 37 16 38
REMARK SMILES IDX 17 39 18 40 68 41 19 42 73 43 67 44 69 45 20 46 72 47 66 48
REMARK SMILES IDX 65 49 21 51 53 52 33 53 52 54 34 55 37 56 51 57 70 58 35 59
REMARK SMILES IDX 36 60 50 62 71 63 38 64 22 65 23 66 31 67 24 68 25 69 29 70
REMARK SMILES IDX 32 71 26 72 27 73 30 74 28 75 54 76 55 77 63 78 56 79 57 80
REMARK SMILES IDX 61 81 64 82 58 83 59 84 62 85 60 86 39 87 40 88 48 89 41 90
REMARK SMILES IDX 42 91 46 92 49 93 43 94 44 95 47 96 45 97
REMARK H PARENT 5 6 1 13 1 14 1 15 79 19 10 31 69 50 37 61
REMARK Flexibility Score: inf
ROOT
ATOM      1  C   UNL A   1      31.609  30.986  26.179  1.00  0.00     0.023 C 
ENDROOT
BRANCH   1   2
ATOM      2  C   UNL A   1      32.584  30.184  27.040  1.00  0.00     0.116 C 
BRANCH   2   3
ATOM      3  N   UNL A   1      32.042  28.889  27.398  1.00  0.00    -0.351 N 
ATOM      4  C   UNL A   1      31.693  27.796  26.673  1.00  0.00     0.281 C 
ATOM      5  O   UNL A   1      31.180  26.880  27.335  1.00  0.00    -0.268 OA
ATOM      6  H   UNL A   1      31.898  28.780  28.365  1.00  0.00     0.163 HD
BRANCH   4   7
ATOM      7  C   UNL A   1      31.958  27.598  25.154  1.00  0.00     0.179 C 
ATOM      8  C   UNL A   1      33.356  28.149  24.819  1.00  0.00     0.085 C 
ATOM      9  C   UNL A   1      32.107  26.095  24.837  1.00  0.00     0.144 C 
ATOM     10  C   UNL A   1      33.772  27.394  23.566  1.00  0.00     0.072 C 
ATOM     11  C   UNL A   1      33.198  25.975  23.748  1.00  0.00     0.191 C 
BRANCH   7  12
ATOM     12  N   UNL A   1      30.951  28.181  24.245  1.00  0.00    -0.345 N 
ATOM     13  H   UNL A   1      30.018  28.028  24.628  1.00  0.00     0.345 HD
ATOM     14  H   UNL A   1      31.021  27.735  23.330  1.00  0.00     0.345 HD
ATOM     15  H   UNL A   1      31.118  29.182  24.148  1.00  0.00     0.345 HD
ENDBRANCH   7  12
BRANCH  11  16
ATOM     16  N   UNL A   1      34.223  24.938  23.977  1.00  0.00    -0.332 N 
ATOM     17  C   UNL A   1      34.681  24.833  25.370  1.00  0.00     0.263 C 
ATOM     18  C   UNL A   1      33.791  23.633  23.453  1.00  0.00     0.263 C 
ATOM     19  H   UNL A   1      35.040  25.249  23.450  1.00  0.00     0.348 HD
ATOM     20  C   UNL A   1      35.851  23.856  25.482  1.00  0.00     0.074 C 
ATOM     21  C   UNL A   1      34.924  22.610  23.518  1.00  0.00     0.074 C 
ATOM     22  C   UNL A   1      35.471  22.476  24.942  1.00  0.00     0.106 C 
BRANCH  22  23
ATOM     23  C   UNL A   1      36.655  21.532  24.987  1.00  0.00     0.392 C 
ATOM     24  F   UNL A   1      37.445  21.798  26.052  1.00  0.00    -0.171 F 
ATOM     25  F   UNL A   1      36.243  20.248  25.102  1.00  0.00    -0.171 F 
ATOM     26  F   UNL A   1      37.416  21.621  23.877  1.00  0.00    -0.171 F 
ENDBRANCH  22  23
ENDBRANCH  11  16
ENDBRANCH   4   7
ENDBRANCH   2   3
ENDBRANCH   1   2
BRANCH   1  27
ATOM     27  C   UNL A   1      31.381  32.425  26.656  1.00  0.00     0.023 C 
BRANCH  27  28
ATOM     28  C   UNL A   1      32.549  33.063  27.405  1.00  0.00     0.116 C 
BRANCH  28  29
ATOM     29  N   UNL A   1      32.312  34.449  27.780  1.00  0.00    -0.352 N 
ATOM     30  C   UNL A   1      32.972  35.216  28.710  1.00  0.00     0.251 C 
ATOM     31  H   UNL A   1      31.577  34.899  27.304  1.00  0.00     0.163 HD
ATOM     32  O   UNL A   1      32.586  36.350  28.970  1.00  0.00    -0.269 OA
BRANCH  30  33
ATOM     33  C   UNL A   1      34.129  34.646  29.429  1.00  0.00     0.039 A 
ATOM     34  C   UNL A   1      33.923  34.081  30.690  1.00  0.00     0.014 A 
ATOM     35  C   UNL A   1      35.400  34.637  28.849  1.00  0.00     0.014 A 
ATOM     36  C   UNL A   1      34.978  33.436  31.337  1.00  0.00     0.010 A 
ATOM     37  C   UNL A   1      36.433  33.937  29.465  1.00  0.00     0.010 A 
ATOM     38  C   UNL A   1      36.230  33.322  30.710  1.00  0.00    -0.014 A 
BRANCH  38  39
ATOM     39  C   UNL A   1      37.337  32.555  31.335  1.00  0.00     0.031 A 
ATOM     40  C   UNL A   1      37.844  32.937  32.697  1.00  0.00     0.074 A 
ATOM     41  C   UNL A   1      37.926  31.558  30.647  1.00  0.00     0.049 A 
ATOM     42  N   UNL A   1      38.857  32.453  33.368  1.00  0.00    -0.248 NA
ATOM     43  C   UNL A   1      37.133  34.026  33.385  1.00  0.00     0.031 C 
ATOM     44  C   UNL A   1      37.552  31.121  29.300  1.00  0.00     0.029 A 
ATOM     45  N   UNL A   1      38.976  30.739  30.980  1.00  0.00    -0.354 N 
ATOM     46  C   UNL A   1      38.910  33.179  34.549  1.00  0.00     0.074 A 
ATOM     47  C   UNL A   1      37.861  34.174  34.483  1.00  0.00     0.031 C 
ATOM     48  C   UNL A   1      38.349  30.106  28.929  1.00  0.00     0.029 A 
ATOM     49  C   UNL A   1      39.314  29.845  29.993  1.00  0.00     0.049 A 
ATOM     50  H   UNL A   1      39.444  30.789  31.845  1.00  0.00     0.167 HD
ATOM     51  C   UNL A   1      39.740  33.015  35.605  1.00  0.00     0.037 A 
ATOM     52  C   UNL A   1      40.297  28.926  29.948  1.00  0.00     0.037 A 
ATOM     53  C   UNL A   1      40.767  32.011  35.681  1.00  0.00     0.049 A 
ATOM     54  C   UNL A   1      41.214  28.775  31.133  1.00  0.00     0.074 A 
ATOM     55  C   UNL A   1      41.638  31.743  36.723  1.00  0.00     0.029 A 
ATOM     56  N   UNL A   1      41.060  31.105  34.672  1.00  0.00    -0.354 N 
ATOM     57  N   UNL A   1      41.218  29.433  32.267  1.00  0.00    -0.248 NA
ATOM     58  C   UNL A   1      42.262  27.748  31.034  1.00  0.00     0.031 C 
ATOM     59  C   UNL A   1      42.479  30.696  36.333  1.00  0.00     0.029 A 
ATOM     60  C   UNL A   1      42.104  30.283  35.065  1.00  0.00     0.049 A 
ATOM     61  H   UNL A   1      40.595  31.054  33.806  1.00  0.00     0.167 HD
ATOM     62  C   UNL A   1      42.239  28.880  33.026  1.00  0.00     0.074 A 
ATOM     63  C   UNL A   1      42.825  27.822  32.231  1.00  0.00     0.031 C 
ATOM     64  C   UNL A   1      42.658  29.219  34.269  1.00  0.00     0.037 A 
BRANCH  51  65
ATOM     65  C   UNL A   1      39.560  33.928  36.782  1.00  0.00     0.064 A 
ATOM     66  C   UNL A   1      38.786  33.548  37.888  1.00  0.00     0.173 A 
ATOM     67  C   UNL A   1      40.214  35.168  36.832  1.00  0.00     0.173 A 
ATOM     68  F   UNL A   1      38.131  32.378  37.884  1.00  0.00    -0.203 F 
ATOM     69  C   UNL A   1      38.661  34.383  38.996  1.00  0.00     0.198 A 
ATOM     70  C   UNL A   1      40.110  35.989  37.953  1.00  0.00     0.198 A 
ATOM     71  F   UNL A   1      40.971  35.577  35.803  1.00  0.00    -0.203 F 
ATOM     72  F   UNL A   1      37.887  34.014  40.026  1.00  0.00    -0.200 F 
ATOM     73  C   UNL A   1      39.329  35.597  39.031  1.00  0.00     0.200 A 
ATOM     74  F   UNL A   1      40.766  37.156  37.991  1.00  0.00    -0.200 F 
ATOM     75  F   UNL A   1      39.219  36.392  40.103  1.00  0.00    -0.200 F 
ENDBRANCH  51  65
BRANCH  52  76
ATOM     76  C   UNL A   1      40.469  28.064  28.748  1.00  0.00     0.064 A 
ATOM     77  C   UNL A   1      41.256  28.486  27.667  1.00  0.00     0.173 A 
ATOM     78  C   UNL A   1      39.823  26.825  28.640  1.00  0.00     0.173 A 
ATOM     79  F   UNL A   1      41.876  29.674  27.714  1.00  0.00    -0.203 F 
ATOM     80  C   UNL A   1      41.362  27.717  26.511  1.00  0.00     0.198 A 
ATOM     81  C   UNL A   1      39.956  26.041  27.495  1.00  0.00     0.198 A 
ATOM     82  F   UNL A   1      39.063  26.373  29.648  1.00  0.00    -0.203 F 
ATOM     83  F   UNL A   1      42.071  28.173  25.468  1.00  0.00    -0.200 F 
ATOM     84  C   UNL A   1      40.714  26.494  26.426  1.00  0.00     0.200 A 
ATOM     85  F   UNL A   1      39.338  24.855  27.423  1.00  0.00    -0.200 F 
ATOM     86  F   UNL A   1      40.811  25.757  25.312  1.00  0.00    -0.200 F 
ENDBRANCH  52  76
BRANCH  64  87
ATOM     87  C   UNL A   1      43.772  28.409  34.865  1.00  0.00     0.064 A 
ATOM     88  C   UNL A   1      45.114  28.792  34.732  1.00  0.00     0.173 A 
ATOM     89  C   UNL A   1      43.486  27.257  35.614  1.00  0.00     0.173 A 
ATOM     90  F   UNL A   1      45.438  29.878  34.013  1.00  0.00    -0.203 F 
ATOM     91  C   UNL A   1      46.132  28.037  35.306  1.00  0.00     0.198 A 
ATOM     92  C   UNL A   1      44.505  26.521  36.210  1.00  0.00     0.198 A 
ATOM     93  F   UNL A   1      42.217  26.853  35.775  1.00  0.00    -0.203 F 
ATOM     94  F   UNL A   1      47.411  28.395  35.127  1.00  0.00    -0.200 F 
ATOM     95  C   UNL A   1      45.827  26.907  36.051  1.00  0.00     0.200 A 
ATOM     96  F   UNL A   1      44.208  25.437  36.940  1.00  0.00    -0.200 F 
ATOM     97  F   UNL A   1      46.809  26.186  36.608  1.00  0.00    -0.200 F 
ENDBRANCH  64  87
ENDBRANCH  38  39
ENDBRANCH  30  33
ENDBRANCH  28  29
ENDBRANCH  27  28
ENDBRANCH   1  27
TORSDOF 14
ENDMDL
