MODEL 1
REMARK VINA RESULT:     -12.8      0.000      0.000
REMARK SMILES Cc1c(CC(=O)NCCCCNC(=O)c2ccc(-c3c4nc(c(-c5c(F)c(F)c(F)c(F)c5F)c5ccc([nH]5)c(-c5c(F)c(F)c(F)c(F)c5F)c5nc(c(-c6c(F)c(F)c(F)c(F)c6F)c6ccc3[nH]6)C=C5)C=C4)cc2)c(O)oc2cc(=O)cc(O)c1-2
REMARK SMILES IDX 9 1 8 2 7 3 5 4 6 5 4 7 3 8 1 9 2 10 88 11 78 12 81 13 86 14
REMARK SMILES IDX 80 15 82 16 85 17 83 18 84 19 79 20 87 22 10 24 11 25 12 26
REMARK SMILES IDX 13 27 14 29 15 30 16 31 77 32 17 33 76 34 18 35 19 36 20 37
REMARK SMILES IDX 70 38 21 39 75 40 69 41 71 42 22 43 74 44 68 45 67 46 23 48
REMARK SMILES IDX 55 49 35 50 54 51 36 52 39 53 53 54 72 55 37 56 38 57 52 59
REMARK SMILES IDX 73 60 40 61 24 62 25 63 33 64 26 65 27 66 31 67 34 68 28 69
REMARK SMILES IDX 29 70 32 71 30 72 56 73 57 74 65 75 58 76 59 77 63 78 66 79
REMARK SMILES IDX 60 80 61 81 64 82 62 83 41 84 42 85 50 86 43 87 44 88 48 89
REMARK SMILES IDX 51 90 45 91 46 92 49 93 47 94
REMARK H PARENT 7 6 79 21 87 23 12 28 71 47 39 58
REMARK Flexibility Score: inf
ROOT
ATOM      1  C   UNL A   1      31.733  30.538  26.676  1.00  0.00     0.023 C 
ENDROOT
BRANCH   1   2
ATOM      2  C   UNL A   1      32.608  29.969  25.560  1.00  0.00     0.116 C 
BRANCH   2   3
ATOM      3  N   UNL A   1      31.823  29.582  24.406  1.00  0.00    -0.356 N 
ATOM      4  C   UNL A   1      32.170  28.772  23.366  1.00  0.00     0.224 C 
ATOM      5  O   UNL A   1      31.346  28.602  22.464  1.00  0.00    -0.275 OA
ATOM      6  H   UNL A   1      30.914  29.955  24.368  1.00  0.00     0.163 HD
BRANCH   4   7
ATOM      7  C   UNL A   1      33.509  28.037  23.364  1.00  0.00     0.143 C 
BRANCH   7   8
ATOM      8  C   UNL A   1      33.436  26.522  23.229  1.00  0.00     0.046 A 
ATOM      9  C   UNL A   1      33.855  26.329  25.736  1.00  0.00     0.046 C 
ATOM     10  C   UNL A   1      33.493  25.647  24.432  1.00  0.00    -0.026 A 
ATOM     11  C   UNL A   1      33.242  24.309  24.313  1.00  0.00     0.063 A 
ATOM     12  C   UNL A   1      33.286  25.944  22.017  1.00  0.00     0.286 A 
ATOM     13  C   UNL A   1      33.010  23.759  22.963  1.00  0.00     0.146 A 
ATOM     14  C   UNL A   1      33.180  23.343  25.436  1.00  0.00     0.130 A 
ATOM     15  O   UNL A   1      33.080  24.594  21.865  1.00  0.00    -0.425 OA
ATOM     16  C   UNL A   1      32.770  22.461  22.750  1.00  0.00     0.100 A 
ATOM     17  C   UNL A   1      32.952  22.038  25.227  1.00  0.00     0.099 A 
ATOM     18  C   UNL A   1      32.729  21.509  23.868  1.00  0.00     0.186 A 
ATOM     19  O   UNL A   1      32.510  20.318  23.685  1.00  0.00    -0.290 OA
BRANCH  12  20
ATOM     20  O   UNL A   1      33.278  26.664  20.841  1.00  0.00    -0.480 OA
ATOM     21  H   UNL A   1      34.052  27.113  20.562  1.00  0.00     0.297 HD
ENDBRANCH  12  20
BRANCH  14  22
ATOM     22  O   UNL A   1      33.316  23.826  26.719  1.00  0.00    -0.507 OA
ATOM     23  H   UNL A   1      34.143  23.770  27.155  1.00  0.00     0.293 HD
ENDBRANCH  14  22
ENDBRANCH   7   8
ENDBRANCH   4   7
ENDBRANCH   2   3
ENDBRANCH   1   2
BRANCH   1  24
ATOM     24  C   UNL A   1      31.595  32.062  26.662  1.00  0.00     0.023 C 
BRANCH  24  25
ATOM     25  C   UNL A   1      32.773  32.827  27.251  1.00  0.00     0.116 C 
BRANCH  25  26
ATOM     26  N   UNL A   1      32.438  34.192  27.629  1.00  0.00    -0.352 N 
ATOM     27  C   UNL A   1      33.002  34.973  28.608  1.00  0.00     0.251 C 
ATOM     28  H   UNL A   1      31.712  34.612  27.113  1.00  0.00     0.163 HD
ATOM     29  O   UNL A   1      32.539  36.077  28.871  1.00  0.00    -0.269 OA
BRANCH  27  30
ATOM     30  C   UNL A   1      34.152  34.451  29.373  1.00  0.00     0.039 A 
ATOM     31  C   UNL A   1      33.911  33.800  30.585  1.00  0.00     0.014 A 
ATOM     32  C   UNL A   1      35.453  34.577  28.880  1.00  0.00     0.014 A 
ATOM     33  C   UNL A   1      34.973  33.215  31.273  1.00  0.00     0.010 A 
ATOM     34  C   UNL A   1      36.502  33.936  29.534  1.00  0.00     0.010 A 
ATOM     35  C   UNL A   1      36.270  33.250  30.736  1.00  0.00    -0.014 A 
BRANCH  35  36
ATOM     36  C   UNL A   1      37.401  32.582  31.424  1.00  0.00     0.031 A 
ATOM     37  C   UNL A   1      38.132  31.460  30.749  1.00  0.00     0.074 A 
ATOM     38  C   UNL A   1      37.742  32.964  32.670  1.00  0.00     0.049 A 
ATOM     39  N   UNL A   1      39.115  30.723  31.200  1.00  0.00    -0.248 NA
ATOM     40  C   UNL A   1      37.689  31.106  29.391  1.00  0.00     0.031 C 
ATOM     41  C   UNL A   1      37.090  34.025  33.437  1.00  0.00     0.029 A 
ATOM     42  N   UNL A   1      38.726  32.503  33.509  1.00  0.00    -0.354 N 
ATOM     43  C   UNL A   1      39.406  29.823  30.184  1.00  0.00     0.074 A 
ATOM     44  C   UNL A   1      38.458  30.063  29.119  1.00  0.00     0.031 C 
ATOM     45  C   UNL A   1      37.715  34.161  34.618  1.00  0.00     0.029 A 
ATOM     46  C   UNL A   1      38.787  33.173  34.705  1.00  0.00     0.049 A 
ATOM     47  H   UNL A   1      39.329  31.761  33.274  1.00  0.00     0.167 HD
ATOM     48  C   UNL A   1      40.396  28.902  30.133  1.00  0.00     0.037 A 
ATOM     49  C   UNL A   1      39.620  33.011  35.751  1.00  0.00     0.037 A 
ATOM     50  C   UNL A   1      41.346  28.674  31.188  1.00  0.00     0.049 A 
ATOM     51  C   UNL A   1      40.682  31.947  35.688  1.00  0.00     0.074 A 
ATOM     52  C   UNL A   1      42.399  27.777  31.223  1.00  0.00     0.029 A 
ATOM     53  N   UNL A   1      41.359  29.354  32.398  1.00  0.00    -0.354 N 
ATOM     54  N   UNL A   1      40.968  31.123  34.710  1.00  0.00    -0.248 NA
ATOM     55  C   UNL A   1      41.533  31.791  36.875  1.00  0.00     0.031 C 
ATOM     56  C   UNL A   1      43.028  27.890  32.467  1.00  0.00     0.029 A 
ATOM     57  C   UNL A   1      42.393  28.886  33.192  1.00  0.00     0.049 A 
ATOM     58  H   UNL A   1      40.726  30.064  32.654  1.00  0.00     0.167 HD
ATOM     59  C   UNL A   1      42.044  30.367  35.153  1.00  0.00     0.074 A 
ATOM     60  C   UNL A   1      42.369  30.837  36.483  1.00  0.00     0.031 C 
ATOM     61  C   UNL A   1      42.704  29.370  34.512  1.00  0.00     0.037 A 
BRANCH  48  62
ATOM     62  C   UNL A   1      40.512  28.083  28.881  1.00  0.00     0.064 A 
ATOM     63  C   UNL A   1      39.838  26.860  28.748  1.00  0.00     0.173 A 
ATOM     64  C   UNL A   1      41.270  28.538  27.794  1.00  0.00     0.173 A 
ATOM     65  F   UNL A   1      39.111  26.374  29.766  1.00  0.00    -0.203 F 
ATOM     66  C   UNL A   1      39.940  26.110  27.580  1.00  0.00     0.198 A 
ATOM     67  C   UNL A   1      41.347  27.798  26.616  1.00  0.00     0.198 A 
ATOM     68  F   UNL A   1      41.931  29.703  27.868  1.00  0.00    -0.203 F 
ATOM     69  F   UNL A   1      39.324  24.922  27.492  1.00  0.00    -0.200 F 
ATOM     70  C   UNL A   1      40.688  26.583  26.513  1.00  0.00     0.200 A 
ATOM     71  F   UNL A   1      42.062  28.262  25.580  1.00  0.00    -0.200 F 
ATOM     72  F   UNL A   1      40.778  25.863  25.385  1.00  0.00    -0.200 F 
ENDBRANCH  48  62
BRANCH  49  73
ATOM     73  C   UNL A   1      39.511  33.913  36.926  1.00  0.00     0.064 A 
ATOM     74  C   UNL A   1      40.147  35.162  36.924  1.00  0.00     0.173 A 
ATOM     75  C   UNL A   1      38.759  33.563  38.056  1.00  0.00     0.173 A 
ATOM     76  F   UNL A   1      40.894  35.531  35.873  1.00  0.00    -0.203 F 
ATOM     77  C   UNL A   1      40.040  36.025  38.012  1.00  0.00     0.198 A 
ATOM     78  C   UNL A   1      38.636  34.437  39.134  1.00  0.00     0.198 A 
ATOM     79  F   UNL A   1      38.131  32.379  38.105  1.00  0.00    -0.203 F 
ATOM     80  F   UNL A   1      40.681  37.202  37.996  1.00  0.00    -0.200 F 
ATOM     81  C   UNL A   1      39.278  35.665  39.113  1.00  0.00     0.200 A 
ATOM     82  F   UNL A   1      37.889  34.091  40.192  1.00  0.00    -0.200 F 
ATOM     83  F   UNL A   1      39.167  36.501  40.155  1.00  0.00    -0.200 F 
ENDBRANCH  49  73
BRANCH  61  84
ATOM     84  C   UNL A   1      43.855  28.729  35.228  1.00  0.00     0.064 A 
ATOM     85  C   UNL A   1      45.156  29.240  35.126  1.00  0.00     0.173 A 
ATOM     86  C   UNL A   1      43.639  27.639  36.085  1.00  0.00     0.173 A 
ATOM     87  F   UNL A   1      45.413  30.273  34.308  1.00  0.00    -0.203 F 
ATOM     88  C   UNL A   1      46.204  28.677  35.849  1.00  0.00     0.198 A 
ATOM     89  C   UNL A   1      44.685  27.094  36.825  1.00  0.00     0.198 A 
ATOM     90  F   UNL A   1      42.410  27.118  36.222  1.00  0.00    -0.203 F 
ATOM     91  F   UNL A   1      47.445  29.162  35.714  1.00  0.00    -0.200 F 
ATOM     92  C   UNL A   1      45.965  27.611  36.705  1.00  0.00     0.200 A 
ATOM     93  F   UNL A   1      44.451  26.073  37.662  1.00  0.00    -0.200 F 
ATOM     94  F   UNL A   1      46.972  27.080  37.412  1.00  0.00    -0.200 F 
ENDBRANCH  61  84
ENDBRANCH  35  36
ENDBRANCH  27  30
ENDBRANCH  25  26
ENDBRANCH  24  25
ENDBRANCH   1  24
TORSDOF 14
ENDMDL
MODEL 2
REMARK VINA RESULT:     -12.8      0.980      7.329
REMARK SMILES Cc1c(CC(=O)NCCCCNC(=O)c2ccc(-c3c4nc(c(-c5c(F)c(F)c(F)c(F)c5F)c5ccc([nH]5)c(-c5c(F)c(F)c(F)c(F)c5F)c5nc(c(-c6c(F)c(F)c(F)c(F)c6F)c6ccc3[nH]6)C=C5)C=C4)cc2)c(O)oc2cc(=O)cc(O)c1-2
REMARK SMILES IDX 9 1 8 2 7 3 5 4 6 5 4 7 3 8 1 9 2 10 88 11 78 12 81 13 86 14
REMARK SMILES IDX 80 15 82 16 85 17 83 18 84 19 79 20 87 22 10 24 11 25 12 26
REMARK SMILES IDX 13 27 14 29 15 30 16 31 77 32 17 33 76 34 18 35 19 36 20 37
REMARK SMILES IDX 70 38 21 39 75 40 69 41 71 42 22 43 74 44 68 45 67 46 23 48
REMARK SMILES IDX 55 49 35 50 54 51 36 52 39 53 53 54 72 55 37 56 38 57 52 59
REMARK SMILES IDX 73 60 40 61 24 62 25 63 33 64 26 65 27 66 31 67 34 68 28 69
REMARK SMILES IDX 29 70 32 71 30 72 56 73 57 74 65 75 58 76 59 77 63 78 66 79
REMARK SMILES IDX 60 80 61 81 64 82 62 83 41 84 42 85 50 86 43 87 44 88 48 89
REMARK SMILES IDX 51 90 45 91 46 92 49 93 47 94
REMARK H PARENT 7 6 79 21 87 23 12 28 71 47 39 58
REMARK Flexibility Score: inf
ROOT
ATOM      1  C   UNL A   1      31.788  30.532  26.611  1.00  0.00     0.023 C 
ENDROOT
BRANCH   1   2
ATOM      2  C   UNL A   1      31.559  30.001  25.197  1.00  0.00     0.116 C 
BRANCH   2   3
ATOM      3  N   UNL A   1      32.809  29.736  24.514  1.00  0.00    -0.356 N 
ATOM      4  C   UNL A   1      33.108  28.746  23.627  1.00  0.00     0.224 C 
ATOM      5  O   UNL A   1      34.259  28.689  23.188  1.00  0.00    -0.275 OA
ATOM      6  H   UNL A   1      33.543  30.358  24.719  1.00  0.00     0.163 HD
BRANCH   4   7
ATOM      7  C   UNL A   1      32.025  27.786  23.136  1.00  0.00     0.143 C 
BRANCH   7   8
ATOM      8  C   UNL A   1      32.235  26.317  23.474  1.00  0.00     0.046 A 
ATOM      9  C   UNL A   1      30.729  26.621  25.508  1.00  0.00     0.046 C 
ATOM     10  C   UNL A   1      31.498  25.682  24.600  1.00  0.00    -0.026 A 
ATOM     11  C   UNL A   1      31.557  24.328  24.776  1.00  0.00     0.063 A 
ATOM     12  C   UNL A   1      33.072  25.553  22.738  1.00  0.00     0.286 A 
ATOM     13  C   UNL A   1      32.435  23.546  23.882  1.00  0.00     0.146 A 
ATOM     14  C   UNL A   1      30.806  23.559  25.797  1.00  0.00     0.130 A 
ATOM     15  O   UNL A   1      33.187  24.196  22.924  1.00  0.00    -0.425 OA
ATOM     16  C   UNL A   1      32.565  22.219  23.988  1.00  0.00     0.100 A 
ATOM     17  C   UNL A   1      30.943  22.231  25.916  1.00  0.00     0.099 A 
ATOM     18  C   UNL A   1      31.830  21.469  25.017  1.00  0.00     0.186 A 
ATOM     19  O   UNL A   1      31.941  20.255  25.122  1.00  0.00    -0.290 OA
BRANCH  12  20
ATOM     20  O   UNL A   1      33.840  26.060  21.711  1.00  0.00    -0.480 OA
ATOM     21  H   UNL A   1      33.498  26.084  20.839  1.00  0.00     0.297 HD
ENDBRANCH  12  20
BRANCH  14  22
ATOM     22  O   UNL A   1      29.919  24.240  26.602  1.00  0.00    -0.507 OA
ATOM     23  H   UNL A   1      29.674  23.885  27.433  1.00  0.00     0.293 HD
ENDBRANCH  14  22
ENDBRANCH   7   8
ENDBRANCH   4   7
ENDBRANCH   2   3
ENDBRANCH   1   2
BRANCH   1  24
ATOM     24  C   UNL A   1      31.521  32.030  26.779  1.00  0.00     0.023 C 
BRANCH  24  25
ATOM     25  C   UNL A   1      32.744  32.875  27.114  1.00  0.00     0.116 C 
BRANCH  25  26
ATOM     26  N   UNL A   1      32.407  34.203  27.604  1.00  0.00    -0.352 N 
ATOM     27  C   UNL A   1      32.995  34.915  28.619  1.00  0.00     0.251 C 
ATOM     28  H   UNL A   1      31.658  34.649  27.147  1.00  0.00     0.163 HD
ATOM     29  O   UNL A   1      32.529  35.990  28.981  1.00  0.00    -0.269 OA
BRANCH  27  30
ATOM     30  C   UNL A   1      34.178  34.355  29.303  1.00  0.00     0.039 A 
ATOM     31  C   UNL A   1      33.983  33.549  30.428  1.00  0.00     0.014 A 
ATOM     32  C   UNL A   1      35.465  34.597  28.818  1.00  0.00     0.014 A 
ATOM     33  C   UNL A   1      35.078  32.931  31.028  1.00  0.00     0.010 A 
ATOM     34  C   UNL A   1      36.550  33.928  29.378  1.00  0.00     0.010 A 
ATOM     35  C   UNL A   1      36.365  33.089  30.487  1.00  0.00    -0.014 A 
BRANCH  35  36
ATOM     36  C   UNL A   1      37.533  32.392  31.078  1.00  0.00     0.031 A 
ATOM     37  C   UNL A   1      38.020  32.772  32.445  1.00  0.00     0.074 A 
ATOM     38  C   UNL A   1      38.173  31.444  30.366  1.00  0.00     0.049 A 
ATOM     39  N   UNL A   1      39.046  32.313  33.115  1.00  0.00    -0.248 NA
ATOM     40  C   UNL A   1      37.263  33.820  33.147  1.00  0.00     0.031 C 
ATOM     41  C   UNL A   1      37.808  31.008  29.019  1.00  0.00     0.029 A 
ATOM     42  N   UNL A   1      39.267  30.676  30.681  1.00  0.00    -0.354 N 
ATOM     43  C   UNL A   1      39.056  33.013  34.313  1.00  0.00     0.074 A 
ATOM     44  C   UNL A   1      37.974  33.971  34.254  1.00  0.00     0.031 C 
ATOM     45  C   UNL A   1      38.637  30.022  28.637  1.00  0.00     0.029 A 
ATOM     46  C   UNL A   1      39.613  29.784  29.697  1.00  0.00     0.049 A 
ATOM     47  H   UNL A   1      39.756  30.758  31.531  1.00  0.00     0.167 HD
ATOM     48  C   UNL A   1      39.875  32.850  35.378  1.00  0.00     0.037 A 
ATOM     49  C   UNL A   1      40.604  28.872  29.659  1.00  0.00     0.037 A 
ATOM     50  C   UNL A   1      40.942  31.888  35.439  1.00  0.00     0.049 A 
ATOM     51  C   UNL A   1      41.530  28.743  30.838  1.00  0.00     0.074 A 
ATOM     52  C   UNL A   1      41.815  31.631  36.482  1.00  0.00     0.029 A 
ATOM     53  N   UNL A   1      41.280  31.019  34.410  1.00  0.00    -0.354 N 
ATOM     54  N   UNL A   1      41.511  29.389  31.977  1.00  0.00    -0.248 NA
ATOM     55  C   UNL A   1      42.616  27.760  30.721  1.00  0.00     0.031 C 
ATOM     56  C   UNL A   1      42.703  30.632  36.072  1.00  0.00     0.029 A 
ATOM     57  C   UNL A   1      42.358  30.236  34.789  1.00  0.00     0.049 A 
ATOM     58  H   UNL A   1      40.822  30.968  33.540  1.00  0.00     0.167 HD
ATOM     59  C   UNL A   1      42.564  28.877  32.723  1.00  0.00     0.074 A 
ATOM     60  C   UNL A   1      43.195  27.858  31.911  1.00  0.00     0.031 C 
ATOM     61  C   UNL A   1      42.971  29.222  33.969  1.00  0.00     0.037 A 
BRANCH  48  62
ATOM     62  C   UNL A   1      39.632  33.721  36.574  1.00  0.00     0.064 A 
ATOM     63  C   UNL A   1      38.820  33.292  37.634  1.00  0.00     0.173 A 
ATOM     64  C   UNL A   1      40.243  34.979  36.681  1.00  0.00     0.173 A 
ATOM     65  F   UNL A   1      38.202  32.101  37.572  1.00  0.00    -0.203 F 
ATOM     66  C   UNL A   1      38.607  34.099  38.747  1.00  0.00     0.198 A 
ATOM     67  C   UNL A   1      40.050  35.773  37.810  1.00  0.00     0.198 A 
ATOM     68  F   UNL A   1      41.031  35.436  35.698  1.00  0.00    -0.203 F 
ATOM     69  F   UNL A   1      37.791  33.687  39.727  1.00  0.00    -0.200 F 
ATOM     70  C   UNL A   1      39.228  35.336  38.837  1.00  0.00     0.200 A 
ATOM     71  F   UNL A   1      40.659  36.964  37.901  1.00  0.00    -0.200 F 
ATOM     72  F   UNL A   1      39.029  36.110  39.914  1.00  0.00    -0.200 F 
ENDBRANCH  48  62
BRANCH  49  73
ATOM     73  C   UNL A   1      40.736  27.977  28.482  1.00  0.00     0.064 A 
ATOM     74  C   UNL A   1      41.507  28.364  27.377  1.00  0.00     0.173 A 
ATOM     75  C   UNL A   1      40.120  26.718  28.442  1.00  0.00     0.173 A 
ATOM     76  F   UNL A   1      42.098  29.568  27.363  1.00  0.00    -0.203 F 
ATOM     77  C   UNL A   1      41.654  27.526  26.274  1.00  0.00     0.198 A 
ATOM     78  C   UNL A   1      40.286  25.873  27.346  1.00  0.00     0.198 A 
ATOM     79  F   UNL A   1      39.373  26.302  29.474  1.00  0.00    -0.203 F 
ATOM     80  F   UNL A   1      42.374  27.933  25.219  1.00  0.00    -0.200 F 
ATOM     81  C   UNL A   1      41.049  26.279  26.262  1.00  0.00     0.200 A 
ATOM     82  F   UNL A   1      39.711  24.662  27.343  1.00  0.00    -0.200 F 
ATOM     83  F   UNL A   1      41.199  25.470  25.204  1.00  0.00    -0.200 F 
ENDBRANCH  49  73
BRANCH  61  84
ATOM     84  C   UNL A   1      44.142  28.485  34.545  1.00  0.00     0.064 A 
ATOM     85  C   UNL A   1      45.451  28.966  34.403  1.00  0.00     0.173 A 
ATOM     86  C   UNL A   1      43.945  27.325  35.310  1.00  0.00     0.173 A 
ATOM     87  F   UNL A   1      45.690  30.065  33.669  1.00  0.00    -0.203 F 
ATOM     88  C   UNL A   1      46.523  28.309  34.999  1.00  0.00     0.198 A 
ATOM     89  C   UNL A   1      45.017  26.684  35.925  1.00  0.00     0.198 A 
ATOM     90  F   UNL A   1      42.711  26.828  35.481  1.00  0.00    -0.203 F 
ATOM     91  F   UNL A   1      47.769  28.770  34.827  1.00  0.00    -0.200 F 
ATOM     92  C   UNL A   1      46.304  27.174  35.768  1.00  0.00     0.200 A 
ATOM     93  F   UNL A   1      44.802  25.596  36.678  1.00  0.00    -0.200 F 
ATOM     94  F   UNL A   1      47.335  26.551  36.354  1.00  0.00    -0.200 F 
ENDBRANCH  61  84
ENDBRANCH  35  36
ENDBRANCH  27  30
ENDBRANCH  25  26
ENDBRANCH  24  25
ENDBRANCH   1  24
TORSDOF 14
ENDMDL
MODEL 3
REMARK VINA RESULT:     -12.8      0.083      1.604
REMARK SMILES Cc1c(CC(=O)NCCCCNC(=O)c2ccc(-c3c4nc(c(-c5c(F)c(F)c(F)c(F)c5F)c5ccc([nH]5)c(-c5c(F)c(F)c(F)c(F)c5F)c5nc(c(-c6c(F)c(F)c(F)c(F)c6F)c6ccc3[nH]6)C=C5)C=C4)cc2)c(O)oc2cc(=O)cc(O)c1-2
REMARK SMILES IDX 9 1 8 2 7 3 5 4 6 5 4 7 3 8 1 9 2 10 88 11 78 12 81 13 86 14
REMARK SMILES IDX 80 15 82 16 85 17 83 18 84 19 79 20 87 22 10 24 11 25 12 26
REMARK SMILES IDX 13 27 14 29 15 30 16 31 77 32 17 33 76 34 18 35 19 36 20 37
REMARK SMILES IDX 70 38 21 39 75 40 69 41 71 42 22 43 74 44 68 45 67 46 23 48
REMARK SMILES IDX 55 49 35 50 54 51 36 52 39 53 53 54 72 55 37 56 38 57 52 59
REMARK SMILES IDX 73 60 40 61 24 62 25 63 33 64 26 65 27 66 31 67 34 68 28 69
REMARK SMILES IDX 29 70 32 71 30 72 56 73 57 74 65 75 58 76 59 77 63 78 66 79
REMARK SMILES IDX 60 80 61 81 64 82 62 83 41 84 42 85 50 86 43 87 44 88 48 89
REMARK SMILES IDX 51 90 45 91 46 92 49 93 47 94
REMARK H PARENT 7 6 79 21 87 23 12 28 71 47 39 58
REMARK Flexibility Score: inf
ROOT
ATOM      1  C   UNL A   1      31.685  30.534  26.622  1.00  0.00     0.023 C 
ENDROOT
BRANCH   1   2
ATOM      2  C   UNL A   1      32.587  30.031  25.497  1.00  0.00     0.116 C 
BRANCH   2   3
ATOM      3  N   UNL A   1      31.821  29.596  24.347  1.00  0.00    -0.356 N 
ATOM      4  C   UNL A   1      32.182  28.739  23.351  1.00  0.00     0.224 C 
ATOM      5  O   UNL A   1      31.374  28.533  22.442  1.00  0.00    -0.275 OA
ATOM      6  H   UNL A   1      30.914  29.970  24.277  1.00  0.00     0.163 HD
BRANCH   4   7
ATOM      7  C   UNL A   1      33.519  28.000  23.404  1.00  0.00     0.143 C 
BRANCH   7   8
ATOM      8  C   UNL A   1      33.450  26.489  23.239  1.00  0.00     0.046 A 
ATOM      9  C   UNL A   1      33.748  26.248  25.758  1.00  0.00     0.046 C 
ATOM     10  C   UNL A   1      33.447  25.592  24.426  1.00  0.00    -0.026 A 
ATOM     11  C   UNL A   1      33.200  24.256  24.272  1.00  0.00     0.063 A 
ATOM     12  C   UNL A   1      33.356  25.933  22.010  1.00  0.00     0.286 A 
ATOM     13  C   UNL A   1      33.032  23.732  22.901  1.00  0.00     0.146 A 
ATOM     14  C   UNL A   1      33.083  23.270  25.372  1.00  0.00     0.130 A 
ATOM     15  O   UNL A   1      33.156  24.586  21.824  1.00  0.00    -0.425 OA
ATOM     16  C   UNL A   1      32.801  22.439  22.653  1.00  0.00     0.100 A 
ATOM     17  C   UNL A   1      32.863  21.970  25.128  1.00  0.00     0.099 A 
ATOM     18  C   UNL A   1      32.704  21.466  23.751  1.00  0.00     0.186 A 
ATOM     19  O   UNL A   1      32.492  20.280  23.536  1.00  0.00    -0.290 OA
BRANCH  12  20
ATOM     20  O   UNL A   1      33.406  26.674  20.849  1.00  0.00    -0.480 OA
ATOM     21  H   UNL A   1      32.902  27.461  20.773  1.00  0.00     0.297 HD
ENDBRANCH  12  20
BRANCH  14  22
ATOM     22  O   UNL A   1      33.158  23.730  26.669  1.00  0.00    -0.507 OA
ATOM     23  H   UNL A   1      33.692  24.472  26.872  1.00  0.00     0.293 HD
ENDBRANCH  14  22
ENDBRANCH   7   8
ENDBRANCH   4   7
ENDBRANCH   2   3
ENDBRANCH   1   2
BRANCH   1  24
ATOM     24  C   UNL A   1      31.536  32.055  26.687  1.00  0.00     0.023 C 
BRANCH  24  25
ATOM     25  C   UNL A   1      32.719  32.799  27.297  1.00  0.00     0.116 C 
BRANCH  25  26
ATOM     26  N   UNL A   1      32.410  34.176  27.650  1.00  0.00    -0.352 N 
ATOM     27  C   UNL A   1      33.000  34.969  28.602  1.00  0.00     0.251 C 
ATOM     28  H   UNL A   1      31.681  34.595  27.137  1.00  0.00     0.163 HD
ATOM     29  O   UNL A   1      32.557  36.085  28.849  1.00  0.00    -0.269 OA
BRANCH  27  30
ATOM     30  C   UNL A   1      34.155  34.448  29.360  1.00  0.00     0.039 A 
ATOM     31  C   UNL A   1      33.922  33.808  30.580  1.00  0.00     0.014 A 
ATOM     32  C   UNL A   1      35.452  34.562  28.854  1.00  0.00     0.014 A 
ATOM     33  C   UNL A   1      34.988  33.222  31.263  1.00  0.00     0.010 A 
ATOM     34  C   UNL A   1      36.503  33.921  29.503  1.00  0.00     0.010 A 
ATOM     35  C   UNL A   1      36.280  33.246  30.712  1.00  0.00    -0.014 A 
BRANCH  35  36
ATOM     36  C   UNL A   1      37.414  32.578  31.395  1.00  0.00     0.031 A 
ATOM     37  C   UNL A   1      38.138  31.452  30.718  1.00  0.00     0.074 A 
ATOM     38  C   UNL A   1      37.764  32.962  32.638  1.00  0.00     0.049 A 
ATOM     39  N   UNL A   1      39.123  30.714  31.164  1.00  0.00    -0.248 NA
ATOM     40  C   UNL A   1      37.686  31.096  29.364  1.00  0.00     0.031 C 
ATOM     41  C   UNL A   1      37.118  34.026  33.407  1.00  0.00     0.029 A 
ATOM     42  N   UNL A   1      38.752  32.501  33.472  1.00  0.00    -0.354 N 
ATOM     43  C   UNL A   1      39.405  29.812  30.149  1.00  0.00     0.074 A 
ATOM     44  C   UNL A   1      38.451  30.050  29.089  1.00  0.00     0.031 C 
ATOM     45  C   UNL A   1      37.751  34.163  34.583  1.00  0.00     0.029 A 
ATOM     46  C   UNL A   1      38.822  33.174  34.665  1.00  0.00     0.049 A 
ATOM     47  H   UNL A   1      39.352  31.758  33.235  1.00  0.00     0.167 HD
ATOM     48  C   UNL A   1      40.393  28.888  30.094  1.00  0.00     0.037 A 
ATOM     49  C   UNL A   1      39.661  33.013  35.707  1.00  0.00     0.037 A 
ATOM     50  C   UNL A   1      41.350  28.661  31.143  1.00  0.00     0.049 A 
ATOM     51  C   UNL A   1      40.720  31.947  35.639  1.00  0.00     0.074 A 
ATOM     52  C   UNL A   1      42.401  27.762  31.174  1.00  0.00     0.029 A 
ATOM     53  N   UNL A   1      41.371  29.344  32.351  1.00  0.00    -0.354 N 
ATOM     54  N   UNL A   1      40.999  31.120  34.662  1.00  0.00    -0.248 NA
ATOM     55  C   UNL A   1      41.579  31.791  36.822  1.00  0.00     0.031 C 
ATOM     56  C   UNL A   1      43.038  27.876  32.413  1.00  0.00     0.029 A 
ATOM     57  C   UNL A   1      42.409  28.876  33.140  1.00  0.00     0.049 A 
ATOM     58  H   UNL A   1      40.742  30.056  32.610  1.00  0.00     0.167 HD
ATOM     59  C   UNL A   1      42.077  30.362  35.099  1.00  0.00     0.074 A 
ATOM     60  C   UNL A   1      42.410  30.835  36.426  1.00  0.00     0.031 C 
ATOM     61  C   UNL A   1      42.731  29.363  34.457  1.00  0.00     0.037 A 
BRANCH  48  62
ATOM     62  C   UNL A   1      40.499  28.066  28.844  1.00  0.00     0.064 A 
ATOM     63  C   UNL A   1      41.283  28.489  27.759  1.00  0.00     0.173 A 
ATOM     64  C   UNL A   1      39.844  26.832  28.738  1.00  0.00     0.173 A 
ATOM     65  F   UNL A   1      41.919  29.671  27.806  1.00  0.00    -0.203 F 
ATOM     66  C   UNL A   1      41.388  27.718  26.606  1.00  0.00     0.198 A 
ATOM     67  C   UNL A   1      39.973  26.048  27.593  1.00  0.00     0.198 A 
ATOM     68  F   UNL A   1      39.084  26.379  29.747  1.00  0.00    -0.203 F 
ATOM     69  F   UNL A   1      42.106  28.163  25.566  1.00  0.00    -0.200 F 
ATOM     70  C   UNL A   1      40.738  26.495  26.527  1.00  0.00     0.200 A 
ATOM     71  F   UNL A   1      39.353  24.862  27.522  1.00  0.00    -0.200 F 
ATOM     72  F   UNL A   1      40.846  25.748  25.418  1.00  0.00    -0.200 F 
ENDBRANCH  48  62
BRANCH  49  73
ATOM     73  C   UNL A   1      39.562  33.918  36.880  1.00  0.00     0.064 A 
ATOM     74  C   UNL A   1      38.805  33.550  38.000  1.00  0.00     0.173 A 
ATOM     75  C   UNL A   1      40.232  35.149  36.918  1.00  0.00     0.173 A 
ATOM     76  F   UNL A   1      38.130  32.391  38.001  1.00  0.00    -0.203 F 
ATOM     77  C   UNL A   1      38.718  34.382  39.114  1.00  0.00     0.198 A 
ATOM     78  C   UNL A   1      40.161  35.970  38.041  1.00  0.00     0.198 A 
ATOM     79  F   UNL A   1      40.971  35.545  35.871  1.00  0.00    -0.203 F 
ATOM     80  F   UNL A   1      37.964  34.018  40.161  1.00  0.00    -0.200 F 
ATOM     81  C   UNL A   1      39.401  35.588  39.137  1.00  0.00     0.200 A 
ATOM     82  F   UNL A   1      40.834  37.129  38.065  1.00  0.00    -0.200 F 
ATOM     83  F   UNL A   1      39.325  36.383  40.213  1.00  0.00    -0.200 F 
ENDBRANCH  49  73
BRANCH  61  84
ATOM     84  C   UNL A   1      43.885  28.721  35.167  1.00  0.00     0.064 A 
ATOM     85  C   UNL A   1      45.188  29.223  35.047  1.00  0.00     0.173 A 
ATOM     86  C   UNL A   1      43.671  27.640  36.036  1.00  0.00     0.173 A 
ATOM     87  F   UNL A   1      45.442  30.248  34.218  1.00  0.00    -0.203 F 
ATOM     88  C   UNL A   1      46.239  28.660  35.765  1.00  0.00     0.198 A 
ATOM     89  C   UNL A   1      44.721  27.095  36.770  1.00  0.00     0.198 A 
ATOM     90  F   UNL A   1      42.441  27.127  36.189  1.00  0.00    -0.203 F 
ATOM     91  F   UNL A   1      47.482  29.137  35.614  1.00  0.00    -0.200 F 
ATOM     92  C   UNL A   1      46.003  27.603  36.633  1.00  0.00     0.200 A 
ATOM     93  F   UNL A   1      44.489  26.083  37.618  1.00  0.00    -0.200 F 
ATOM     94  F   UNL A   1      47.014  27.073  37.335  1.00  0.00    -0.200 F 
ENDBRANCH  61  84
ENDBRANCH  35  36
ENDBRANCH  27  30
ENDBRANCH  25  26
ENDBRANCH  24  25
ENDBRANCH   1  24
TORSDOF 14
ENDMDL
