MODEL 1
REMARK VINA RESULT:     -13.2      0.000      0.000
REMARK SMILES Cc1ccc(C)c(S(=O)(=O)N[C@H](CC2=c3ccccc3=NC2)C(=O)NCCCCNC(=O)c2ccc(-c3c4nc(c(-c5c(F)c(F)c(F)c(F)c5F)c5ccc([nH]5)c(-c5c(F)c(F)c(F)c(F)c5F)c5nc(c(-c6c(F)c(F)c(F)c(F)c6F)c6ccc3[nH]6)C=C5)C=C4)cc2)c1
REMARK SMILES IDX 27 1 26 2 25 3 23 4 24 5 12 7 11 8 8 10 9 11 10 12 7 13 1 14
REMARK SMILES IDX 2 15 3 16 96 17 4 18 5 19 6 20 13 21 14 22 15 23 22 24 16 25
REMARK SMILES IDX 20 26 21 27 17 28 19 29 18 30 28 31 29 32 30 33 31 34 32 36
REMARK SMILES IDX 33 37 34 38 95 39 35 40 94 41 36 42 37 43 38 44 88 45 39 46
REMARK SMILES IDX 93 47 87 48 89 49 40 50 92 51 86 52 85 53 41 55 73 56 53 57
REMARK SMILES IDX 72 58 54 59 57 60 71 61 90 62 55 63 56 64 70 66 91 67 58 68
REMARK SMILES IDX 42 69 43 70 51 71 44 72 45 73 49 74 52 75 46 76 47 77 50 78
REMARK SMILES IDX 48 79 74 80 75 81 83 82 76 83 77 84 81 85 84 86 78 87 79 88
REMARK SMILES IDX 82 89 80 90 59 91 60 92 68 93 61 94 62 95 66 96 69 97 63 98
REMARK SMILES IDX 64 99 67 100 65 101
REMARK H PARENT 25 6 11 9 30 35 89 54 57 65
REMARK Flexibility Score: inf
ROOT
ATOM      1  C   UNL A   1      34.864  30.542  27.625  1.00  0.00     0.023 C 
ENDROOT
BRANCH   1   2
ATOM      2  C   UNL A   1      33.993  29.506  26.847  1.00  0.00     0.116 C 
BRANCH   2   3
ATOM      3  N   UNL A   1      32.768  28.987  27.445  1.00  0.00    -0.355 N 
ATOM      4  C   UNL A   1      32.040  27.828  27.310  1.00  0.00     0.238 C 
ATOM      5  O   UNL A   1      31.015  27.756  28.000  1.00  0.00    -0.273 OA
ATOM      6  H   UNL A   1      32.370  29.610  28.095  1.00  0.00     0.163 HD
BRANCH   4   7
ATOM      7  C   UNL A   1      32.385  26.670  26.342  1.00  0.00     0.163 C 
BRANCH   7   8
ATOM      8  N   UNL A   1      31.976  25.373  26.969  1.00  0.00    -0.198 NA
ATOM      9  H   UNL A   1      32.831  24.837  27.116  1.00  0.00     0.142 HD
BRANCH   8  10
ATOM     10  S   UNL A   1      30.888  24.343  26.186  1.00  0.00     0.241 S 
ATOM     11  O   UNL A   1      30.324  25.052  25.062  1.00  0.00    -0.207 OA
ATOM     12  O   UNL A   1      30.058  23.818  27.250  1.00  0.00    -0.207 OA
BRANCH  10  13
ATOM     13  C   UNL A   1      31.880  22.994  25.584  1.00  0.00     0.085 A 
ATOM     14  C   UNL A   1      32.151  21.079  22.304  1.00  0.00     0.044 C 
ATOM     15  C   UNL A   1      32.372  21.488  23.730  1.00  0.00    -0.050 A 
ATOM     16  C   UNL A   1      33.159  20.719  24.586  1.00  0.00     0.004 A 
ATOM     17  C   UNL A   1      31.773  22.646  24.230  1.00  0.00     0.025 A 
ATOM     18  C   UNL A   1      33.339  21.105  25.918  1.00  0.00     0.005 A 
ATOM     19  C   UNL A   1      32.702  22.245  26.442  1.00  0.00    -0.031 A 
ATOM     20  C   UNL A   1      32.979  22.589  27.879  1.00  0.00     0.046 C 
ENDBRANCH  10  13
ENDBRANCH   8  10
ENDBRANCH   7   8
BRANCH   7  21
ATOM     21  C   UNL A   1      33.847  26.571  25.751  1.00  0.00     0.063 C 
BRANCH  21  22
ATOM     22  C   UNL A   1      34.281  25.460  24.819  1.00  0.00    -0.037 C 
ATOM     23  C   UNL A   1      35.152  24.448  24.873  1.00  0.00     0.001 A 
ATOM     24  C   UNL A   1      33.750  25.536  23.441  1.00  0.00     0.174 C 
ATOM     25  C   UNL A   1      36.083  23.901  25.808  1.00  0.00     0.010 A 
ATOM     26  C   UNL A   1      35.094  23.888  23.500  1.00  0.00     0.065 A 
ATOM     27  N   UNL A   1      34.367  24.496  22.623  1.00  0.00    -0.280 NA
ATOM     28  C   UNL A   1      36.822  22.834  25.439  1.00  0.00     0.001 A 
ATOM     29  C   UNL A   1      35.870  22.683  23.190  1.00  0.00     0.028 A 
ATOM     30  C   UNL A   1      36.677  22.197  24.139  1.00  0.00     0.002 A 
ENDBRANCH  21  22
ENDBRANCH   7  21
ENDBRANCH   4   7
ENDBRANCH   2   3
ENDBRANCH   1   2
BRANCH   1  31
ATOM     31  C   UNL A   1      34.338  31.956  27.973  1.00  0.00     0.023 C 
BRANCH  31  32
ATOM     32  C   UNL A   1      35.282  33.164  28.062  1.00  0.00     0.116 C 
BRANCH  32  33
ATOM     33  N   UNL A   1      35.552  33.632  29.422  1.00  0.00    -0.352 N 
ATOM     34  C   UNL A   1      36.281  33.080  30.461  1.00  0.00     0.251 C 
ATOM     35  H   UNL A   1      35.139  34.499  29.637  1.00  0.00     0.163 HD
ATOM     36  O   UNL A   1      36.239  33.586  31.577  1.00  0.00    -0.269 OA
BRANCH  34  37
ATOM     37  C   UNL A   1      37.125  31.888  30.233  1.00  0.00     0.039 A 
ATOM     38  C   UNL A   1      36.710  30.567  30.397  1.00  0.00     0.014 A 
ATOM     39  C   UNL A   1      38.468  32.089  30.010  1.00  0.00     0.014 A 
ATOM     40  C   UNL A   1      37.698  29.570  30.432  1.00  0.00     0.010 A 
ATOM     41  C   UNL A   1      39.234  31.118  29.484  1.00  0.00     0.010 A 
ATOM     42  C   UNL A   1      39.012  29.920  30.103  1.00  0.00    -0.014 A 
BRANCH  42  43
ATOM     43  C   UNL A   1      40.151  29.043  30.023  1.00  0.00     0.031 A 
ATOM     44  C   UNL A   1      40.649  28.664  31.356  1.00  0.00     0.074 A 
ATOM     45  C   UNL A   1      40.480  28.317  28.936  1.00  0.00     0.049 A 
ATOM     46  N   UNL A   1      41.584  29.269  32.004  1.00  0.00    -0.248 NA
ATOM     47  C   UNL A   1      39.867  27.714  32.167  1.00  0.00     0.031 C 
ATOM     48  C   UNL A   1      39.823  28.189  27.637  1.00  0.00     0.029 A 
ATOM     49  N   UNL A   1      41.533  27.471  28.821  1.00  0.00    -0.354 N 
ATOM     50  C   UNL A   1      41.653  28.615  33.220  1.00  0.00     0.074 A 
ATOM     51  C   UNL A   1      40.404  27.922  33.371  1.00  0.00     0.031 C 
ATOM     52  C   UNL A   1      40.403  27.189  26.926  1.00  0.00     0.029 A 
ATOM     53  C   UNL A   1      41.569  26.722  27.655  1.00  0.00     0.049 A 
ATOM     54  H   UNL A   1      42.225  27.395  29.517  1.00  0.00     0.167 HD
ATOM     55  C   UNL A   1      42.847  28.445  33.847  1.00  0.00     0.037 A 
ATOM     56  C   UNL A   1      42.505  25.784  27.364  1.00  0.00     0.037 A 
ATOM     57  C   UNL A   1      43.878  29.221  33.190  1.00  0.00     0.049 A 
ATOM     58  C   UNL A   1      43.679  26.063  28.240  1.00  0.00     0.074 A 
ATOM     59  C   UNL A   1      44.063  30.568  32.941  1.00  0.00     0.029 A 
ATOM     60  N   UNL A   1      44.677  28.560  32.286  1.00  0.00    -0.354 N 
ATOM     61  N   UNL A   1      44.418  27.137  28.153  1.00  0.00    -0.248 NA
ATOM     62  C   UNL A   1      43.746  25.368  29.517  1.00  0.00     0.031 C 
ATOM     63  C   UNL A   1      44.596  30.633  31.617  1.00  0.00     0.029 A 
ATOM     64  C   UNL A   1      44.773  29.328  31.152  1.00  0.00     0.049 A 
ATOM     65  H   UNL A   1      45.107  27.686  32.428  1.00  0.00     0.167 HD
ATOM     66  C   UNL A   1      44.702  27.485  29.467  1.00  0.00     0.074 A 
ATOM     67  C   UNL A   1      44.341  26.309  30.255  1.00  0.00     0.031 C 
ATOM     68  C   UNL A   1      44.925  28.787  29.815  1.00  0.00     0.037 A 
BRANCH  55  69
ATOM     69  C   UNL A   1      43.164  27.319  34.796  1.00  0.00     0.064 A 
ATOM     70  C   UNL A   1      43.401  27.629  36.147  1.00  0.00     0.173 A 
ATOM     71  C   UNL A   1      43.473  25.995  34.413  1.00  0.00     0.173 A 
ATOM     72  F   UNL A   1      43.165  28.863  36.616  1.00  0.00    -0.203 F 
ATOM     73  C   UNL A   1      43.958  26.702  37.030  1.00  0.00     0.198 A 
ATOM     74  C   UNL A   1      43.969  25.054  35.313  1.00  0.00     0.198 A 
ATOM     75  F   UNL A   1      43.420  25.578  33.145  1.00  0.00    -0.203 F 
ATOM     76  F   UNL A   1      44.274  27.081  38.276  1.00  0.00    -0.200 F 
ATOM     77  C   UNL A   1      44.240  25.415  36.613  1.00  0.00     0.200 A 
ATOM     78  F   UNL A   1      44.252  23.817  34.880  1.00  0.00    -0.200 F 
ATOM     79  F   UNL A   1      44.818  24.539  37.445  1.00  0.00    -0.200 F 
ENDBRANCH  55  69
BRANCH  56  80
ATOM     80  C   UNL A   1      42.346  24.484  26.668  1.00  0.00     0.064 A 
ATOM     81  C   UNL A   1      43.144  24.171  25.554  1.00  0.00     0.173 A 
ATOM     82  C   UNL A   1      41.665  23.411  27.273  1.00  0.00     0.173 A 
ATOM     83  F   UNL A   1      43.861  25.128  24.947  1.00  0.00    -0.203 F 
ATOM     84  C   UNL A   1      43.297  22.855  25.106  1.00  0.00     0.198 A 
ATOM     85  C   UNL A   1      41.813  22.098  26.821  1.00  0.00     0.198 A 
ATOM     86  F   UNL A   1      40.944  23.602  28.388  1.00  0.00    -0.203 F 
ATOM     87  F   UNL A   1      44.137  22.585  24.097  1.00  0.00    -0.200 F 
ATOM     88  C   UNL A   1      42.643  21.817  25.750  1.00  0.00     0.200 A 
ATOM     89  F   UNL A   1      41.222  21.092  27.483  1.00  0.00    -0.200 F 
ATOM     90  F   UNL A   1      42.857  20.548  25.375  1.00  0.00    -0.200 F 
ENDBRANCH  56  80
BRANCH  68  91
ATOM     91  C   UNL A   1      45.137  29.781  28.701  1.00  0.00     0.064 A 
ATOM     92  C   UNL A   1      44.117  30.558  28.121  1.00  0.00     0.173 A 
ATOM     93  C   UNL A   1      46.452  30.062  28.307  1.00  0.00     0.173 A 
ATOM     94  F   UNL A   1      42.844  30.422  28.504  1.00  0.00    -0.203 F 
ATOM     95  C   UNL A   1      44.400  31.541  27.173  1.00  0.00     0.198 A 
ATOM     96  C   UNL A   1      46.736  31.069  27.386  1.00  0.00     0.198 A 
ATOM     97  F   UNL A   1      47.474  29.389  28.858  1.00  0.00    -0.203 F 
ATOM     98  F   UNL A   1      43.405  32.264  26.634  1.00  0.00    -0.200 F 
ATOM     99  C   UNL A   1      45.711  31.803  26.813  1.00  0.00     0.200 A 
ATOM    100  F   UNL A   1      48.010  31.349  27.080  1.00  0.00    -0.200 F 
ATOM    101  F   UNL A   1      45.989  32.779  25.938  1.00  0.00    -0.200 F 
ENDBRANCH  68  91
ENDBRANCH  42  43
ENDBRANCH  34  37
ENDBRANCH  32  33
ENDBRANCH  31  32
ENDBRANCH   1  31
TORSDOF 16
ENDMDL
MODEL 2
REMARK VINA RESULT:     -12.7      3.365      8.938
REMARK SMILES Cc1ccc(C)c(S(=O)(=O)N[C@H](CC2=c3ccccc3=NC2)C(=O)NCCCCNC(=O)c2ccc(-c3c4nc(c(-c5c(F)c(F)c(F)c(F)c5F)c5ccc([nH]5)c(-c5c(F)c(F)c(F)c(F)c5F)c5nc(c(-c6c(F)c(F)c(F)c(F)c6F)c6ccc3[nH]6)C=C5)C=C4)cc2)c1
REMARK SMILES IDX 27 1 26 2 25 3 23 4 24 5 12 7 11 8 8 10 9 11 10 12 7 13 1 14
REMARK SMILES IDX 2 15 3 16 96 17 4 18 5 19 6 20 13 21 14 22 15 23 22 24 16 25
REMARK SMILES IDX 20 26 21 27 17 28 19 29 18 30 28 31 29 32 30 33 31 34 32 36
REMARK SMILES IDX 33 37 34 38 95 39 35 40 94 41 36 42 37 43 38 44 88 45 39 46
REMARK SMILES IDX 93 47 87 48 89 49 40 50 92 51 86 52 85 53 41 55 73 56 53 57
REMARK SMILES IDX 72 58 54 59 57 60 71 61 90 62 55 63 56 64 70 66 91 67 58 68
REMARK SMILES IDX 42 69 43 70 51 71 44 72 45 73 49 74 52 75 46 76 47 77 50 78
REMARK SMILES IDX 48 79 74 80 75 81 83 82 76 83 77 84 81 85 84 86 78 87 79 88
REMARK SMILES IDX 82 89 80 90 59 91 60 92 68 93 61 94 62 95 66 96 69 97 63 98
REMARK SMILES IDX 64 99 67 100 65 101
REMARK H PARENT 25 6 11 9 30 35 89 54 57 65
REMARK Flexibility Score: inf
ROOT
ATOM      1  C   UNL A   1      37.826  20.766  24.822  1.00  0.00     0.023 C 
ENDROOT
BRANCH   1   2
ATOM      2  C   UNL A   1      36.390  20.714  25.433  1.00  0.00     0.116 C 
BRANCH   2   3
ATOM      3  N   UNL A   1      35.443  19.697  24.989  1.00  0.00    -0.355 N 
ATOM      4  C   UNL A   1      34.171  19.719  24.469  1.00  0.00     0.238 C 
ATOM      5  O   UNL A   1      33.675  18.613  24.218  1.00  0.00    -0.273 OA
ATOM      6  H   UNL A   1      35.798  18.783  25.082  1.00  0.00     0.163 HD
BRANCH   4   7
ATOM      7  C   UNL A   1      33.329  20.997  24.235  1.00  0.00     0.163 C 
BRANCH   7   8
ATOM      8  N   UNL A   1      34.205  22.198  24.424  1.00  0.00    -0.198 NA
ATOM      9  H   UNL A   1      33.810  22.727  25.201  1.00  0.00     0.142 HD
BRANCH   8  10
ATOM     10  S   UNL A   1      34.444  23.296  23.162  1.00  0.00     0.241 S 
ATOM     11  O   UNL A   1      33.507  22.987  22.110  1.00  0.00    -0.207 OA
ATOM     12  O   UNL A   1      35.875  23.281  22.938  1.00  0.00    -0.207 OA
BRANCH  10  13
ATOM     13  C   UNL A   1      34.041  24.886  23.850  1.00  0.00     0.085 A 
ATOM     14  C   UNL A   1      32.812  28.212  22.461  1.00  0.00     0.044 C 
ATOM     15  C   UNL A   1      33.311  27.174  23.420  1.00  0.00    -0.050 A 
ATOM     16  C   UNL A   1      33.634  27.506  24.736  1.00  0.00     0.004 A 
ATOM     17  C   UNL A   1      33.479  25.852  23.004  1.00  0.00     0.025 A 
ATOM     18  C   UNL A   1      34.117  26.530  25.612  1.00  0.00     0.005 A 
ATOM     19  C   UNL A   1      34.332  25.205  25.187  1.00  0.00    -0.031 A 
ATOM     20  C   UNL A   1      34.831  24.225  26.213  1.00  0.00     0.046 C 
ENDBRANCH  10  13
ENDBRANCH   8  10
ENDBRANCH   7   8
BRANCH   7  21
ATOM     21  C   UNL A   1      31.964  21.171  25.010  1.00  0.00     0.063 C 
BRANCH  21  22
ATOM     22  C   UNL A   1      31.455  22.516  25.481  1.00  0.00    -0.037 C 
ATOM     23  C   UNL A   1      30.919  23.596  24.903  1.00  0.00     0.001 A 
ATOM     24  C   UNL A   1      31.710  22.836  26.902  1.00  0.00     0.174 C 
ATOM     25  C   UNL A   1      30.551  24.021  23.590  1.00  0.00     0.010 A 
ATOM     26  C   UNL A   1      30.817  24.558  26.029  1.00  0.00     0.065 A 
ATOM     27  N   UNL A   1      31.303  24.212  27.173  1.00  0.00    -0.280 NA
ATOM     28  C   UNL A   1      30.039  25.259  23.429  1.00  0.00     0.001 A 
ATOM     29  C   UNL A   1      30.183  25.859  25.796  1.00  0.00     0.028 A 
ATOM     30  C   UNL A   1      29.812  26.161  24.547  1.00  0.00     0.002 A 
ENDBRANCH  21  22
ENDBRANCH   7  21
ENDBRANCH   4   7
ENDBRANCH   2   3
ENDBRANCH   1   2
BRANCH   1  31
ATOM     31  C   UNL A   1      39.094  20.620  25.698  1.00  0.00     0.023 C 
BRANCH  31  32
ATOM     32  C   UNL A   1      39.639  21.794  26.523  1.00  0.00     0.116 C 
BRANCH  32  33
ATOM     33  N   UNL A   1      41.099  21.867  26.594  1.00  0.00    -0.352 N 
ATOM     34  C   UNL A   1      41.960  22.923  26.841  1.00  0.00     0.251 C 
ATOM     35  H   UNL A   1      41.552  21.007  26.439  1.00  0.00     0.163 HD
ATOM     36  O   UNL A   1      43.169  22.775  26.696  1.00  0.00    -0.269 OA
BRANCH  34  37
ATOM     37  C   UNL A   1      41.434  24.228  27.293  1.00  0.00     0.039 A 
ATOM     38  C   UNL A   1      40.438  24.959  26.647  1.00  0.00     0.014 A 
ATOM     39  C   UNL A   1      42.088  24.857  28.328  1.00  0.00     0.014 A 
ATOM     40  C   UNL A   1      40.260  26.300  27.026  1.00  0.00     0.010 A 
ATOM     41  C   UNL A   1      41.505  25.862  29.003  1.00  0.00     0.010 A 
ATOM     42  C   UNL A   1      40.942  26.771  28.153  1.00  0.00    -0.014 A 
BRANCH  42  43
ATOM     43  C   UNL A   1      40.852  28.085  28.737  1.00  0.00     0.031 A 
ATOM     44  C   UNL A   1      41.879  28.995  28.202  1.00  0.00     0.074 A 
ATOM     45  C   UNL A   1      39.760  28.571  29.357  1.00  0.00     0.049 A 
ATOM     46  N   UNL A   1      43.036  29.208  28.727  1.00  0.00    -0.248 NA
ATOM     47  C   UNL A   1      41.735  29.503  26.827  1.00  0.00     0.031 C 
ATOM     48  C   UNL A   1      38.442  27.978  29.579  1.00  0.00     0.029 A 
ATOM     49  N   UNL A   1      39.628  29.803  29.908  1.00  0.00    -0.354 N 
ATOM     50  C   UNL A   1      43.673  30.063  27.848  1.00  0.00     0.074 A 
ATOM     51  C   UNL A   1      42.975  29.942  26.599  1.00  0.00     0.031 C 
ATOM     52  C   UNL A   1      37.594  28.916  30.072  1.00  0.00     0.029 A 
ATOM     53  C   UNL A   1      38.353  30.123  30.350  1.00  0.00     0.049 A 
ATOM     54  H   UNL A   1      40.385  30.427  29.990  1.00  0.00     0.167 HD
ATOM     55  C   UNL A   1      44.514  31.028  28.308  1.00  0.00     0.037 A 
ATOM     56  C   UNL A   1      37.994  31.317  30.884  1.00  0.00     0.037 A 
ATOM     57  C   UNL A   1      44.780  30.835  29.718  1.00  0.00     0.049 A 
ATOM     58  C   UNL A   1      39.250  31.978  31.341  1.00  0.00     0.074 A 
ATOM     59  C   UNL A   1      45.341  29.817  30.466  1.00  0.00     0.029 A 
ATOM     60  N   UNL A   1      44.035  31.581  30.603  1.00  0.00    -0.354 N 
ATOM     61  N   UNL A   1      40.003  31.528  32.309  1.00  0.00    -0.248 NA
ATOM     62  C   UNL A   1      39.912  32.880  30.410  1.00  0.00     0.031 C 
ATOM     63  C   UNL A   1      44.543  29.738  31.648  1.00  0.00     0.029 A 
ATOM     64  C   UNL A   1      43.581  30.749  31.596  1.00  0.00     0.049 A 
ATOM     65  H   UNL A   1      43.859  32.547  30.535  1.00  0.00     0.167 HD
ATOM     66  C   UNL A   1      41.306  31.741  31.879  1.00  0.00     0.074 A 
ATOM     67  C   UNL A   1      41.185  32.659  30.749  1.00  0.00     0.031 C 
ATOM     68  C   UNL A   1      42.323  30.928  32.293  1.00  0.00     0.037 A 
BRANCH  55  69
ATOM     69  C   UNL A   1      44.794  32.328  27.603  1.00  0.00     0.064 A 
ATOM     70  C   UNL A   1      46.006  32.463  26.903  1.00  0.00     0.173 A 
ATOM     71  C   UNL A   1      44.052  33.519  27.767  1.00  0.00     0.173 A 
ATOM     72  F   UNL A   1      46.804  31.402  26.708  1.00  0.00    -0.203 F 
ATOM     73  C   UNL A   1      46.465  33.703  26.455  1.00  0.00     0.198 A 
ATOM     74  C   UNL A   1      44.483  34.743  27.262  1.00  0.00     0.198 A 
ATOM     75  F   UNL A   1      42.943  33.584  28.510  1.00  0.00    -0.203 F 
ATOM     76  F   UNL A   1      47.680  33.797  25.898  1.00  0.00    -0.200 F 
ATOM     77  C   UNL A   1      45.703  34.842  26.633  1.00  0.00     0.200 A 
ATOM     78  F   UNL A   1      43.734  35.838  27.463  1.00  0.00    -0.200 F 
ATOM     79  F   UNL A   1      46.163  36.038  26.246  1.00  0.00    -0.200 F 
ENDBRANCH  55  69
BRANCH  56  80
ATOM     80  C   UNL A   1      36.731  32.078  30.718  1.00  0.00     0.064 A 
ATOM     81  C   UNL A   1      35.880  32.293  31.817  1.00  0.00     0.173 A 
ATOM     82  C   UNL A   1      36.507  32.882  29.585  1.00  0.00     0.173 A 
ATOM     83  F   UNL A   1      36.056  31.600  32.952  1.00  0.00    -0.203 F 
ATOM     84  C   UNL A   1      34.900  33.290  31.803  1.00  0.00     0.198 A 
ATOM     85  C   UNL A   1      35.524  33.873  29.570  1.00  0.00     0.198 A 
ATOM     86  F   UNL A   1      37.319  32.803  28.520  1.00  0.00    -0.203 F 
ATOM     87  F   UNL A   1      34.169  33.524  32.902  1.00  0.00    -0.200 F 
ATOM     88  C   UNL A   1      34.733  34.090  30.685  1.00  0.00     0.200 A 
ATOM     89  F   UNL A   1      35.404  34.680  28.505  1.00  0.00    -0.200 F 
ATOM     90  F   UNL A   1      33.853  35.101  30.703  1.00  0.00    -0.200 F 
ENDBRANCH  56  80
BRANCH  68  91
ATOM     91  C   UNL A   1      42.043  29.988  33.439  1.00  0.00     0.064 A 
ATOM     92  C   UNL A   1      41.640  28.648  33.291  1.00  0.00     0.173 A 
ATOM     93  C   UNL A   1      42.336  30.423  34.738  1.00  0.00     0.173 A 
ATOM     94  F   UNL A   1      41.428  28.121  32.081  1.00  0.00    -0.203 F 
ATOM     95  C   UNL A   1      41.508  27.800  34.391  1.00  0.00     0.198 A 
ATOM     96  C   UNL A   1      42.239  29.565  35.832  1.00  0.00     0.198 A 
ATOM     97  F   UNL A   1      42.770  31.677  34.943  1.00  0.00    -0.203 F 
ATOM     98  F   UNL A   1      41.120  26.527  34.218  1.00  0.00    -0.200 F 
ATOM     99  C   UNL A   1      41.817  28.257  35.660  1.00  0.00     0.200 A 
ATOM    100  F   UNL A   1      42.585  30.001  37.051  1.00  0.00    -0.200 F 
ATOM    101  F   UNL A   1      41.737  27.431  36.713  1.00  0.00    -0.200 F 
ENDBRANCH  68  91
ENDBRANCH  42  43
ENDBRANCH  34  37
ENDBRANCH  32  33
ENDBRANCH  31  32
ENDBRANCH   1  31
TORSDOF 16
ENDMDL
MODEL 3
REMARK VINA RESULT:     -12.7      1.542      2.520
REMARK SMILES Cc1ccc(C)c(S(=O)(=O)N[C@H](CC2=c3ccccc3=NC2)C(=O)NCCCCNC(=O)c2ccc(-c3c4nc(c(-c5c(F)c(F)c(F)c(F)c5F)c5ccc([nH]5)c(-c5c(F)c(F)c(F)c(F)c5F)c5nc(c(-c6c(F)c(F)c(F)c(F)c6F)c6ccc3[nH]6)C=C5)C=C4)cc2)c1
REMARK SMILES IDX 27 1 26 2 25 3 23 4 24 5 12 7 11 8 8 10 9 11 10 12 7 13 1 14
REMARK SMILES IDX 2 15 3 16 96 17 4 18 5 19 6 20 13 21 14 22 15 23 22 24 16 25
REMARK SMILES IDX 20 26 21 27 17 28 19 29 18 30 28 31 29 32 30 33 31 34 32 36
REMARK SMILES IDX 33 37 34 38 95 39 35 40 94 41 36 42 37 43 38 44 88 45 39 46
REMARK SMILES IDX 93 47 87 48 89 49 40 50 92 51 86 52 85 53 41 55 73 56 53 57
REMARK SMILES IDX 72 58 54 59 57 60 71 61 90 62 55 63 56 64 70 66 91 67 58 68
REMARK SMILES IDX 42 69 43 70 51 71 44 72 45 73 49 74 52 75 46 76 47 77 50 78
REMARK SMILES IDX 48 79 74 80 75 81 83 82 76 83 77 84 81 85 84 86 78 87 79 88
REMARK SMILES IDX 82 89 80 90 59 91 60 92 68 93 61 94 62 95 66 96 69 97 63 98
REMARK SMILES IDX 64 99 67 100 65 101
REMARK H PARENT 25 6 11 9 30 35 89 54 57 65
REMARK Flexibility Score: inf
ROOT
ATOM      1  C   UNL A   1      34.851  29.892  27.614  1.00  0.00     0.023 C 
ENDROOT
BRANCH   1   2
ATOM      2  C   UNL A   1      34.349  28.831  26.585  1.00  0.00     0.116 C 
BRANCH   2   3
ATOM      3  N   UNL A   1      33.847  29.256  25.283  1.00  0.00    -0.355 N 
ATOM      4  C   UNL A   1      33.076  28.674  24.305  1.00  0.00     0.238 C 
ATOM      5  O   UNL A   1      32.866  29.369  23.303  1.00  0.00    -0.273 OA
ATOM      6  H   UNL A   1      34.124  30.172  25.051  1.00  0.00     0.163 HD
BRANCH   4   7
ATOM      7  C   UNL A   1      32.517  27.231  24.357  1.00  0.00     0.163 C 
BRANCH   7   8
ATOM      8  N   UNL A   1      31.882  26.907  23.039  1.00  0.00    -0.198 NA
ATOM      9  H   UNL A   1      31.027  26.390  23.247  1.00  0.00     0.142 HD
BRANCH   8  10
ATOM     10  S   UNL A   1      32.719  26.011  21.877  1.00  0.00     0.241 S 
ATOM     11  O   UNL A   1      33.931  26.721  21.546  1.00  0.00    -0.207 OA
ATOM     12  O   UNL A   1      31.721  25.698  20.875  1.00  0.00    -0.207 OA
BRANCH  10  13
ATOM     13  C   UNL A   1      33.143  24.485  22.686  1.00  0.00     0.085 A 
ATOM     14  C   UNL A   1      36.370  22.586  23.381  1.00  0.00     0.044 C 
ATOM     15  C   UNL A   1      34.911  22.925  23.311  1.00  0.00    -0.050 A 
ATOM     16  C   UNL A   1      33.938  21.995  23.676  1.00  0.00     0.004 A 
ATOM     17  C   UNL A   1      34.500  24.180  22.859  1.00  0.00     0.025 A 
ATOM     18  C   UNL A   1      32.581  22.320  23.586  1.00  0.00     0.005 A 
ATOM     19  C   UNL A   1      32.158  23.567  23.089  1.00  0.00    -0.031 A 
ATOM     20  C   UNL A   1      30.678  23.829  23.055  1.00  0.00     0.046 C 
ENDBRANCH  10  13
ENDBRANCH   8  10
ENDBRANCH   7   8
BRANCH   7  21
ATOM     21  C   UNL A   1      31.572  26.815  25.553  1.00  0.00     0.063 C 
BRANCH  21  22
ATOM     22  C   UNL A   1      31.652  25.462  26.228  1.00  0.00    -0.037 C 
ATOM     23  C   UNL A   1      32.625  24.595  26.526  1.00  0.00     0.001 A 
ATOM     24  C   UNL A   1      30.356  24.821  26.535  1.00  0.00     0.174 C 
ATOM     25  C   UNL A   1      34.042  24.501  26.378  1.00  0.00     0.010 A 
ATOM     26  C   UNL A   1      31.877  23.431  27.064  1.00  0.00     0.065 A 
ATOM     27  N   UNL A   1      30.586  23.471  27.040  1.00  0.00    -0.280 NA
ATOM     28  C   UNL A   1      34.668  23.389  26.815  1.00  0.00     0.001 A 
ATOM     29  C   UNL A   1      32.626  22.285  27.588  1.00  0.00     0.028 A 
ATOM     30  C   UNL A   1      33.957  22.299  27.465  1.00  0.00     0.002 A 
ENDBRANCH  21  22
ENDBRANCH   7  21
ENDBRANCH   4   7
ENDBRANCH   2   3
ENDBRANCH   1   2
BRANCH   1  31
ATOM     31  C   UNL A   1      34.396  31.371  27.552  1.00  0.00     0.023 C 
BRANCH  31  32
ATOM     32  C   UNL A   1      35.180  32.482  28.265  1.00  0.00     0.116 C 
BRANCH  32  33
ATOM     33  N   UNL A   1      34.806  32.695  29.664  1.00  0.00    -0.352 N 
ATOM     34  C   UNL A   1      35.431  32.350  30.850  1.00  0.00     0.251 C 
ATOM     35  H   UNL A   1      33.952  33.171  29.783  1.00  0.00     0.163 HD
ATOM     36  O   UNL A   1      34.846  32.498  31.918  1.00  0.00    -0.269 OA
BRANCH  34  37
ATOM     37  C   UNL A   1      36.809  31.817  30.842  1.00  0.00     0.039 A 
ATOM     38  C   UNL A   1      37.966  32.583  30.702  1.00  0.00     0.014 A 
ATOM     39  C   UNL A   1      36.965  30.450  30.794  1.00  0.00     0.014 A 
ATOM     40  C   UNL A   1      39.165  31.911  30.417  1.00  0.00     0.010 A 
ATOM     41  C   UNL A   1      38.141  29.878  31.104  1.00  0.00     0.010 A 
ATOM     42  C   UNL A   1      39.181  30.513  30.486  1.00  0.00    -0.014 A 
BRANCH  42  43
ATOM     43  C   UNL A   1      40.313  29.645  30.288  1.00  0.00     0.031 A 
ATOM     44  C   UNL A   1      40.921  29.236  31.566  1.00  0.00     0.074 A 
ATOM     45  C   UNL A   1      40.553  28.950  29.160  1.00  0.00     0.049 A 
ATOM     46  N   UNL A   1      41.904  29.829  32.149  1.00  0.00    -0.248 NA
ATOM     47  C   UNL A   1      40.213  28.260  32.413  1.00  0.00     0.031 C 
ATOM     48  C   UNL A   1      39.791  28.852  27.916  1.00  0.00     0.029 A 
ATOM     49  N   UNL A   1      41.597  28.114  28.936  1.00  0.00    -0.354 N 
ATOM     50  C   UNL A   1      42.076  29.145  33.338  1.00  0.00     0.074 A 
ATOM     51  C   UNL A   1      40.847  28.441  33.573  1.00  0.00     0.031 C 
ATOM     52  C   UNL A   1      40.314  27.873  27.134  1.00  0.00     0.029 A 
ATOM     53  C   UNL A   1      41.539  27.395  27.751  1.00  0.00     0.049 A 
ATOM     54  H   UNL A   1      42.344  28.024  29.570  1.00  0.00     0.167 HD
ATOM     55  C   UNL A   1      43.320  28.966  33.860  1.00  0.00     0.037 A 
ATOM     56  C   UNL A   1      42.452  26.471  27.359  1.00  0.00     0.037 A 
ATOM     57  C   UNL A   1      44.288  29.765  33.140  1.00  0.00     0.049 A 
ATOM     58  C   UNL A   1      43.693  26.735  28.143  1.00  0.00     0.074 A 
ATOM     59  C   UNL A   1      44.447  31.119  32.911  1.00  0.00     0.029 A 
ATOM     60  N   UNL A   1      45.013  29.133  32.156  1.00  0.00    -0.354 N 
ATOM     61  N   UNL A   1      44.418  27.814  28.023  1.00  0.00    -0.248 NA
ATOM     62  C   UNL A   1      43.868  26.007  29.390  1.00  0.00     0.031 C 
ATOM     63  C   UNL A   1      44.868  31.221  31.550  1.00  0.00     0.029 A 
ATOM     64  C   UNL A   1      45.012  29.930  31.038  1.00  0.00     0.049 A 
ATOM     65  H   UNL A   1      45.457  28.258  32.239  1.00  0.00     0.167 HD
ATOM     66  C   UNL A   1      44.808  28.131  29.317  1.00  0.00     0.074 A 
ATOM     67  C   UNL A   1      44.519  26.932  30.101  1.00  0.00     0.031 C 
ATOM     68  C   UNL A   1      45.054  29.425  29.680  1.00  0.00     0.037 A 
BRANCH  55  69
ATOM     69  C   UNL A   1      43.718  27.818  34.749  1.00  0.00     0.064 A 
ATOM     70  C   UNL A   1      43.671  26.516  34.222  1.00  0.00     0.173 A 
ATOM     71  C   UNL A   1      43.918  27.902  36.145  1.00  0.00     0.173 A 
ATOM     72  F   UNL A   1      43.463  26.316  32.912  1.00  0.00    -0.203 F 
ATOM     73  C   UNL A   1      43.759  25.386  35.038  1.00  0.00     0.198 A 
ATOM     74  C   UNL A   1      44.069  26.773  36.947  1.00  0.00     0.198 A 
ATOM     75  F   UNL A   1      43.864  29.056  36.815  1.00  0.00    -0.203 F 
ATOM     76  F   UNL A   1      43.592  24.169  34.504  1.00  0.00    -0.200 F 
ATOM     77  C   UNL A   1      43.959  25.515  36.399  1.00  0.00     0.200 A 
ATOM     78  F   UNL A   1      44.245  26.924  38.268  1.00  0.00    -0.200 F 
ATOM     79  F   UNL A   1      43.997  24.435  37.189  1.00  0.00    -0.200 F 
ENDBRANCH  55  69
BRANCH  56  80
ATOM     80  C   UNL A   1      42.240  25.188  26.646  1.00  0.00     0.064 A 
ATOM     81  C   UNL A   1      43.038  24.850  25.537  1.00  0.00     0.173 A 
ATOM     82  C   UNL A   1      41.502  24.141  27.229  1.00  0.00     0.173 A 
ATOM     83  F   UNL A   1      43.807  25.780  24.952  1.00  0.00    -0.203 F 
ATOM     84  C   UNL A   1      43.134  23.534  25.075  1.00  0.00     0.198 A 
ATOM     85  C   UNL A   1      41.594  22.828  26.762  1.00  0.00     0.198 A 
ATOM     86  F   UNL A   1      40.776  24.352  28.336  1.00  0.00    -0.203 F 
ATOM     87  F   UNL A   1      43.974  23.237  24.074  1.00  0.00    -0.200 F 
ATOM     88  C   UNL A   1      42.424  22.521  25.697  1.00  0.00     0.200 A 
ATOM     89  F   UNL A   1      40.947  21.844  27.403  1.00  0.00    -0.200 F 
ATOM     90  F   UNL A   1      42.583  21.248  25.310  1.00  0.00    -0.200 F 
ENDBRANCH  56  80
BRANCH  68  91
ATOM     91  C   UNL A   1      45.168  30.449  28.578  1.00  0.00     0.064 A 
ATOM     92  C   UNL A   1      44.139  31.328  28.196  1.00  0.00     0.173 A 
ATOM     93  C   UNL A   1      46.423  30.643  27.985  1.00  0.00     0.173 A 
ATOM     94  F   UNL A   1      42.936  31.275  28.777  1.00  0.00    -0.203 F 
ATOM     95  C   UNL A   1      44.349  32.328  27.247  1.00  0.00     0.198 A 
ATOM     96  C   UNL A   1      46.641  31.665  27.063  1.00  0.00     0.198 A 
ATOM     97  F   UNL A   1      47.460  29.868  28.340  1.00  0.00    -0.203 F 
ATOM     98  F   UNL A   1      43.346  33.150  26.901  1.00  0.00    -0.200 F 
ATOM     99  C   UNL A   1      45.603  32.502  26.688  1.00  0.00     0.200 A 
ATOM    100  F   UNL A   1      47.869  31.859  26.562  1.00  0.00    -0.200 F 
ATOM    101  F   UNL A   1      45.819  33.493  25.810  1.00  0.00    -0.200 F 
ENDBRANCH  68  91
ENDBRANCH  42  43
ENDBRANCH  34  37
ENDBRANCH  32  33
ENDBRANCH  31  32
ENDBRANCH   1  31
TORSDOF 16
ENDMDL
