MODEL 1
REMARK VINA RESULT:     -12.3      0.000      0.000
REMARK SMILES NS(=O)(=O)c1ccc(N2N=C(C(=O)NCCCCNC(=O)c3ccc(-c4c5nc(c(-c6c(F)c(F)c(F)c(F)c6F)c6ccc([nH]6)c(-c6c(F)c(F)c(F)c(F)c6F)c6nc(c(-c7c(F)c(F)c(F)c(F)c7F)c7ccc4[nH]7)C=C6)C=C5)cc3)C[C@H]2c2ccco2)cc1
REMARK SMILES IDX 16 1 15 2 14 3 12 4 13 5 11 7 9 8 10 9 86 10 85 11 8 12 5 13
REMARK SMILES IDX 6 14 93 15 7 16 92 17 2 18 3 19 4 20 1 21 87 24 88 25 91 26
REMARK SMILES IDX 89 27 90 28 17 29 18 30 19 31 20 32 21 34 22 35 23 36 84 37
REMARK SMILES IDX 24 38 83 39 25 40 26 41 27 42 77 43 28 44 82 45 76 46 78 47
REMARK SMILES IDX 29 48 81 49 75 50 74 51 30 53 62 54 42 55 61 56 43 57 46 58
REMARK SMILES IDX 60 59 79 60 44 61 45 62 59 64 80 65 47 66 31 67 32 68 40 69
REMARK SMILES IDX 33 70 34 71 38 72 41 73 35 74 36 75 39 76 37 77 63 78 64 79
REMARK SMILES IDX 72 80 65 81 66 82 70 83 73 84 67 85 68 86 71 87 69 88 48 89
REMARK SMILES IDX 49 90 57 91 50 92 51 93 55 94 58 95 52 96 53 97 56 98 54 99
REMARK H PARENT 14 6 1 22 1 23 19 33 78 52 46 63
REMARK Flexibility Score: inf
ROOT
ATOM      1  C   UNL A   1      31.609  28.011  25.660  1.00  0.00     0.023 C 
ENDROOT
BRANCH   1   2
ATOM      2  C   UNL A   1      30.993  26.764  25.035  1.00  0.00     0.116 C 
BRANCH   2   3
ATOM      3  N   UNL A   1      30.548  25.830  26.051  1.00  0.00    -0.351 N 
ATOM      4  C   UNL A   1      30.862  24.532  26.368  1.00  0.00     0.267 C 
ATOM      5  O   UNL A   1      30.206  24.000  27.262  1.00  0.00    -0.268 OA
ATOM      6  H   UNL A   1      29.865  26.214  26.648  1.00  0.00     0.163 HD
BRANCH   4   7
ATOM      7  C   UNL A   1      31.986  23.739  25.719  1.00  0.00     0.128 C 
ATOM      8  N   UNL A   1      33.242  22.061  25.301  1.00  0.00    -0.254 N 
ATOM      9  N   UNL A   1      32.053  22.445  25.843  1.00  0.00    -0.171 NA
ATOM     10  C   UNL A   1      33.932  23.134  24.579  1.00  0.00     0.180 C 
ATOM     11  C   UNL A   1      33.084  24.359  24.927  1.00  0.00     0.099 C 
BRANCH   8  12
ATOM     12  C   UNL A   1      33.476  20.722  24.996  1.00  0.00     0.060 A 
ATOM     13  C   UNL A   1      33.895  18.001  24.441  1.00  0.00     0.082 A 
ATOM     14  C   UNL A   1      34.987  18.831  24.702  1.00  0.00     0.024 A 
ATOM     15  C   UNL A   1      32.600  18.518  24.426  1.00  0.00     0.024 A 
ATOM     16  C   UNL A   1      34.772  20.189  24.965  1.00  0.00     0.029 A 
ATOM     17  C   UNL A   1      32.401  19.870  24.705  1.00  0.00     0.029 A 
BRANCH  13  18
ATOM     18  S   UNL A   1      34.133  16.287  24.092  1.00  0.00     0.238 S 
ATOM     19  O   UNL A   1      35.157  15.766  24.976  1.00  0.00    -0.207 OA
ATOM     20  O   UNL A   1      34.179  16.114  22.664  1.00  0.00    -0.207 OA
BRANCH  18  21
ATOM     21  N   UNL A   1      32.707  15.569  24.612  1.00  0.00    -0.225 NA
ATOM     22  H   UNL A   1      31.931  15.897  24.038  1.00  0.00     0.137 HD
ATOM     23  H   UNL A   1      32.537  15.818  25.587  1.00  0.00     0.137 HD
ENDBRANCH  18  21
ENDBRANCH  13  18
ENDBRANCH   8  12
BRANCH  10  24
ATOM     24  C   UNL A   1      35.387  23.349  24.871  1.00  0.00     0.128 A 
ATOM     25  C   UNL A   1      36.514  23.346  24.071  1.00  0.00     0.048 A 
ATOM     26  O   UNL A   1      35.750  23.614  26.163  1.00  0.00    -0.467 OA
ATOM     27  C   UNL A   1      37.614  23.616  24.919  1.00  0.00     0.042 A 
ATOM     28  C   UNL A   1      37.095  23.784  26.179  1.00  0.00     0.195 A 
ENDBRANCH  10  24
ENDBRANCH   4   7
ENDBRANCH   2   3
ENDBRANCH   1   2
BRANCH   1  29
ATOM     29  C   UNL A   1      32.217  27.789  27.046  1.00  0.00     0.023 C 
BRANCH  29  30
ATOM     30  C   UNL A   1      33.586  28.427  27.267  1.00  0.00     0.116 C 
BRANCH  30  31
ATOM     31  N   UNL A   1      33.523  29.842  27.604  1.00  0.00    -0.352 N 
ATOM     32  C   UNL A   1      34.494  30.644  28.152  1.00  0.00     0.251 C 
ATOM     33  H   UNL A   1      32.665  30.284  27.414  1.00  0.00     0.163 HD
ATOM     34  O   UNL A   1      34.239  31.803  28.460  1.00  0.00    -0.269 OA
BRANCH  32  35
ATOM     35  C   UNL A   1      35.838  30.087  28.406  1.00  0.00     0.039 A 
ATOM     36  C   UNL A   1      36.807  30.190  27.404  1.00  0.00     0.014 A 
ATOM     37  C   UNL A   1      36.149  29.502  29.635  1.00  0.00     0.014 A 
ATOM     38  C   UNL A   1      38.113  29.773  27.665  1.00  0.00     0.010 A 
ATOM     39  C   UNL A   1      37.466  29.151  29.917  1.00  0.00     0.010 A 
ATOM     40  C   UNL A   1      38.460  29.289  28.937  1.00  0.00    -0.014 A 
BRANCH  40  41
ATOM     41  C   UNL A   1      39.862  28.934  29.265  1.00  0.00     0.031 A 
ATOM     42  C   UNL A   1      40.717  29.882  30.054  1.00  0.00     0.074 A 
ATOM     43  C   UNL A   1      40.383  27.785  28.790  1.00  0.00     0.049 A 
ATOM     44  N   UNL A   1      41.981  29.780  30.381  1.00  0.00    -0.248 NA
ATOM     45  C   UNL A   1      40.074  31.123  30.513  1.00  0.00     0.031 C 
ATOM     46  C   UNL A   1      39.668  26.809  27.966  1.00  0.00     0.029 A 
ATOM     47  N   UNL A   1      41.639  27.251  28.924  1.00  0.00    -0.354 N 
ATOM     48  C   UNL A   1      42.286  30.947  31.069  1.00  0.00     0.074 A 
ATOM     49  C   UNL A   1      41.092  31.764  31.069  1.00  0.00     0.031 C 
ATOM     50  C   UNL A   1      40.489  25.783  27.688  1.00  0.00     0.029 A 
ATOM     51  C   UNL A   1      41.795  26.044  28.285  1.00  0.00     0.049 A 
ATOM     52  H   UNL A   1      42.361  27.690  29.429  1.00  0.00     0.167 HD
ATOM     53  C   UNL A   1      43.450  31.293  31.666  1.00  0.00     0.037 A 
ATOM     54  C   UNL A   1      42.872  25.242  28.192  1.00  0.00     0.037 A 
ATOM     55  C   UNL A   1      44.627  30.466  31.690  1.00  0.00     0.049 A 
ATOM     56  C   UNL A   1      44.149  25.646  28.876  1.00  0.00     0.074 A 
ATOM     57  C   UNL A   1      45.838  30.702  32.319  1.00  0.00     0.029 A 
ATOM     58  N   UNL A   1      44.740  29.238  31.054  1.00  0.00    -0.354 N 
ATOM     59  N   UNL A   1      44.408  26.721  29.579  1.00  0.00    -0.248 NA
ATOM     60  C   UNL A   1      45.284  24.719  28.758  1.00  0.00     0.031 C 
ATOM     61  C   UNL A   1      46.694  29.632  32.035  1.00  0.00     0.029 A 
ATOM     62  C   UNL A   1      46.003  28.710  31.265  1.00  0.00     0.049 A 
ATOM     63  H   UNL A   1      44.026  28.805  30.532  1.00  0.00     0.167 HD
ATOM     64  C   UNL A   1      45.721  26.590  30.008  1.00  0.00     0.074 A 
ATOM     65  C   UNL A   1      46.202  25.322  29.498  1.00  0.00     0.031 C 
ATOM     66  C   UNL A   1      46.462  27.443  30.757  1.00  0.00     0.037 A 
BRANCH  53  67
ATOM     67  C   UNL A   1      43.503  32.625  32.355  1.00  0.00     0.064 A 
ATOM     68  C   UNL A   1      43.870  33.792  31.667  1.00  0.00     0.173 A 
ATOM     69  C   UNL A   1      43.154  32.743  33.708  1.00  0.00     0.173 A 
ATOM     70  F   UNL A   1      44.225  33.730  30.375  1.00  0.00    -0.203 F 
ATOM     71  C   UNL A   1      43.914  35.023  32.317  1.00  0.00     0.198 A 
ATOM     72  C   UNL A   1      43.172  33.981  34.348  1.00  0.00     0.198 A 
ATOM     73  F   UNL A   1      42.792  31.659  34.411  1.00  0.00    -0.203 F 
ATOM     74  F   UNL A   1      44.315  36.115  31.651  1.00  0.00    -0.200 F 
ATOM     75  C   UNL A   1      43.559  35.117  33.653  1.00  0.00     0.200 A 
ATOM     76  F   UNL A   1      42.819  34.073  35.637  1.00  0.00    -0.200 F 
ATOM     77  F   UNL A   1      43.597  36.304  34.275  1.00  0.00    -0.200 F 
ENDBRANCH  53  67
BRANCH  54  78
ATOM     78  C   UNL A   1      42.777  23.957  27.454  1.00  0.00     0.064 A 
ATOM     79  C   UNL A   1      43.090  23.891  26.090  1.00  0.00     0.173 A 
ATOM     80  C   UNL A   1      42.373  22.775  28.090  1.00  0.00     0.173 A 
ATOM     81  F   UNL A   1      43.462  25.001  25.434  1.00  0.00    -0.203 F 
ATOM     82  C   UNL A   1      42.984  22.695  25.384  1.00  0.00     0.198 A 
ATOM     83  C   UNL A   1      42.291  21.573  27.390  1.00  0.00     0.198 A 
ATOM     84  F   UNL A   1      42.068  22.785  29.396  1.00  0.00    -0.203 F 
ATOM     85  F   UNL A   1      43.250  22.668  24.071  1.00  0.00    -0.200 F 
ATOM     86  C   UNL A   1      42.590  21.535  26.036  1.00  0.00     0.200 A 
ATOM     87  F   UNL A   1      41.923  20.453  28.025  1.00  0.00    -0.200 F 
ATOM     88  F   UNL A   1      42.492  20.384  25.357  1.00  0.00    -0.200 F 
ENDBRANCH  54  78
BRANCH  66  89
ATOM     89  C   UNL A   1      47.858  27.018  31.097  1.00  0.00     0.064 A 
ATOM     90  C   UNL A   1      48.128  26.185  32.193  1.00  0.00     0.173 A 
ATOM     91  C   UNL A   1      48.937  27.419  30.293  1.00  0.00     0.173 A 
ATOM     92  F   UNL A   1      47.131  25.789  32.999  1.00  0.00    -0.203 F 
ATOM     93  C   UNL A   1      49.429  25.790  32.487  1.00  0.00     0.198 A 
ATOM     94  C   UNL A   1      50.234  27.000  30.575  1.00  0.00     0.198 A 
ATOM     95  F   UNL A   1      48.731  28.211  29.231  1.00  0.00    -0.203 F 
ATOM     96  F   UNL A   1      49.670  25.032  33.566  1.00  0.00    -0.200 F 
ATOM     97  C   UNL A   1      50.480  26.192  31.675  1.00  0.00     0.200 A 
ATOM     98  F   UNL A   1      51.247  27.379  29.783  1.00  0.00    -0.200 F 
ATOM     99  F   UNL A   1      51.732  25.806  31.957  1.00  0.00    -0.200 F 
ENDBRANCH  66  89
ENDBRANCH  40  41
ENDBRANCH  32  35
ENDBRANCH  30  31
ENDBRANCH  29  30
ENDBRANCH   1  29
TORSDOF 15
ENDMDL
MODEL 2
REMARK VINA RESULT:     -12.3      3.640      9.156
REMARK SMILES NS(=O)(=O)c1ccc(N2N=C(C(=O)NCCCCNC(=O)c3ccc(-c4c5nc(c(-c6c(F)c(F)c(F)c(F)c6F)c6ccc([nH]6)c(-c6c(F)c(F)c(F)c(F)c6F)c6nc(c(-c7c(F)c(F)c(F)c(F)c7F)c7ccc4[nH]7)C=C6)C=C5)cc3)C[C@H]2c2ccco2)cc1
REMARK SMILES IDX 16 1 15 2 14 3 12 4 13 5 11 7 9 8 10 9 86 10 85 11 8 12 5 13
REMARK SMILES IDX 6 14 93 15 7 16 92 17 2 18 3 19 4 20 1 21 87 24 88 25 91 26
REMARK SMILES IDX 89 27 90 28 17 29 18 30 19 31 20 32 21 34 22 35 23 36 84 37
REMARK SMILES IDX 24 38 83 39 25 40 26 41 27 42 77 43 28 44 82 45 76 46 78 47
REMARK SMILES IDX 29 48 81 49 75 50 74 51 30 53 62 54 42 55 61 56 43 57 46 58
REMARK SMILES IDX 60 59 79 60 44 61 45 62 59 64 80 65 47 66 31 67 32 68 40 69
REMARK SMILES IDX 33 70 34 71 38 72 41 73 35 74 36 75 39 76 37 77 63 78 64 79
REMARK SMILES IDX 72 80 65 81 66 82 70 83 73 84 67 85 68 86 71 87 69 88 48 89
REMARK SMILES IDX 49 90 57 91 50 92 51 93 55 94 58 95 52 96 53 97 56 98 54 99
REMARK H PARENT 14 6 1 22 1 23 19 33 78 52 46 63
REMARK Flexibility Score: inf
ROOT
ATOM      1  C   UNL A   1      35.311  22.976  23.996  1.00  0.00     0.023 C 
ENDROOT
BRANCH   1   2
ATOM      2  C   UNL A   1      33.982  22.911  23.250  1.00  0.00     0.116 C 
BRANCH   2   3
ATOM      3  N   UNL A   1      32.948  22.310  24.067  1.00  0.00    -0.351 N 
ATOM      4  C   UNL A   1      32.020  22.795  24.956  1.00  0.00     0.267 C 
ATOM      5  O   UNL A   1      31.337  21.970  25.559  1.00  0.00    -0.268 OA
ATOM      6  H   UNL A   1      32.898  21.332  23.961  1.00  0.00     0.163 HD
BRANCH   4   7
ATOM      7  C   UNL A   1      31.762  24.275  25.203  1.00  0.00     0.128 C 
ATOM      8  N   UNL A   1      31.312  26.311  24.739  1.00  0.00    -0.254 N 
ATOM      9  N   UNL A   1      31.263  25.033  24.271  1.00  0.00    -0.171 NA
ATOM     10  C   UNL A   1      31.673  26.403  26.157  1.00  0.00     0.180 C 
ATOM     11  C   UNL A   1      32.068  24.963  26.487  1.00  0.00     0.099 C 
BRANCH   8  12
ATOM     12  C   UNL A   1      30.574  27.316  24.118  1.00  0.00     0.060 A 
ATOM     13  C   UNL A   1      29.093  29.389  22.934  1.00  0.00     0.082 A 
ATOM     14  C   UNL A   1      28.549  28.105  23.011  1.00  0.00     0.024 A 
ATOM     15  C   UNL A   1      30.377  29.643  23.415  1.00  0.00     0.024 A 
ATOM     16  C   UNL A   1      29.298  27.073  23.591  1.00  0.00     0.029 A 
ATOM     17  C   UNL A   1      31.104  28.609  24.004  1.00  0.00     0.029 A 
BRANCH  13  18
ATOM     18  S   UNL A   1      28.181  30.707  22.196  1.00  0.00     0.238 S 
ATOM     19  O   UNL A   1      27.229  31.218  23.163  1.00  0.00    -0.207 OA
ATOM     20  O   UNL A   1      27.800  30.311  20.867  1.00  0.00    -0.207 OA
BRANCH  18  21
ATOM     21  N   UNL A   1      29.316  31.932  22.021  1.00  0.00    -0.225 NA
ATOM     22  H   UNL A   1      30.243  31.523  21.905  1.00  0.00     0.137 HD
ATOM     23  H   UNL A   1      29.308  32.525  22.851  1.00  0.00     0.137 HD
ENDBRANCH  18  21
ENDBRANCH  13  18
ENDBRANCH   8  12
BRANCH  10  24
ATOM     24  C   UNL A   1      32.738  27.386  26.543  1.00  0.00     0.128 A 
ATOM     25  C   UNL A   1      34.035  27.581  26.108  1.00  0.00     0.048 A 
ATOM     26  O   UNL A   1      32.440  28.310  27.507  1.00  0.00    -0.467 OA
ATOM     27  C   UNL A   1      34.551  28.672  26.847  1.00  0.00     0.042 A 
ATOM     28  C   UNL A   1      33.537  29.089  27.675  1.00  0.00     0.195 A 
ENDBRANCH  10  24
ENDBRANCH   4   7
ENDBRANCH   2   3
ENDBRANCH   1   2
BRANCH   1  29
ATOM     29  C   UNL A   1      35.497  24.233  24.847  1.00  0.00     0.023 C 
BRANCH  29  30
ATOM     30  C   UNL A   1      36.390  24.064  26.074  1.00  0.00     0.116 C 
BRANCH  30  31
ATOM     31  N   UNL A   1      37.337  22.965  25.959  1.00  0.00    -0.352 N 
ATOM     32  C   UNL A   1      38.675  22.941  26.268  1.00  0.00     0.251 C 
ATOM     33  H   UNL A   1      36.967  22.122  25.611  1.00  0.00     0.163 HD
ATOM     34  O   UNL A   1      39.351  21.948  26.020  1.00  0.00    -0.269 OA
BRANCH  32  35
ATOM     35  C   UNL A   1      39.305  24.137  26.864  1.00  0.00     0.039 A 
ATOM     36  C   UNL A   1      39.976  25.029  26.024  1.00  0.00     0.014 A 
ATOM     37  C   UNL A   1      39.201  24.392  28.233  1.00  0.00     0.014 A 
ATOM     38  C   UNL A   1      40.479  26.220  26.549  1.00  0.00     0.010 A 
ATOM     39  C   UNL A   1      39.642  25.610  28.741  1.00  0.00     0.010 A 
ATOM     40  C   UNL A   1      40.279  26.537  27.902  1.00  0.00    -0.014 A 
BRANCH  40  41
ATOM     41  C   UNL A   1      40.720  27.841  28.457  1.00  0.00     0.031 A 
ATOM     42  C   UNL A   1      42.164  28.068  28.795  1.00  0.00     0.074 A 
ATOM     43  C   UNL A   1      39.803  28.792  28.721  1.00  0.00     0.049 A 
ATOM     44  N   UNL A   1      42.730  29.110  29.350  1.00  0.00    -0.248 NA
ATOM     45  C   UNL A   1      43.093  26.967  28.496  1.00  0.00     0.031 C 
ATOM     46  C   UNL A   1      38.364  28.668  28.487  1.00  0.00     0.029 A 
ATOM     47  N   UNL A   1      39.946  30.048  29.253  1.00  0.00    -0.354 N 
ATOM     48  C   UNL A   1      44.074  28.784  29.478  1.00  0.00     0.074 A 
ATOM     49  C   UNL A   1      44.230  27.431  28.992  1.00  0.00     0.031 C 
ATOM     50  C   UNL A   1      37.759  29.811  28.851  1.00  0.00     0.029 A 
ATOM     51  C   UNL A   1      38.762  30.734  29.374  1.00  0.00     0.049 A 
ATOM     52  H   UNL A   1      40.815  30.423  29.524  1.00  0.00     0.167 HD
ATOM     53  C   UNL A   1      45.088  29.554  29.938  1.00  0.00     0.037 A 
ATOM     54  C   UNL A   1      38.515  31.967  29.853  1.00  0.00     0.037 A 
ATOM     55  C   UNL A   1      44.934  30.911  30.394  1.00  0.00     0.049 A 
ATOM     56  C   UNL A   1      39.662  32.805  30.347  1.00  0.00     0.074 A 
ATOM     57  C   UNL A   1      45.908  31.794  30.824  1.00  0.00     0.029 A 
ATOM     58  N   UNL A   1      43.722  31.581  30.477  1.00  0.00    -0.354 N 
ATOM     59  N   UNL A   1      40.938  32.511  30.404  1.00  0.00    -0.248 NA
ATOM     60  C   UNL A   1      39.334  34.152  30.838  1.00  0.00     0.031 C 
ATOM     61  C   UNL A   1      45.282  32.988  31.200  1.00  0.00     0.029 A 
ATOM     62  C   UNL A   1      43.922  32.863  30.964  1.00  0.00     0.049 A 
ATOM     63  H   UNL A   1      42.849  31.202  30.226  1.00  0.00     0.167 HD
ATOM     64  C   UNL A   1      41.567  33.640  30.910  1.00  0.00     0.074 A 
ATOM     65  C   UNL A   1      40.534  34.631  31.131  1.00  0.00     0.031 C 
ATOM     66  C   UNL A   1      42.883  33.838  31.169  1.00  0.00     0.037 A 
BRANCH  53  67
ATOM     67  C   UNL A   1      46.460  28.947  29.961  1.00  0.00     0.064 A 
ATOM     68  C   UNL A   1      46.946  28.277  31.094  1.00  0.00     0.173 A 
ATOM     69  C   UNL A   1      47.286  29.009  28.830  1.00  0.00     0.173 A 
ATOM     70  F   UNL A   1      46.198  28.202  32.206  1.00  0.00    -0.203 F 
ATOM     71  C   UNL A   1      48.220  27.716  31.102  1.00  0.00     0.198 A 
ATOM     72  C   UNL A   1      48.550  28.423  28.832  1.00  0.00     0.198 A 
ATOM     73  F   UNL A   1      46.868  29.636  27.719  1.00  0.00    -0.203 F 
ATOM     74  F   UNL A   1      48.681  27.124  32.213  1.00  0.00    -0.200 F 
ATOM     75  C   UNL A   1      49.018  27.785  29.971  1.00  0.00     0.200 A 
ATOM     76  F   UNL A   1      49.316  28.480  27.735  1.00  0.00    -0.200 F 
ATOM     77  F   UNL A   1      50.242  27.240  29.980  1.00  0.00    -0.200 F 
ENDBRANCH  53  67
BRANCH  54  78
ATOM     78  C   UNL A   1      37.129  32.499  29.854  1.00  0.00     0.064 A 
ATOM     79  C   UNL A   1      36.642  33.232  28.763  1.00  0.00     0.173 A 
ATOM     80  C   UNL A   1      36.265  32.291  30.939  1.00  0.00     0.173 A 
ATOM     81  F   UNL A   1      37.439  33.474  27.711  1.00  0.00    -0.203 F 
ATOM     82  C   UNL A   1      35.351  33.752  28.763  1.00  0.00     0.198 A 
ATOM     83  C   UNL A   1      34.964  32.790  30.928  1.00  0.00     0.198 A 
ATOM     84  F   UNL A   1      36.682  31.591  32.004  1.00  0.00    -0.203 F 
ATOM     85  F   UNL A   1      34.925  34.483  27.724  1.00  0.00    -0.200 F 
ATOM     86  C   UNL A   1      34.510  33.526  29.844  1.00  0.00     0.200 A 
ATOM     87  F   UNL A   1      34.152  32.559  31.967  1.00  0.00    -0.200 F 
ATOM     88  F   UNL A   1      33.266  34.024  29.843  1.00  0.00    -0.200 F 
ENDBRANCH  54  78
BRANCH  66  89
ATOM     89  C   UNL A   1      43.283  35.186  31.689  1.00  0.00     0.064 A 
ATOM     90  C   UNL A   1      43.707  36.209  30.829  1.00  0.00     0.173 A 
ATOM     91  C   UNL A   1      43.204  35.469  33.061  1.00  0.00     0.173 A 
ATOM     92  F   UNL A   1      43.814  35.982  29.511  1.00  0.00    -0.203 F 
ATOM     93  C   UNL A   1      44.062  37.460  31.327  1.00  0.00     0.198 A 
ATOM     94  C   UNL A   1      43.535  36.728  33.553  1.00  0.00     0.198 A 
ATOM     95  F   UNL A   1      42.799  34.525  33.924  1.00  0.00    -0.203 F 
ATOM     96  F   UNL A   1      44.509  38.409  30.493  1.00  0.00    -0.200 F 
ATOM     97  C   UNL A   1      43.970  37.720  32.687  1.00  0.00     0.200 A 
ATOM     98  F   UNL A   1      43.434  36.982  34.865  1.00  0.00    -0.200 F 
ATOM     99  F   UNL A   1      44.309  38.926  33.163  1.00  0.00    -0.200 F 
ENDBRANCH  66  89
ENDBRANCH  40  41
ENDBRANCH  32  35
ENDBRANCH  30  31
ENDBRANCH  29  30
ENDBRANCH   1  29
TORSDOF 15
ENDMDL
MODEL 3
REMARK VINA RESULT:     -12.2      3.651      9.282
REMARK SMILES NS(=O)(=O)c1ccc(N2N=C(C(=O)NCCCCNC(=O)c3ccc(-c4c5nc(c(-c6c(F)c(F)c(F)c(F)c6F)c6ccc([nH]6)c(-c6c(F)c(F)c(F)c(F)c6F)c6nc(c(-c7c(F)c(F)c(F)c(F)c7F)c7ccc4[nH]7)C=C6)C=C5)cc3)C[C@H]2c2ccco2)cc1
REMARK SMILES IDX 16 1 15 2 14 3 12 4 13 5 11 7 9 8 10 9 86 10 85 11 8 12 5 13
REMARK SMILES IDX 6 14 93 15 7 16 92 17 2 18 3 19 4 20 1 21 87 24 88 25 91 26
REMARK SMILES IDX 89 27 90 28 17 29 18 30 19 31 20 32 21 34 22 35 23 36 84 37
REMARK SMILES IDX 24 38 83 39 25 40 26 41 27 42 77 43 28 44 82 45 76 46 78 47
REMARK SMILES IDX 29 48 81 49 75 50 74 51 30 53 62 54 42 55 61 56 43 57 46 58
REMARK SMILES IDX 60 59 79 60 44 61 45 62 59 64 80 65 47 66 31 67 32 68 40 69
REMARK SMILES IDX 33 70 34 71 38 72 41 73 35 74 36 75 39 76 37 77 63 78 64 79
REMARK SMILES IDX 72 80 65 81 66 82 70 83 73 84 67 85 68 86 71 87 69 88 48 89
REMARK SMILES IDX 49 90 57 91 50 92 51 93 55 94 58 95 52 96 53 97 56 98 54 99
REMARK H PARENT 14 6 1 22 1 23 19 33 78 52 46 63
REMARK Flexibility Score: inf
ROOT
ATOM      1  C   UNL A   1      34.841  23.631  24.322  1.00  0.00     0.023 C 
ENDROOT
BRANCH   1   2
ATOM      2  C   UNL A   1      33.923  22.784  23.447  1.00  0.00     0.116 C 
BRANCH   2   3
ATOM      3  N   UNL A   1      32.832  22.222  24.218  1.00  0.00    -0.351 N 
ATOM      4  C   UNL A   1      31.870  22.744  25.047  1.00  0.00     0.267 C 
ATOM      5  O   UNL A   1      31.136  21.946  25.626  1.00  0.00    -0.268 OA
ATOM      6  H   UNL A   1      32.765  21.243  24.126  1.00  0.00     0.163 HD
BRANCH   4   7
ATOM      7  C   UNL A   1      31.634  24.233  25.255  1.00  0.00     0.128 C 
ATOM      8  N   UNL A   1      31.218  26.264  24.737  1.00  0.00    -0.254 N 
ATOM      9  N   UNL A   1      31.151  24.975  24.302  1.00  0.00    -0.171 NA
ATOM     10  C   UNL A   1      31.576  26.387  26.153  1.00  0.00     0.180 C 
ATOM     11  C   UNL A   1      31.947  24.949  26.522  1.00  0.00     0.099 C 
BRANCH   8  12
ATOM     12  C   UNL A   1      30.499  27.263  24.087  1.00  0.00     0.060 A 
ATOM     13  C   UNL A   1      29.070  29.333  22.836  1.00  0.00     0.082 A 
ATOM     14  C   UNL A   1      28.418  28.145  23.170  1.00  0.00     0.024 A 
ATOM     15  C   UNL A   1      30.431  29.490  23.093  1.00  0.00     0.024 A 
ATOM     16  C   UNL A   1      29.139  27.112  23.782  1.00  0.00     0.029 A 
ATOM     17  C   UNL A   1      31.133  28.458  23.718  1.00  0.00     0.029 A 
BRANCH  13  18
ATOM     18  S   UNL A   1      28.193  30.649  22.051  1.00  0.00     0.238 S 
ATOM     19  O   UNL A   1      27.195  31.161  22.969  1.00  0.00    -0.207 OA
ATOM     20  O   UNL A   1      27.876  30.248  20.706  1.00  0.00    -0.207 OA
BRANCH  18  21
ATOM     21  N   UNL A   1      29.334  31.875  21.927  1.00  0.00    -0.225 NA
ATOM     22  H   UNL A   1      29.969  31.672  21.156  1.00  0.00     0.137 HD
ATOM     23  H   UNL A   1      29.863  31.935  22.797  1.00  0.00     0.137 HD
ENDBRANCH  18  21
ENDBRANCH  13  18
ENDBRANCH   8  12
BRANCH  10  24
ATOM     24  C   UNL A   1      32.655  27.363  26.519  1.00  0.00     0.128 A 
ATOM     25  C   UNL A   1      33.956  27.527  26.082  1.00  0.00     0.048 A 
ATOM     26  O   UNL A   1      32.369  28.314  27.459  1.00  0.00    -0.467 OA
ATOM     27  C   UNL A   1      34.487  28.628  26.796  1.00  0.00     0.042 A 
ATOM     28  C   UNL A   1      33.477  29.079  27.611  1.00  0.00     0.195 A 
ENDBRANCH  10  24
ENDBRANCH   4   7
ENDBRANCH   2   3
ENDBRANCH   1   2
BRANCH   1  29
ATOM     29  C   UNL A   1      35.877  22.830  25.112  1.00  0.00     0.023 C 
BRANCH  29  30
ATOM     30  C   UNL A   1      37.127  23.605  25.521  1.00  0.00     0.116 C 
BRANCH  30  31
ATOM     31  N   UNL A   1      38.312  22.770  25.655  1.00  0.00    -0.352 N 
ATOM     32  C   UNL A   1      39.523  23.073  26.228  1.00  0.00     0.251 C 
ATOM     33  H   UNL A   1      38.235  21.862  25.282  1.00  0.00     0.163 HD
ATOM     34  O   UNL A   1      40.453  22.276  26.172  1.00  0.00    -0.269 OA
BRANCH  32  35
ATOM     35  C   UNL A   1      39.710  24.387  26.878  1.00  0.00     0.039 A 
ATOM     36  C   UNL A   1      39.266  24.553  28.192  1.00  0.00     0.014 A 
ATOM     37  C   UNL A   1      40.351  25.431  26.207  1.00  0.00     0.014 A 
ATOM     38  C   UNL A   1      39.535  25.748  28.862  1.00  0.00     0.010 A 
ATOM     39  C   UNL A   1      40.678  26.594  26.898  1.00  0.00     0.010 A 
ATOM     40  C   UNL A   1      40.279  26.760  28.233  1.00  0.00    -0.014 A 
BRANCH  40  41
ATOM     41  C   UNL A   1      40.659  27.996  28.960  1.00  0.00     0.031 A 
ATOM     42  C   UNL A   1      42.041  28.143  29.528  1.00  0.00     0.074 A 
ATOM     43  C   UNL A   1      39.735  28.954  29.166  1.00  0.00     0.049 A 
ATOM     44  N   UNL A   1      42.539  29.114  30.250  1.00  0.00    -0.248 NA
ATOM     45  C   UNL A   1      42.979  27.038  29.275  1.00  0.00     0.031 C 
ATOM     46  C   UNL A   1      38.345  28.901  28.711  1.00  0.00     0.029 A 
ATOM     47  N   UNL A   1      39.824  30.155  29.822  1.00  0.00    -0.354 N 
ATOM     48  C   UNL A   1      43.840  28.731  30.548  1.00  0.00     0.074 A 
ATOM     49  C   UNL A   1      44.038  27.418  29.974  1.00  0.00     0.031 C 
ATOM     50  C   UNL A   1      37.718  30.030  29.079  1.00  0.00     0.029 A 
ATOM     51  C   UNL A   1      38.651  30.870  29.825  1.00  0.00     0.049 A 
ATOM     52  H   UNL A   1      40.650  30.475  30.252  1.00  0.00     0.167 HD
ATOM     53  C   UNL A   1      44.790  29.424  31.220  1.00  0.00     0.037 A 
ATOM     54  C   UNL A   1      38.362  32.067  30.368  1.00  0.00     0.037 A 
ATOM     55  C   UNL A   1      44.599  30.742  31.765  1.00  0.00     0.049 A 
ATOM     56  C   UNL A   1      39.440  32.820  31.100  1.00  0.00     0.074 A 
ATOM     57  C   UNL A   1      45.517  31.551  32.412  1.00  0.00     0.029 A 
ATOM     58  N   UNL A   1      43.404  31.446  31.725  1.00  0.00    -0.354 N 
ATOM     59  N   UNL A   1      40.685  32.477  31.320  1.00  0.00    -0.248 NA
ATOM     60  C   UNL A   1      39.071  34.131  31.652  1.00  0.00     0.031 C 
ATOM     61  C   UNL A   1      44.868  32.731  32.793  1.00  0.00     0.029 A 
ATOM     62  C   UNL A   1      43.557  32.674  32.347  1.00  0.00     0.049 A 
ATOM     63  H   UNL A   1      42.571  31.120  31.314  1.00  0.00     0.167 HD
ATOM     64  C   UNL A   1      41.256  33.536  32.011  1.00  0.00     0.074 A 
ATOM     65  C   UNL A   1      40.223  34.541  32.162  1.00  0.00     0.031 C 
ATOM     66  C   UNL A   1      42.521  33.665  32.480  1.00  0.00     0.037 A 
BRANCH  53  67
ATOM     67  C   UNL A   1      46.128  28.769  31.394  1.00  0.00     0.064 A 
ATOM     68  C   UNL A   1      46.417  27.977  32.517  1.00  0.00     0.173 A 
ATOM     69  C   UNL A   1      47.123  28.907  30.415  1.00  0.00     0.173 A 
ATOM     70  F   UNL A   1      45.503  27.825  33.487  1.00  0.00    -0.203 F 
ATOM     71  C   UNL A   1      47.662  27.373  32.666  1.00  0.00     0.198 A 
ATOM     72  C   UNL A   1      48.358  28.279  30.554  1.00  0.00     0.198 A 
ATOM     73  F   UNL A   1      46.897  29.650  29.321  1.00  0.00    -0.203 F 
ATOM     74  F   UNL A   1      47.931  26.663  33.770  1.00  0.00    -0.200 F 
ATOM     75  C   UNL A   1      48.628  27.520  31.683  1.00  0.00     0.200 A 
ATOM     76  F   UNL A   1      49.287  28.412  29.599  1.00  0.00    -0.200 F 
ATOM     77  F   UNL A   1      49.825  26.933  31.826  1.00  0.00    -0.200 F 
ENDBRANCH  53  67
BRANCH  54  78
ATOM     78  C   UNL A   1      37.004  32.646  30.209  1.00  0.00     0.064 A 
ATOM     79  C   UNL A   1      36.032  32.476  31.204  1.00  0.00     0.173 A 
ATOM     80  C   UNL A   1      36.648  33.374  29.065  1.00  0.00     0.173 A 
ATOM     81  F   UNL A   1      36.321  31.769  32.307  1.00  0.00    -0.203 F 
ATOM     82  C   UNL A   1      34.749  32.997  31.055  1.00  0.00     0.198 A 
ATOM     83  C   UNL A   1      35.372  33.917  28.927  1.00  0.00     0.198 A 
ATOM     84  F   UNL A   1      37.544  33.569  28.087  1.00  0.00    -0.203 F 
ATOM     85  F   UNL A   1      33.827  32.785  32.003  1.00  0.00    -0.200 F 
ATOM     86  C   UNL A   1      34.422  33.722  29.918  1.00  0.00     0.200 A 
ATOM     87  F   UNL A   1      35.063  34.627  27.834  1.00  0.00    -0.200 F 
ATOM     88  F   UNL A   1      33.188  34.226  29.776  1.00  0.00    -0.200 F 
ENDBRANCH  54  78
BRANCH  66  89
ATOM     89  C   UNL A   1      42.867  34.950  33.170  1.00  0.00     0.064 A 
ATOM     90  C   UNL A   1      43.373  36.051  32.463  1.00  0.00     0.173 A 
ATOM     91  C   UNL A   1      42.656  35.094  34.550  1.00  0.00     0.173 A 
ATOM     92  F   UNL A   1      43.606  35.957  31.145  1.00  0.00    -0.203 F 
ATOM     93  C   UNL A   1      43.677  37.242  33.117  1.00  0.00     0.198 A 
ATOM     94  C   UNL A   1      42.937  36.294  35.196  1.00  0.00     0.198 A 
ATOM     95  F   UNL A   1      42.170  34.072  35.269  1.00  0.00    -0.203 F 
ATOM     96  F   UNL A   1      44.202  38.266  32.431  1.00  0.00    -0.200 F 
ATOM     97  C   UNL A   1      43.453  37.364  34.481  1.00  0.00     0.200 A 
ATOM     98  F   UNL A   1      42.709  36.415  36.512  1.00  0.00    -0.200 F 
ATOM     99  F   UNL A   1      43.743  38.512  35.108  1.00  0.00    -0.200 F 
ENDBRANCH  66  89
ENDBRANCH  40  41
ENDBRANCH  32  35
ENDBRANCH  30  31
ENDBRANCH  29  30
ENDBRANCH   1  29
TORSDOF 15
ENDMDL
