MODEL 1
REMARK VINA RESULT:     -12.4      0.000      0.000
REMARK SMILES COc1cc(/C=N/NC(=O)c2cccnc2)ccc1OCC(=O)NCCCCNC(=O)c1ccc(-c2c3nc(c(-c4c(F)c(F)c(F)c(F)c4F)c4ccc([nH]4)c(-c4c(F)c(F)c(F)c(F)c4F)c4nc(c(-c5c(F)c(F)c(F)c(F)c5F)c5ccc2[nH]5)C=C4)C=C3)cc1
REMARK SMILES IDX 25 1 24 2 22 3 23 4 21 6 20 7 19 8 3 9 4 10 5 11 18 12 17 13
REMARK SMILES IDX 2 14 1 15 6 16 7 17 8 18 9 19 10 21 11 22 12 23 16 24 13 25
REMARK SMILES IDX 15 26 14 27 26 28 27 29 28 30 29 31 30 32 31 34 32 35 33 36
REMARK SMILES IDX 94 37 34 38 93 39 35 40 36 41 37 42 87 43 38 44 92 45 86 46
REMARK SMILES IDX 88 47 39 48 91 49 85 50 84 51 40 53 72 54 52 55 71 56 53 57
REMARK SMILES IDX 56 58 70 59 89 60 54 61 55 62 69 64 90 65 57 66 41 67 42 68
REMARK SMILES IDX 50 69 43 70 44 71 48 72 51 73 45 74 46 75 49 76 47 77 73 78
REMARK SMILES IDX 74 79 82 80 75 81 76 82 80 83 83 84 77 85 78 86 81 87 79 88
REMARK SMILES IDX 58 89 59 90 67 91 60 92 61 93 65 94 68 95 62 96 63 97 66 98
REMARK SMILES IDX 64 99
REMARK H PARENT 24 5 8 20 29 33 88 52 56 63
REMARK Flexibility Score: inf
ROOT
ATOM      1  C   UNL A   1      31.657  29.821  25.341  1.00  0.00     0.116 C 
ENDROOT
BRANCH   1   2
ATOM      2  N   UNL A   1      30.722  30.493  24.463  1.00  0.00    -0.353 N 
ATOM      3  C   UNL A   1      29.842  29.941  23.578  1.00  0.00     0.257 C 
ATOM      4  O   UNL A   1      28.969  30.676  23.109  1.00  0.00    -0.271 OA
ATOM      5  H   UNL A   1      30.720  31.476  24.513  1.00  0.00     0.163 HD
BRANCH   3   6
ATOM      6  C   UNL A   1      29.912  28.442  23.255  1.00  0.00     0.329 C 
BRANCH   6   7
ATOM      7  O   UNL A   1      30.912  28.007  22.348  1.00  0.00    -0.480 OA
BRANCH   7   8
ATOM      8  C   UNL A   1      31.515  26.794  22.529  1.00  0.00     0.161 A 
ATOM      9  C   UNL A   1      32.828  26.420  22.218  1.00  0.00     0.161 A 
ATOM     10  C   UNL A   1      33.246  25.096  22.419  1.00  0.00     0.060 A 
ATOM     11  C   UNL A   1      32.368  24.164  22.978  1.00  0.00    -0.002 A 
ATOM     12  C   UNL A   1      30.642  25.834  23.065  1.00  0.00     0.051 A 
ATOM     13  C   UNL A   1      31.069  24.531  23.318  1.00  0.00     0.014 A 
BRANCH   9  14
ATOM     14  O   UNL A   1      33.667  27.306  21.597  1.00  0.00    -0.493 OA
ATOM     15  C   UNL A   1      34.150  28.326  22.473  1.00  0.00     0.278 C 
ENDBRANCH   9  14
BRANCH  11  16
ATOM     16  C   UNL A   1      32.748  22.748  23.130  1.00  0.00     0.141 C 
ATOM     17  N   UNL A   1      32.525  22.110  24.235  1.00  0.00    -0.180 NA
BRANCH  17  18
ATOM     18  N   UNL A   1      33.046  20.855  24.372  1.00  0.00    -0.243 N 
ATOM     19  C   UNL A   1      34.321  20.455  24.739  1.00  0.00     0.272 C 
ATOM     20  H   UNL A   1      32.419  20.120  24.181  1.00  0.00     0.194 HD
ATOM     21  O   UNL A   1      34.622  19.262  24.755  1.00  0.00    -0.267 OA
BRANCH  19  22
ATOM     22  C   UNL A   1      35.352  21.439  25.113  1.00  0.00     0.059 A 
ATOM     23  C   UNL A   1      35.120  22.498  25.992  1.00  0.00     0.017 A 
ATOM     24  C   UNL A   1      36.611  21.320  24.544  1.00  0.00     0.124 A 
ATOM     25  C   UNL A   1      36.131  23.433  26.209  1.00  0.00     0.021 A 
ATOM     26  N   UNL A   1      37.608  22.220  24.732  1.00  0.00    -0.264 NA
ATOM     27  C   UNL A   1      37.342  23.258  25.556  1.00  0.00     0.111 A 
ENDBRANCH  19  22
ENDBRANCH  17  18
ENDBRANCH  11  16
ENDBRANCH   7   8
ENDBRANCH   6   7
ENDBRANCH   3   6
ENDBRANCH   1   2
BRANCH   1  28
ATOM     28  C   UNL A   1      31.738  30.456  26.727  1.00  0.00     0.023 C 
BRANCH  28  29
ATOM     29  C   UNL A   1      31.531  31.970  26.781  1.00  0.00     0.023 C 
BRANCH  29  30
ATOM     30  C   UNL A   1      32.746  32.792  27.194  1.00  0.00     0.116 C 
BRANCH  30  31
ATOM     31  N   UNL A   1      32.411  34.149  27.592  1.00  0.00    -0.352 N 
ATOM     32  C   UNL A   1      32.974  34.939  28.564  1.00  0.00     0.251 C 
ATOM     33  H   UNL A   1      31.672  34.564  27.090  1.00  0.00     0.163 HD
ATOM     34  O   UNL A   1      32.485  36.034  28.825  1.00  0.00    -0.269 OA
BRANCH  32  35
ATOM     35  C   UNL A   1      34.144  34.455  29.324  1.00  0.00     0.039 A 
ATOM     36  C   UNL A   1      33.932  33.851  30.566  1.00  0.00     0.014 A 
ATOM     37  C   UNL A   1      35.440  34.577  28.814  1.00  0.00     0.014 A 
ATOM     38  C   UNL A   1      35.010  33.307  31.264  1.00  0.00     0.010 A 
ATOM     39  C   UNL A   1      36.502  33.964  29.472  1.00  0.00     0.010 A 
ATOM     40  C   UNL A   1      36.298  33.324  30.704  1.00  0.00    -0.014 A 
BRANCH  40  41
ATOM     41  C   UNL A   1      37.441  32.668  31.389  1.00  0.00     0.031 A 
ATOM     42  C   UNL A   1      38.133  31.494  30.758  1.00  0.00     0.074 A 
ATOM     43  C   UNL A   1      37.807  33.085  32.617  1.00  0.00     0.049 A 
ATOM     44  N   UNL A   1      39.106  30.755  31.228  1.00  0.00    -0.248 NA
ATOM     45  C   UNL A   1      37.644  31.074  29.437  1.00  0.00     0.031 C 
ATOM     46  C   UNL A   1      37.174  34.175  33.360  1.00  0.00     0.029 A 
ATOM     47  N   UNL A   1      38.790  32.632  33.461  1.00  0.00    -0.354 N 
ATOM     48  C   UNL A   1      39.331  29.775  30.269  1.00  0.00     0.074 A 
ATOM     49  C   UNL A   1      38.356  29.979  29.221  1.00  0.00     0.031 C 
ATOM     50  C   UNL A   1      37.796  34.319  34.542  1.00  0.00     0.029 A 
ATOM     51  C   UNL A   1      38.844  33.309  34.654  1.00  0.00     0.049 A 
ATOM     52  H   UNL A   1      39.399  31.893  33.232  1.00  0.00     0.167 HD
ATOM     53  C   UNL A   1      40.279  28.808  30.256  1.00  0.00     0.037 A 
ATOM     54  C   UNL A   1      39.641  33.130  35.725  1.00  0.00     0.037 A 
ATOM     55  C   UNL A   1      41.259  28.623  31.295  1.00  0.00     0.049 A 
ATOM     56  C   UNL A   1      40.691  32.054  35.687  1.00  0.00     0.074 A 
ATOM     57  C   UNL A   1      42.312  27.725  31.340  1.00  0.00     0.029 A 
ATOM     58  N   UNL A   1      41.299  29.343  32.481  1.00  0.00    -0.354 N 
ATOM     59  N   UNL A   1      40.954  31.189  34.738  1.00  0.00    -0.248 NA
ATOM     60  C   UNL A   1      41.561  31.936  36.865  1.00  0.00     0.031 C 
ATOM     61  C   UNL A   1      42.950  27.861  32.577  1.00  0.00     0.029 A 
ATOM     62  C   UNL A   1      42.336  28.886  33.279  1.00  0.00     0.049 A 
ATOM     63  H   UNL A   1      40.680  30.071  32.721  1.00  0.00     0.167 HD
ATOM     64  C   UNL A   1      42.031  30.439  35.191  1.00  0.00     0.074 A 
ATOM     65  C   UNL A   1      42.383  30.962  36.496  1.00  0.00     0.031 C 
ATOM     66  C   UNL A   1      42.672  29.412  34.580  1.00  0.00     0.037 A 
BRANCH  53  67
ATOM     67  C   UNL A   1      40.290  27.867  29.084  1.00  0.00     0.064 A 
ATOM     68  C   UNL A   1      41.030  28.139  27.922  1.00  0.00     0.173 A 
ATOM     69  C   UNL A   1      39.554  26.673  29.124  1.00  0.00     0.173 A 
ATOM     70  F   UNL A   1      41.745  29.269  27.825  1.00  0.00    -0.203 F 
ATOM     71  C   UNL A   1      40.995  27.275  26.830  1.00  0.00     0.198 A 
ATOM     72  C   UNL A   1      39.550  25.794  28.044  1.00  0.00     0.198 A 
ATOM     73  F   UNL A   1      38.834  26.358  30.212  1.00  0.00    -0.203 F 
ATOM     74  F   UNL A   1      41.654  27.591  25.706  1.00  0.00    -0.200 F 
ATOM     75  C   UNL A   1      40.259  26.101  26.893  1.00  0.00     0.200 A 
ATOM     76  F   UNL A   1      38.850  24.653  28.113  1.00  0.00    -0.200 F 
ATOM     77  F   UNL A   1      40.225  25.272  25.841  1.00  0.00    -0.200 F 
ENDBRANCH  53  67
BRANCH  54  78
ATOM     78  C   UNL A   1      39.485  34.013  36.909  1.00  0.00     0.064 A 
ATOM     79  C   UNL A   1      38.730  33.608  38.018  1.00  0.00     0.173 A 
ATOM     80  C   UNL A   1      40.116  35.265  36.971  1.00  0.00     0.173 A 
ATOM     81  F   UNL A   1      38.093  32.428  37.998  1.00  0.00    -0.203 F 
ATOM     82  C   UNL A   1      38.604  34.424  39.139  1.00  0.00     0.198 A 
ATOM     83  C   UNL A   1      40.011  36.068  38.104  1.00  0.00     0.198 A 
ATOM     84  F   UNL A   1      40.857  35.696  35.939  1.00  0.00    -0.203 F 
ATOM     85  F   UNL A   1      37.850  34.025  40.174  1.00  0.00    -0.200 F 
ATOM     86  C   UNL A   1      39.252  35.648  39.186  1.00  0.00     0.200 A 
ATOM     87  F   UNL A   1      40.655  37.243  38.152  1.00  0.00    -0.200 F 
ATOM     88  F   UNL A   1      39.144  36.426  40.272  1.00  0.00    -0.200 F 
ENDBRANCH  54  78
BRANCH  66  89
ATOM     89  C   UNL A   1      43.839  28.798  35.302  1.00  0.00     0.064 A 
ATOM     90  C   UNL A   1      45.148  29.268  35.121  1.00  0.00     0.173 A 
ATOM     91  C   UNL A   1      43.636  27.755  36.218  1.00  0.00     0.173 A 
ATOM     92  F   UNL A   1      45.398  30.253  34.246  1.00  0.00    -0.203 F 
ATOM     93  C   UNL A   1      46.215  28.699  35.814  1.00  0.00     0.198 A 
ATOM     94  C   UNL A   1      44.699  27.211  36.933  1.00  0.00     0.198 A 
ATOM     95  F   UNL A   1      42.402  27.273  36.433  1.00  0.00    -0.203 F 
ATOM     96  F   UNL A   1      47.463  29.130  35.590  1.00  0.00    -0.200 F 
ATOM     97  C   UNL A   1      45.988  27.677  36.724  1.00  0.00     0.200 A 
ATOM     98  F   UNL A   1      44.476  26.234  37.823  1.00  0.00    -0.200 F 
ATOM     99  F   UNL A   1      47.014  27.137  37.396  1.00  0.00    -0.200 F 
ENDBRANCH  66  89
ENDBRANCH  40  41
ENDBRANCH  32  35
ENDBRANCH  30  31
ENDBRANCH  29  30
ENDBRANCH  28  29
ENDBRANCH   1  28
TORSDOF 17
ENDMDL
MODEL 2
REMARK VINA RESULT:     -12.2      4.757     10.952
REMARK SMILES COc1cc(/C=N/NC(=O)c2cccnc2)ccc1OCC(=O)NCCCCNC(=O)c1ccc(-c2c3nc(c(-c4c(F)c(F)c(F)c(F)c4F)c4ccc([nH]4)c(-c4c(F)c(F)c(F)c(F)c4F)c4nc(c(-c5c(F)c(F)c(F)c(F)c5F)c5ccc2[nH]5)C=C4)C=C3)cc1
REMARK SMILES IDX 25 1 24 2 22 3 23 4 21 6 20 7 19 8 3 9 4 10 5 11 18 12 17 13
REMARK SMILES IDX 2 14 1 15 6 16 7 17 8 18 9 19 10 21 11 22 12 23 16 24 13 25
REMARK SMILES IDX 15 26 14 27 26 28 27 29 28 30 29 31 30 32 31 34 32 35 33 36
REMARK SMILES IDX 94 37 34 38 93 39 35 40 36 41 37 42 87 43 38 44 92 45 86 46
REMARK SMILES IDX 88 47 39 48 91 49 85 50 84 51 40 53 72 54 52 55 71 56 53 57
REMARK SMILES IDX 56 58 70 59 89 60 54 61 55 62 69 64 90 65 57 66 41 67 42 68
REMARK SMILES IDX 50 69 43 70 44 71 48 72 51 73 45 74 46 75 49 76 47 77 73 78
REMARK SMILES IDX 74 79 82 80 75 81 76 82 80 83 83 84 77 85 78 86 81 87 79 88
REMARK SMILES IDX 58 89 59 90 67 91 60 92 61 93 65 94 68 95 62 96 63 97 66 98
REMARK SMILES IDX 64 99
REMARK H PARENT 24 5 8 20 29 33 88 52 56 63
REMARK Flexibility Score: inf
ROOT
ATOM      1  C   UNL A   1      37.375  33.526  30.713  1.00  0.00     0.116 C 
ENDROOT
BRANCH   1   2
ATOM      2  N   UNL A   1      36.659  34.618  31.338  1.00  0.00    -0.353 N 
ATOM      3  C   UNL A   1      35.881  34.591  32.459  1.00  0.00     0.257 C 
ATOM      4  O   UNL A   1      35.564  35.673  32.959  1.00  0.00    -0.271 OA
ATOM      5  H   UNL A   1      36.746  35.494  30.899  1.00  0.00     0.163 HD
BRANCH   3   6
ATOM      6  C   UNL A   1      35.493  33.249  33.096  1.00  0.00     0.329 C 
BRANCH   6   7
ATOM      7  O   UNL A   1      36.218  32.824  34.238  1.00  0.00    -0.480 OA
BRANCH   7   8
ATOM      8  C   UNL A   1      37.311  32.016  34.091  1.00  0.00     0.161 A 
ATOM      9  C   UNL A   1      38.630  32.256  34.494  1.00  0.00     0.161 A 
ATOM     10  C   UNL A   1      39.636  31.326  34.190  1.00  0.00     0.060 A 
ATOM     11  C   UNL A   1      39.311  30.136  33.534  1.00  0.00    -0.002 A 
ATOM     12  C   UNL A   1      37.012  30.826  33.410  1.00  0.00     0.051 A 
ATOM     13  C   UNL A   1      37.998  29.873  33.155  1.00  0.00     0.014 A 
BRANCH   9  14
ATOM     14  O   UNL A   1      38.969  33.454  35.064  1.00  0.00    -0.493 OA
ATOM     15  C   UNL A   1      39.252  34.471  34.101  1.00  0.00     0.278 C 
ENDBRANCH   9  14
BRANCH  11  16
ATOM     16  C   UNL A   1      40.352  29.173  33.132  1.00  0.00     0.141 C 
ATOM     17  N   UNL A   1      41.492  29.126  33.744  1.00  0.00    -0.180 NA
BRANCH  17  18
ATOM     18  N   UNL A   1      42.472  28.330  33.222  1.00  0.00    -0.243 N 
ATOM     19  C   UNL A   1      43.082  27.204  33.753  1.00  0.00     0.272 C 
ATOM     20  H   UNL A   1      42.795  28.597  32.331  1.00  0.00     0.194 HD
ATOM     21  O   UNL A   1      43.996  26.645  33.148  1.00  0.00    -0.267 OA
BRANCH  19  22
ATOM     22  C   UNL A   1      42.662  26.650  35.051  1.00  0.00     0.059 A 
ATOM     23  C   UNL A   1      43.454  26.696  36.199  1.00  0.00     0.017 A 
ATOM     24  C   UNL A   1      41.423  26.028  35.131  1.00  0.00     0.124 A 
ATOM     25  C   UNL A   1      43.009  26.058  37.357  1.00  0.00     0.021 A 
ATOM     26  N   UNL A   1      40.971  25.394  36.240  1.00  0.00    -0.264 NA
ATOM     27  C   UNL A   1      41.778  25.420  37.325  1.00  0.00     0.111 A 
ENDBRANCH  19  22
ENDBRANCH  17  18
ENDBRANCH  11  16
ENDBRANCH   7   8
ENDBRANCH   6   7
ENDBRANCH   3   6
ENDBRANCH   1   2
BRANCH   1  28
ATOM     28  C   UNL A   1      37.192  33.481  29.198  1.00  0.00     0.023 C 
BRANCH  28  29
ATOM     29  C   UNL A   1      35.747  33.525  28.698  1.00  0.00     0.023 C 
BRANCH  29  30
ATOM     30  C   UNL A   1      34.774  32.583  29.396  1.00  0.00     0.116 C 
BRANCH  30  31
ATOM     31  N   UNL A   1      34.088  31.687  28.480  1.00  0.00    -0.352 N 
ATOM     32  C   UNL A   1      34.550  30.556  27.855  1.00  0.00     0.251 C 
ATOM     33  H   UNL A   1      33.154  31.926  28.280  1.00  0.00     0.163 HD
ATOM     34  O   UNL A   1      33.848  29.979  27.029  1.00  0.00    -0.269 OA
BRANCH  32  35
ATOM     35  C   UNL A   1      35.909  30.053  28.145  1.00  0.00     0.039 A 
ATOM     36  C   UNL A   1      36.904  30.222  27.179  1.00  0.00     0.014 A 
ATOM     37  C   UNL A   1      36.207  29.435  29.362  1.00  0.00     0.014 A 
ATOM     38  C   UNL A   1      38.215  29.835  27.462  1.00  0.00     0.010 A 
ATOM     39  C   UNL A   1      37.528  29.124  29.674  1.00  0.00     0.010 A 
ATOM     40  C   UNL A   1      38.545  29.320  28.726  1.00  0.00    -0.014 A 
BRANCH  40  41
ATOM     41  C   UNL A   1      39.950  28.990  29.077  1.00  0.00     0.031 A 
ATOM     42  C   UNL A   1      40.798  29.979  29.825  1.00  0.00     0.074 A 
ATOM     43  C   UNL A   1      40.484  27.829  28.654  1.00  0.00     0.049 A 
ATOM     44  N   UNL A   1      42.058  29.897  30.168  1.00  0.00    -0.248 NA
ATOM     45  C   UNL A   1      40.151  31.241  30.212  1.00  0.00     0.031 C 
ATOM     46  C   UNL A   1      39.781  26.814  27.868  1.00  0.00     0.029 A 
ATOM     47  N   UNL A   1      41.746  27.312  28.814  1.00  0.00    -0.354 N 
ATOM     48  C   UNL A   1      42.358  31.100  30.792  1.00  0.00     0.074 A 
ATOM     49  C   UNL A   1      41.165  31.917  30.729  1.00  0.00     0.031 C 
ATOM     50  C   UNL A   1      40.616  25.788  27.630  1.00  0.00     0.029 A 
ATOM     51  C   UNL A   1      41.920  26.091  28.212  1.00  0.00     0.049 A 
ATOM     52  H   UNL A   1      42.458  27.774  29.313  1.00  0.00     0.167 HD
ATOM     53  C   UNL A   1      43.517  31.481  31.382  1.00  0.00     0.037 A 
ATOM     54  C   UNL A   1      43.010  25.305  28.128  1.00  0.00     0.037 A 
ATOM     55  C   UNL A   1      44.694  30.655  31.458  1.00  0.00     0.049 A 
ATOM     56  C   UNL A   1      44.285  25.743  28.796  1.00  0.00     0.074 A 
ATOM     57  C   UNL A   1      45.891  30.915  32.103  1.00  0.00     0.029 A 
ATOM     58  N   UNL A   1      44.826  29.412  30.856  1.00  0.00    -0.354 N 
ATOM     59  N   UNL A   1      44.532  26.846  29.461  1.00  0.00    -0.248 NA
ATOM     60  C   UNL A   1      45.427  24.824  28.711  1.00  0.00     0.031 C 
ATOM     61  C   UNL A   1      46.767  29.857  31.841  1.00  0.00     0.029 A 
ATOM     62  C   UNL A   1      46.098  28.907  31.086  1.00  0.00     0.049 A 
ATOM     63  H   UNL A   1      44.122  28.955  30.342  1.00  0.00     0.167 HD
ATOM     64  C   UNL A   1      45.848  26.745  29.892  1.00  0.00     0.074 A 
ATOM     65  C   UNL A   1      46.342  25.466  29.426  1.00  0.00     0.031 C 
ATOM     66  C   UNL A   1      46.579  27.633  30.611  1.00  0.00     0.037 A 
BRANCH  53  67
ATOM     67  C   UNL A   1      43.566  32.859  31.981  1.00  0.00     0.064 A 
ATOM     68  C   UNL A   1      43.209  33.100  33.317  1.00  0.00     0.173 A 
ATOM     69  C   UNL A   1      43.983  33.955  31.209  1.00  0.00     0.173 A 
ATOM     70  F   UNL A   1      42.795  32.092  34.099  1.00  0.00    -0.203 F 
ATOM     71  C   UNL A   1      43.222  34.390  33.843  1.00  0.00     0.198 A 
ATOM     72  C   UNL A   1      44.029  35.237  31.749  1.00  0.00     0.198 A 
ATOM     73  F   UNL A   1      44.343  33.782  29.929  1.00  0.00    -0.203 F 
ATOM     74  F   UNL A   1      42.811  34.604  35.101  1.00  0.00    -0.200 F 
ATOM     75  C   UNL A   1      43.637  35.457  33.060  1.00  0.00     0.200 A 
ATOM     76  F   UNL A   1      44.445  36.265  30.995  1.00  0.00    -0.200 F 
ATOM     77  F   UNL A   1      43.648  36.697  33.566  1.00  0.00    -0.200 F 
ENDBRANCH  53  67
BRANCH  54  78
ATOM     78  C   UNL A   1      42.926  24.011  27.402  1.00  0.00     0.064 A 
ATOM     79  C   UNL A   1      43.314  23.911  26.059  1.00  0.00     0.173 A 
ATOM     80  C   UNL A   1      42.491  22.843  28.045  1.00  0.00     0.173 A 
ATOM     81  F   UNL A   1      43.719  25.004  25.396  1.00  0.00    -0.203 F 
ATOM     82  C   UNL A   1      43.260  22.694  25.384  1.00  0.00     0.198 A 
ATOM     83  C   UNL A   1      42.464  21.621  27.377  1.00  0.00     0.198 A 
ATOM     84  F   UNL A   1      42.117  22.884  29.333  1.00  0.00    -0.203 F 
ATOM     85  F   UNL A   1      43.607  22.632  24.091  1.00  0.00    -0.200 F 
ATOM     86  C   UNL A   1      42.845  21.548  26.045  1.00  0.00     0.200 A 
ATOM     87  F   UNL A   1      42.079  20.513  28.026  1.00  0.00    -0.200 F 
ATOM     88  F   UNL A   1      42.809  20.374  25.400  1.00  0.00    -0.200 F 
ENDBRANCH  54  78
BRANCH  66  89
ATOM     89  C   UNL A   1      47.987  27.242  30.963  1.00  0.00     0.064 A 
ATOM     90  C   UNL A   1      49.080  27.634  30.176  1.00  0.00     0.173 A 
ATOM     91  C   UNL A   1      48.248  26.503  32.127  1.00  0.00     0.173 A 
ATOM     92  F   UNL A   1      48.884  28.328  29.046  1.00  0.00    -0.203 F 
ATOM     93  C   UNL A   1      50.380  27.279  30.529  1.00  0.00     0.198 A 
ATOM     94  C   UNL A   1      49.550  26.178  32.495  1.00  0.00     0.198 A 
ATOM     95  F   UNL A   1      47.238  26.109  32.919  1.00  0.00    -0.203 F 
ATOM     96  F   UNL A   1      51.405  27.621  29.737  1.00  0.00    -0.200 F 
ATOM     97  C   UNL A   1      50.614  26.559  31.692  1.00  0.00     0.200 A 
ATOM     98  F   UNL A   1      49.776  25.496  33.626  1.00  0.00    -0.200 F 
ATOM     99  F   UNL A   1      51.866  26.226  32.035  1.00  0.00    -0.200 F 
ENDBRANCH  66  89
ENDBRANCH  40  41
ENDBRANCH  32  35
ENDBRANCH  30  31
ENDBRANCH  29  30
ENDBRANCH  28  29
ENDBRANCH   1  28
TORSDOF 17
ENDMDL
MODEL 3
REMARK VINA RESULT:     -12.0      6.273     12.280
REMARK SMILES COc1cc(/C=N/NC(=O)c2cccnc2)ccc1OCC(=O)NCCCCNC(=O)c1ccc(-c2c3nc(c(-c4c(F)c(F)c(F)c(F)c4F)c4ccc([nH]4)c(-c4c(F)c(F)c(F)c(F)c4F)c4nc(c(-c5c(F)c(F)c(F)c(F)c5F)c5ccc2[nH]5)C=C4)C=C3)cc1
REMARK SMILES IDX 25 1 24 2 22 3 23 4 21 6 20 7 19 8 3 9 4 10 5 11 18 12 17 13
REMARK SMILES IDX 2 14 1 15 6 16 7 17 8 18 9 19 10 21 11 22 12 23 16 24 13 25
REMARK SMILES IDX 15 26 14 27 26 28 27 29 28 30 29 31 30 32 31 34 32 35 33 36
REMARK SMILES IDX 94 37 34 38 93 39 35 40 36 41 37 42 87 43 38 44 92 45 86 46
REMARK SMILES IDX 88 47 39 48 91 49 85 50 84 51 40 53 72 54 52 55 71 56 53 57
REMARK SMILES IDX 56 58 70 59 89 60 54 61 55 62 69 64 90 65 57 66 41 67 42 68
REMARK SMILES IDX 50 69 43 70 44 71 48 72 51 73 45 74 46 75 49 76 47 77 73 78
REMARK SMILES IDX 74 79 82 80 75 81 76 82 80 83 83 84 77 85 78 86 81 87 79 88
REMARK SMILES IDX 58 89 59 90 67 91 60 92 61 93 65 94 68 95 62 96 63 97 66 98
REMARK SMILES IDX 64 99
REMARK H PARENT 24 5 8 20 29 33 88 52 56 63
REMARK Flexibility Score: inf
ROOT
ATOM      1  C   UNL A   1      46.222  19.884  24.632  1.00  0.00     0.116 C 
ENDROOT
BRANCH   1   2
ATOM      2  N   UNL A   1      45.221  20.691  23.967  1.00  0.00    -0.353 N 
ATOM      3  C   UNL A   1      45.089  22.050  23.967  1.00  0.00     0.257 C 
ATOM      4  O   UNL A   1      44.319  22.548  23.142  1.00  0.00    -0.271 OA
ATOM      5  H   UNL A   1      44.549  20.196  23.446  1.00  0.00     0.163 HD
BRANCH   3   6
ATOM      6  C   UNL A   1      45.936  22.906  24.919  1.00  0.00     0.329 C 
BRANCH   6   7
ATOM      7  O   UNL A   1      46.476  24.117  24.416  1.00  0.00    -0.480 OA
BRANCH   7   8
ATOM      8  C   UNL A   1      46.097  25.312  24.962  1.00  0.00     0.161 A 
ATOM      9  C   UNL A   1      46.908  26.322  25.494  1.00  0.00     0.161 A 
ATOM     10  C   UNL A   1      46.322  27.457  26.075  1.00  0.00     0.060 A 
ATOM     11  C   UNL A   1      44.933  27.604  26.075  1.00  0.00    -0.002 A 
ATOM     12  C   UNL A   1      44.702  25.469  24.996  1.00  0.00     0.051 A 
ATOM     13  C   UNL A   1      44.118  26.620  25.523  1.00  0.00     0.014 A 
BRANCH   9  14
ATOM     14  O   UNL A   1      48.263  26.148  25.569  1.00  0.00    -0.493 OA
ATOM     15  C   UNL A   1      48.973  26.835  24.537  1.00  0.00     0.278 C 
ENDBRANCH   9  14
BRANCH  11  16
ATOM     16  C   UNL A   1      44.283  28.744  26.744  1.00  0.00     0.141 C 
ATOM     17  N   UNL A   1      44.061  29.853  26.113  1.00  0.00    -0.180 NA
BRANCH  17  18
ATOM     18  N   UNL A   1      43.608  30.925  26.830  1.00  0.00    -0.243 N 
ATOM     19  C   UNL A   1      44.300  32.011  27.341  1.00  0.00     0.272 C 
ATOM     20  H   UNL A   1      42.639  30.925  27.011  1.00  0.00     0.194 HD
ATOM     21  O   UNL A   1      43.719  32.861  28.016  1.00  0.00    -0.267 OA
BRANCH  19  22
ATOM     22  C   UNL A   1      45.743  32.179  27.099  1.00  0.00     0.059 A 
ATOM     23  C   UNL A   1      46.712  31.302  27.588  1.00  0.00     0.017 A 
ATOM     24  C   UNL A   1      46.163  33.281  26.366  1.00  0.00     0.124 A 
ATOM     25  C   UNL A   1      48.059  31.598  27.387  1.00  0.00     0.021 A 
ATOM     26  N   UNL A   1      47.465  33.596  26.164  1.00  0.00    -0.264 NA
ATOM     27  C   UNL A   1      48.382  32.749  26.684  1.00  0.00     0.111 A 
ENDBRANCH  19  22
ENDBRANCH  17  18
ENDBRANCH  11  16
ENDBRANCH   7   8
ENDBRANCH   6   7
ENDBRANCH   3   6
ENDBRANCH   1   2
BRANCH   1  28
ATOM     28  C   UNL A   1      45.625  18.713  25.410  1.00  0.00     0.023 C 
BRANCH  28  29
ATOM     29  C   UNL A   1      44.129  18.471  25.207  1.00  0.00     0.023 C 
BRANCH  29  30
ATOM     30  C   UNL A   1      43.238  18.780  26.404  1.00  0.00     0.116 C 
BRANCH  30  31
ATOM     31  N   UNL A   1      41.846  18.988  26.043  1.00  0.00    -0.352 N 
ATOM     32  C   UNL A   1      41.045  20.084  26.247  1.00  0.00     0.251 C 
ATOM     33  H   UNL A   1      41.413  18.232  25.584  1.00  0.00     0.163 HD
ATOM     34  O   UNL A   1      39.852  20.036  25.960  1.00  0.00    -0.269 OA
BRANCH  32  35
ATOM     35  C   UNL A   1      41.608  21.309  26.851  1.00  0.00     0.039 A 
ATOM     36  C   UNL A   1      41.981  22.359  26.010  1.00  0.00     0.014 A 
ATOM     37  C   UNL A   1      41.752  21.432  28.236  1.00  0.00     0.014 A 
ATOM     38  C   UNL A   1      42.433  23.559  26.559  1.00  0.00     0.010 A 
ATOM     39  C   UNL A   1      42.126  22.654  28.786  1.00  0.00     0.010 A 
ATOM     40  C   UNL A   1      42.471  23.731  27.953  1.00  0.00    -0.014 A 
BRANCH  40  41
ATOM     41  C   UNL A   1      42.860  25.031  28.555  1.00  0.00     0.031 A 
ATOM     42  C   UNL A   1      41.829  26.098  28.789  1.00  0.00     0.074 A 
ATOM     43  C   UNL A   1      44.157  25.277  28.822  1.00  0.00     0.049 A 
ATOM     44  N   UNL A   1      41.986  27.314  29.247  1.00  0.00    -0.248 NA
ATOM     45  C   UNL A   1      40.443  25.765  28.431  1.00  0.00     0.031 C 
ATOM     46  C   UNL A   1      45.259  24.345  28.582  1.00  0.00     0.029 A 
ATOM     47  N   UNL A   1      44.770  26.392  29.339  1.00  0.00    -0.354 N 
ATOM     48  C   UNL A   1      40.724  27.894  29.214  1.00  0.00     0.074 A 
ATOM     49  C   UNL A   1      39.826  26.917  28.637  1.00  0.00     0.031 C 
ATOM     50  C   UNL A   1      46.411  24.918  28.969  1.00  0.00     0.029 A 
ATOM     51  C   UNL A   1      46.133  26.269  29.445  1.00  0.00     0.049 A 
ATOM     52  H   UNL A   1      44.278  27.201  29.607  1.00  0.00     0.167 HD
ATOM     53  C   UNL A   1      40.346  29.122  29.645  1.00  0.00     0.037 A 
ATOM     54  C   UNL A   1      47.058  27.150  29.871  1.00  0.00     0.037 A 
ATOM     55  C   UNL A   1      41.242  30.082  30.236  1.00  0.00     0.049 A 
ATOM     56  C   UNL A   1      46.617  28.506  30.351  1.00  0.00     0.074 A 
ATOM     57  C   UNL A   1      40.946  31.321  30.777  1.00  0.00     0.029 A 
ATOM     58  N   UNL A   1      42.616  29.914  30.350  1.00  0.00    -0.354 N 
ATOM     59  N   UNL A   1      45.409  29.013  30.398  1.00  0.00    -0.248 NA
ATOM     60  C   UNL A   1      47.666  29.407  30.846  1.00  0.00     0.031 C 
ATOM     61  C   UNL A   1      42.146  31.927  31.163  1.00  0.00     0.029 A 
ATOM     62  C   UNL A   1      43.185  31.042  30.922  1.00  0.00     0.049 A 
ATOM     63  H   UNL A   1      43.113  29.113  30.066  1.00  0.00     0.167 HD
ATOM     64  C   UNL A   1      45.547  30.280  30.946  1.00  0.00     0.074 A 
ATOM     65  C   UNL A   1      46.956  30.460  31.230  1.00  0.00     0.031 C 
ATOM     66  C   UNL A   1      44.592  31.210  31.194  1.00  0.00     0.037 A 
BRANCH  53  67
ATOM     67  C   UNL A   1      38.900  29.497  29.479  1.00  0.00     0.064 A 
ATOM     68  C   UNL A   1      38.031  29.602  30.576  1.00  0.00     0.173 A 
ATOM     69  C   UNL A   1      38.377  29.762  28.204  1.00  0.00     0.173 A 
ATOM     70  F   UNL A   1      38.474  29.351  31.817  1.00  0.00    -0.203 F 
ATOM     71  C   UNL A   1      36.684  29.911  30.399  1.00  0.00     0.198 A 
ATOM     72  C   UNL A   1      37.038  30.106  28.034  1.00  0.00     0.198 A 
ATOM     73  F   UNL A   1      39.163  29.685  27.120  1.00  0.00    -0.203 F 
ATOM     74  F   UNL A   1      35.859  29.936  31.455  1.00  0.00    -0.200 F 
ATOM     75  C   UNL A   1      36.190  30.167  29.129  1.00  0.00     0.200 A 
ATOM     76  F   UNL A   1      36.566  30.369  26.807  1.00  0.00    -0.200 F 
ATOM     77  F   UNL A   1      34.894  30.464  28.959  1.00  0.00    -0.200 F 
ENDBRANCH  53  67
BRANCH  54  78
ATOM     78  C   UNL A   1      48.491  26.758  29.882  1.00  0.00     0.064 A 
ATOM     79  C   UNL A   1      48.998  25.903  30.870  1.00  0.00     0.173 A 
ATOM     80  C   UNL A   1      49.375  27.200  28.886  1.00  0.00     0.173 A 
ATOM     81  F   UNL A   1      48.197  25.469  31.854  1.00  0.00    -0.203 F 
ATOM     82  C   UNL A   1      50.335  25.514  30.867  1.00  0.00     0.198 A 
ATOM     83  C   UNL A   1      50.704  26.788  28.869  1.00  0.00     0.198 A 
ATOM     84  F   UNL A   1      48.937  28.014  27.913  1.00  0.00    -0.203 F 
ATOM     85  F   UNL A   1      50.802  24.721  31.842  1.00  0.00    -0.200 F 
ATOM     86  C   UNL A   1      51.185  25.948  29.862  1.00  0.00     0.200 A 
ATOM     87  F   UNL A   1      51.518  27.196  27.884  1.00  0.00    -0.200 F 
ATOM     88  F   UNL A   1      52.468  25.560  29.850  1.00  0.00    -0.200 F 
ENDBRANCH  54  78
BRANCH  66  89
ATOM     89  C   UNL A   1      45.031  32.500  31.829  1.00  0.00     0.064 A 
ATOM     90  C   UNL A   1      45.672  33.505  31.089  1.00  0.00     0.173 A 
ATOM     91  C   UNL A   1      44.768  32.749  33.184  1.00  0.00     0.173 A 
ATOM     92  F   UNL A   1      45.960  33.310  29.794  1.00  0.00    -0.203 F 
ATOM     93  C   UNL A   1      46.056  34.702  31.690  1.00  0.00     0.198 A 
ATOM     94  C   UNL A   1      45.122  33.959  33.774  1.00  0.00     0.198 A 
ATOM     95  F   UNL A   1      44.151  31.824  33.935  1.00  0.00    -0.203 F 
ATOM     96  F   UNL A   1      46.711  35.628  30.977  1.00  0.00    -0.200 F 
ATOM     97  C   UNL A   1      45.773  34.930  33.029  1.00  0.00     0.200 A 
ATOM     98  F   UNL A   1      44.834  34.185  35.063  1.00  0.00    -0.200 F 
ATOM     99  F   UNL A   1      46.134  36.086  33.603  1.00  0.00    -0.200 F 
ENDBRANCH  66  89
ENDBRANCH  40  41
ENDBRANCH  32  35
ENDBRANCH  30  31
ENDBRANCH  29  30
ENDBRANCH  28  29
ENDBRANCH   1  28
TORSDOF 17
ENDMDL
