MODEL 1
REMARK VINA RESULT:     -11.8      0.000      0.000
REMARK SMILES C[C@H]1OCC[C@H]1C(=O)Nc1ccsc1C(=O)NCCCCNC(=O)c1ccc(-c2c3nc(c(-c4c(F)c(F)c(F)c(F)c4F)c4ccc([nH]4)c(-c4c(F)c(F)c(F)c(F)c4F)c4nc(c(-c5c(F)c(F)c(F)c(F)c5F)c5ccc2[nH]5)C=C4)C=C3)cc1
REMARK SMILES IDX 19 1 18 2 17 3 15 4 16 5 14 7 10 8 11 9 12 10 13 11 9 12
REMARK SMILES IDX 7 13 8 14 6 16 1 17 2 18 3 19 4 20 5 21 20 22 21 23 22 24
REMARK SMILES IDX 23 25 24 27 25 28 26 29 87 30 27 31 86 32 28 33 29 34 30 35
REMARK SMILES IDX 80 36 31 37 85 38 79 39 81 40 32 41 84 42 78 43 77 44 33 46
REMARK SMILES IDX 65 47 45 48 64 49 46 50 49 51 63 52 82 53 47 54 48 55 62 57
REMARK SMILES IDX 83 58 50 59 34 60 35 61 43 62 36 63 37 64 41 65 44 66 38 67
REMARK SMILES IDX 39 68 42 69 40 70 66 71 67 72 75 73 68 74 69 75 73 76 76 77
REMARK SMILES IDX 70 78 71 79 74 80 72 81 51 82 52 83 60 84 53 85 54 86 58 87
REMARK SMILES IDX 61 88 55 89 56 90 59 91 57 92
REMARK H PARENT 17 6 9 15 22 26 81 45 49 56
REMARK Flexibility Score: inf
ROOT
ATOM      1  C   UNL A   1      35.001  22.722  24.654  1.00  0.00     0.023 C 
ENDROOT
BRANCH   1   2
ATOM      2  C   UNL A   1      34.505  23.804  25.599  1.00  0.00     0.116 C 
BRANCH   2   3
ATOM      3  N   UNL A   1      33.547  23.394  26.592  1.00  0.00    -0.351 N 
ATOM      4  C   UNL A   1      32.177  23.543  26.639  1.00  0.00     0.263 C 
ATOM      5  O   UNL A   1      31.658  23.037  27.641  1.00  0.00    -0.268 OA
ATOM      6  H   UNL A   1      33.935  22.929  27.369  1.00  0.00     0.163 HD
BRANCH   4   7
ATOM      7  C   UNL A   1      31.402  24.264  25.623  1.00  0.00     0.115 A 
ATOM      8  C   UNL A   1      30.688  25.461  25.578  1.00  0.00     0.065 A 
ATOM      9  C   UNL A   1      30.169  25.729  24.275  1.00  0.00     0.038 A 
ATOM     10  C   UNL A   1      30.422  24.725  23.375  1.00  0.00     0.068 A 
ATOM     11  S   UNL A   1      31.306  23.461  24.083  1.00  0.00    -0.137 S 
BRANCH   8  12
ATOM     12  N   UNL A   1      30.660  26.394  26.595  1.00  0.00    -0.324 N 
ATOM     13  C   UNL A   1      31.509  27.405  26.921  1.00  0.00     0.230 C 
ATOM     14  O   UNL A   1      31.187  28.057  27.928  1.00  0.00    -0.274 OA
ATOM     15  H   UNL A   1      29.883  26.311  27.194  1.00  0.00     0.169 HD
BRANCH  13  16
ATOM     16  C   UNL A   1      32.728  27.877  26.123  1.00  0.00     0.110 C 
ATOM     17  C   UNL A   1      31.129  29.336  24.718  1.00  0.00     0.039 C 
ATOM     18  C   UNL A   1      32.539  29.067  25.206  1.00  0.00     0.127 C 
ATOM     19  O   UNL A   1      33.082  30.194  25.903  1.00  0.00    -0.378 OA
ATOM     20  C   UNL A   1      34.144  29.724  26.742  1.00  0.00     0.161 C 
ATOM     21  C   UNL A   1      34.008  28.218  26.858  1.00  0.00     0.044 C 
ENDBRANCH  13  16
ENDBRANCH   8  12
ENDBRANCH   4   7
ENDBRANCH   2   3
ENDBRANCH   1   2
BRANCH   1  22
ATOM     22  C   UNL A   1      36.479  22.791  24.292  1.00  0.00     0.023 C 
BRANCH  22  23
ATOM     23  C   UNL A   1      37.376  23.483  25.313  1.00  0.00     0.116 C 
BRANCH  23  24
ATOM     24  N   UNL A   1      38.583  22.737  25.642  1.00  0.00    -0.352 N 
ATOM     25  C   UNL A   1      39.706  23.137  26.335  1.00  0.00     0.251 C 
ATOM     26  H   UNL A   1      38.599  21.806  25.321  1.00  0.00     0.163 HD
ATOM     27  O   UNL A   1      40.676  22.399  26.434  1.00  0.00    -0.269 OA
BRANCH  25  28
ATOM     28  C   UNL A   1      39.754  24.495  26.917  1.00  0.00     0.039 A 
ATOM     29  C   UNL A   1      39.274  24.692  28.214  1.00  0.00     0.014 A 
ATOM     30  C   UNL A   1      40.331  25.552  26.213  1.00  0.00     0.014 A 
ATOM     31  C   UNL A   1      39.490  25.916  28.851  1.00  0.00     0.010 A 
ATOM     32  C   UNL A   1      40.636  26.732  26.880  1.00  0.00     0.010 A 
ATOM     33  C   UNL A   1      40.235  26.921  28.214  1.00  0.00    -0.014 A 
BRANCH  33  34
ATOM     34  C   UNL A   1      40.638  28.168  28.914  1.00  0.00     0.031 A 
ATOM     35  C   UNL A   1      42.025  28.298  29.474  1.00  0.00     0.074 A 
ATOM     36  C   UNL A   1      39.724  29.132  29.149  1.00  0.00     0.049 A 
ATOM     37  N   UNL A   1      42.520  29.217  30.264  1.00  0.00    -0.248 NA
ATOM     38  C   UNL A   1      42.975  27.227  29.131  1.00  0.00     0.031 C 
ATOM     39  C   UNL A   1      38.329  29.106  28.705  1.00  0.00     0.029 A 
ATOM     40  N   UNL A   1      39.827  30.313  29.842  1.00  0.00    -0.354 N 
ATOM     41  C   UNL A   1      43.820  28.817  30.540  1.00  0.00     0.074 A 
ATOM     42  C   UNL A   1      44.026  27.551  29.870  1.00  0.00     0.031 C 
ATOM     43  C   UNL A   1      37.713  30.225  29.119  1.00  0.00     0.029 A 
ATOM     44  C   UNL A   1      38.653  31.025  29.897  1.00  0.00     0.049 A 
ATOM     45  H   UNL A   1      40.664  30.621  30.259  1.00  0.00     0.167 HD
ATOM     46  C   UNL A   1      44.764  29.457  31.269  1.00  0.00     0.037 A 
ATOM     47  C   UNL A   1      38.363  32.184  30.519  1.00  0.00     0.037 A 
ATOM     48  C   UNL A   1      44.574  30.740  31.891  1.00  0.00     0.049 A 
ATOM     49  C   UNL A   1      39.436  32.886  31.306  1.00  0.00     0.074 A 
ATOM     50  C   UNL A   1      45.493  31.504  32.589  1.00  0.00     0.029 A 
ATOM     51  N   UNL A   1      43.383  31.450  31.885  1.00  0.00    -0.354 N 
ATOM     52  N   UNL A   1      40.678  32.525  31.515  1.00  0.00    -0.248 NA
ATOM     53  C   UNL A   1      39.066  34.158  31.946  1.00  0.00     0.031 C 
ATOM     54  C   UNL A   1      44.849  32.664  33.033  1.00  0.00     0.029 A 
ATOM     55  C   UNL A   1      43.540  32.639  32.577  1.00  0.00     0.049 A 
ATOM     56  H   UNL A   1      42.550  31.153  31.453  1.00  0.00     0.167 HD
ATOM     57  C   UNL A   1      41.245  33.534  32.281  1.00  0.00     0.074 A 
ATOM     58  C   UNL A   1      40.215  34.526  32.495  1.00  0.00     0.031 C 
ATOM     59  C   UNL A   1      42.508  33.626  32.764  1.00  0.00     0.037 A 
BRANCH  46  60
ATOM     60  C   UNL A   1      46.094  28.781  31.424  1.00  0.00     0.064 A 
ATOM     61  C   UNL A   1      47.134  28.987  30.505  1.00  0.00     0.173 A 
ATOM     62  C   UNL A   1      46.342  27.943  32.520  1.00  0.00     0.173 A 
ATOM     63  F   UNL A   1      46.942  29.769  29.432  1.00  0.00    -0.203 F 
ATOM     64  C   UNL A   1      48.363  28.350  30.660  1.00  0.00     0.198 A 
ATOM     65  C   UNL A   1      47.582  27.332  32.689  1.00  0.00     0.198 A 
ATOM     66  F   UNL A   1      45.384  27.718  33.432  1.00  0.00    -0.203 F 
ATOM     67  F   UNL A   1      49.323  28.521  29.740  1.00  0.00    -0.200 F 
ATOM     68  C   UNL A   1      48.588  27.530  31.754  1.00  0.00     0.200 A 
ATOM     69  F   UNL A   1      47.803  26.548  33.753  1.00  0.00    -0.200 F 
ATOM     70  F   UNL A   1      49.773  26.923  31.905  1.00  0.00    -0.200 F 
ENDBRANCH  46  60
BRANCH  47  71
ATOM     71  C   UNL A   1      37.001  32.767  30.407  1.00  0.00     0.064 A 
ATOM     72  C   UNL A   1      36.645  33.542  29.293  1.00  0.00     0.173 A 
ATOM     73  C   UNL A   1      36.034  32.571  31.402  1.00  0.00     0.173 A 
ATOM     74  F   UNL A   1      37.544  33.775  28.326  1.00  0.00    -0.203 F 
ATOM     75  C   UNL A   1      35.379  34.113  29.189  1.00  0.00     0.198 A 
ATOM     76  C   UNL A   1      34.759  33.121  31.284  1.00  0.00     0.198 A 
ATOM     77  F   UNL A   1      36.323  31.834  32.485  1.00  0.00    -0.203 F 
ATOM     78  F   UNL A   1      35.078  34.883  28.134  1.00  0.00    -0.200 F 
ATOM     79  C   UNL A   1      34.435  33.898  30.182  1.00  0.00     0.200 A 
ATOM     80  F   UNL A   1      33.845  32.901  32.240  1.00  0.00    -0.200 F 
ATOM     81  F   UNL A   1      33.215  34.445  30.080  1.00  0.00    -0.200 F 
ENDBRANCH  47  71
BRANCH  59  82
ATOM     82  C   UNL A   1      42.863  34.863  33.534  1.00  0.00     0.064 A 
ATOM     83  C   UNL A   1      43.242  36.048  32.888  1.00  0.00     0.173 A 
ATOM     84  C   UNL A   1      42.764  34.877  34.933  1.00  0.00     0.173 A 
ATOM     85  F   UNL A   1      43.366  36.078  31.552  1.00  0.00    -0.203 F 
ATOM     86  C   UNL A   1      43.522  37.200  33.617  1.00  0.00     0.198 A 
ATOM     87  C   UNL A   1      43.020  36.037  35.657  1.00  0.00     0.198 A 
ATOM     88  F   UNL A   1      42.400  33.768  35.596  1.00  0.00    -0.203 F 
ATOM     89  F   UNL A   1      43.915  38.313  32.983  1.00  0.00    -0.200 F 
ATOM     90  C   UNL A   1      43.402  37.196  34.999  1.00  0.00     0.200 A 
ATOM     91  F   UNL A   1      42.894  36.035  36.991  1.00  0.00    -0.200 F 
ATOM     92  F   UNL A   1      43.662  38.310  35.698  1.00  0.00    -0.200 F 
ENDBRANCH  59  82
ENDBRANCH  33  34
ENDBRANCH  25  28
ENDBRANCH  23  24
ENDBRANCH  22  23
ENDBRANCH   1  22
TORSDOF 13
ENDMDL
MODEL 2
REMARK VINA RESULT:     -11.7      3.042      7.963
REMARK SMILES C[C@H]1OCC[C@H]1C(=O)Nc1ccsc1C(=O)NCCCCNC(=O)c1ccc(-c2c3nc(c(-c4c(F)c(F)c(F)c(F)c4F)c4ccc([nH]4)c(-c4c(F)c(F)c(F)c(F)c4F)c4nc(c(-c5c(F)c(F)c(F)c(F)c5F)c5ccc2[nH]5)C=C4)C=C3)cc1
REMARK SMILES IDX 19 1 18 2 17 3 15 4 16 5 14 7 10 8 11 9 12 10 13 11 9 12
REMARK SMILES IDX 7 13 8 14 6 16 1 17 2 18 3 19 4 20 5 21 20 22 21 23 22 24
REMARK SMILES IDX 23 25 24 27 25 28 26 29 87 30 27 31 86 32 28 33 29 34 30 35
REMARK SMILES IDX 80 36 31 37 85 38 79 39 81 40 32 41 84 42 78 43 77 44 33 46
REMARK SMILES IDX 65 47 45 48 64 49 46 50 49 51 63 52 82 53 47 54 48 55 62 57
REMARK SMILES IDX 83 58 50 59 34 60 35 61 43 62 36 63 37 64 41 65 44 66 38 67
REMARK SMILES IDX 39 68 42 69 40 70 66 71 67 72 75 73 68 74 69 75 73 76 76 77
REMARK SMILES IDX 70 78 71 79 74 80 72 81 51 82 52 83 60 84 53 85 54 86 58 87
REMARK SMILES IDX 61 88 55 89 56 90 59 91 57 92
REMARK H PARENT 17 6 9 15 22 26 81 45 49 56
REMARK Flexibility Score: inf
ROOT
ATOM      1  C   UNL A   1      34.155  21.447  25.897  1.00  0.00     0.023 C 
ENDROOT
BRANCH   1   2
ATOM      2  C   UNL A   1      33.658  22.738  26.529  1.00  0.00     0.116 C 
BRANCH   2   3
ATOM      3  N   UNL A   1      32.371  22.680  27.170  1.00  0.00    -0.351 N 
ATOM      4  C   UNL A   1      31.166  23.258  26.828  1.00  0.00     0.263 C 
ATOM      5  O   UNL A   1      30.243  22.971  27.598  1.00  0.00    -0.268 OA
ATOM      6  H   UNL A   1      32.346  22.138  27.992  1.00  0.00     0.163 HD
BRANCH   4   7
ATOM      7  C   UNL A   1      30.992  24.159  25.683  1.00  0.00     0.115 A 
ATOM      8  C   UNL A   1      30.712  25.515  25.516  1.00  0.00     0.065 A 
ATOM      9  C   UNL A   1      30.726  25.901  24.140  1.00  0.00     0.038 A 
ATOM     10  C   UNL A   1      30.939  24.850  23.286  1.00  0.00     0.068 A 
ATOM     11  S   UNL A   1      31.147  23.392  24.129  1.00  0.00    -0.137 S 
BRANCH   8  12
ATOM     12  N   UNL A   1      30.646  26.433  26.544  1.00  0.00    -0.324 N 
ATOM     13  C   UNL A   1      31.483  27.437  26.918  1.00  0.00     0.230 C 
ATOM     14  O   UNL A   1      31.123  28.075  27.921  1.00  0.00    -0.274 OA
ATOM     15  H   UNL A   1      29.847  26.342  27.111  1.00  0.00     0.169 HD
BRANCH  13  16
ATOM     16  C   UNL A   1      32.733  27.919  26.175  1.00  0.00     0.110 C 
ATOM     17  C   UNL A   1      31.197  29.441  24.766  1.00  0.00     0.039 C 
ATOM     18  C   UNL A   1      32.587  29.140  25.291  1.00  0.00     0.127 C 
ATOM     19  O   UNL A   1      33.120  30.237  26.040  1.00  0.00    -0.378 OA
ATOM     20  C   UNL A   1      34.149  29.727  26.898  1.00  0.00     0.161 C 
ATOM     21  C   UNL A   1      33.993  28.221  26.961  1.00  0.00     0.044 C 
ENDBRANCH  13  16
ENDBRANCH   8  12
ENDBRANCH   4   7
ENDBRANCH   2   3
ENDBRANCH   1   2
BRANCH   1  22
ATOM     22  C   UNL A   1      35.268  21.604  24.870  1.00  0.00     0.023 C 
BRANCH  22  23
ATOM     23  C   UNL A   1      36.607  22.087  25.417  1.00  0.00     0.116 C 
BRANCH  23  24
ATOM     24  N   UNL A   1      37.640  21.060  25.446  1.00  0.00    -0.352 N 
ATOM     25  C   UNL A   1      38.934  21.124  25.919  1.00  0.00     0.251 C 
ATOM     26  H   UNL A   1      37.374  20.190  25.070  1.00  0.00     0.163 HD
ATOM     27  O   UNL A   1      39.701  20.183  25.771  1.00  0.00    -0.269 OA
BRANCH  25  28
ATOM     28  C   UNL A   1      39.411  22.366  26.563  1.00  0.00     0.039 A 
ATOM     29  C   UNL A   1      40.393  22.280  27.553  1.00  0.00     0.014 A 
ATOM     30  C   UNL A   1      38.942  23.611  26.144  1.00  0.00     0.014 A 
ATOM     31  C   UNL A   1      40.995  23.446  28.030  1.00  0.00     0.010 A 
ATOM     32  C   UNL A   1      39.610  24.762  26.543  1.00  0.00     0.010 A 
ATOM     33  C   UNL A   1      40.657  24.691  27.477  1.00  0.00    -0.014 A 
BRANCH  33  34
ATOM     34  C   UNL A   1      41.392  25.935  27.828  1.00  0.00     0.031 A 
ATOM     35  C   UNL A   1      40.680  27.048  28.543  1.00  0.00     0.074 A 
ATOM     36  C   UNL A   1      42.659  26.110  27.401  1.00  0.00     0.049 A 
ATOM     37  N   UNL A   1      41.080  28.271  28.783  1.00  0.00    -0.248 NA
ATOM     38  C   UNL A   1      39.316  26.758  29.017  1.00  0.00     0.031 C 
ATOM     39  C   UNL A   1      43.447  25.129  26.653  1.00  0.00     0.029 A 
ATOM     40  N   UNL A   1      43.500  27.189  27.517  1.00  0.00    -0.354 N 
ATOM     41  C   UNL A   1      40.009  28.903  29.400  1.00  0.00     0.074 A 
ATOM     42  C   UNL A   1      38.927  27.944  29.459  1.00  0.00     0.031 C 
ATOM     43  C   UNL A   1      44.660  25.643  26.394  1.00  0.00     0.029 A 
ATOM     44  C   UNL A   1      44.721  27.005  26.914  1.00  0.00     0.049 A 
ATOM     45  H   UNL A   1      43.253  28.017  27.989  1.00  0.00     0.167 HD
ATOM     46  C   UNL A   1      39.942  30.163  29.892  1.00  0.00     0.037 A 
ATOM     47  C   UNL A   1      45.766  27.844  26.782  1.00  0.00     0.037 A 
ATOM     48  C   UNL A   1      41.035  31.097  29.878  1.00  0.00     0.049 A 
ATOM     49  C   UNL A   1      45.673  29.232  27.355  1.00  0.00     0.074 A 
ATOM     50  C   UNL A   1      41.088  32.370  30.417  1.00  0.00     0.029 A 
ATOM     51  N   UNL A   1      42.271  30.854  29.298  1.00  0.00    -0.354 N 
ATOM     52  N   UNL A   1      44.675  29.800  27.985  1.00  0.00    -0.248 NA
ATOM     53  C   UNL A   1      46.852  30.096  27.198  1.00  0.00     0.031 C 
ATOM     54  C   UNL A   1      42.347  32.911  30.135  1.00  0.00     0.029 A 
ATOM     55  C   UNL A   1      43.091  31.959  29.456  1.00  0.00     0.049 A 
ATOM     56  H   UNL A   1      42.528  30.020  28.842  1.00  0.00     0.167 HD
ATOM     57  C   UNL A   1      45.113  31.072  28.326  1.00  0.00     0.074 A 
ATOM     58  C   UNL A   1      46.470  31.192  27.839  1.00  0.00     0.031 C 
ATOM     59  C   UNL A   1      44.447  32.054  28.982  1.00  0.00     0.037 A 
BRANCH  46  60
ATOM     60  C   UNL A   1      38.641  30.599  30.497  1.00  0.00     0.064 A 
ATOM     61  C   UNL A   1      38.427  30.565  31.883  1.00  0.00     0.173 A 
ATOM     62  C   UNL A   1      37.606  31.087  29.685  1.00  0.00     0.173 A 
ATOM     63  F   UNL A   1      39.380  30.095  32.702  1.00  0.00    -0.203 F 
ATOM     64  C   UNL A   1      37.213  30.971  32.431  1.00  0.00     0.198 A 
ATOM     65  C   UNL A   1      36.405  31.521  30.238  1.00  0.00     0.198 A 
ATOM     66  F   UNL A   1      37.762  31.146  28.353  1.00  0.00    -0.203 F 
ATOM     67  F   UNL A   1      37.013  30.880  33.753  1.00  0.00    -0.200 F 
ATOM     68  C   UNL A   1      36.206  31.455  31.610  1.00  0.00     0.200 A 
ATOM     69  F   UNL A   1      35.437  31.998  29.445  1.00  0.00    -0.200 F 
ATOM     70  F   UNL A   1      35.040  31.850  32.139  1.00  0.00    -0.200 F 
ENDBRANCH  46  60
BRANCH  47  71
ATOM     71  C   UNL A   1      47.002  27.390  26.094  1.00  0.00     0.064 A 
ATOM     72  C   UNL A   1      47.157  27.569  24.711  1.00  0.00     0.173 A 
ATOM     73  C   UNL A   1      48.045  26.767  26.792  1.00  0.00     0.173 A 
ATOM     74  F   UNL A   1      46.176  28.140  23.997  1.00  0.00    -0.203 F 
ATOM     75  C   UNL A   1      48.301  27.126  24.052  1.00  0.00     0.198 A 
ATOM     76  C   UNL A   1      49.200  26.347  26.135  1.00  0.00     0.198 A 
ATOM     77  F   UNL A   1      47.948  26.577  28.116  1.00  0.00    -0.203 F 
ATOM     78  F   UNL A   1      48.405  27.273  22.724  1.00  0.00    -0.200 F 
ATOM     79  C   UNL A   1      49.324  26.520  24.765  1.00  0.00     0.200 A 
ATOM     80  F   UNL A   1      50.193  25.773  26.830  1.00  0.00    -0.200 F 
ATOM     81  F   UNL A   1      50.426  26.096  24.131  1.00  0.00    -0.200 F 
ENDBRANCH  47  71
BRANCH  59  82
ATOM     82  C   UNL A   1      45.190  33.328  29.254  1.00  0.00     0.064 A 
ATOM     83  C   UNL A   1      45.970  33.492  30.407  1.00  0.00     0.173 A 
ATOM     84  C   UNL A   1      45.165  34.373  28.319  1.00  0.00     0.173 A 
ATOM     85  F   UNL A   1      46.011  32.526  31.337  1.00  0.00    -0.203 F 
ATOM     86  C   UNL A   1      46.691  34.664  30.619  1.00  0.00     0.198 A 
ATOM     87  C   UNL A   1      45.907  35.533  28.523  1.00  0.00     0.198 A 
ATOM     88  F   UNL A   1      44.436  34.260  27.198  1.00  0.00    -0.203 F 
ATOM     89  F   UNL A   1      47.404  34.815  31.743  1.00  0.00    -0.200 F 
ATOM     90  C   UNL A   1      46.665  35.679  29.674  1.00  0.00     0.200 A 
ATOM     91  F   UNL A   1      45.889  36.508  27.604  1.00  0.00    -0.200 F 
ATOM     92  F   UNL A   1      47.368  36.802  29.876  1.00  0.00    -0.200 F 
ENDBRANCH  59  82
ENDBRANCH  33  34
ENDBRANCH  25  28
ENDBRANCH  23  24
ENDBRANCH  22  23
ENDBRANCH   1  22
TORSDOF 13
ENDMDL
MODEL 3
REMARK VINA RESULT:     -11.6      3.442      8.707
REMARK SMILES C[C@H]1OCC[C@H]1C(=O)Nc1ccsc1C(=O)NCCCCNC(=O)c1ccc(-c2c3nc(c(-c4c(F)c(F)c(F)c(F)c4F)c4ccc([nH]4)c(-c4c(F)c(F)c(F)c(F)c4F)c4nc(c(-c5c(F)c(F)c(F)c(F)c5F)c5ccc2[nH]5)C=C4)C=C3)cc1
REMARK SMILES IDX 19 1 18 2 17 3 15 4 16 5 14 7 10 8 11 9 12 10 13 11 9 12
REMARK SMILES IDX 7 13 8 14 6 16 1 17 2 18 3 19 4 20 5 21 20 22 21 23 22 24
REMARK SMILES IDX 23 25 24 27 25 28 26 29 87 30 27 31 86 32 28 33 29 34 30 35
REMARK SMILES IDX 80 36 31 37 85 38 79 39 81 40 32 41 84 42 78 43 77 44 33 46
REMARK SMILES IDX 65 47 45 48 64 49 46 50 49 51 63 52 82 53 47 54 48 55 62 57
REMARK SMILES IDX 83 58 50 59 34 60 35 61 43 62 36 63 37 64 41 65 44 66 38 67
REMARK SMILES IDX 39 68 42 69 40 70 66 71 67 72 75 73 68 74 69 75 73 76 76 77
REMARK SMILES IDX 70 78 71 79 74 80 72 81 51 82 52 83 60 84 53 85 54 86 58 87
REMARK SMILES IDX 61 88 55 89 56 90 59 91 57 92
REMARK H PARENT 17 6 9 15 22 26 81 45 49 56
REMARK Flexibility Score: inf
ROOT
ATOM      1  C   UNL A   1      31.792  30.743  26.146  1.00  0.00     0.023 C 
ENDROOT
BRANCH   1   2
ATOM      2  C   UNL A   1      32.091  29.531  27.014  1.00  0.00     0.116 C 
BRANCH   2   3
ATOM      3  N   UNL A   1      33.082  28.615  26.511  1.00  0.00    -0.351 N 
ATOM      4  C   UNL A   1      32.961  27.529  25.670  1.00  0.00     0.263 C 
ATOM      5  O   UNL A   1      34.038  26.976  25.418  1.00  0.00    -0.268 OA
ATOM      6  H   UNL A   1      33.999  28.794  26.821  1.00  0.00     0.163 HD
BRANCH   4   7
ATOM      7  C   UNL A   1      31.679  27.043  25.147  1.00  0.00     0.115 A 
ATOM      8  C   UNL A   1      30.828  25.975  25.430  1.00  0.00     0.065 A 
ATOM      9  C   UNL A   1      29.636  26.015  24.643  1.00  0.00     0.038 A 
ATOM     10  C   UNL A   1      29.620  27.045  23.738  1.00  0.00     0.068 A 
ATOM     11  S   UNL A   1      31.026  27.989  23.841  1.00  0.00    -0.137 S 
BRANCH   8  12
ATOM     12  N   UNL A   1      30.992  25.103  26.486  1.00  0.00    -0.324 N 
ATOM     13  C   UNL A   1      31.494  23.841  26.550  1.00  0.00     0.230 C 
ATOM     14  O   UNL A   1      31.480  23.326  27.680  1.00  0.00    -0.274 OA
ATOM     15  H   UNL A   1      30.687  25.459  27.352  1.00  0.00     0.169 HD
BRANCH  13  16
ATOM     16  C   UNL A   1      32.164  23.059  25.416  1.00  0.00     0.110 C 
ATOM     17  C   UNL A   1      34.444  23.762  26.400  1.00  0.00     0.039 C 
ATOM     18  C   UNL A   1      33.652  22.802  25.534  1.00  0.00     0.127 C 
ATOM     19  O   UNL A   1      33.786  21.449  25.985  1.00  0.00    -0.378 OA
ATOM     20  C   UNL A   1      32.669  20.704  25.483  1.00  0.00     0.161 C 
ATOM     21  C   UNL A   1      31.618  21.699  25.030  1.00  0.00     0.044 C 
ENDBRANCH  13  16
ENDBRANCH   8  12
ENDBRANCH   4   7
ENDBRANCH   2   3
ENDBRANCH   1   2
BRANCH   1  22
ATOM     22  C   UNL A   1      31.483  32.030  26.898  1.00  0.00     0.023 C 
BRANCH  22  23
ATOM     23  C   UNL A   1      32.695  32.846  27.336  1.00  0.00     0.116 C 
BRANCH  23  24
ATOM     24  N   UNL A   1      32.391  34.235  27.651  1.00  0.00    -0.352 N 
ATOM     25  C   UNL A   1      32.966  35.075  28.582  1.00  0.00     0.251 C 
ATOM     26  H   UNL A   1      31.665  34.635  27.119  1.00  0.00     0.163 HD
ATOM     27  O   UNL A   1      32.513  36.194  28.779  1.00  0.00    -0.269 OA
BRANCH  25  28
ATOM     28  C   UNL A   1      34.108  34.592  29.387  1.00  0.00     0.039 A 
ATOM     29  C   UNL A   1      33.864  34.062  30.656  1.00  0.00     0.014 A 
ATOM     30  C   UNL A   1      35.401  34.599  28.864  1.00  0.00     0.014 A 
ATOM     31  C   UNL A   1      34.897  33.424  31.347  1.00  0.00     0.010 A 
ATOM     32  C   UNL A   1      36.400  33.876  29.504  1.00  0.00     0.010 A 
ATOM     33  C   UNL A   1      36.154  33.264  30.745  1.00  0.00    -0.014 A 
BRANCH  33  34
ATOM     34  C   UNL A   1      37.227  32.444  31.366  1.00  0.00     0.031 A 
ATOM     35  C   UNL A   1      37.730  32.786  32.739  1.00  0.00     0.074 A 
ATOM     36  C   UNL A   1      37.828  31.471  30.651  1.00  0.00     0.049 A 
ATOM     37  N   UNL A   1      38.767  32.316  33.385  1.00  0.00    -0.248 NA
ATOM     38  C   UNL A   1      36.989  33.827  33.471  1.00  0.00     0.031 C 
ATOM     39  C   UNL A   1      37.471  31.073  29.288  1.00  0.00     0.029 A 
ATOM     40  N   UNL A   1      38.885  30.653  30.966  1.00  0.00    -0.354 N 
ATOM     41  C   UNL A   1      38.823  33.027  34.576  1.00  0.00     0.074 A 
ATOM     42  C   UNL A   1      37.743  33.990  34.547  1.00  0.00     0.031 C 
ATOM     43  C   UNL A   1      38.280  30.077  28.892  1.00  0.00     0.029 A 
ATOM     44  C   UNL A   1      39.243  29.797  29.952  1.00  0.00     0.049 A 
ATOM     45  H   UNL A   1      39.343  30.676  31.838  1.00  0.00     0.167 HD
ATOM     46  C   UNL A   1      39.684  32.876  35.610  1.00  0.00     0.037 A 
ATOM     47  C   UNL A   1      40.244  28.899  29.879  1.00  0.00     0.037 A 
ATOM     48  C   UNL A   1      40.724  31.884  35.659  1.00  0.00     0.049 A 
ATOM     49  C   UNL A   1      41.175  28.738  31.050  1.00  0.00     0.074 A 
ATOM     50  C   UNL A   1      41.601  31.604  36.693  1.00  0.00     0.029 A 
ATOM     51  N   UNL A   1      41.025  31.005  34.629  1.00  0.00    -0.354 N 
ATOM     52  N   UNL A   1      41.184  29.377  32.193  1.00  0.00    -0.248 NA
ATOM     53  C   UNL A   1      42.236  27.728  30.920  1.00  0.00     0.031 C 
ATOM     54  C   UNL A   1      42.453  30.576  36.276  1.00  0.00     0.029 A 
ATOM     55  C   UNL A   1      42.081  30.190  34.998  1.00  0.00     0.049 A 
ATOM     56  H   UNL A   1      40.556  30.967  33.764  1.00  0.00     0.167 HD
ATOM     57  C   UNL A   1      42.226  28.831  32.928  1.00  0.00     0.074 A 
ATOM     58  C   UNL A   1      42.824  27.801  32.106  1.00  0.00     0.031 C 
ATOM     59  C   UNL A   1      42.650  29.156  34.174  1.00  0.00     0.037 A 
BRANCH  46  60
ATOM     60  C   UNL A   1      39.528  33.802  36.779  1.00  0.00     0.064 A 
ATOM     61  C   UNL A   1      38.775  33.442  37.907  1.00  0.00     0.173 A 
ATOM     62  C   UNL A   1      40.165  35.052  36.787  1.00  0.00     0.173 A 
ATOM     63  F   UNL A   1      38.137  32.263  37.943  1.00  0.00    -0.203 F 
ATOM     64  C   UNL A   1      38.638  34.313  38.985  1.00  0.00     0.198 A 
ATOM     65  C   UNL A   1      40.050  35.908  37.879  1.00  0.00     0.198 A 
ATOM     66  F   UNL A   1      40.902  35.443  35.736  1.00  0.00    -0.203 F 
ATOM     67  F   UNL A   1      37.870  33.968  40.028  1.00  0.00    -0.200 F 
ATOM     68  C   UNL A   1      39.280  35.541  38.973  1.00  0.00     0.200 A 
ATOM     69  F   UNL A   1      40.680  37.090  37.871  1.00  0.00    -0.200 F 
ATOM     70  F   UNL A   1      39.151  36.376  40.013  1.00  0.00    -0.200 F 
ENDBRANCH  46  60
BRANCH  47  71
ATOM     71  C   UNL A   1      40.409  28.068  28.659  1.00  0.00     0.064 A 
ATOM     72  C   UNL A   1      39.796  26.809  28.564  1.00  0.00     0.173 A 
ATOM     73  C   UNL A   1      41.178  28.503  27.571  1.00  0.00     0.173 A 
ATOM     74  F   UNL A   1      39.068  26.341  29.589  1.00  0.00    -0.203 F 
ATOM     75  C   UNL A   1      39.963  26.011  27.435  1.00  0.00     0.198 A 
ATOM     76  C   UNL A   1      41.323  27.714  26.432  1.00  0.00     0.198 A 
ATOM     77  F   UNL A   1      41.780  29.700  27.611  1.00  0.00    -0.203 F 
ATOM     78  F   UNL A   1      39.400  24.795  27.388  1.00  0.00    -0.200 F 
ATOM     79  C   UNL A   1      40.721  26.466  26.367  1.00  0.00     0.200 A 
ATOM     80  F   UNL A   1      42.047  28.163  25.396  1.00  0.00    -0.200 F 
ATOM     81  F   UNL A   1      40.880  25.699  25.279  1.00  0.00    -0.200 F 
ENDBRANCH  47  71
BRANCH  59  82
ATOM     82  C   UNL A   1      43.787  28.361  34.745  1.00  0.00     0.064 A 
ATOM     83  C   UNL A   1      45.113  28.806  34.654  1.00  0.00     0.173 A 
ATOM     84  C   UNL A   1      43.537  27.170  35.442  1.00  0.00     0.173 A 
ATOM     85  F   UNL A   1      45.403  29.931  33.983  1.00  0.00    -0.203 F 
ATOM     86  C   UNL A   1      46.150  28.079  35.231  1.00  0.00     0.198 A 
ATOM     87  C   UNL A   1      44.573  26.459  36.039  1.00  0.00     0.198 A 
ATOM     88  F   UNL A   1      42.283  26.706  35.560  1.00  0.00    -0.203 F 
ATOM     89  F   UNL A   1      47.415  28.504  35.105  1.00  0.00    -0.200 F 
ATOM     90  C   UNL A   1      45.879  26.912  35.930  1.00  0.00     0.200 A 
ATOM     91  F   UNL A   1      44.308  25.337  36.722  1.00  0.00    -0.200 F 
ATOM     92  F   UNL A   1      46.878  26.219  36.493  1.00  0.00    -0.200 F 
ENDBRANCH  59  82
ENDBRANCH  33  34
ENDBRANCH  25  28
ENDBRANCH  23  24
ENDBRANCH  22  23
ENDBRANCH   1  22
TORSDOF 13
ENDMDL
