MODEL 1
REMARK VINA RESULT:     -12.0      0.000      0.000
REMARK SMILES COCC[C@@H](C)NC(=O)N1Cc2nc[nH]c2C[C@@H]1C(=O)NCCCCNC(=O)c1ccc(-c2c3nc(c(-c4c(F)c(F)c(F)c(F)c4F)c4ccc([nH]4)c(-c4c(F)c(F)c(F)c(F)c4F)c4nc(c(-c5c(F)c(F)c(F)c(F)c5F)c5ccc2[nH]5)C=C4)C=C3)cc1
REMARK SMILES IDX 22 1 21 2 19 3 20 4 18 6 10 7 11 8 12 9 17 10 13 11 16 12
REMARK SMILES IDX 14 13 15 14 8 16 7 17 9 19 5 20 6 21 4 22 3 23 2 24 1 25
REMARK SMILES IDX 23 26 24 27 25 28 26 29 27 30 28 32 29 33 30 34 91 35 31 36
REMARK SMILES IDX 90 37 32 38 33 39 34 40 84 41 35 42 89 43 83 44 85 45 36 46
REMARK SMILES IDX 88 47 82 48 81 49 37 51 69 52 49 53 68 54 50 55 53 56 67 57
REMARK SMILES IDX 86 58 51 59 52 60 66 62 87 63 54 64 38 65 39 66 47 67 40 68
REMARK SMILES IDX 41 69 45 70 48 71 42 72 43 73 46 74 44 75 70 76 71 77 79 78
REMARK SMILES IDX 72 79 73 80 77 81 80 82 74 83 75 84 78 85 76 86 55 87 56 88
REMARK SMILES IDX 64 89 57 90 58 91 62 92 65 93 59 94 60 95 63 96 61 97
REMARK H PARENT 21 5 15 15 7 18 26 31 85 50 53 61
REMARK Flexibility Score: inf
ROOT
ATOM      1  C   UNL A   1      32.430  27.391  25.912  1.00  0.00     0.116 C 
ENDROOT
BRANCH   1   2
ATOM      2  N   UNL A   1      31.510  26.323  26.273  1.00  0.00    -0.354 N 
ATOM      3  C   UNL A   1      31.810  24.985  26.422  1.00  0.00     0.243 C 
ATOM      4  O   UNL A   1      31.172  24.351  27.262  1.00  0.00    -0.273 OA
ATOM      5  H   UNL A   1      30.573  26.583  26.425  1.00  0.00     0.163 HD
BRANCH   3   6
ATOM      6  C   UNL A   1      32.962  24.380  25.594  1.00  0.00     0.182 C 
ATOM      7  N   UNL A   1      32.725  23.777  24.233  1.00  0.00    -0.306 N 
ATOM      8  C   UNL A   1      33.891  23.142  23.555  1.00  0.00     0.180 C 
ATOM      9  C   UNL A   1      34.896  22.639  24.536  1.00  0.00     0.081 A 
ATOM     10  C   UNL A   1      33.613  23.353  26.575  1.00  0.00     0.091 C 
ATOM     11  N   UNL A   1      36.099  22.061  24.223  1.00  0.00    -0.240 NA
ATOM     12  C   UNL A   1      34.767  22.742  25.898  1.00  0.00     0.042 A 
ATOM     13  C   UNL A   1      36.667  21.793  25.380  1.00  0.00     0.197 A 
ATOM     14  N   UNL A   1      35.890  22.195  26.436  1.00  0.00    -0.348 N 
ATOM     15  H   UNL A   1      36.103  22.105  27.392  1.00  0.00     0.167 HD
BRANCH   7  16
ATOM     16  C   UNL A   1      31.516  23.581  23.627  1.00  0.00     0.318 C 
ATOM     17  N   UNL A   1      30.748  24.630  23.252  1.00  0.00    -0.335 N 
ATOM     18  H   UNL A   1      29.798  24.408  23.115  1.00  0.00     0.165 HD
ATOM     19  O   UNL A   1      31.121  22.464  23.287  1.00  0.00    -0.249 OA
BRANCH  17  20
ATOM     20  C   UNL A   1      31.078  26.031  23.012  1.00  0.00     0.083 C 
ATOM     21  C   UNL A   1      29.814  26.885  23.137  1.00  0.00     0.031 C 
BRANCH  20  22
ATOM     22  C   UNL A   1      31.741  26.208  21.633  1.00  0.00     0.053 C 
BRANCH  22  23
ATOM     23  C   UNL A   1      33.267  26.345  21.678  1.00  0.00     0.162 C 
BRANCH  23  24
ATOM     24  O   UNL A   1      33.743  27.170  22.740  1.00  0.00    -0.385 OA
ATOM     25  C   UNL A   1      33.981  28.522  22.390  1.00  0.00     0.194 C 
ENDBRANCH  23  24
ENDBRANCH  22  23
ENDBRANCH  20  22
ENDBRANCH  17  20
ENDBRANCH   7  16
ENDBRANCH   3   6
ENDBRANCH   1   2
BRANCH   1  26
ATOM     26  C   UNL A   1      32.382  28.635  26.802  1.00  0.00     0.023 C 
BRANCH  26  27
ATOM     27  C   UNL A   1      33.582  28.907  27.713  1.00  0.00     0.023 C 
BRANCH  27  28
ATOM     28  C   UNL A   1      34.554  29.958  27.202  1.00  0.00     0.116 C 
BRANCH  28  29
ATOM     29  N   UNL A   1      34.392  31.272  27.824  1.00  0.00    -0.352 N 
ATOM     30  C   UNL A   1      35.023  31.729  28.967  1.00  0.00     0.251 C 
ATOM     31  H   UNL A   1      33.769  31.894  27.383  1.00  0.00     0.163 HD
ATOM     32  O   UNL A   1      34.575  32.676  29.611  1.00  0.00    -0.269 OA
BRANCH  30  33
ATOM     33  C   UNL A   1      36.260  31.057  29.395  1.00  0.00     0.039 A 
ATOM     34  C   UNL A   1      36.261  29.760  29.915  1.00  0.00     0.014 A 
ATOM     35  C   UNL A   1      37.452  31.750  29.200  1.00  0.00     0.014 A 
ATOM     36  C   UNL A   1      37.484  29.136  30.152  1.00  0.00     0.010 A 
ATOM     37  C   UNL A   1      38.644  31.081  29.272  1.00  0.00     0.010 A 
ATOM     38  C   UNL A   1      38.673  29.798  29.806  1.00  0.00    -0.014 A 
BRANCH  38  39
ATOM     39  C   UNL A   1      39.967  29.129  29.880  1.00  0.00     0.031 A 
ATOM     40  C   UNL A   1      40.497  28.961  31.261  1.00  0.00     0.074 A 
ATOM     41  C   UNL A   1      40.511  28.496  28.817  1.00  0.00     0.049 A 
ATOM     42  N   UNL A   1      41.561  29.491  31.766  1.00  0.00    -0.248 NA
ATOM     43  C   UNL A   1      39.685  28.220  32.240  1.00  0.00     0.031 C 
ATOM     44  C   UNL A   1      39.935  28.305  27.479  1.00  0.00     0.029 A 
ATOM     45  N   UNL A   1      41.665  27.780  28.740  1.00  0.00    -0.354 N 
ATOM     46  C   UNL A   1      41.664  28.996  33.063  1.00  0.00     0.074 A 
ATOM     47  C   UNL A   1      40.399  28.374  33.357  1.00  0.00     0.031 C 
ATOM     48  C   UNL A   1      40.614  27.339  26.822  1.00  0.00     0.029 A 
ATOM     49  C   UNL A   1      41.771  26.969  27.614  1.00  0.00     0.049 A 
ATOM     50  H   UNL A   1      42.369  27.831  29.428  1.00  0.00     0.167 HD
ATOM     51  C   UNL A   1      42.873  28.923  33.689  1.00  0.00     0.037 A 
ATOM     52  C   UNL A   1      42.732  26.043  27.369  1.00  0.00     0.037 A 
ATOM     53  C   UNL A   1      43.853  29.725  33.001  1.00  0.00     0.049 A 
ATOM     54  C   UNL A   1      43.879  26.361  28.255  1.00  0.00     0.074 A 
ATOM     55  C   UNL A   1      43.978  31.067  32.701  1.00  0.00     0.029 A 
ATOM     56  N   UNL A   1      44.729  29.075  32.166  1.00  0.00    -0.354 N 
ATOM     57  N   UNL A   1      44.614  27.429  28.129  1.00  0.00    -0.248 NA
ATOM     58  C   UNL A   1      43.910  25.729  29.564  1.00  0.00     0.031 C 
ATOM     59  C   UNL A   1      44.541  31.101  31.390  1.00  0.00     0.029 A 
ATOM     60  C   UNL A   1      44.800  29.786  30.999  1.00  0.00     0.049 A 
ATOM     61  H   UNL A   1      45.217  28.245  32.370  1.00  0.00     0.167 HD
ATOM     62  C   UNL A   1      44.836  27.856  29.430  1.00  0.00     0.074 A 
ATOM     63  C   UNL A   1      44.457  26.722  30.271  1.00  0.00     0.031 C 
ATOM     64  C   UNL A   1      45.019  29.178  29.708  1.00  0.00     0.037 A 
BRANCH  51  65
ATOM     65  C   UNL A   1      43.284  27.842  34.662  1.00  0.00     0.064 A 
ATOM     66  C   UNL A   1      43.685  28.216  35.963  1.00  0.00     0.173 A 
ATOM     67  C   UNL A   1      43.606  26.521  34.286  1.00  0.00     0.173 A 
ATOM     68  F   UNL A   1      43.440  29.450  36.425  1.00  0.00    -0.203 F 
ATOM     69  C   UNL A   1      44.438  27.365  36.779  1.00  0.00     0.198 A 
ATOM     70  C   UNL A   1      44.310  25.657  35.125  1.00  0.00     0.198 A 
ATOM     71  F   UNL A   1      43.362  26.046  33.060  1.00  0.00    -0.203 F 
ATOM     72  F   UNL A   1      44.915  27.815  37.947  1.00  0.00    -0.200 F 
ATOM     73  C   UNL A   1      44.757  26.090  36.355  1.00  0.00     0.200 A 
ATOM     74  F   UNL A   1      44.624  24.428  34.689  1.00  0.00    -0.200 F 
ATOM     75  F   UNL A   1      45.534  25.297  37.104  1.00  0.00    -0.200 F 
ENDBRANCH  51  65
BRANCH  52  76
ATOM     76  C   UNL A   1      42.620  24.745  26.659  1.00  0.00     0.064 A 
ATOM     77  C   UNL A   1      43.362  24.493  25.493  1.00  0.00     0.173 A 
ATOM     78  C   UNL A   1      42.015  23.628  27.268  1.00  0.00     0.173 A 
ATOM     79  F   UNL A   1      44.003  25.495  24.873  1.00  0.00    -0.203 F 
ATOM     80  C   UNL A   1      43.521  23.198  24.988  1.00  0.00     0.198 A 
ATOM     81  C   UNL A   1      42.170  22.337  26.760  1.00  0.00     0.198 A 
ATOM     82  F   UNL A   1      41.344  23.756  28.421  1.00  0.00    -0.203 F 
ATOM     83  F   UNL A   1      44.294  22.990  23.912  1.00  0.00    -0.200 F 
ATOM     84  C   UNL A   1      42.936  22.119  25.630  1.00  0.00     0.200 A 
ATOM     85  F   UNL A   1      41.630  21.297  27.411  1.00  0.00    -0.200 F 
ATOM     86  F   UNL A   1      43.145  20.872  25.187  1.00  0.00    -0.200 F 
ENDBRANCH  52  76
BRANCH  64  87
ATOM     87  C   UNL A   1      45.256  30.113  28.552  1.00  0.00     0.064 A 
ATOM     88  C   UNL A   1      44.236  30.764  27.835  1.00  0.00     0.173 A 
ATOM     89  C   UNL A   1      46.577  30.469  28.256  1.00  0.00     0.173 A 
ATOM     90  F   UNL A   1      42.945  30.556  28.123  1.00  0.00    -0.203 F 
ATOM     91  C   UNL A   1      44.531  31.694  26.839  1.00  0.00     0.198 A 
ATOM     92  C   UNL A   1      46.869  31.426  27.287  1.00  0.00     0.198 A 
ATOM     93  F   UNL A   1      47.591  29.922  28.945  1.00  0.00    -0.203 F 
ATOM     94  F   UNL A   1      43.540  32.292  26.161  1.00  0.00    -0.200 F 
ATOM     95  C   UNL A   1      45.847  32.030  26.573  1.00  0.00     0.200 A 
ATOM     96  F   UNL A   1      48.141  31.783  27.069  1.00  0.00    -0.200 F 
ATOM     97  F   UNL A   1      46.132  32.954  25.645  1.00  0.00    -0.200 F 
ENDBRANCH  64  87
ENDBRANCH  38  39
ENDBRANCH  30  33
ENDBRANCH  28  29
ENDBRANCH  27  28
ENDBRANCH  26  27
ENDBRANCH   1  26
TORSDOF 16
ENDMDL
MODEL 2
REMARK VINA RESULT:     -12.0      1.200      2.128
REMARK SMILES COCC[C@@H](C)NC(=O)N1Cc2nc[nH]c2C[C@@H]1C(=O)NCCCCNC(=O)c1ccc(-c2c3nc(c(-c4c(F)c(F)c(F)c(F)c4F)c4ccc([nH]4)c(-c4c(F)c(F)c(F)c(F)c4F)c4nc(c(-c5c(F)c(F)c(F)c(F)c5F)c5ccc2[nH]5)C=C4)C=C3)cc1
REMARK SMILES IDX 22 1 21 2 19 3 20 4 18 6 10 7 11 8 12 9 17 10 13 11 16 12
REMARK SMILES IDX 14 13 15 14 8 16 7 17 9 19 5 20 6 21 4 22 3 23 2 24 1 25
REMARK SMILES IDX 23 26 24 27 25 28 26 29 27 30 28 32 29 33 30 34 91 35 31 36
REMARK SMILES IDX 90 37 32 38 33 39 34 40 84 41 35 42 89 43 83 44 85 45 36 46
REMARK SMILES IDX 88 47 82 48 81 49 37 51 69 52 49 53 68 54 50 55 53 56 67 57
REMARK SMILES IDX 86 58 51 59 52 60 66 62 87 63 54 64 38 65 39 66 47 67 40 68
REMARK SMILES IDX 41 69 45 70 48 71 42 72 43 73 46 74 44 75 70 76 71 77 79 78
REMARK SMILES IDX 72 79 73 80 77 81 80 82 74 83 75 84 78 85 76 86 55 87 56 88
REMARK SMILES IDX 64 89 57 90 58 91 62 92 65 93 59 94 60 95 63 96 61 97
REMARK H PARENT 21 5 15 15 7 18 26 31 85 50 53 61
REMARK Flexibility Score: inf
ROOT
ATOM      1  C   UNL A   1      32.381  27.196  25.999  1.00  0.00     0.116 C 
ENDROOT
BRANCH   1   2
ATOM      2  N   UNL A   1      31.672  25.974  26.345  1.00  0.00    -0.354 N 
ATOM      3  C   UNL A   1      32.207  24.706  26.452  1.00  0.00     0.243 C 
ATOM      4  O   UNL A   1      31.711  23.949  27.285  1.00  0.00    -0.273 OA
ATOM      5  H   UNL A   1      30.708  26.060  26.522  1.00  0.00     0.163 HD
BRANCH   3   6
ATOM      6  C   UNL A   1      33.429  24.335  25.587  1.00  0.00     0.182 C 
ATOM      7  N   UNL A   1      33.292  24.027  24.117  1.00  0.00    -0.306 N 
ATOM      8  C   UNL A   1      34.522  23.595  23.392  1.00  0.00     0.180 C 
ATOM      9  C   UNL A   1      35.499  22.933  24.306  1.00  0.00     0.081 A 
ATOM     10  C   UNL A   1      34.079  23.148  26.367  1.00  0.00     0.091 C 
ATOM     11  N   UNL A   1      36.743  22.481  23.951  1.00  0.00    -0.240 NA
ATOM     12  C   UNL A   1      35.295  22.740  25.648  1.00  0.00     0.042 A 
ATOM     13  C   UNL A   1      37.264  21.995  25.059  1.00  0.00     0.197 A 
ATOM     14  N   UNL A   1      36.415  22.133  26.126  1.00  0.00    -0.348 N 
ATOM     15  H   UNL A   1      36.583  21.850  27.053  1.00  0.00     0.167 HD
BRANCH   7  16
ATOM     16  C   UNL A   1      32.127  23.919  23.412  1.00  0.00     0.318 C 
ATOM     17  N   UNL A   1      31.858  22.815  22.678  1.00  0.00    -0.335 N 
ATOM     18  H   UNL A   1      31.173  22.947  21.983  1.00  0.00     0.165 HD
ATOM     19  O   UNL A   1      31.222  24.751  23.501  1.00  0.00    -0.249 OA
BRANCH  17  20
ATOM     20  C   UNL A   1      32.404  21.462  22.734  1.00  0.00     0.083 C 
ATOM     21  C   UNL A   1      31.779  20.611  21.626  1.00  0.00     0.031 C 
BRANCH  20  22
ATOM     22  C   UNL A   1      32.170  20.836  24.122  1.00  0.00     0.053 C 
BRANCH  22  23
ATOM     23  C   UNL A   1      32.545  19.353  24.217  1.00  0.00     0.162 C 
BRANCH  23  24
ATOM     24  O   UNL A   1      32.152  18.733  25.441  1.00  0.00    -0.385 OA
ATOM     25  C   UNL A   1      32.661  17.427  25.642  1.00  0.00     0.194 C 
ENDBRANCH  23  24
ENDBRANCH  22  23
ENDBRANCH  20  22
ENDBRANCH  17  20
ENDBRANCH   7  16
ENDBRANCH   3   6
ENDBRANCH   1   2
BRANCH   1  26
ATOM     26  C   UNL A   1      31.808  28.486  26.591  1.00  0.00     0.023 C 
BRANCH  26  27
ATOM     27  C   UNL A   1      32.652  29.232  27.627  1.00  0.00     0.023 C 
BRANCH  27  28
ATOM     28  C   UNL A   1      34.014  29.695  27.137  1.00  0.00     0.116 C 
BRANCH  28  29
ATOM     29  N   UNL A   1      34.225  31.139  27.241  1.00  0.00    -0.352 N 
ATOM     30  C   UNL A   1      35.141  31.783  28.054  1.00  0.00     0.251 C 
ATOM     31  H   UNL A   1      33.657  31.709  26.675  1.00  0.00     0.163 HD
ATOM     32  O   UNL A   1      35.014  32.970  28.347  1.00  0.00    -0.269 OA
BRANCH  30  33
ATOM     33  C   UNL A   1      36.290  31.012  28.556  1.00  0.00     0.039 A 
ATOM     34  C   UNL A   1      36.299  29.614  28.568  1.00  0.00     0.014 A 
ATOM     35  C   UNL A   1      37.406  31.738  28.963  1.00  0.00     0.014 A 
ATOM     36  C   UNL A   1      37.478  28.957  28.913  1.00  0.00     0.010 A 
ATOM     37  C   UNL A   1      38.603  31.099  29.135  1.00  0.00     0.010 A 
ATOM     38  C   UNL A   1      38.635  29.709  29.173  1.00  0.00    -0.014 A 
BRANCH  38  39
ATOM     39  C   UNL A   1      39.930  29.071  29.376  1.00  0.00     0.031 A 
ATOM     40  C   UNL A   1      40.326  28.918  30.804  1.00  0.00     0.074 A 
ATOM     41  C   UNL A   1      40.590  28.449  28.375  1.00  0.00     0.049 A 
ATOM     42  N   UNL A   1      41.323  29.474  31.408  1.00  0.00    -0.248 NA
ATOM     43  C   UNL A   1      39.439  28.160  31.702  1.00  0.00     0.031 C 
ATOM     44  C   UNL A   1      40.153  28.241  26.988  1.00  0.00     0.029 A 
ATOM     45  N   UNL A   1      41.762  27.759  28.415  1.00  0.00    -0.354 N 
ATOM     46  C   UNL A   1      41.310  28.983  32.712  1.00  0.00     0.074 A 
ATOM     47  C   UNL A   1      40.037  28.333  32.883  1.00  0.00     0.031 C 
ATOM     48  C   UNL A   1      40.915  27.290  26.405  1.00  0.00     0.029 A 
ATOM     49  C   UNL A   1      41.997  26.949  27.308  1.00  0.00     0.049 A 
ATOM     50  H   UNL A   1      42.394  27.828  29.168  1.00  0.00     0.167 HD
ATOM     51  C   UNL A   1      42.453  28.940  33.453  1.00  0.00     0.037 A 
ATOM     52  C   UNL A   1      42.997  26.044  27.162  1.00  0.00     0.037 A 
ATOM     53  C   UNL A   1      43.477  29.763  32.861  1.00  0.00     0.049 A 
ATOM     54  C   UNL A   1      44.045  26.391  28.154  1.00  0.00     0.074 A 
ATOM     55  C   UNL A   1      43.600  31.107  32.569  1.00  0.00     0.029 A 
ATOM     56  N   UNL A   1      44.445  29.131  32.119  1.00  0.00    -0.354 N 
ATOM     57  N   UNL A   1      44.764  27.475  28.097  1.00  0.00    -0.248 NA
ATOM     58  C   UNL A   1      43.962  25.762  29.463  1.00  0.00     0.031 C 
ATOM     59  C   UNL A   1      44.288  31.151  31.320  1.00  0.00     0.029 A 
ATOM     60  C   UNL A   1      44.614  29.842  30.961  1.00  0.00     0.049 A 
ATOM     61  H   UNL A   1      44.930  28.313  32.373  1.00  0.00     0.167 HD
ATOM     62  C   UNL A   1      44.848  27.909  29.411  1.00  0.00     0.074 A 
ATOM     63  C   UNL A   1      44.414  26.769  30.216  1.00  0.00     0.031 C 
ATOM     64  C   UNL A   1      44.973  29.237  29.700  1.00  0.00     0.037 A 
BRANCH  51  65
ATOM     65  C   UNL A   1      42.791  27.871  34.467  1.00  0.00     0.064 A 
ATOM     66  C   UNL A   1      43.075  28.258  35.794  1.00  0.00     0.173 A 
ATOM     67  C   UNL A   1      43.159  26.551  34.130  1.00  0.00     0.173 A 
ATOM     68  F   UNL A   1      42.777  29.493  36.224  1.00  0.00    -0.203 F 
ATOM     69  C   UNL A   1      43.764  27.422  36.678  1.00  0.00     0.198 A 
ATOM     70  C   UNL A   1      43.798  25.701  35.033  1.00  0.00     0.198 A 
ATOM     71  F   UNL A   1      43.026  26.064  32.892  1.00  0.00    -0.203 F 
ATOM     72  F   UNL A   1      44.134  27.886  37.879  1.00  0.00    -0.200 F 
ATOM     73  C   UNL A   1      44.133  26.148  36.293  1.00  0.00     0.200 A 
ATOM     74  F   UNL A   1      44.162  24.474  34.635  1.00  0.00    -0.200 F 
ATOM     75  F   UNL A   1      44.852  25.370  37.112  1.00  0.00    -0.200 F 
ENDBRANCH  51  65
BRANCH  52  76
ATOM     76  C   UNL A   1      42.985  24.743  26.450  1.00  0.00     0.064 A 
ATOM     77  C   UNL A   1      43.775  24.538  25.307  1.00  0.00     0.173 A 
ATOM     78  C   UNL A   1      42.432  23.590  27.042  1.00  0.00     0.173 A 
ATOM     79  F   UNL A   1      44.372  25.577  24.705  1.00  0.00    -0.203 F 
ATOM     80  C   UNL A   1      44.027  23.255  24.808  1.00  0.00     0.198 A 
ATOM     81  C   UNL A   1      42.680  22.312  26.540  1.00  0.00     0.198 A 
ATOM     82  F   UNL A   1      41.721  23.676  28.175  1.00  0.00    -0.203 F 
ATOM     83  F   UNL A   1      44.842  23.095  23.755  1.00  0.00    -0.200 F 
ATOM     84  C   UNL A   1      43.490  22.142  25.433  1.00  0.00     0.200 A 
ATOM     85  F   UNL A   1      42.185  21.241  27.175  1.00  0.00    -0.200 F 
ATOM     86  F   UNL A   1      43.787  20.910  24.997  1.00  0.00    -0.200 F 
ENDBRANCH  52  76
BRANCH  64  87
ATOM     87  C   UNL A   1      45.300  30.174  28.569  1.00  0.00     0.064 A 
ATOM     88  C   UNL A   1      44.340  30.818  27.768  1.00  0.00     0.173 A 
ATOM     89  C   UNL A   1      46.639  30.540  28.386  1.00  0.00     0.173 A 
ATOM     90  F   UNL A   1      43.031  30.601  27.945  1.00  0.00    -0.203 F 
ATOM     91  C   UNL A   1      44.712  31.751  26.802  1.00  0.00     0.198 A 
ATOM     92  C   UNL A   1      47.006  31.500  27.447  1.00  0.00     0.198 A 
ATOM     93  F   UNL A   1      47.594  29.999  29.159  1.00  0.00    -0.203 F 
ATOM     94  F   UNL A   1      43.778  32.343  26.042  1.00  0.00    -0.200 F 
ATOM     95  C   UNL A   1      46.044  32.097  26.648  1.00  0.00     0.200 A 
ATOM     96  F   UNL A   1      48.289  31.866  27.338  1.00  0.00    -0.200 F 
ATOM     97  F   UNL A   1      46.400  33.024  25.749  1.00  0.00    -0.200 F 
ENDBRANCH  64  87
ENDBRANCH  38  39
ENDBRANCH  30  33
ENDBRANCH  28  29
ENDBRANCH  27  28
ENDBRANCH  26  27
ENDBRANCH   1  26
TORSDOF 16
ENDMDL
MODEL 3
REMARK VINA RESULT:     -11.9      1.189      2.777
REMARK SMILES COCC[C@@H](C)NC(=O)N1Cc2nc[nH]c2C[C@@H]1C(=O)NCCCCNC(=O)c1ccc(-c2c3nc(c(-c4c(F)c(F)c(F)c(F)c4F)c4ccc([nH]4)c(-c4c(F)c(F)c(F)c(F)c4F)c4nc(c(-c5c(F)c(F)c(F)c(F)c5F)c5ccc2[nH]5)C=C4)C=C3)cc1
REMARK SMILES IDX 22 1 21 2 19 3 20 4 18 6 10 7 11 8 12 9 17 10 13 11 16 12
REMARK SMILES IDX 14 13 15 14 8 16 7 17 9 19 5 20 6 21 4 22 3 23 2 24 1 25
REMARK SMILES IDX 23 26 24 27 25 28 26 29 27 30 28 32 29 33 30 34 91 35 31 36
REMARK SMILES IDX 90 37 32 38 33 39 34 40 84 41 35 42 89 43 83 44 85 45 36 46
REMARK SMILES IDX 88 47 82 48 81 49 37 51 69 52 49 53 68 54 50 55 53 56 67 57
REMARK SMILES IDX 86 58 51 59 52 60 66 62 87 63 54 64 38 65 39 66 47 67 40 68
REMARK SMILES IDX 41 69 45 70 48 71 42 72 43 73 46 74 44 75 70 76 71 77 79 78
REMARK SMILES IDX 72 79 73 80 77 81 80 82 74 83 75 84 78 85 76 86 55 87 56 88
REMARK SMILES IDX 64 89 57 90 58 91 62 92 65 93 59 94 60 95 63 96 61 97
REMARK H PARENT 21 5 15 15 7 18 26 31 85 50 53 61
REMARK Flexibility Score: inf
ROOT
ATOM      1  C   UNL A   1      31.983  27.777  25.685  1.00  0.00     0.116 C 
ENDROOT
BRANCH   1   2
ATOM      2  N   UNL A   1      30.983  26.791  26.063  1.00  0.00    -0.354 N 
ATOM      3  C   UNL A   1      30.980  25.448  25.744  1.00  0.00     0.243 C 
ATOM      4  O   UNL A   1      30.489  24.672  26.563  1.00  0.00    -0.273 OA
ATOM      5  H   UNL A   1      30.226  27.116  26.601  1.00  0.00     0.163 HD
BRANCH   3   6
ATOM      6  C   UNL A   1      31.650  24.989  24.433  1.00  0.00     0.182 C 
ATOM      7  N   UNL A   1      33.109  24.609  24.382  1.00  0.00    -0.306 N 
ATOM      8  C   UNL A   1      33.678  24.264  23.048  1.00  0.00     0.180 C 
ATOM      9  C   UNL A   1      32.944  24.942  21.940  1.00  0.00     0.081 A 
ATOM     10  C   UNL A   1      31.320  26.143  23.434  1.00  0.00     0.091 C 
ATOM     11  N   UNL A   1      33.191  24.780  20.602  1.00  0.00    -0.240 NA
ATOM     12  C   UNL A   1      31.877  25.785  22.121  1.00  0.00     0.042 A 
ATOM     13  C   UNL A   1      32.305  25.539  19.991  1.00  0.00     0.197 A 
ATOM     14  N   UNL A   1      31.476  26.173  20.880  1.00  0.00    -0.348 N 
ATOM     15  H   UNL A   1      30.737  26.786  20.664  1.00  0.00     0.167 HD
BRANCH   7  16
ATOM     16  C   UNL A   1      34.018  24.726  25.396  1.00  0.00     0.318 C 
ATOM     17  N   UNL A   1      34.224  23.710  26.266  1.00  0.00    -0.335 N 
ATOM     18  H   UNL A   1      34.646  23.981  27.113  1.00  0.00     0.165 HD
ATOM     19  O   UNL A   1      34.771  25.696  25.498  1.00  0.00    -0.249 OA
BRANCH  17  20
ATOM     20  C   UNL A   1      33.931  22.284  26.170  1.00  0.00     0.083 C 
ATOM     21  C   UNL A   1      33.794  21.693  27.576  1.00  0.00     0.031 C 
BRANCH  20  22
ATOM     22  C   UNL A   1      35.019  21.556  25.359  1.00  0.00     0.053 C 
BRANCH  22  23
ATOM     23  C   UNL A   1      36.217  22.433  24.980  1.00  0.00     0.162 C 
BRANCH  23  24
ATOM     24  O   UNL A   1      37.196  22.556  26.011  1.00  0.00    -0.385 OA
ATOM     25  C   UNL A   1      37.892  23.789  26.035  1.00  0.00     0.194 C 
ENDBRANCH  23  24
ENDBRANCH  22  23
ENDBRANCH  20  22
ENDBRANCH  17  20
ENDBRANCH   7  16
ENDBRANCH   3   6
ENDBRANCH   1   2
BRANCH   1  26
ATOM     26  C   UNL A   1      32.369  28.781  26.774  1.00  0.00     0.023 C 
BRANCH  26  27
ATOM     27  C   UNL A   1      33.787  28.703  27.346  1.00  0.00     0.023 C 
BRANCH  27  28
ATOM     28  C   UNL A   1      34.704  29.849  26.953  1.00  0.00     0.116 C 
BRANCH  28  29
ATOM     29  N   UNL A   1      34.434  31.099  27.664  1.00  0.00    -0.352 N 
ATOM     30  C   UNL A   1      35.005  31.512  28.855  1.00  0.00     0.251 C 
ATOM     31  H   UNL A   1      33.779  31.707  27.253  1.00  0.00     0.163 HD
ATOM     32  O   UNL A   1      34.477  32.374  29.554  1.00  0.00    -0.269 OA
BRANCH  30  33
ATOM     33  C   UNL A   1      36.278  30.898  29.267  1.00  0.00     0.039 A 
ATOM     34  C   UNL A   1      36.341  29.613  29.813  1.00  0.00     0.014 A 
ATOM     35  C   UNL A   1      37.436  31.631  29.028  1.00  0.00     0.014 A 
ATOM     36  C   UNL A   1      37.593  29.042  30.034  1.00  0.00     0.010 A 
ATOM     37  C   UNL A   1      38.655  31.011  29.085  1.00  0.00     0.010 A 
ATOM     38  C   UNL A   1      38.746  29.741  29.645  1.00  0.00    -0.014 A 
BRANCH  38  39
ATOM     39  C   UNL A   1      40.067  29.125  29.701  1.00  0.00     0.031 A 
ATOM     40  C   UNL A   1      40.599  28.929  31.078  1.00  0.00     0.074 A 
ATOM     41  C   UNL A   1      40.640  28.553  28.619  1.00  0.00     0.049 A 
ATOM     42  N   UNL A   1      41.638  29.485  31.606  1.00  0.00    -0.248 NA
ATOM     43  C   UNL A   1      39.815  28.120  32.026  1.00  0.00     0.031 C 
ATOM     44  C   UNL A   1      40.078  28.386  27.272  1.00  0.00     0.029 A 
ATOM     45  N   UNL A   1      41.824  27.889  28.523  1.00  0.00    -0.354 N 
ATOM     46  C   UNL A   1      41.757  28.948  32.886  1.00  0.00     0.074 A 
ATOM     47  C   UNL A   1      40.519  28.264  33.151  1.00  0.00     0.031 C 
ATOM     48  C   UNL A   1      40.799  27.473  26.585  1.00  0.00     0.029 A 
ATOM     49  C   UNL A   1      41.968  27.124  27.369  1.00  0.00     0.049 A 
ATOM     50  H   UNL A   1      42.522  27.945  29.215  1.00  0.00     0.167 HD
ATOM     51  C   UNL A   1      42.966  28.903  33.514  1.00  0.00     0.037 A 
ATOM     52  C   UNL A   1      42.967  26.248  27.095  1.00  0.00     0.037 A 
ATOM     53  C   UNL A   1      43.915  29.769  32.860  1.00  0.00     0.049 A 
ATOM     54  C   UNL A   1      44.096  26.582  27.997  1.00  0.00     0.074 A 
ATOM     55  C   UNL A   1      43.984  31.125  32.609  1.00  0.00     0.029 A 
ATOM     56  N   UNL A   1      44.819  29.187  32.007  1.00  0.00    -0.354 N 
ATOM     57  N   UNL A   1      44.787  27.683  27.913  1.00  0.00    -0.248 NA
ATOM     58  C   UNL A   1      44.150  25.905  29.284  1.00  0.00     0.031 C 
ATOM     59  C   UNL A   1      44.549  31.230  31.303  1.00  0.00     0.029 A 
ATOM     60  C   UNL A   1      44.865  29.941  30.866  1.00  0.00     0.049 A 
ATOM     61  H   UNL A   1      45.341  28.370  32.184  1.00  0.00     0.167 HD
ATOM     62  C   UNL A   1      44.986  28.072  29.229  1.00  0.00     0.074 A 
ATOM     63  C   UNL A   1      44.652  26.894  30.028  1.00  0.00     0.031 C 
ATOM     64  C   UNL A   1      45.114  29.390  29.556  1.00  0.00     0.037 A 
BRANCH  51  65
ATOM     65  C   UNL A   1      43.419  27.806  34.451  1.00  0.00     0.064 A 
ATOM     66  C   UNL A   1      43.507  26.486  33.960  1.00  0.00     0.173 A 
ATOM     67  C   UNL A   1      43.455  27.932  35.855  1.00  0.00     0.173 A 
ATOM     68  F   UNL A   1      43.474  26.244  32.641  1.00  0.00    -0.203 F 
ATOM     69  C   UNL A   1      43.528  25.378  34.813  1.00  0.00     0.198 A 
ATOM     70  C   UNL A   1      43.531  26.827  36.703  1.00  0.00     0.198 A 
ATOM     71  F   UNL A   1      43.304  29.109  36.473  1.00  0.00    -0.203 F 
ATOM     72  F   UNL A   1      43.470  24.143  34.298  1.00  0.00    -0.200 F 
ATOM     73  C   UNL A   1      43.530  25.550  36.183  1.00  0.00     0.200 A 
ATOM     74  F   UNL A   1      43.516  27.013  38.030  1.00  0.00    -0.200 F 
ATOM     75  F   UNL A   1      43.481  24.492  37.002  1.00  0.00    -0.200 F 
ENDBRANCH  51  65
BRANCH  52  76
ATOM     76  C   UNL A   1      42.911  24.973  26.339  1.00  0.00     0.064 A 
ATOM     77  C   UNL A   1      43.782  24.733  25.263  1.00  0.00     0.173 A 
ATOM     78  C   UNL A   1      42.213  23.856  26.838  1.00  0.00     0.173 A 
ATOM     79  F   UNL A   1      44.515  25.734  24.753  1.00  0.00    -0.203 F 
ATOM     80  C   UNL A   1      43.971  23.448  24.742  1.00  0.00     0.198 A 
ATOM     81  C   UNL A   1      42.399  22.575  26.314  1.00  0.00     0.198 A 
ATOM     82  F   UNL A   1      41.412  23.970  27.907  1.00  0.00    -0.203 F 
ATOM     83  F   UNL A   1      44.862  23.249  23.760  1.00  0.00    -0.200 F 
ATOM     84  C   UNL A   1      43.289  22.368  25.278  1.00  0.00     0.200 A 
ATOM     85  F   UNL A   1      41.761  21.533  26.865  1.00  0.00    -0.200 F 
ATOM     86  F   UNL A   1      43.522  21.128  24.826  1.00  0.00    -0.200 F 
ENDBRANCH  52  76
BRANCH  64  87
ATOM     87  C   UNL A   1      45.315  30.374  28.435  1.00  0.00     0.064 A 
ATOM     88  C   UNL A   1      44.272  31.024  27.751  1.00  0.00     0.173 A 
ATOM     89  C   UNL A   1      46.623  30.778  28.143  1.00  0.00     0.173 A 
ATOM     90  F   UNL A   1      42.990  30.770  28.040  1.00  0.00    -0.203 F 
ATOM     91  C   UNL A   1      44.533  31.999  26.790  1.00  0.00     0.198 A 
ATOM     92  C   UNL A   1      46.881  31.779  27.210  1.00  0.00     0.198 A 
ATOM     93  F   UNL A   1      47.657  30.233  28.803  1.00  0.00    -0.203 F 
ATOM     94  F   UNL A   1      43.520  32.595  26.142  1.00  0.00    -0.200 F 
ATOM     95  C   UNL A   1      45.837  32.381  26.527  1.00  0.00     0.200 A 
ATOM     96  F   UNL A   1      48.141  32.179  26.997  1.00  0.00    -0.200 F 
ATOM     97  F   UNL A   1      46.088  33.348  25.634  1.00  0.00    -0.200 F 
ENDBRANCH  64  87
ENDBRANCH  38  39
ENDBRANCH  30  33
ENDBRANCH  28  29
ENDBRANCH  27  28
ENDBRANCH  26  27
ENDBRANCH   1  26
TORSDOF 16
ENDMDL
