MODEL 1
REMARK VINA RESULT:     -12.6      0.000      0.000
REMARK SMILES N#Cc1ccc(-c2ccc(F)c(C(=O)NCCCCNC(=O)c3ccc(-c4c5nc(c(-c6c(F)c(F)c(F)c(F)c6F)c6ccc([nH]6)c(-c6c(F)c(F)c(F)c(F)c6F)c6nc(c(-c7c(F)c(F)c(F)c(F)c7F)c7ccc4[nH]7)C=C6)C=C5)cc3)c2)cc1
REMARK SMILES IDX 17 1 16 2 15 3 13 4 14 5 12 7 7 8 8 9 86 10 9 11 10 12 11 13
REMARK SMILES IDX 6 14 3 15 4 16 88 17 5 18 87 19 2 20 1 21 18 22 19 23 20 24
REMARK SMILES IDX 21 25 22 27 23 28 24 29 85 30 25 31 84 32 26 33 27 34 28 35
REMARK SMILES IDX 78 36 29 37 83 38 77 39 79 40 30 41 82 42 76 43 75 44 31 46
REMARK SMILES IDX 63 47 43 48 62 49 44 50 47 51 61 52 80 53 45 54 46 55 60 57
REMARK SMILES IDX 81 58 48 59 32 60 33 61 41 62 34 63 35 64 39 65 42 66 36 67
REMARK SMILES IDX 37 68 40 69 38 70 64 71 65 72 73 73 66 74 67 75 71 76 74 77
REMARK SMILES IDX 68 78 69 79 72 80 70 81 49 82 50 83 58 84 51 85 52 86 56 87
REMARK SMILES IDX 59 88 53 89 54 90 57 91 55 92
REMARK H PARENT 15 6 20 26 79 45 47 56
REMARK Flexibility Score: inf
ROOT
ATOM      1  C   UNL A   1      31.612  30.599  26.186  1.00  0.00     0.023 C 
ENDROOT
BRANCH   1   2
ATOM      2  C   UNL A   1      33.047  30.117  26.044  1.00  0.00     0.116 C 
BRANCH   2   3
ATOM      3  N   UNL A   1      33.422  29.720  24.701  1.00  0.00    -0.352 N 
ATOM      4  C   UNL A   1      33.410  28.492  24.079  1.00  0.00     0.254 C 
ATOM      5  O   UNL A   1      33.776  28.456  22.903  1.00  0.00    -0.269 OA
ATOM      6  H   UNL A   1      33.742  30.459  24.134  1.00  0.00     0.163 HD
BRANCH   4   7
ATOM      7  C   UNL A   1      33.066  27.211  24.758  1.00  0.00     0.076 A 
ATOM      8  C   UNL A   1      33.857  24.997  25.467  1.00  0.00    -0.017 A 
ATOM      9  C   UNL A   1      32.647  24.805  26.148  1.00  0.00     0.012 A 
ATOM     10  C   UNL A   1      34.078  26.232  24.830  1.00  0.00     0.025 A 
ATOM     11  C   UNL A   1      31.621  25.735  26.034  1.00  0.00     0.041 A 
ATOM     12  C   UNL A   1      31.811  26.880  25.265  1.00  0.00     0.135 A 
ATOM     13  F   UNL A   1      30.714  27.593  24.974  1.00  0.00    -0.206 F 
BRANCH   8  14
ATOM     14  C   UNL A   1      34.795  23.876  25.325  1.00  0.00    -0.018 A 
ATOM     15  C   UNL A   1      36.506  21.650  25.059  1.00  0.00     0.052 A 
ATOM     16  C   UNL A   1      37.032  22.922  25.309  1.00  0.00     0.020 A 
ATOM     17  C   UNL A   1      35.127  21.488  24.922  1.00  0.00     0.020 A 
ATOM     18  C   UNL A   1      36.181  24.030  25.437  1.00  0.00     0.010 A 
ATOM     19  C   UNL A   1      34.284  22.591  25.052  1.00  0.00     0.010 A 
BRANCH  15  20
ATOM     20  C   UNL A   1      37.369  20.510  24.948  1.00  0.00     0.099 C 
ATOM     21  N   UNL A   1      38.056  19.581  24.863  1.00  0.00    -0.192 NA
ENDBRANCH  15  20
ENDBRANCH   8  14
ENDBRANCH   4   7
ENDBRANCH   2   3
ENDBRANCH   1   2
BRANCH   1  22
ATOM     22  C   UNL A   1      31.412  31.939  26.874  1.00  0.00     0.023 C 
BRANCH  22  23
ATOM     23  C   UNL A   1      32.685  32.712  27.187  1.00  0.00     0.116 C 
BRANCH  23  24
ATOM     24  N   UNL A   1      32.450  34.091  27.594  1.00  0.00    -0.352 N 
ATOM     25  C   UNL A   1      33.091  34.830  28.561  1.00  0.00     0.251 C 
ATOM     26  H   UNL A   1      31.732  34.560  27.109  1.00  0.00     0.163 HD
ATOM     27  O   UNL A   1      32.685  35.948  28.864  1.00  0.00    -0.269 OA
BRANCH  25  28
ATOM     28  C   UNL A   1      34.258  34.254  29.258  1.00  0.00     0.039 A 
ATOM     29  C   UNL A   1      34.050  33.373  30.319  1.00  0.00     0.014 A 
ATOM     30  C   UNL A   1      35.554  34.553  28.832  1.00  0.00     0.014 A 
ATOM     31  C   UNL A   1      35.145  32.743  30.913  1.00  0.00     0.010 A 
ATOM     32  C   UNL A   1      36.629  33.840  29.346  1.00  0.00     0.010 A 
ATOM     33  C   UNL A   1      36.441  32.944  30.407  1.00  0.00    -0.014 A 
BRANCH  33  34
ATOM     34  C   UNL A   1      37.613  32.252  30.999  1.00  0.00     0.031 A 
ATOM     35  C   UNL A   1      38.095  32.632  32.372  1.00  0.00     0.074 A 
ATOM     36  C   UNL A   1      38.261  31.307  30.292  1.00  0.00     0.049 A 
ATOM     37  N   UNL A   1      39.107  32.156  33.053  1.00  0.00    -0.248 NA
ATOM     38  C   UNL A   1      37.364  33.707  33.064  1.00  0.00     0.031 C 
ATOM     39  C   UNL A   1      37.921  30.888  28.932  1.00  0.00     0.029 A 
ATOM     40  N   UNL A   1      39.341  30.523  30.619  1.00  0.00    -0.354 N 
ATOM     41  C   UNL A   1      39.129  32.873  34.243  1.00  0.00     0.074 A 
ATOM     42  C   UNL A   1      38.086  33.870  34.159  1.00  0.00     0.031 C 
ATOM     43  C   UNL A   1      38.741  29.895  28.560  1.00  0.00     0.029 A 
ATOM     44  C   UNL A   1      39.698  29.637  29.633  1.00  0.00     0.049 A 
ATOM     45  H   UNL A   1      39.815  30.592  31.480  1.00  0.00     0.167 HD
ATOM     46  C   UNL A   1      39.920  32.689  35.324  1.00  0.00     0.037 A 
ATOM     47  C   UNL A   1      40.684  28.721  29.596  1.00  0.00     0.037 A 
ATOM     48  C   UNL A   1      40.946  31.684  35.407  1.00  0.00     0.049 A 
ATOM     49  C   UNL A   1      41.573  28.553  30.798  1.00  0.00     0.074 A 
ATOM     50  C   UNL A   1      41.777  31.390  36.473  1.00  0.00     0.029 A 
ATOM     51  N   UNL A   1      41.284  30.812  34.382  1.00  0.00    -0.354 N 
ATOM     52  N   UNL A   1      41.545  29.195  31.942  1.00  0.00    -0.248 NA
ATOM     53  C   UNL A   1      42.624  27.531  30.711  1.00  0.00     0.031 C 
ATOM     54  C   UNL A   1      42.664  30.389  36.070  1.00  0.00     0.029 A 
ATOM     55  C   UNL A   1      42.333  30.000  34.782  1.00  0.00     0.049 A 
ATOM     56  H   UNL A   1      40.846  30.776  33.502  1.00  0.00     0.167 HD
ATOM     57  C   UNL A   1      42.551  28.635  32.720  1.00  0.00     0.074 A 
ATOM     58  C   UNL A   1      43.161  27.593  31.921  1.00  0.00     0.031 C 
ATOM     59  C   UNL A   1      42.929  28.958  33.981  1.00  0.00     0.037 A 
BRANCH  46  60
ATOM     60  C   UNL A   1      39.703  33.583  36.513  1.00  0.00     0.064 A 
ATOM     61  C   UNL A   1      38.828  33.204  37.541  1.00  0.00     0.173 A 
ATOM     62  C   UNL A   1      40.312  34.844  36.606  1.00  0.00     0.173 A 
ATOM     63  F   UNL A   1      38.214  32.011  37.502  1.00  0.00    -0.203 F 
ATOM     64  C   UNL A   1      38.559  34.058  38.607  1.00  0.00     0.198 A 
ATOM     65  C   UNL A   1      40.072  35.680  37.693  1.00  0.00     0.198 A 
ATOM     66  F   UNL A   1      41.170  35.253  35.657  1.00  0.00    -0.203 F 
ATOM     67  F   UNL A   1      37.688  33.689  39.556  1.00  0.00    -0.200 F 
ATOM     68  C   UNL A   1      39.187  35.291  38.686  1.00  0.00     0.200 A 
ATOM     69  F   UNL A   1      40.705  36.858  37.783  1.00  0.00    -0.200 F 
ATOM     70  F   UNL A   1      38.939  36.106  39.722  1.00  0.00    -0.200 F 
ENDBRANCH  46  60
BRANCH  47  71
ATOM     71  C   UNL A   1      40.844  27.867  28.388  1.00  0.00     0.064 A 
ATOM     72  C   UNL A   1      41.621  28.287  27.297  1.00  0.00     0.173 A 
ATOM     73  C   UNL A   1      40.185  26.635  28.281  1.00  0.00     0.173 A 
ATOM     74  F   UNL A   1      42.268  29.460  27.345  1.00  0.00    -0.203 F 
ATOM     75  C   UNL A   1      41.707  27.520  26.137  1.00  0.00     0.198 A 
ATOM     76  C   UNL A   1      40.298  25.854  27.133  1.00  0.00     0.198 A 
ATOM     77  F   UNL A   1      39.446  26.179  29.304  1.00  0.00    -0.203 F 
ATOM     78  F   UNL A   1      42.416  27.969  25.092  1.00  0.00    -0.200 F 
ATOM     79  C   UNL A   1      41.049  26.303  26.057  1.00  0.00     0.200 A 
ATOM     80  F   UNL A   1      39.682  24.667  27.069  1.00  0.00    -0.200 F 
ATOM     81  F   UNL A   1      41.138  25.563  24.943  1.00  0.00    -0.200 F 
ENDBRANCH  47  71
BRANCH  59  82
ATOM     82  C   UNL A   1      44.036  28.157  34.608  1.00  0.00     0.064 A 
ATOM     83  C   UNL A   1      43.742  26.984  35.323  1.00  0.00     0.173 A 
ATOM     84  C   UNL A   1      45.371  28.587  34.579  1.00  0.00     0.173 A 
ATOM     85  F   UNL A   1      42.480  26.534  35.394  1.00  0.00    -0.203 F 
ATOM     86  C   UNL A   1      44.737  26.286  35.999  1.00  0.00     0.198 A 
ATOM     87  C   UNL A   1      46.370  27.863  35.223  1.00  0.00     0.198 A 
ATOM     88  F   UNL A   1      45.708  29.696  33.903  1.00  0.00    -0.203 F 
ATOM     89  F   UNL A   1      44.422  25.197  36.714  1.00  0.00    -0.200 F 
ATOM     90  C   UNL A   1      46.051  26.722  35.942  1.00  0.00     0.200 A 
ATOM     91  F   UNL A   1      47.644  28.269  35.144  1.00  0.00    -0.200 F 
ATOM     92  F   UNL A   1      47.012  26.040  36.582  1.00  0.00    -0.200 F 
ENDBRANCH  59  82
ENDBRANCH  33  34
ENDBRANCH  25  28
ENDBRANCH  23  24
ENDBRANCH  22  23
ENDBRANCH   1  22
TORSDOF 13
ENDMDL
MODEL 2
REMARK VINA RESULT:     -12.6      0.481      7.370
REMARK SMILES N#Cc1ccc(-c2ccc(F)c(C(=O)NCCCCNC(=O)c3ccc(-c4c5nc(c(-c6c(F)c(F)c(F)c(F)c6F)c6ccc([nH]6)c(-c6c(F)c(F)c(F)c(F)c6F)c6nc(c(-c7c(F)c(F)c(F)c(F)c7F)c7ccc4[nH]7)C=C6)C=C5)cc3)c2)cc1
REMARK SMILES IDX 17 1 16 2 15 3 13 4 14 5 12 7 7 8 8 9 86 10 9 11 10 12 11 13
REMARK SMILES IDX 6 14 3 15 4 16 88 17 5 18 87 19 2 20 1 21 18 22 19 23 20 24
REMARK SMILES IDX 21 25 22 27 23 28 24 29 85 30 25 31 84 32 26 33 27 34 28 35
REMARK SMILES IDX 78 36 29 37 83 38 77 39 79 40 30 41 82 42 76 43 75 44 31 46
REMARK SMILES IDX 63 47 43 48 62 49 44 50 47 51 61 52 80 53 45 54 46 55 60 57
REMARK SMILES IDX 81 58 48 59 32 60 33 61 41 62 34 63 35 64 39 65 42 66 36 67
REMARK SMILES IDX 37 68 40 69 38 70 64 71 65 72 73 73 66 74 67 75 71 76 74 77
REMARK SMILES IDX 68 78 69 79 72 80 70 81 49 82 50 83 58 84 51 85 52 86 56 87
REMARK SMILES IDX 59 88 53 89 54 90 57 91 55 92
REMARK H PARENT 15 6 20 26 79 45 47 56
REMARK Flexibility Score: inf
ROOT
ATOM      1  C   UNL A   1      31.590  30.579  26.378  1.00  0.00     0.023 C 
ENDROOT
BRANCH   1   2
ATOM      2  C   UNL A   1      32.999  30.074  26.109  1.00  0.00     0.116 C 
BRANCH   2   3
ATOM      3  N   UNL A   1      33.257  29.706  24.731  1.00  0.00    -0.352 N 
ATOM      4  C   UNL A   1      33.165  28.497  24.079  1.00  0.00     0.254 C 
ATOM      5  O   UNL A   1      33.437  28.485  22.877  1.00  0.00    -0.269 OA
ATOM      6  H   UNL A   1      33.552  30.453  24.160  1.00  0.00     0.163 HD
BRANCH   4   7
ATOM      7  C   UNL A   1      32.840  27.206  24.748  1.00  0.00     0.076 A 
ATOM      8  C   UNL A   1      33.675  25.013  25.470  1.00  0.00    -0.017 A 
ATOM      9  C   UNL A   1      32.456  24.787  26.126  1.00  0.00     0.012 A 
ATOM     10  C   UNL A   1      33.876  26.254  24.841  1.00  0.00     0.025 A 
ATOM     11  C   UNL A   1      31.409  25.690  25.992  1.00  0.00     0.041 A 
ATOM     12  C   UNL A   1      31.584  26.840  25.229  1.00  0.00     0.135 A 
ATOM     13  F   UNL A   1      30.475  27.525  24.916  1.00  0.00    -0.206 F 
BRANCH   8  14
ATOM     14  C   UNL A   1      34.645  23.917  25.346  1.00  0.00    -0.018 A 
ATOM     15  C   UNL A   1      36.419  21.738  25.100  1.00  0.00     0.052 A 
ATOM     16  C   UNL A   1      36.890  22.995  25.496  1.00  0.00     0.020 A 
ATOM     17  C   UNL A   1      35.065  21.570  24.807  1.00  0.00     0.020 A 
ATOM     18  C   UNL A   1      36.009  24.079  25.614  1.00  0.00     0.010 A 
ATOM     19  C   UNL A   1      34.192  22.650  24.928  1.00  0.00     0.010 A 
BRANCH  15  20
ATOM     20  C   UNL A   1      37.312  20.621  24.998  1.00  0.00     0.099 C 
ATOM     21  N   UNL A   1      38.034  19.718  24.930  1.00  0.00    -0.192 NA
ENDBRANCH  15  20
ENDBRANCH   8  14
ENDBRANCH   4   7
ENDBRANCH   2   3
ENDBRANCH   1   2
BRANCH   1  22
ATOM     22  C   UNL A   1      31.437  32.075  26.597  1.00  0.00     0.023 C 
BRANCH  22  23
ATOM     23  C   UNL A   1      32.627  32.767  27.246  1.00  0.00     0.116 C 
BRANCH  23  24
ATOM     24  N   UNL A   1      32.367  34.150  27.625  1.00  0.00    -0.352 N 
ATOM     25  C   UNL A   1      32.953  34.902  28.617  1.00  0.00     0.251 C 
ATOM     26  H   UNL A   1      31.674  34.611  27.098  1.00  0.00     0.163 HD
ATOM     27  O   UNL A   1      32.528  36.021  28.886  1.00  0.00    -0.269 OA
BRANCH  25  28
ATOM     28  C   UNL A   1      34.083  34.336  29.381  1.00  0.00     0.039 A 
ATOM     29  C   UNL A   1      33.820  33.552  30.505  1.00  0.00     0.014 A 
ATOM     30  C   UNL A   1      35.398  34.548  28.959  1.00  0.00     0.014 A 
ATOM     31  C   UNL A   1      34.878  32.929  31.169  1.00  0.00     0.010 A 
ATOM     32  C   UNL A   1      36.433  33.835  29.549  1.00  0.00     0.010 A 
ATOM     33  C   UNL A   1      36.190  33.036  30.674  1.00  0.00    -0.014 A 
BRANCH  33  34
ATOM     34  C   UNL A   1      37.322  32.347  31.343  1.00  0.00     0.031 A 
ATOM     35  C   UNL A   1      38.018  31.205  30.654  1.00  0.00     0.074 A 
ATOM     36  C   UNL A   1      37.701  32.724  32.579  1.00  0.00     0.049 A 
ATOM     37  N   UNL A   1      39.013  30.468  31.078  1.00  0.00    -0.248 NA
ATOM     38  C   UNL A   1      37.515  30.820  29.325  1.00  0.00     0.031 C 
ATOM     39  C   UNL A   1      37.071  33.781  33.369  1.00  0.00     0.029 A 
ATOM     40  N   UNL A   1      38.712  32.264  33.387  1.00  0.00    -0.354 N 
ATOM     41  C   UNL A   1      39.249  29.540  30.071  1.00  0.00     0.074 A 
ATOM     42  C   UNL A   1      38.243  29.750  29.055  1.00  0.00     0.031 C 
ATOM     43  C   UNL A   1      37.736  33.922  34.525  1.00  0.00     0.029 A 
ATOM     44  C   UNL A   1      38.810  32.933  34.582  1.00  0.00     0.049 A 
ATOM     45  H   UNL A   1      39.309  31.523  33.133  1.00  0.00     0.167 HD
ATOM     46  C   UNL A   1      40.239  28.623  29.984  1.00  0.00     0.037 A 
ATOM     47  C   UNL A   1      39.666  32.769  35.608  1.00  0.00     0.037 A 
ATOM     48  C   UNL A   1      41.247  28.431  30.993  1.00  0.00     0.049 A 
ATOM     49  C   UNL A   1      40.742  31.722  35.503  1.00  0.00     0.074 A 
ATOM     50  C   UNL A   1      42.317  27.554  30.982  1.00  0.00     0.029 A 
ATOM     51  N   UNL A   1      41.305  29.122  32.195  1.00  0.00    -0.354 N 
ATOM     52  N   UNL A   1      40.993  30.892  34.520  1.00  0.00    -0.248 NA
ATOM     53  C   UNL A   1      41.659  31.595  36.644  1.00  0.00     0.031 C 
ATOM     54  C   UNL A   1      42.981  27.665  32.206  1.00  0.00     0.029 A 
ATOM     55  C   UNL A   1      42.377  28.668  32.946  1.00  0.00     0.049 A 
ATOM     56  H   UNL A   1      40.678  29.828  32.473  1.00  0.00     0.167 HD
ATOM     57  C   UNL A   1      42.112  30.165  34.909  1.00  0.00     0.074 A 
ATOM     58  C   UNL A   1      42.497  30.663  36.213  1.00  0.00     0.031 C 
ATOM     59  C   UNL A   1      42.758  29.177  34.242  1.00  0.00     0.037 A 
BRANCH  46  60
ATOM     60  C   UNL A   1      40.293  27.765  28.751  1.00  0.00     0.064 A 
ATOM     61  C   UNL A   1      39.643  26.522  28.718  1.00  0.00     0.173 A 
ATOM     62  C   UNL A   1      41.040  28.142  27.624  1.00  0.00     0.173 A 
ATOM     63  F   UNL A   1      38.918  26.109  29.769  1.00  0.00    -0.203 F 
ATOM     64  C   UNL A   1      39.752  25.684  27.612  1.00  0.00     0.198 A 
ATOM     65  C   UNL A   1      41.114  27.319  26.504  1.00  0.00     0.198 A 
ATOM     66  F   UNL A   1      41.671  29.326  27.596  1.00  0.00    -0.203 F 
ATOM     67  F   UNL A   1      39.154  24.485  27.620  1.00  0.00    -0.200 F 
ATOM     68  C   UNL A   1      40.480  26.086  26.503  1.00  0.00     0.200 A 
ATOM     69  F   UNL A   1      41.793  27.724  25.421  1.00  0.00    -0.200 F 
ATOM     70  F   UNL A   1      40.571  25.285  25.432  1.00  0.00    -0.200 F 
ENDBRANCH  46  60
BRANCH  47  71
ATOM     71  C   UNL A   1      39.558  33.653  36.799  1.00  0.00     0.064 A 
ATOM     72  C   UNL A   1      38.753  33.305  37.895  1.00  0.00     0.173 A 
ATOM     73  C   UNL A   1      40.220  34.888  36.846  1.00  0.00     0.173 A 
ATOM     74  F   UNL A   1      38.092  32.138  37.899  1.00  0.00    -0.203 F 
ATOM     75  C   UNL A   1      38.592  34.170  38.975  1.00  0.00     0.198 A 
ATOM     76  C   UNL A   1      40.086  35.737  37.942  1.00  0.00     0.198 A 
ATOM     77  F   UNL A   1      41.019  35.259  35.834  1.00  0.00    -0.203 F 
ATOM     78  F   UNL A   1      37.779  33.832  39.985  1.00  0.00    -0.200 F 
ATOM     79  C   UNL A   1      39.262  35.383  39.000  1.00  0.00     0.200 A 
ATOM     80  F   UNL A   1      40.754  36.897  37.974  1.00  0.00    -0.200 F 
ATOM     81  F   UNL A   1      39.113  36.211  40.043  1.00  0.00    -0.200 F 
ENDBRANCH  47  71
BRANCH  59  82
ATOM     82  C   UNL A   1      43.979  28.579  34.883  1.00  0.00     0.064 A 
ATOM     83  C   UNL A   1      43.858  27.473  35.739  1.00  0.00     0.173 A 
ATOM     84  C   UNL A   1      45.252  29.146  34.723  1.00  0.00     0.173 A 
ATOM     85  F   UNL A   1      42.661  26.899  35.937  1.00  0.00    -0.203 F 
ATOM     86  C   UNL A   1      44.959  26.970  36.424  1.00  0.00     0.198 A 
ATOM     87  C   UNL A   1      46.359  28.615  35.380  1.00  0.00     0.198 A 
ATOM     88  F   UNL A   1      45.426  30.200  33.910  1.00  0.00    -0.203 F 
ATOM     89  F   UNL A   1      44.808  25.944  37.273  1.00  0.00    -0.200 F 
ATOM     90  C   UNL A   1      46.210  27.537  36.239  1.00  0.00     0.200 A 
ATOM     91  F   UNL A   1      47.573  29.147  35.178  1.00  0.00    -0.200 F 
ATOM     92  F   UNL A   1      47.274  27.043  36.888  1.00  0.00    -0.200 F 
ENDBRANCH  59  82
ENDBRANCH  33  34
ENDBRANCH  25  28
ENDBRANCH  23  24
ENDBRANCH  22  23
ENDBRANCH   1  22
TORSDOF 13
ENDMDL
MODEL 3
REMARK VINA RESULT:     -12.5      5.197     10.793
REMARK SMILES N#Cc1ccc(-c2ccc(F)c(C(=O)NCCCCNC(=O)c3ccc(-c4c5nc(c(-c6c(F)c(F)c(F)c(F)c6F)c6ccc([nH]6)c(-c6c(F)c(F)c(F)c(F)c6F)c6nc(c(-c7c(F)c(F)c(F)c(F)c7F)c7ccc4[nH]7)C=C6)C=C5)cc3)c2)cc1
REMARK SMILES IDX 17 1 16 2 15 3 13 4 14 5 12 7 7 8 8 9 86 10 9 11 10 12 11 13
REMARK SMILES IDX 6 14 3 15 4 16 88 17 5 18 87 19 2 20 1 21 18 22 19 23 20 24
REMARK SMILES IDX 21 25 22 27 23 28 24 29 85 30 25 31 84 32 26 33 27 34 28 35
REMARK SMILES IDX 78 36 29 37 83 38 77 39 79 40 30 41 82 42 76 43 75 44 31 46
REMARK SMILES IDX 63 47 43 48 62 49 44 50 47 51 61 52 80 53 45 54 46 55 60 57
REMARK SMILES IDX 81 58 48 59 32 60 33 61 41 62 34 63 35 64 39 65 42 66 36 67
REMARK SMILES IDX 37 68 40 69 38 70 64 71 65 72 73 73 66 74 67 75 71 76 74 77
REMARK SMILES IDX 68 78 69 79 72 80 70 81 49 82 50 83 58 84 51 85 52 86 56 87
REMARK SMILES IDX 59 88 53 89 54 90 57 91 55 92
REMARK H PARENT 15 6 20 26 79 45 47 56
REMARK Flexibility Score: inf
ROOT
ATOM      1  C   UNL A   1      37.231  20.909  24.622  1.00  0.00     0.023 C 
ENDROOT
BRANCH   1   2
ATOM      2  C   UNL A   1      37.086  21.997  25.675  1.00  0.00     0.116 C 
BRANCH   2   3
ATOM      3  N   UNL A   1      35.901  21.885  26.502  1.00  0.00    -0.352 N 
ATOM      4  C   UNL A   1      34.650  22.446  26.381  1.00  0.00     0.254 C 
ATOM      5  O   UNL A   1      33.818  22.155  27.242  1.00  0.00    -0.269 OA
ATOM      6  H   UNL A   1      36.010  21.305  27.290  1.00  0.00     0.163 HD
BRANCH   4   7
ATOM      7  C   UNL A   1      34.273  23.436  25.332  1.00  0.00     0.076 A 
ATOM      8  C   UNL A   1      33.731  25.779  24.835  1.00  0.00    -0.017 A 
ATOM      9  C   UNL A   1      33.724  25.465  23.468  1.00  0.00     0.012 A 
ATOM     10  C   UNL A   1      34.072  24.767  25.751  1.00  0.00     0.025 A 
ATOM     11  C   UNL A   1      33.862  24.149  23.048  1.00  0.00     0.041 A 
ATOM     12  C   UNL A   1      34.041  23.140  23.990  1.00  0.00     0.135 A 
ATOM     13  F   UNL A   1      33.896  21.881  23.554  1.00  0.00    -0.206 F 
BRANCH   8  14
ATOM     14  C   UNL A   1      33.263  27.098  25.278  1.00  0.00    -0.018 A 
ATOM     15  C   UNL A   1      32.280  29.626  26.050  1.00  0.00     0.052 A 
ATOM     16  C   UNL A   1      33.525  29.180  26.508  1.00  0.00     0.020 A 
ATOM     17  C   UNL A   1      31.514  28.805  25.223  1.00  0.00     0.020 A 
ATOM     18  C   UNL A   1      34.012  27.921  26.127  1.00  0.00     0.010 A 
ATOM     19  C   UNL A   1      32.002  27.555  24.845  1.00  0.00     0.010 A 
BRANCH  15  20
ATOM     20  C   UNL A   1      31.787  30.921  26.419  1.00  0.00     0.099 C 
ATOM     21  N   UNL A   1      31.402  31.972  26.720  1.00  0.00    -0.192 NA
ENDBRANCH  15  20
ENDBRANCH   8  14
ENDBRANCH   4   7
ENDBRANCH   2   3
ENDBRANCH   1   2
BRANCH   1  22
ATOM     22  C   UNL A   1      38.106  19.723  24.989  1.00  0.00     0.023 C 
BRANCH  22  23
ATOM     23  C   UNL A   1      39.287  20.035  25.896  1.00  0.00     0.116 C 
BRANCH  23  24
ATOM     24  N   UNL A   1      40.362  19.055  25.819  1.00  0.00    -0.352 N 
ATOM     25  C   UNL A   1      41.717  19.240  25.969  1.00  0.00     0.251 C 
ATOM     26  H   UNL A   1      40.080  18.130  25.634  1.00  0.00     0.163 HD
ATOM     27  O   UNL A   1      42.501  18.323  25.751  1.00  0.00    -0.269 OA
BRANCH  25  28
ATOM     28  C   UNL A   1      42.225  20.569  26.367  1.00  0.00     0.039 A 
ATOM     29  C   UNL A   1      42.603  21.477  25.377  1.00  0.00     0.014 A 
ATOM     30  C   UNL A   1      42.287  20.927  27.716  1.00  0.00     0.014 A 
ATOM     31  C   UNL A   1      42.984  22.769  25.742  1.00  0.00     0.010 A 
ATOM     32  C   UNL A   1      42.554  22.244  28.066  1.00  0.00     0.010 A 
ATOM     33  C   UNL A   1      42.928  23.174  27.087  1.00  0.00    -0.014 A 
BRANCH  33  34
ATOM     34  C   UNL A   1      43.289  24.557  27.488  1.00  0.00     0.031 A 
ATOM     35  C   UNL A   1      44.733  24.976  27.520  1.00  0.00     0.074 A 
ATOM     36  C   UNL A   1      42.325  25.423  27.855  1.00  0.00     0.049 A 
ATOM     37  N   UNL A   1      45.251  26.130  27.856  1.00  0.00    -0.248 NA
ATOM     38  C   UNL A   1      45.733  23.960  27.151  1.00  0.00     0.031 C 
ATOM     39  C   UNL A   1      40.896  25.118  27.916  1.00  0.00     0.029 A 
ATOM     40  N   UNL A   1      42.400  26.738  28.244  1.00  0.00    -0.354 N 
ATOM     41  C   UNL A   1      46.627  25.974  27.740  1.00  0.00     0.074 A 
ATOM     42  C   UNL A   1      46.870  24.594  27.384  1.00  0.00     0.031 C 
ATOM     43  C   UNL A   1      40.225  26.224  28.270  1.00  0.00     0.029 A 
ATOM     44  C   UNL A   1      41.178  27.305  28.510  1.00  0.00     0.049 A 
ATOM     45  H   UNL A   1      43.251  27.228  28.324  1.00  0.00     0.167 HD
ATOM     46  C   UNL A   1      47.597  26.905  27.877  1.00  0.00     0.037 A 
ATOM     47  C   UNL A   1      40.860  28.553  28.904  1.00  0.00     0.037 A 
ATOM     48  C   UNL A   1      47.347  28.282  28.216  1.00  0.00     0.049 A 
ATOM     49  C   UNL A   1      41.958  29.566  29.080  1.00  0.00     0.074 A 
ATOM     50  C   UNL A   1      48.258  29.315  28.341  1.00  0.00     0.029 A 
ATOM     51  N   UNL A   1      46.095  28.814  28.489  1.00  0.00    -0.354 N 
ATOM     52  N   UNL A   1      43.250  29.423  28.907  1.00  0.00    -0.248 NA
ATOM     53  C   UNL A   1      41.556  30.916  29.496  1.00  0.00     0.031 C 
ATOM     54  C   UNL A   1      47.567  30.455  28.758  1.00  0.00     0.029 A 
ATOM     55  C   UNL A   1      46.215  30.156  28.811  1.00  0.00     0.049 A 
ATOM     56  H   UNL A   1      45.248  28.314  28.458  1.00  0.00     0.167 HD
ATOM     57  C   UNL A   1      43.812  30.668  29.164  1.00  0.00     0.074 A 
ATOM     58  C   UNL A   1      42.716  31.557  29.491  1.00  0.00     0.031 C 
ATOM     59  C   UNL A   1      45.116  31.036  29.128  1.00  0.00     0.037 A 
BRANCH  46  60
ATOM     60  C   UNL A   1      49.019  26.476  27.648  1.00  0.00     0.064 A 
ATOM     61  C   UNL A   1      49.870  26.219  28.734  1.00  0.00     0.173 A 
ATOM     62  C   UNL A   1      49.560  26.379  26.357  1.00  0.00     0.173 A 
ATOM     63  F   UNL A   1      49.408  26.301  29.991  1.00  0.00    -0.203 F 
ATOM     64  C   UNL A   1      51.210  25.898  28.535  1.00  0.00     0.198 A 
ATOM     65  C   UNL A   1      50.891  26.019  26.161  1.00  0.00     0.198 A 
ATOM     66  F   UNL A   1      48.788  26.600  25.281  1.00  0.00    -0.203 F 
ATOM     67  F   UNL A   1      52.012  25.697  29.589  1.00  0.00    -0.200 F 
ATOM     68  C   UNL A   1      51.717  25.790  27.250  1.00  0.00     0.200 A 
ATOM     69  F   UNL A   1      51.370  25.884  24.916  1.00  0.00    -0.200 F 
ATOM     70  F   UNL A   1      53.004  25.465  27.060  1.00  0.00    -0.200 F 
ENDBRANCH  46  60
BRANCH  47  71
ATOM     71  C   UNL A   1      39.432  28.912  29.112  1.00  0.00     0.064 A 
ATOM     72  C   UNL A   1      38.639  29.387  28.055  1.00  0.00     0.173 A 
ATOM     73  C   UNL A   1      38.844  28.833  30.381  1.00  0.00     0.173 A 
ATOM     74  F   UNL A   1      39.154  29.489  26.821  1.00  0.00    -0.203 F 
ATOM     75  C   UNL A   1      37.324  29.796  28.269  1.00  0.00     0.198 A 
ATOM     76  C   UNL A   1      37.519  29.210  30.587  1.00  0.00     0.198 A 
ATOM     77  F   UNL A   1      39.553  28.366  31.420  1.00  0.00    -0.203 F 
ATOM     78  F   UNL A   1      36.607  30.292  27.252  1.00  0.00    -0.200 F 
ATOM     79  C   UNL A   1      36.764  29.704  29.533  1.00  0.00     0.200 A 
ATOM     80  F   UNL A   1      36.973  29.096  31.805  1.00  0.00    -0.200 F 
ATOM     81  F   UNL A   1      35.497  30.090  29.736  1.00  0.00    -0.200 F 
ENDBRANCH  47  71
BRANCH  59  82
ATOM     82  C   UNL A   1      45.448  32.474  29.415  1.00  0.00     0.064 A 
ATOM     83  C   UNL A   1      45.481  33.413  28.371  1.00  0.00     0.173 A 
ATOM     84  C   UNL A   1      45.813  32.909  30.697  1.00  0.00     0.173 A 
ATOM     85  F   UNL A   1      45.152  33.048  27.122  1.00  0.00    -0.203 F 
ATOM     86  C   UNL A   1      45.887  34.724  28.597  1.00  0.00     0.198 A 
ATOM     87  C   UNL A   1      46.180  34.232  30.927  1.00  0.00     0.198 A 
ATOM     88  F   UNL A   1      45.790  32.055  31.733  1.00  0.00    -0.203 F 
ATOM     89  F   UNL A   1      45.957  35.588  27.574  1.00  0.00    -0.200 F 
ATOM     90  C   UNL A   1      46.229  35.135  29.875  1.00  0.00     0.200 A 
ATOM     91  F   UNL A   1      46.484  34.635  32.168  1.00  0.00    -0.200 F 
ATOM     92  F   UNL A   1      46.606  36.402  30.095  1.00  0.00    -0.200 F 
ENDBRANCH  59  82
ENDBRANCH  33  34
ENDBRANCH  25  28
ENDBRANCH  23  24
ENDBRANCH  22  23
ENDBRANCH   1  22
TORSDOF 13
ENDMDL
