MODEL 1
REMARK VINA RESULT:     -12.1      0.000      0.000
REMARK SMILES O=C(NCCCCNC(=O)c1cc2ccccc2cc1OCCO)c1ccc(-c2c3nc(c(-c4c(F)c(F)c(F)c(F)c4F)c4ccc([nH]4)c(-c4c(F)c(F)c(F)c(F)c4F)c4nc(c(-c5c(F)c(F)c(F)c(F)c5F)c5ccc2[nH]5)C=C4)C=C3)cc1
REMARK SMILES IDX 6 1 5 2 4 3 3 4 1 5 2 6 25 8 26 9 87 10 27 11 86 12 28 13
REMARK SMILES IDX 29 14 30 15 80 16 31 17 85 18 79 19 81 20 32 21 84 22 78 23
REMARK SMILES IDX 77 24 33 26 65 27 45 28 64 29 46 30 49 31 63 32 82 33 47 34
REMARK SMILES IDX 48 35 62 37 83 38 50 39 34 40 35 41 43 42 36 43 37 44 41 45
REMARK SMILES IDX 44 46 38 47 39 48 42 49 40 50 66 51 67 52 75 53 68 54 69 55
REMARK SMILES IDX 73 56 76 57 70 58 71 59 74 60 72 61 51 62 52 63 60 64 53 65
REMARK SMILES IDX 54 66 58 67 61 68 55 69 56 70 59 71 57 72 7 73 8 74 9 75
REMARK SMILES IDX 10 77 11 78 12 79 20 80 13 81 19 82 14 83 18 84 15 85 17 86
REMARK SMILES IDX 16 87 21 88 22 89 23 90 24 91
REMARK H PARENT 3 7 81 25 49 36 8 76 24 92
REMARK Flexibility Score: inf
ROOT
ATOM      1  C   UNL A   1      31.450  30.822  26.004  1.00  0.00     0.023 C 
ENDROOT
BRANCH   1   2
ATOM      2  C   UNL A   1      31.341  32.268  26.500  1.00  0.00     0.023 C 
BRANCH   2   3
ATOM      3  C   UNL A   1      32.595  32.875  27.116  1.00  0.00     0.116 C 
BRANCH   3   4
ATOM      4  N   UNL A   1      32.400  34.203  27.669  1.00  0.00    -0.352 N 
ATOM      5  O   UNL A   1      32.675  35.957  29.059  1.00  0.00    -0.269 OA
ATOM      6  C   UNL A   1      33.069  34.858  28.674  1.00  0.00     0.251 C 
ATOM      7  H   UNL A   1      31.668  34.717  27.258  1.00  0.00     0.163 HD
BRANCH   6   8
ATOM      8  C   UNL A   1      34.243  34.241  29.335  1.00  0.00     0.039 A 
ATOM      9  C   UNL A   1      35.548  34.529  28.931  1.00  0.00     0.014 A 
ATOM     10  C   UNL A   1      34.027  33.375  30.413  1.00  0.00     0.014 A 
ATOM     11  C   UNL A   1      36.619  33.834  29.491  1.00  0.00     0.010 A 
ATOM     12  C   UNL A   1      35.111  32.740  31.030  1.00  0.00     0.010 A 
ATOM     13  C   UNL A   1      36.414  32.930  30.546  1.00  0.00    -0.014 A 
BRANCH  13  14
ATOM     14  C   UNL A   1      37.572  32.219  31.149  1.00  0.00     0.031 A 
ATOM     15  C   UNL A   1      38.045  32.548  32.540  1.00  0.00     0.074 A 
ATOM     16  C   UNL A   1      38.195  31.256  30.443  1.00  0.00     0.049 A 
ATOM     17  N   UNL A   1      39.033  32.023  33.224  1.00  0.00    -0.248 NA
ATOM     18  C   UNL A   1      37.323  33.611  33.255  1.00  0.00     0.031 C 
ATOM     19  C   UNL A   1      37.843  30.854  29.080  1.00  0.00     0.029 A 
ATOM     20  N   UNL A   1      39.243  30.434  30.772  1.00  0.00    -0.354 N 
ATOM     21  C   UNL A   1      39.060  32.699  34.437  1.00  0.00     0.074 A 
ATOM     22  C   UNL A   1      38.009  33.693  34.388  1.00  0.00     0.031 C 
ATOM     23  C   UNL A   1      38.639  29.844  28.701  1.00  0.00     0.029 A 
ATOM     24  C   UNL A   1      39.591  29.561  29.771  1.00  0.00     0.049 A 
ATOM     25  H   UNL A   1      39.704  30.470  31.642  1.00  0.00     0.167 HD
ATOM     26  C   UNL A   1      39.880  32.501  35.499  1.00  0.00     0.037 A 
ATOM     27  C   UNL A   1      40.574  28.643  29.712  1.00  0.00     0.037 A 
ATOM     28  C   UNL A   1      40.914  31.499  35.555  1.00  0.00     0.049 A 
ATOM     29  C   UNL A   1      41.481  28.459  30.896  1.00  0.00     0.074 A 
ATOM     30  C   UNL A   1      41.762  31.192  36.606  1.00  0.00     0.029 A 
ATOM     31  N   UNL A   1      41.248  30.647  34.512  1.00  0.00    -0.354 N 
ATOM     32  N   UNL A   1      41.464  29.073  32.053  1.00  0.00    -0.248 NA
ATOM     33  C   UNL A   1      42.544  27.453  30.763  1.00  0.00     0.031 C 
ATOM     34  C   UNL A   1      42.639  30.186  36.183  1.00  0.00     0.029 A 
ATOM     35  C   UNL A   1      42.306  29.832  34.886  1.00  0.00     0.049 A 
ATOM     36  H   UNL A   1      40.799  30.624  33.636  1.00  0.00     0.167 HD
ATOM     37  C   UNL A   1      42.500  28.519  32.793  1.00  0.00     0.074 A 
ATOM     38  C   UNL A   1      43.112  27.505  31.960  1.00  0.00     0.031 C 
ATOM     39  C   UNL A   1      42.908  28.827  34.048  1.00  0.00     0.037 A 
BRANCH  26  40
ATOM     40  C   UNL A   1      39.705  33.395  36.693  1.00  0.00     0.064 A 
ATOM     41  C   UNL A   1      40.388  34.614  36.809  1.00  0.00     0.173 A 
ATOM     42  C   UNL A   1      38.796  33.054  37.708  1.00  0.00     0.173 A 
ATOM     43  F   UNL A   1      41.275  34.983  35.872  1.00  0.00    -0.203 F 
ATOM     44  C   UNL A   1      40.187  35.447  37.908  1.00  0.00     0.198 A 
ATOM     45  C   UNL A   1      38.578  33.902  38.791  1.00  0.00     0.198 A 
ATOM     46  F   UNL A   1      38.108  31.904  37.641  1.00  0.00    -0.203 F 
ATOM     47  F   UNL A   1      40.882  36.588  38.018  1.00  0.00    -0.200 F 
ATOM     48  C   UNL A   1      39.278  35.094  38.893  1.00  0.00     0.200 A 
ATOM     49  F   UNL A   1      37.687  33.566  39.735  1.00  0.00    -0.200 F 
ATOM     50  F   UNL A   1      39.080  35.901  39.945  1.00  0.00    -0.200 F 
ENDBRANCH  26  40
BRANCH  27  51
ATOM     51  C   UNL A   1      40.746  27.831  28.481  1.00  0.00     0.064 A 
ATOM     52  C   UNL A   1      40.074  26.613  28.319  1.00  0.00     0.173 A 
ATOM     53  C   UNL A   1      41.577  28.265  27.437  1.00  0.00     0.173 A 
ATOM     54  F   UNL A   1      39.287  26.147  29.299  1.00  0.00    -0.203 F 
ATOM     55  C   UNL A   1      40.235  25.852  27.163  1.00  0.00     0.198 A 
ATOM     56  C   UNL A   1      41.714  27.518  26.270  1.00  0.00     0.198 A 
ATOM     57  F   UNL A   1      42.240  29.425  27.543  1.00  0.00    -0.203 F 
ATOM     58  F   UNL A   1      39.612  24.672  27.048  1.00  0.00    -0.200 F 
ATOM     59  C   UNL A   1      41.048  26.308  26.136  1.00  0.00     0.200 A 
ATOM     60  F   UNL A   1      42.488  27.970  25.274  1.00  0.00    -0.200 F 
ATOM     61  F   UNL A   1      41.195  25.581  25.020  1.00  0.00    -0.200 F 
ENDBRANCH  27  51
BRANCH  39  62
ATOM     62  C   UNL A   1      44.058  28.041  34.607  1.00  0.00     0.064 A 
ATOM     63  C   UNL A   1      43.859  26.823  35.274  1.00  0.00     0.173 A 
ATOM     64  C   UNL A   1      45.375  28.497  34.449  1.00  0.00     0.173 A 
ATOM     65  F   UNL A   1      42.617  26.353  35.466  1.00  0.00    -0.203 F 
ATOM     66  C   UNL A   1      44.936  26.104  35.786  1.00  0.00     0.198 A 
ATOM     67  C   UNL A   1      46.451  27.762  34.938  1.00  0.00     0.198 A 
ATOM     68  F   UNL A   1      45.619  29.653  33.814  1.00  0.00    -0.203 F 
ATOM     69  F   UNL A   1      44.720  24.968  36.463  1.00  0.00    -0.200 F 
ATOM     70  C   UNL A   1      46.231  26.571  35.612  1.00  0.00     0.200 A 
ATOM     71  F   UNL A   1      47.702  28.207  34.759  1.00  0.00    -0.200 F 
ATOM     72  F   UNL A   1      47.266  25.875  36.102  1.00  0.00    -0.200 F 
ENDBRANCH  39  62
ENDBRANCH  13  14
ENDBRANCH   6   8
ENDBRANCH   3   4
ENDBRANCH   2   3
ENDBRANCH   1   2
BRANCH   1  73
ATOM     73  C   UNL A   1      32.727  30.050  26.352  1.00  0.00     0.116 C 
BRANCH  73  74
ATOM     74  N   UNL A   1      33.549  29.711  25.204  1.00  0.00    -0.352 N 
ATOM     75  C   UNL A   1      33.399  28.643  24.353  1.00  0.00     0.255 C 
ATOM     76  H   UNL A   1      34.301  30.318  25.013  1.00  0.00     0.163 HD
ATOM     77  O   UNL A   1      34.057  28.573  23.320  1.00  0.00    -0.269 OA
BRANCH  75  78
ATOM     78  C   UNL A   1      32.506  27.532  24.724  1.00  0.00     0.082 A 
ATOM     79  C   UNL A   1      33.151  26.443  25.342  1.00  0.00     0.026 A 
ATOM     80  C   UNL A   1      31.127  27.500  24.512  1.00  0.00     0.132 A 
ATOM     81  C   UNL A   1      32.423  25.336  25.805  1.00  0.00    -0.017 A 
ATOM     82  C   UNL A   1      30.401  26.398  24.991  1.00  0.00     0.056 A 
ATOM     83  C   UNL A   1      33.047  24.249  26.440  1.00  0.00     0.009 A 
ATOM     84  C   UNL A   1      31.024  25.321  25.639  1.00  0.00    -0.015 A 
ATOM     85  C   UNL A   1      32.293  23.174  26.915  1.00  0.00     0.001 A 
ATOM     86  C   UNL A   1      30.278  24.236  26.126  1.00  0.00     0.009 A 
ATOM     87  C   UNL A   1      30.910  23.170  26.765  1.00  0.00     0.001 A 
BRANCH  80  88
ATOM     88  O   UNL A   1      30.306  28.447  23.984  1.00  0.00    -0.490 OA
BRANCH  88  89
ATOM     89  C   UNL A   1      29.722  28.281  22.692  1.00  0.00     0.257 C 
BRANCH  89  90
ATOM     90  C   UNL A   1      29.708  29.639  22.001  1.00  0.00     0.197 C 
BRANCH  90  91
ATOM     91  O   UNL A   1      31.026  30.051  21.631  1.00  0.00    -0.393 OA
ATOM     92  H   UNL A   1      31.239  29.701  20.752  1.00  0.00     0.210 HD
ENDBRANCH  90  91
ENDBRANCH  89  90
ENDBRANCH  88  89
ENDBRANCH  80  88
ENDBRANCH  75  78
ENDBRANCH  73  74
ENDBRANCH   1  73
TORSDOF 15
ENDMDL
MODEL 2
REMARK VINA RESULT:     -12.0      0.738      7.503
REMARK SMILES O=C(NCCCCNC(=O)c1cc2ccccc2cc1OCCO)c1ccc(-c2c3nc(c(-c4c(F)c(F)c(F)c(F)c4F)c4ccc([nH]4)c(-c4c(F)c(F)c(F)c(F)c4F)c4nc(c(-c5c(F)c(F)c(F)c(F)c5F)c5ccc2[nH]5)C=C4)C=C3)cc1
REMARK SMILES IDX 6 1 5 2 4 3 3 4 1 5 2 6 25 8 26 9 87 10 27 11 86 12 28 13
REMARK SMILES IDX 29 14 30 15 80 16 31 17 85 18 79 19 81 20 32 21 84 22 78 23
REMARK SMILES IDX 77 24 33 26 65 27 45 28 64 29 46 30 49 31 63 32 82 33 47 34
REMARK SMILES IDX 48 35 62 37 83 38 50 39 34 40 35 41 43 42 36 43 37 44 41 45
REMARK SMILES IDX 44 46 38 47 39 48 42 49 40 50 66 51 67 52 75 53 68 54 69 55
REMARK SMILES IDX 73 56 76 57 70 58 71 59 74 60 72 61 51 62 52 63 60 64 53 65
REMARK SMILES IDX 54 66 58 67 61 68 55 69 56 70 59 71 57 72 7 73 8 74 9 75
REMARK SMILES IDX 10 77 11 78 12 79 20 80 13 81 19 82 14 83 18 84 15 85 17 86
REMARK SMILES IDX 16 87 21 88 22 89 23 90 24 91
REMARK H PARENT 3 7 81 25 49 36 8 76 24 92
REMARK Flexibility Score: inf
ROOT
ATOM      1  C   UNL A   1      31.676  30.453  26.541  1.00  0.00     0.023 C 
ENDROOT
BRANCH   1   2
ATOM      2  C   UNL A   1      31.508  31.960  26.764  1.00  0.00     0.023 C 
BRANCH   2   3
ATOM      3  C   UNL A   1      32.767  32.744  27.111  1.00  0.00     0.116 C 
BRANCH   3   4
ATOM      4  N   UNL A   1      32.512  34.089  27.594  1.00  0.00    -0.352 N 
ATOM      5  O   UNL A   1      32.672  35.907  28.920  1.00  0.00    -0.269 OA
ATOM      6  C   UNL A   1      33.110  34.802  28.606  1.00  0.00     0.251 C 
ATOM      7  H   UNL A   1      31.795  34.568  27.121  1.00  0.00     0.163 HD
BRANCH   6   8
ATOM      8  C   UNL A   1      34.257  34.240  29.356  1.00  0.00     0.039 A 
ATOM      9  C   UNL A   1      35.577  34.491  28.976  1.00  0.00     0.014 A 
ATOM     10  C   UNL A   1      34.000  33.469  30.495  1.00  0.00     0.014 A 
ATOM     11  C   UNL A   1      36.624  33.845  29.630  1.00  0.00     0.010 A 
ATOM     12  C   UNL A   1      35.058  32.887  31.202  1.00  0.00     0.010 A 
ATOM     13  C   UNL A   1      36.378  33.033  30.750  1.00  0.00    -0.014 A 
BRANCH  13  14
ATOM     14  C   UNL A   1      37.512  32.374  31.452  1.00  0.00     0.031 A 
ATOM     15  C   UNL A   1      38.267  31.241  30.810  1.00  0.00     0.074 A 
ATOM     16  C   UNL A   1      37.874  32.811  32.673  1.00  0.00     0.049 A 
ATOM     17  N   UNL A   1      39.285  30.557  31.275  1.00  0.00    -0.248 NA
ATOM     18  C   UNL A   1      37.819  30.811  29.477  1.00  0.00     0.031 C 
ATOM     19  C   UNL A   1      37.212  33.890  33.409  1.00  0.00     0.029 A 
ATOM     20  N   UNL A   1      38.888  32.413  33.507  1.00  0.00    -0.354 N 
ATOM     21  C   UNL A   1      39.586  29.611  30.304  1.00  0.00     0.074 A 
ATOM     22  C   UNL A   1      38.627  29.788  29.234  1.00  0.00     0.031 C 
ATOM     23  C   UNL A   1      37.855  34.089  34.569  1.00  0.00     0.029 A 
ATOM     24  C   UNL A   1      38.941  33.119  34.683  1.00  0.00     0.049 A 
ATOM     25  H   UNL A   1      39.517  31.688  33.284  1.00  0.00     0.167 HD
ATOM     26  C   UNL A   1      40.579  28.688  30.300  1.00  0.00     0.037 A 
ATOM     27  C   UNL A   1      39.760  32.994  35.744  1.00  0.00     0.037 A 
ATOM     28  C   UNL A   1      41.545  28.524  31.357  1.00  0.00     0.049 A 
ATOM     29  C   UNL A   1      40.839  31.948  35.721  1.00  0.00     0.074 A 
ATOM     30  C   UNL A   1      42.616  27.648  31.419  1.00  0.00     0.029 A 
ATOM     31  N   UNL A   1      41.552  29.246  32.541  1.00  0.00    -0.354 N 
ATOM     32  N   UNL A   1      41.141  31.093  34.775  1.00  0.00    -0.248 NA
ATOM     33  C   UNL A   1      41.690  31.851  36.915  1.00  0.00     0.031 C 
ATOM     34  C   UNL A   1      43.242  27.809  32.660  1.00  0.00     0.029 A 
ATOM     35  C   UNL A   1      42.593  28.818  33.352  1.00  0.00     0.049 A 
ATOM     36  H   UNL A   1      40.912  29.959  32.772  1.00  0.00     0.167 HD
ATOM     37  C   UNL A   1      42.225  30.368  35.250  1.00  0.00     0.074 A 
ATOM     38  C   UNL A   1      42.540  30.898  36.561  1.00  0.00     0.031 C 
ATOM     39  C   UNL A   1      42.895  29.352  34.655  1.00  0.00     0.037 A 
BRANCH  26  40
ATOM     40  C   UNL A   1      40.670  27.765  29.118  1.00  0.00     0.064 A 
ATOM     41  C   UNL A   1      39.832  26.647  28.988  1.00  0.00     0.173 A 
ATOM     42  C   UNL A   1      41.568  28.036  28.073  1.00  0.00     0.173 A 
ATOM     43  F   UNL A   1      38.962  26.339  29.961  1.00  0.00    -0.203 F 
ATOM     44  C   UNL A   1      39.907  25.822  27.868  1.00  0.00     0.198 A 
ATOM     45  C   UNL A   1      41.621  27.224  26.943  1.00  0.00     0.198 A 
ATOM     46  F   UNL A   1      42.385  29.097  28.143  1.00  0.00    -0.203 F 
ATOM     47  F   UNL A   1      39.125  24.737  27.784  1.00  0.00    -0.200 F 
ATOM     48  C   UNL A   1      40.796  26.115  26.844  1.00  0.00     0.200 A 
ATOM     49  F   UNL A   1      42.472  27.516  25.949  1.00  0.00    -0.200 F 
ATOM     50  F   UNL A   1      40.861  25.324  25.764  1.00  0.00    -0.200 F 
ENDBRANCH  26  40
BRANCH  27  51
ATOM     51  C   UNL A   1      39.584  33.888  36.916  1.00  0.00     0.064 A 
ATOM     52  C   UNL A   1      38.816  33.492  38.018  1.00  0.00     0.173 A 
ATOM     53  C   UNL A   1      40.191  35.152  36.962  1.00  0.00     0.173 A 
ATOM     54  F   UNL A   1      38.198  32.301  38.011  1.00  0.00    -0.203 F 
ATOM     55  C   UNL A   1      38.652  34.330  39.119  1.00  0.00     0.198 A 
ATOM     56  C   UNL A   1      40.051  35.978  38.074  1.00  0.00     0.198 A 
ATOM     57  F   UNL A   1      40.939  35.576  35.933  1.00  0.00    -0.203 F 
ATOM     58  F   UNL A   1      37.881  33.944  40.144  1.00  0.00    -0.200 F 
ATOM     59  C   UNL A   1      39.276  35.569  39.150  1.00  0.00     0.200 A 
ATOM     60  F   UNL A   1      40.668  37.166  38.106  1.00  0.00    -0.200 F 
ATOM     61  F   UNL A   1      39.126  36.371  40.212  1.00  0.00    -0.200 F 
ENDBRANCH  27  51
BRANCH  39  62
ATOM     62  C   UNL A   1      44.053  28.762  35.406  1.00  0.00     0.064 A 
ATOM     63  C   UNL A   1      45.357  29.254  35.249  1.00  0.00     0.173 A 
ATOM     64  C   UNL A   1      43.852  27.710  36.312  1.00  0.00     0.173 A 
ATOM     65  F   UNL A   1      45.604  30.248  34.382  1.00  0.00    -0.203 F 
ATOM     66  C   UNL A   1      46.421  28.697  35.954  1.00  0.00     0.198 A 
ATOM     67  C   UNL A   1      44.913  27.174  37.035  1.00  0.00     0.198 A 
ATOM     68  F   UNL A   1      42.623  27.206  36.501  1.00  0.00    -0.203 F 
ATOM     69  F   UNL A   1      47.666  29.150  35.753  1.00  0.00    -0.200 F 
ATOM     70  C   UNL A   1      46.197  27.662  36.850  1.00  0.00     0.200 A 
ATOM     71  F   UNL A   1      44.694  26.182  37.909  1.00  0.00    -0.200 F 
ATOM     72  F   UNL A   1      47.223  27.130  37.530  1.00  0.00    -0.200 F 
ENDBRANCH  39  62
ENDBRANCH  13  14
ENDBRANCH   6   8
ENDBRANCH   3   4
ENDBRANCH   2   3
ENDBRANCH   1   2
BRANCH   1  73
ATOM     73  C   UNL A   1      33.097  29.927  26.312  1.00  0.00     0.116 C 
BRANCH  73  74
ATOM     74  N   UNL A   1      33.477  29.830  24.914  1.00  0.00    -0.352 N 
ATOM     75  C   UNL A   1      33.113  28.861  24.012  1.00  0.00     0.255 C 
ATOM     76  H   UNL A   1      34.064  30.544  24.573  1.00  0.00     0.163 HD
ATOM     77  O   UNL A   1      33.361  28.995  22.819  1.00  0.00    -0.269 OA
BRANCH  75  78
ATOM     78  C   UNL A   1      32.496  27.611  24.491  1.00  0.00     0.082 A 
ATOM     79  C   UNL A   1      33.406  26.668  25.007  1.00  0.00     0.026 A 
ATOM     80  C   UNL A   1      31.131  27.325  24.467  1.00  0.00     0.132 A 
ATOM     81  C   UNL A   1      32.962  25.455  25.554  1.00  0.00    -0.017 A 
ATOM     82  C   UNL A   1      30.690  26.117  25.030  1.00  0.00     0.056 A 
ATOM     83  C   UNL A   1      33.854  24.510  26.089  1.00  0.00     0.009 A 
ATOM     84  C   UNL A   1      31.580  25.182  25.579  1.00  0.00    -0.015 A 
ATOM     85  C   UNL A   1      33.380  23.323  26.653  1.00  0.00     0.001 A 
ATOM     86  C   UNL A   1      31.118  23.988  26.153  1.00  0.00     0.009 A 
ATOM     87  C   UNL A   1      32.013  23.065  26.691  1.00  0.00     0.001 A 
BRANCH  80  88
ATOM     88  O   UNL A   1      30.087  28.098  24.063  1.00  0.00    -0.490 OA
BRANCH  88  89
ATOM     89  C   UNL A   1      29.785  28.266  22.678  1.00  0.00     0.257 C 
BRANCH  89  90
ATOM     90  C   UNL A   1      29.850  29.754  22.357  1.00  0.00     0.197 C 
BRANCH  90  91
ATOM     91  O   UNL A   1      30.916  30.047  21.451  1.00  0.00    -0.393 OA
ATOM     92  H   UNL A   1      30.674  30.810  20.903  1.00  0.00     0.210 HD
ENDBRANCH  90  91
ENDBRANCH  89  90
ENDBRANCH  88  89
ENDBRANCH  80  88
ENDBRANCH  75  78
ENDBRANCH  73  74
ENDBRANCH   1  73
TORSDOF 15
ENDMDL
MODEL 3
REMARK VINA RESULT:     -12.0      5.770     11.135
REMARK SMILES O=C(NCCCCNC(=O)c1cc2ccccc2cc1OCCO)c1ccc(-c2c3nc(c(-c4c(F)c(F)c(F)c(F)c4F)c4ccc([nH]4)c(-c4c(F)c(F)c(F)c(F)c4F)c4nc(c(-c5c(F)c(F)c(F)c(F)c5F)c5ccc2[nH]5)C=C4)C=C3)cc1
REMARK SMILES IDX 6 1 5 2 4 3 3 4 1 5 2 6 25 8 26 9 87 10 27 11 86 12 28 13
REMARK SMILES IDX 29 14 30 15 80 16 31 17 85 18 79 19 81 20 32 21 84 22 78 23
REMARK SMILES IDX 77 24 33 26 65 27 45 28 64 29 46 30 49 31 63 32 82 33 47 34
REMARK SMILES IDX 48 35 62 37 83 38 50 39 34 40 35 41 43 42 36 43 37 44 41 45
REMARK SMILES IDX 44 46 38 47 39 48 42 49 40 50 66 51 67 52 75 53 68 54 69 55
REMARK SMILES IDX 73 56 76 57 70 58 71 59 74 60 72 61 51 62 52 63 60 64 53 65
REMARK SMILES IDX 54 66 58 67 61 68 55 69 56 70 59 71 57 72 7 73 8 74 9 75
REMARK SMILES IDX 10 77 11 78 12 79 20 80 13 81 19 82 14 83 18 84 15 85 17 86
REMARK SMILES IDX 16 87 21 88 22 89 23 90 24 91
REMARK H PARENT 3 7 81 25 49 36 8 76 24 92
REMARK Flexibility Score: inf
ROOT
ATOM      1  C   UNL A   1      36.680  20.357  24.868  1.00  0.00     0.023 C 
ENDROOT
BRANCH   1   2
ATOM      2  C   UNL A   1      38.016  19.612  24.776  1.00  0.00     0.023 C 
BRANCH   2   3
ATOM      3  C   UNL A   1      39.104  20.039  25.753  1.00  0.00     0.116 C 
BRANCH   3   4
ATOM      4  N   UNL A   1      40.213  19.107  25.847  1.00  0.00    -0.352 N 
ATOM      5  O   UNL A   1      42.344  18.397  26.049  1.00  0.00    -0.269 OA
ATOM      6  C   UNL A   1      41.544  19.328  26.111  1.00  0.00     0.251 C 
ATOM      7  H   UNL A   1      39.974  18.165  25.698  1.00  0.00     0.163 HD
BRANCH   6   8
ATOM      8  C   UNL A   1      42.041  20.685  26.433  1.00  0.00     0.039 A 
ATOM      9  C   UNL A   1      42.287  21.084  27.748  1.00  0.00     0.014 A 
ATOM     10  C   UNL A   1      42.300  21.571  25.382  1.00  0.00     0.014 A 
ATOM     11  C   UNL A   1      42.633  22.407  28.021  1.00  0.00     0.010 A 
ATOM     12  C   UNL A   1      42.727  22.876  25.653  1.00  0.00     0.010 A 
ATOM     13  C   UNL A   1      42.855  23.320  26.977  1.00  0.00    -0.014 A 
BRANCH  13  14
ATOM     14  C   UNL A   1      43.250  24.720  27.288  1.00  0.00     0.031 A 
ATOM     15  C   UNL A   1      44.644  25.212  27.006  1.00  0.00     0.074 A 
ATOM     16  C   UNL A   1      42.339  25.560  27.814  1.00  0.00     0.049 A 
ATOM     17  N   UNL A   1      45.158  26.402  27.206  1.00  0.00    -0.248 NA
ATOM     18  C   UNL A   1      45.590  24.243  26.432  1.00  0.00     0.031 C 
ATOM     19  C   UNL A   1      40.960  25.201  28.150  1.00  0.00     0.029 A 
ATOM     20  N   UNL A   1      42.428  26.887  28.152  1.00  0.00    -0.354 N 
ATOM     21  C   UNL A   1      46.484  26.320  26.800  1.00  0.00     0.074 A 
ATOM     22  C   UNL A   1      46.707  24.956  26.368  1.00  0.00     0.031 C 
ATOM     23  C   UNL A   1      40.324  26.285  28.614  1.00  0.00     0.029 A 
ATOM     24  C   UNL A   1      41.262  27.403  28.660  1.00  0.00     0.049 A 
ATOM     25  H   UNL A   1      43.251  27.417  28.043  1.00  0.00     0.167 HD
ATOM     26  C   UNL A   1      47.425  27.295  26.780  1.00  0.00     0.037 A 
ATOM     27  C   UNL A   1      40.979  28.634  29.126  1.00  0.00     0.037 A 
ATOM     28  C   UNL A   1      47.198  28.657  27.192  1.00  0.00     0.049 A 
ATOM     29  C   UNL A   1      42.048  29.691  29.110  1.00  0.00     0.074 A 
ATOM     30  C   UNL A   1      48.077  29.726  27.161  1.00  0.00     0.029 A 
ATOM     31  N   UNL A   1      46.007  29.136  27.720  1.00  0.00    -0.354 N 
ATOM     32  N   UNL A   1      43.283  29.611  28.680  1.00  0.00    -0.248 NA
ATOM     33  C   UNL A   1      41.681  31.009  29.647  1.00  0.00     0.031 C 
ATOM     34  C   UNL A   1      47.434  30.840  27.713  1.00  0.00     0.029 A 
ATOM     35  C   UNL A   1      46.138  30.478  28.043  1.00  0.00     0.049 A 
ATOM     36  H   UNL A   1      45.190  28.601  27.846  1.00  0.00     0.167 HD
ATOM     37  C   UNL A   1      43.836  30.868  28.876  1.00  0.00     0.074 A 
ATOM     38  C   UNL A   1      42.796  31.698  29.446  1.00  0.00     0.031 C 
ATOM     39  C   UNL A   1      45.095  31.294  28.611  1.00  0.00     0.037 A 
BRANCH  26  40
ATOM     40  C   UNL A   1      48.802  26.927  26.304  1.00  0.00     0.064 A 
ATOM     41  C   UNL A   1      49.771  26.411  27.177  1.00  0.00     0.173 A 
ATOM     42  C   UNL A   1      49.137  27.039  24.945  1.00  0.00     0.173 A 
ATOM     43  F   UNL A   1      49.504  26.292  28.487  1.00  0.00    -0.203 F 
ATOM     44  C   UNL A   1      51.031  26.043  26.713  1.00  0.00     0.198 A 
ATOM     45  C   UNL A   1      50.390  26.645  24.480  1.00  0.00     0.198 A 
ATOM     46  F   UNL A   1      48.245  27.518  24.066  1.00  0.00    -0.203 F 
ATOM     47  F   UNL A   1      51.954  25.590  27.572  1.00  0.00    -0.200 F 
ATOM     48  C   UNL A   1      51.337  26.153  25.364  1.00  0.00     0.200 A 
ATOM     49  F   UNL A   1      50.678  26.739  23.174  1.00  0.00    -0.200 F 
ATOM     50  F   UNL A   1      52.548  25.791  24.918  1.00  0.00    -0.200 F 
ENDBRANCH  26  40
BRANCH  27  51
ATOM     51  C   UNL A   1      39.620  28.927  29.647  1.00  0.00     0.064 A 
ATOM     52  C   UNL A   1      38.620  29.439  28.811  1.00  0.00     0.173 A 
ATOM     53  C   UNL A   1      39.291  28.688  30.990  1.00  0.00     0.173 A 
ATOM     54  F   UNL A   1      38.893  29.704  27.525  1.00  0.00    -0.203 F 
ATOM     55  C   UNL A   1      37.344  29.712  29.300  1.00  0.00     0.198 A 
ATOM     56  C   UNL A   1      38.008  28.933  31.471  1.00  0.00     0.198 A 
ATOM     57  F   UNL A   1      40.213  28.196  31.830  1.00  0.00    -0.203 F 
ATOM     58  F   UNL A   1      36.416  30.237  28.489  1.00  0.00    -0.200 F 
ATOM     59  C   UNL A   1      37.037  29.451  30.627  1.00  0.00     0.200 A 
ATOM     60  F   UNL A   1      37.711  28.666  32.750  1.00  0.00    -0.200 F 
ATOM     61  F   UNL A   1      35.807  29.705  31.094  1.00  0.00    -0.200 F 
ENDBRANCH  27  51
BRANCH  39  62
ATOM     62  C   UNL A   1      45.411  32.730  28.914  1.00  0.00     0.064 A 
ATOM     63  C   UNL A   1      45.171  33.746  27.977  1.00  0.00     0.173 A 
ATOM     64  C   UNL A   1      45.933  33.096  30.162  1.00  0.00     0.173 A 
ATOM     65  F   UNL A   1      44.689  33.445  26.762  1.00  0.00    -0.203 F 
ATOM     66  C   UNL A   1      45.468  35.075  28.272  1.00  0.00     0.198 A 
ATOM     67  C   UNL A   1      46.203  34.428  30.464  1.00  0.00     0.198 A 
ATOM     68  F   UNL A   1      46.176  32.162  31.094  1.00  0.00    -0.203 F 
ATOM     69  F   UNL A   1      45.277  36.024  27.345  1.00  0.00    -0.200 F 
ATOM     70  C   UNL A   1      45.977  35.414  29.517  1.00  0.00     0.200 A 
ATOM     71  F   UNL A   1      46.683  34.757  31.671  1.00  0.00    -0.200 F 
ATOM     72  F   UNL A   1      46.258  36.694  29.800  1.00  0.00    -0.200 F 
ENDBRANCH  39  62
ENDBRANCH  13  14
ENDBRANCH   6   8
ENDBRANCH   3   4
ENDBRANCH   2   3
ENDBRANCH   1   2
BRANCH   1  73
ATOM     73  C   UNL A   1      36.649  21.655  25.682  1.00  0.00     0.116 C 
BRANCH  73  74
ATOM     74  N   UNL A   1      35.622  21.689  26.708  1.00  0.00    -0.352 N 
ATOM     75  C   UNL A   1      34.297  22.019  26.557  1.00  0.00     0.255 C 
ATOM     76  H   UNL A   1      35.909  21.447  27.618  1.00  0.00     0.163 HD
ATOM     77  O   UNL A   1      33.502  21.837  27.472  1.00  0.00    -0.269 OA
BRANCH  75  78
ATOM     78  C   UNL A   1      33.844  22.677  25.319  1.00  0.00     0.082 A 
ATOM     79  C   UNL A   1      33.917  24.083  25.341  1.00  0.00     0.026 A 
ATOM     80  C   UNL A   1      33.375  22.019  24.181  1.00  0.00     0.132 A 
ATOM     81  C   UNL A   1      33.575  24.846  24.214  1.00  0.00    -0.017 A 
ATOM     82  C   UNL A   1      33.050  22.785  23.050  1.00  0.00     0.056 A 
ATOM     83  C   UNL A   1      33.658  26.248  24.212  1.00  0.00     0.009 A 
ATOM     84  C   UNL A   1      33.149  24.184  23.045  1.00  0.00    -0.015 A 
ATOM     85  C   UNL A   1      33.339  26.980  23.066  1.00  0.00     0.001 A 
ATOM     86  C   UNL A   1      32.836  24.931  21.899  1.00  0.00     0.009 A 
ATOM     87  C   UNL A   1      32.934  26.321  21.909  1.00  0.00     0.001 A 
BRANCH  80  88
ATOM     88  O   UNL A   1      33.268  20.687  23.929  1.00  0.00    -0.490 OA
BRANCH  88  89
ATOM     89  C   UNL A   1      32.243  19.901  24.536  1.00  0.00     0.257 C 
BRANCH  89  90
ATOM     90  C   UNL A   1      32.900  18.704  25.212  1.00  0.00     0.197 C 
BRANCH  90  91
ATOM     91  O   UNL A   1      32.903  18.843  26.634  1.00  0.00    -0.393 OA
ATOM     92  H   UNL A   1      32.277  19.537  26.892  1.00  0.00     0.210 HD
ENDBRANCH  90  91
ENDBRANCH  89  90
ENDBRANCH  88  89
ENDBRANCH  80  88
ENDBRANCH  75  78
ENDBRANCH  73  74
ENDBRANCH   1  73
TORSDOF 15
ENDMDL
