MODEL 1
REMARK VINA RESULT:     -13.0      0.000      0.000
REMARK SMILES O=C(CC1(NC(=O)c2ccc3cc[nH]c3c2)CCC1)NCCCCNC(=O)c1ccc(-c2c3nc(c(-c4c(F)c(F)c(F)c(F)c4F)c4ccc([nH]4)c(-c4c(F)c(F)c(F)c(F)c4F)c4nc(c(-c5c(F)c(F)c(F)c(F)c5F)c5ccc2[nH]5)C=C4)C=C3)cc1
REMARK SMILES IDX 22 1 21 2 20 3 1 4 2 5 3 7 4 8 17 9 19 10 18 11 5 12 6 13
REMARK SMILES IDX 7 15 8 16 9 17 16 18 10 19 15 20 11 21 14 22 12 23 13 24
REMARK SMILES IDX 23 26 24 27 25 28 26 29 27 31 28 32 29 33 90 34 30 35 89 36
REMARK SMILES IDX 31 37 32 38 33 39 83 40 34 41 88 42 82 43 84 44 35 45 87 46
REMARK SMILES IDX 81 47 80 48 36 50 68 51 48 52 67 53 49 54 52 55 66 56 85 57
REMARK SMILES IDX 50 58 51 59 65 61 86 62 53 63 37 64 38 65 46 66 39 67 40 68
REMARK SMILES IDX 44 69 47 70 41 71 42 72 45 73 43 74 69 75 70 76 78 77 71 78
REMARK SMILES IDX 72 79 76 80 79 81 73 82 74 83 77 84 75 85 54 86 55 87 63 88
REMARK SMILES IDX 56 89 57 90 61 91 64 92 58 93 59 94 62 95 60 96
REMARK H PARENT 20 6 5 14 14 25 25 30 84 49 52 60
REMARK Flexibility Score: inf
ROOT
ATOM      1  C   UNL A   1      31.590  30.683  26.224  1.00  0.00     0.023 C 
ENDROOT
BRANCH   1   2
ATOM      2  C   UNL A   1      33.042  30.244  26.068  1.00  0.00     0.116 C 
BRANCH   2   3
ATOM      3  N   UNL A   1      33.200  28.848  26.399  1.00  0.00    -0.356 N 
ATOM      4  O   UNL A   1      33.982  28.215  24.333  1.00  0.00    -0.275 OA
ATOM      5  C   UNL A   1      33.603  27.929  25.463  1.00  0.00     0.222 C 
ATOM      6  H   UNL A   1      33.014  28.549  27.319  1.00  0.00     0.163 HD
BRANCH   5   7
ATOM      7  C   UNL A   1      33.434  26.506  25.919  1.00  0.00     0.128 C 
BRANCH   7   8
ATOM      8  C   UNL A   1      32.268  25.700  25.346  1.00  0.00     0.049 C 
ATOM      9  C   UNL A   1      32.068  24.325  26.067  1.00  0.00     0.029 C 
ATOM     10  C   UNL A   1      30.868  26.106  25.927  1.00  0.00     0.029 C 
ATOM     11  C   UNL A   1      30.574  24.635  26.232  1.00  0.00     0.005 C 
BRANCH   8  12
ATOM     12  N   UNL A   1      32.184  25.526  23.850  1.00  0.00    -0.346 N 
ATOM     13  C   UNL A   1      31.555  26.162  22.800  1.00  0.00     0.251 C 
ATOM     14  H   UNL A   1      32.717  24.757  23.543  1.00  0.00     0.164 HD
ATOM     15  O   UNL A   1      31.736  25.760  21.653  1.00  0.00    -0.269 OA
BRANCH  13  16
ATOM     16  C   UNL A   1      30.574  27.229  23.026  1.00  0.00     0.041 A 
ATOM     17  C   UNL A   1      29.281  26.937  23.464  1.00  0.00     0.014 A 
ATOM     18  C   UNL A   1      30.960  28.523  22.642  1.00  0.00     0.040 A 
ATOM     19  C   UNL A   1      28.282  27.916  23.353  1.00  0.00     0.011 A 
ATOM     20  C   UNL A   1      29.940  29.470  22.521  1.00  0.00     0.046 A 
ATOM     21  C   UNL A   1      28.607  29.182  22.819  1.00  0.00    -0.001 A 
ATOM     22  N   UNL A   1      29.988  30.771  22.076  1.00  0.00    -0.361 N 
ATOM     23  C   UNL A   1      27.844  30.318  22.430  1.00  0.00     0.028 A 
ATOM     24  C   UNL A   1      28.719  31.273  21.960  1.00  0.00     0.083 A 
ATOM     25  H   UNL A   1      30.812  31.269  21.870  1.00  0.00     0.166 HD
ENDBRANCH  13  16
ENDBRANCH   8  12
ENDBRANCH   7   8
ENDBRANCH   5   7
ENDBRANCH   2   3
ENDBRANCH   1   2
BRANCH   1  26
ATOM     26  C   UNL A   1      31.400  32.158  26.586  1.00  0.00     0.023 C 
BRANCH  26  27
ATOM     27  C   UNL A   1      32.609  32.828  27.232  1.00  0.00     0.116 C 
BRANCH  27  28
ATOM     28  N   UNL A   1      32.351  34.207  27.608  1.00  0.00    -0.352 N 
ATOM     29  C   UNL A   1      32.957  34.988  28.563  1.00  0.00     0.251 C 
ATOM     30  H   UNL A   1      31.633  34.651  27.101  1.00  0.00     0.163 HD
ATOM     31  O   UNL A   1      32.501  36.090  28.834  1.00  0.00    -0.269 OA
BRANCH  29  32
ATOM     32  C   UNL A   1      34.143  34.483  29.290  1.00  0.00     0.039 A 
ATOM     33  C   UNL A   1      33.959  33.902  30.547  1.00  0.00     0.014 A 
ATOM     34  C   UNL A   1      35.426  34.583  28.746  1.00  0.00     0.014 A 
ATOM     35  C   UNL A   1      35.051  33.356  31.226  1.00  0.00     0.010 A 
ATOM     36  C   UNL A   1      36.499  33.968  29.386  1.00  0.00     0.010 A 
ATOM     37  C   UNL A   1      36.323  33.347  30.632  1.00  0.00    -0.014 A 
BRANCH  37  38
ATOM     38  C   UNL A   1      37.475  32.683  31.296  1.00  0.00     0.031 A 
ATOM     39  C   UNL A   1      38.187  31.543  30.621  1.00  0.00     0.074 A 
ATOM     40  C   UNL A   1      37.840  33.064  32.536  1.00  0.00     0.049 A 
ATOM     41  N   UNL A   1      39.170  30.801  31.066  1.00  0.00    -0.248 NA
ATOM     42  C   UNL A   1      37.719  31.172  29.277  1.00  0.00     0.031 C 
ATOM     43  C   UNL A   1      37.201  34.126  33.315  1.00  0.00     0.029 A 
ATOM     44  N   UNL A   1      38.829  32.596  33.364  1.00  0.00    -0.354 N 
ATOM     45  C   UNL A   1      39.424  29.870  30.067  1.00  0.00     0.074 A 
ATOM     46  C   UNL A   1      38.459  30.105  29.016  1.00  0.00     0.031 C 
ATOM     47  C   UNL A   1      37.832  34.248  34.493  1.00  0.00     0.029 A 
ATOM     48  C   UNL A   1      38.887  33.243  34.574  1.00  0.00     0.049 A 
ATOM     49  H   UNL A   1      39.440  31.865  33.114  1.00  0.00     0.167 HD
ATOM     50  C   UNL A   1      40.389  28.919  30.022  1.00  0.00     0.037 A 
ATOM     51  C   UNL A   1      39.694  33.042  35.634  1.00  0.00     0.037 A 
ATOM     52  C   UNL A   1      41.360  28.701  31.062  1.00  0.00     0.049 A 
ATOM     53  C   UNL A   1      40.741  31.963  35.567  1.00  0.00     0.074 A 
ATOM     54  C   UNL A   1      42.416  27.807  31.082  1.00  0.00     0.029 A 
ATOM     55  N   UNL A   1      41.388  29.379  32.273  1.00  0.00    -0.354 N 
ATOM     56  N   UNL A   1      41.022  31.140  34.586  1.00  0.00    -0.248 NA
ATOM     57  C   UNL A   1      41.588  31.788  36.755  1.00  0.00     0.031 C 
ATOM     58  C   UNL A   1      43.045  27.898  32.329  1.00  0.00     0.029 A 
ATOM     59  C   UNL A   1      42.424  28.898  33.060  1.00  0.00     0.049 A 
ATOM     60  H   UNL A   1      40.765  30.094  32.535  1.00  0.00     0.167 HD
ATOM     61  C   UNL A   1      42.096  30.377  35.023  1.00  0.00     0.074 A 
ATOM     62  C   UNL A   1      42.426  30.844  36.352  1.00  0.00     0.031 C 
ATOM     63  C   UNL A   1      42.750  29.378  34.379  1.00  0.00     0.037 A 
BRANCH  50  64
ATOM     64  C   UNL A   1      40.440  28.035  28.808  1.00  0.00     0.064 A 
ATOM     65  C   UNL A   1      41.196  28.375  27.675  1.00  0.00     0.173 A 
ATOM     66  C   UNL A   1      39.756  26.809  28.794  1.00  0.00     0.173 A 
ATOM     67  F   UNL A   1      41.861  29.539  27.633  1.00  0.00    -0.203 F 
ATOM     68  C   UNL A   1      41.239  27.538  26.564  1.00  0.00     0.198 A 
ATOM     69  C   UNL A   1      39.830  25.959  27.694  1.00  0.00     0.198 A 
ATOM     70  F   UNL A   1      39.024  26.430  29.851  1.00  0.00    -0.203 F 
ATOM     71  F   UNL A   1      41.924  27.911  25.473  1.00  0.00    -0.200 F 
ATOM     72  C   UNL A   1      40.564  26.328  26.575  1.00  0.00     0.200 A 
ATOM     73  F   UNL A   1      39.191  24.782  27.714  1.00  0.00    -0.200 F 
ATOM     74  F   UNL A   1      40.614  25.520  25.508  1.00  0.00    -0.200 F 
ENDBRANCH  50  64
BRANCH  51  75
ATOM     75  C   UNL A   1      39.560  33.895  36.846  1.00  0.00     0.064 A 
ATOM     76  C   UNL A   1      38.793  33.472  37.942  1.00  0.00     0.173 A 
ATOM     77  C   UNL A   1      40.178  35.151  36.930  1.00  0.00     0.173 A 
ATOM     78  F   UNL A   1      38.165  32.288  37.901  1.00  0.00    -0.203 F 
ATOM     79  C   UNL A   1      38.629  34.283  39.062  1.00  0.00     0.198 A 
ATOM     80  C   UNL A   1      40.042  35.947  38.067  1.00  0.00     0.198 A 
ATOM     81  F   UNL A   1      40.928  35.600  35.913  1.00  0.00    -0.203 F 
ATOM     82  F   UNL A   1      37.848  33.876  40.072  1.00  0.00    -0.200 F 
ATOM     83  C   UNL A   1      39.259  35.517  39.127  1.00  0.00     0.200 A 
ATOM     84  F   UNL A   1      40.665  37.131  38.131  1.00  0.00    -0.200 F 
ATOM     85  F   UNL A   1      39.105  36.295  40.207  1.00  0.00    -0.200 F 
ENDBRANCH  51  75
BRANCH  63  86
ATOM     86  C   UNL A   1      43.920  28.752  35.084  1.00  0.00     0.064 A 
ATOM     87  C   UNL A   1      45.225  29.244  34.934  1.00  0.00     0.173 A 
ATOM     88  C   UNL A   1      43.724  27.667  35.953  1.00  0.00     0.173 A 
ATOM     89  F   UNL A   1      45.470  30.268  34.104  1.00  0.00    -0.203 F 
ATOM     90  C   UNL A   1      46.294  28.653  35.604  1.00  0.00     0.198 A 
ATOM     91  C   UNL A   1      44.789  27.103  36.650  1.00  0.00     0.198 A 
ATOM     92  F   UNL A   1      42.496  27.162  36.140  1.00  0.00    -0.203 F 
ATOM     93  F   UNL A   1      47.540  29.105  35.404  1.00  0.00    -0.200 F 
ATOM     94  C   UNL A   1      46.074  27.590  36.467  1.00  0.00     0.200 A 
ATOM     95  F   UNL A   1      44.572  26.088  37.497  1.00  0.00    -0.200 F 
ATOM     96  F   UNL A   1      47.103  27.031  37.119  1.00  0.00    -0.200 F 
ENDBRANCH  63  86
ENDBRANCH  37  38
ENDBRANCH  29  32
ENDBRANCH  27  28
ENDBRANCH  26  27
ENDBRANCH   1  26
TORSDOF 14
ENDMDL
MODEL 2
REMARK VINA RESULT:     -13.0      0.618      7.380
REMARK SMILES O=C(CC1(NC(=O)c2ccc3cc[nH]c3c2)CCC1)NCCCCNC(=O)c1ccc(-c2c3nc(c(-c4c(F)c(F)c(F)c(F)c4F)c4ccc([nH]4)c(-c4c(F)c(F)c(F)c(F)c4F)c4nc(c(-c5c(F)c(F)c(F)c(F)c5F)c5ccc2[nH]5)C=C4)C=C3)cc1
REMARK SMILES IDX 22 1 21 2 20 3 1 4 2 5 3 7 4 8 17 9 19 10 18 11 5 12 6 13
REMARK SMILES IDX 7 15 8 16 9 17 16 18 10 19 15 20 11 21 14 22 12 23 13 24
REMARK SMILES IDX 23 26 24 27 25 28 26 29 27 31 28 32 29 33 90 34 30 35 89 36
REMARK SMILES IDX 31 37 32 38 33 39 83 40 34 41 88 42 82 43 84 44 35 45 87 46
REMARK SMILES IDX 81 47 80 48 36 50 68 51 48 52 67 53 49 54 52 55 66 56 85 57
REMARK SMILES IDX 50 58 51 59 65 61 86 62 53 63 37 64 38 65 46 66 39 67 40 68
REMARK SMILES IDX 44 69 47 70 41 71 42 72 45 73 43 74 69 75 70 76 78 77 71 78
REMARK SMILES IDX 72 79 76 80 79 81 73 82 74 83 77 84 75 85 54 86 55 87 63 88
REMARK SMILES IDX 56 89 57 90 61 91 64 92 58 93 59 94 62 95 60 96
REMARK H PARENT 20 6 5 14 14 25 25 30 84 49 52 60
REMARK Flexibility Score: inf
ROOT
ATOM      1  C   UNL A   1      31.667  30.701  26.720  1.00  0.00     0.023 C 
ENDROOT
BRANCH   1   2
ATOM      2  C   UNL A   1      33.113  30.244  26.878  1.00  0.00     0.116 C 
BRANCH   2   3
ATOM      3  N   UNL A   1      33.199  28.805  26.941  1.00  0.00    -0.356 N 
ATOM      4  O   UNL A   1      33.879  28.526  24.762  1.00  0.00    -0.275 OA
ATOM      5  C   UNL A   1      33.519  28.055  25.835  1.00  0.00     0.222 C 
ATOM      6  H   UNL A   1      33.024  28.350  27.796  1.00  0.00     0.163 HD
BRANCH   5   7
ATOM      7  C   UNL A   1      33.279  26.584  26.029  1.00  0.00     0.128 C 
BRANCH   7   8
ATOM      8  C   UNL A   1      32.066  25.955  25.344  1.00  0.00     0.049 C 
ATOM      9  C   UNL A   1      31.760  24.508  25.858  1.00  0.00     0.029 C 
ATOM     10  C   UNL A   1      30.692  26.373  25.977  1.00  0.00     0.029 C 
ATOM     11  C   UNL A   1      30.290  24.899  26.066  1.00  0.00     0.005 C 
BRANCH   8  12
ATOM     12  N   UNL A   1      31.985  26.005  23.839  1.00  0.00    -0.346 N 
ATOM     13  C   UNL A   1      31.302  26.744  22.895  1.00  0.00     0.251 C 
ATOM     14  H   UNL A   1      32.574  25.336  23.421  1.00  0.00     0.164 HD
ATOM     15  O   UNL A   1      31.507  26.537  21.701  1.00  0.00    -0.269 OA
BRANCH  13  16
ATOM     16  C   UNL A   1      30.244  27.685  23.276  1.00  0.00     0.041 A 
ATOM     17  C   UNL A   1      28.898  27.319  23.211  1.00  0.00     0.014 A 
ATOM     18  C   UNL A   1      30.649  28.997  23.563  1.00  0.00     0.040 A 
ATOM     19  C   UNL A   1      27.913  28.316  23.256  1.00  0.00     0.011 A 
ATOM     20  C   UNL A   1      29.648  29.972  23.581  1.00  0.00     0.046 A 
ATOM     21  C   UNL A   1      28.299  29.668  23.384  1.00  0.00    -0.001 A 
ATOM     22  N   UNL A   1      29.742  31.337  23.730  1.00  0.00    -0.361 N 
ATOM     23  C   UNL A   1      27.606  30.908  23.309  1.00  0.00     0.028 A 
ATOM     24  C   UNL A   1      28.522  31.917  23.508  1.00  0.00     0.083 A 
ATOM     25  H   UNL A   1      30.566  31.825  23.961  1.00  0.00     0.166 HD
ENDBRANCH  13  16
ENDBRANCH   8  12
ENDBRANCH   7   8
ENDBRANCH   5   7
ENDBRANCH   2   3
ENDBRANCH   1   2
BRANCH   1  26
ATOM     26  C   UNL A   1      31.454  32.211  26.838  1.00  0.00     0.023 C 
BRANCH  26  27
ATOM     27  C   UNL A   1      32.720  33.029  27.073  1.00  0.00     0.116 C 
BRANCH  27  28
ATOM     28  N   UNL A   1      32.444  34.345  27.625  1.00  0.00    -0.352 N 
ATOM     29  C   UNL A   1      33.016  34.989  28.695  1.00  0.00     0.251 C 
ATOM     30  H   UNL A   1      31.741  34.853  27.159  1.00  0.00     0.163 HD
ATOM     31  O   UNL A   1      32.547  36.045  29.097  1.00  0.00    -0.269 OA
BRANCH  29  32
ATOM     32  C   UNL A   1      34.181  34.391  29.385  1.00  0.00     0.039 A 
ATOM     33  C   UNL A   1      33.955  33.600  30.515  1.00  0.00     0.014 A 
ATOM     34  C   UNL A   1      35.484  34.606  28.931  1.00  0.00     0.014 A 
ATOM     35  C   UNL A   1      35.028  32.968  31.146  1.00  0.00     0.010 A 
ATOM     36  C   UNL A   1      36.543  33.911  29.511  1.00  0.00     0.010 A 
ATOM     37  C   UNL A   1      36.327  33.085  30.624  1.00  0.00    -0.014 A 
BRANCH  37  38
ATOM     38  C   UNL A   1      37.464  32.339  31.222  1.00  0.00     0.031 A 
ATOM     39  C   UNL A   1      37.974  32.701  32.590  1.00  0.00     0.074 A 
ATOM     40  C   UNL A   1      38.079  31.377  30.508  1.00  0.00     0.049 A 
ATOM     41  N   UNL A   1      38.992  32.208  33.252  1.00  0.00    -0.248 NA
ATOM     42  C   UNL A   1      37.264  33.775  33.299  1.00  0.00     0.031 C 
ATOM     43  C   UNL A   1      37.707  30.962  29.154  1.00  0.00     0.029 A 
ATOM     44  N   UNL A   1      39.153  30.578  30.815  1.00  0.00    -0.354 N 
ATOM     45  C   UNL A   1      39.050  32.921  34.442  1.00  0.00     0.074 A 
ATOM     46  C   UNL A   1      38.001  33.915  34.391  1.00  0.00     0.031 C 
ATOM     47  C   UNL A   1      38.519  29.969  28.759  1.00  0.00     0.029 A 
ATOM     48  C   UNL A   1      39.498  29.708  29.809  1.00  0.00     0.049 A 
ATOM     49  H   UNL A   1      39.630  30.625  31.675  1.00  0.00     0.167 HD
ATOM     50  C   UNL A   1      39.890  32.746  35.492  1.00  0.00     0.037 A 
ATOM     51  C   UNL A   1      40.499  28.808  29.739  1.00  0.00     0.037 A 
ATOM     52  C   UNL A   1      40.919  31.742  35.547  1.00  0.00     0.049 A 
ATOM     53  C   UNL A   1      41.432  28.653  30.910  1.00  0.00     0.074 A 
ATOM     54  C   UNL A   1      41.778  31.444  36.591  1.00  0.00     0.029 A 
ATOM     55  N   UNL A   1      41.238  30.877  34.510  1.00  0.00    -0.354 N 
ATOM     56  N   UNL A   1      41.429  29.279  32.061  1.00  0.00    -0.248 NA
ATOM     57  C   UNL A   1      42.505  27.659  30.771  1.00  0.00     0.031 C 
ATOM     58  C   UNL A   1      42.657  30.443  36.164  1.00  0.00     0.029 A 
ATOM     59  C   UNL A   1      42.302  30.068  34.878  1.00  0.00     0.049 A 
ATOM     60  H   UNL A   1      40.777  30.843  33.641  1.00  0.00     0.167 HD
ATOM     61  C   UNL A   1      42.473  28.734  32.795  1.00  0.00     0.074 A 
ATOM     62  C   UNL A   1      43.078  27.714  31.965  1.00  0.00     0.031 C 
ATOM     63  C   UNL A   1      42.891  29.049  34.046  1.00  0.00     0.037 A 
BRANCH  50  64
ATOM     64  C   UNL A   1      39.734  33.667  36.669  1.00  0.00     0.064 A 
ATOM     65  C   UNL A   1      40.402  34.900  36.739  1.00  0.00     0.173 A 
ATOM     66  C   UNL A   1      38.869  33.331  37.723  1.00  0.00     0.173 A 
ATOM     67  F   UNL A   1      41.247  35.266  35.764  1.00  0.00    -0.203 F 
ATOM     68  C   UNL A   1      40.237  35.744  37.834  1.00  0.00     0.198 A 
ATOM     69  C   UNL A   1      38.680  34.194  38.799  1.00  0.00     0.198 A 
ATOM     70  F   UNL A   1      38.199  32.170  37.705  1.00  0.00    -0.203 F 
ATOM     71  F   UNL A   1      40.928  36.890  37.903  1.00  0.00    -0.200 F 
ATOM     72  C   UNL A   1      39.370  35.396  38.859  1.00  0.00     0.200 A 
ATOM     73  F   UNL A   1      37.829  33.863  39.779  1.00  0.00    -0.200 F 
ATOM     74  F   UNL A   1      39.205  36.214  39.906  1.00  0.00    -0.200 F 
ENDBRANCH  50  64
BRANCH  51  75
ATOM     75  C   UNL A   1      40.660  27.967  28.522  1.00  0.00     0.064 A 
ATOM     76  C   UNL A   1      41.420  28.417  27.432  1.00  0.00     0.173 A 
ATOM     77  C   UNL A   1      40.050  26.709  28.415  1.00  0.00     0.173 A 
ATOM     78  F   UNL A   1      42.006  29.622  27.477  1.00  0.00    -0.203 F 
ATOM     79  C   UNL A   1      41.542  27.653  26.275  1.00  0.00     0.198 A 
ATOM     80  C   UNL A   1      40.201  25.930  27.269  1.00  0.00     0.198 A 
ATOM     81  F   UNL A   1      39.318  26.228  29.431  1.00  0.00    -0.203 F 
ATOM     82  F   UNL A   1      42.230  28.130  25.228  1.00  0.00    -0.200 F 
ATOM     83  C   UNL A   1      40.937  26.407  26.196  1.00  0.00     0.200 A 
ATOM     84  F   UNL A   1      39.629  24.720  27.204  1.00  0.00    -0.200 F 
ATOM     85  F   UNL A   1      41.058  25.670  25.083  1.00  0.00    -0.200 F 
ENDBRANCH  51  75
BRANCH  63  86
ATOM     86  C   UNL A   1      44.032  28.253  34.614  1.00  0.00     0.064 A 
ATOM     87  C   UNL A   1      43.825  27.039  35.289  1.00  0.00     0.173 A 
ATOM     88  C   UNL A   1      45.354  28.692  34.447  1.00  0.00     0.173 A 
ATOM     89  F   UNL A   1      42.580  26.582  35.490  1.00  0.00    -0.203 F 
ATOM     90  C   UNL A   1      44.898  26.313  35.800  1.00  0.00     0.198 A 
ATOM     91  C   UNL A   1      46.426  27.944  34.926  1.00  0.00     0.198 A 
ATOM     92  F   UNL A   1      45.610  29.840  33.803  1.00  0.00    -0.203 F 
ATOM     93  F   UNL A   1      44.673  25.185  36.488  1.00  0.00    -0.200 F 
ATOM     94  C   UNL A   1      46.196  26.761  35.611  1.00  0.00     0.200 A 
ATOM     95  F   UNL A   1      47.681  28.370  34.727  1.00  0.00    -0.200 F 
ATOM     96  F   UNL A   1      47.227  26.054  36.094  1.00  0.00    -0.200 F 
ENDBRANCH  63  86
ENDBRANCH  37  38
ENDBRANCH  29  32
ENDBRANCH  27  28
ENDBRANCH  26  27
ENDBRANCH   1  26
TORSDOF 14
ENDMDL
MODEL 3
REMARK VINA RESULT:     -13.0      6.210     11.571
REMARK SMILES O=C(CC1(NC(=O)c2ccc3cc[nH]c3c2)CCC1)NCCCCNC(=O)c1ccc(-c2c3nc(c(-c4c(F)c(F)c(F)c(F)c4F)c4ccc([nH]4)c(-c4c(F)c(F)c(F)c(F)c4F)c4nc(c(-c5c(F)c(F)c(F)c(F)c5F)c5ccc2[nH]5)C=C4)C=C3)cc1
REMARK SMILES IDX 22 1 21 2 20 3 1 4 2 5 3 7 4 8 17 9 19 10 18 11 5 12 6 13
REMARK SMILES IDX 7 15 8 16 9 17 16 18 10 19 15 20 11 21 14 22 12 23 13 24
REMARK SMILES IDX 23 26 24 27 25 28 26 29 27 31 28 32 29 33 90 34 30 35 89 36
REMARK SMILES IDX 31 37 32 38 33 39 83 40 34 41 88 42 82 43 84 44 35 45 87 46
REMARK SMILES IDX 81 47 80 48 36 50 68 51 48 52 67 53 49 54 52 55 66 56 85 57
REMARK SMILES IDX 50 58 51 59 65 61 86 62 53 63 37 64 38 65 46 66 39 67 40 68
REMARK SMILES IDX 44 69 47 70 41 71 42 72 45 73 43 74 69 75 70 76 78 77 71 78
REMARK SMILES IDX 72 79 76 80 79 81 73 82 74 83 77 84 75 85 54 86 55 87 63 88
REMARK SMILES IDX 56 89 57 90 61 91 64 92 58 93 59 94 62 95 60 96
REMARK H PARENT 20 6 5 14 14 25 25 30 84 49 52 60
REMARK Flexibility Score: inf
ROOT
ATOM      1  C   UNL A   1      37.298  20.708  24.899  1.00  0.00     0.023 C 
ENDROOT
BRANCH   1   2
ATOM      2  C   UNL A   1      37.600  21.994  25.659  1.00  0.00     0.116 C 
BRANCH   2   3
ATOM      3  N   UNL A   1      36.807  23.091  25.158  1.00  0.00    -0.356 N 
ATOM      4  O   UNL A   1      35.100  22.846  26.678  1.00  0.00    -0.275 OA
ATOM      5  C   UNL A   1      35.573  23.384  25.683  1.00  0.00     0.222 C 
ATOM      6  H   UNL A   1      37.160  23.643  24.423  1.00  0.00     0.163 HD
BRANCH   5   7
ATOM      7  C   UNL A   1      34.793  24.363  24.851  1.00  0.00     0.128 C 
BRANCH   7   8
ATOM      8  C   UNL A   1      33.596  23.841  24.056  1.00  0.00     0.049 C 
ATOM      9  C   UNL A   1      33.041  24.890  23.035  1.00  0.00     0.029 C 
ATOM     10  C   UNL A   1      33.992  22.972  22.810  1.00  0.00     0.029 C 
ATOM     11  C   UNL A   1      33.073  23.824  21.930  1.00  0.00     0.005 C 
BRANCH   8  12
ATOM     12  N   UNL A   1      32.463  23.190  24.808  1.00  0.00    -0.346 N 
ATOM     13  C   UNL A   1      32.017  21.904  25.033  1.00  0.00     0.251 C 
ATOM     14  H   UNL A   1      31.894  23.857  25.257  1.00  0.00     0.164 HD
ATOM     15  O   UNL A   1      31.038  21.722  25.754  1.00  0.00    -0.269 OA
BRANCH  13  16
ATOM     16  C   UNL A   1      32.601  20.755  24.334  1.00  0.00     0.041 A 
ATOM     17  C   UNL A   1      32.047  20.279  23.144  1.00  0.00     0.014 A 
ATOM     18  C   UNL A   1      33.640  20.085  24.996  1.00  0.00     0.040 A 
ATOM     19  C   UNL A   1      32.408  19.005  22.681  1.00  0.00     0.011 A 
ATOM     20  C   UNL A   1      33.964  18.810  24.525  1.00  0.00     0.046 A 
ATOM     21  C   UNL A   1      33.337  18.237  23.417  1.00  0.00    -0.001 A 
ATOM     22  N   UNL A   1      34.851  17.881  25.018  1.00  0.00    -0.361 N 
ATOM     23  C   UNL A   1      33.799  16.894  23.332  1.00  0.00     0.028 A 
ATOM     24  C   UNL A   1      34.716  16.699  24.340  1.00  0.00     0.083 A 
ATOM     25  H   UNL A   1      35.490  18.042  25.750  1.00  0.00     0.166 HD
ENDBRANCH  13  16
ENDBRANCH   8  12
ENDBRANCH   7   8
ENDBRANCH   5   7
ENDBRANCH   2   3
ENDBRANCH   1   2
BRANCH   1  26
ATOM     26  C   UNL A   1      38.387  19.636  24.992  1.00  0.00     0.023 C 
BRANCH  26  27
ATOM     27  C   UNL A   1      39.521  19.946  25.962  1.00  0.00     0.116 C 
BRANCH  27  28
ATOM     28  N   UNL A   1      40.576  18.947  25.931  1.00  0.00    -0.352 N 
ATOM     29  C   UNL A   1      41.936  19.098  26.050  1.00  0.00     0.251 C 
ATOM     30  H   UNL A   1      40.268  18.020  25.809  1.00  0.00     0.163 HD
ATOM     31  O   UNL A   1      42.678  18.144  25.853  1.00  0.00    -0.269 OA
BRANCH  29  32
ATOM     32  C   UNL A   1      42.510  20.421  26.382  1.00  0.00     0.039 A 
ATOM     33  C   UNL A   1      43.137  21.151  25.369  1.00  0.00     0.014 A 
ATOM     34  C   UNL A   1      42.438  20.940  27.676  1.00  0.00     0.014 A 
ATOM     35  C   UNL A   1      43.627  22.430  25.637  1.00  0.00     0.010 A 
ATOM     36  C   UNL A   1      42.854  22.246  27.923  1.00  0.00     0.010 A 
ATOM     37  C   UNL A   1      43.452  23.006  26.906  1.00  0.00    -0.014 A 
BRANCH  37  38
ATOM     38  C   UNL A   1      43.878  24.402  27.181  1.00  0.00     0.031 A 
ATOM     39  C   UNL A   1      42.878  25.423  27.650  1.00  0.00     0.074 A 
ATOM     40  C   UNL A   1      45.153  24.769  26.946  1.00  0.00     0.049 A 
ATOM     41  N   UNL A   1      43.047  26.702  27.883  1.00  0.00    -0.248 NA
ATOM     42  C   UNL A   1      41.502  24.953  27.865  1.00  0.00     0.031 C 
ATOM     43  C   UNL A   1      46.208  23.884  26.448  1.00  0.00     0.029 A 
ATOM     44  N   UNL A   1      45.779  25.983  27.084  1.00  0.00    -0.354 N 
ATOM     45  C   UNL A   1      41.799  27.186  28.254  1.00  0.00     0.074 A 
ATOM     46  C   UNL A   1      40.873  26.079  28.165  1.00  0.00     0.031 C 
ATOM     47  C   UNL A   1      47.353  24.575  26.351  1.00  0.00     0.029 A 
ATOM     48  C   UNL A   1      47.106  25.962  26.732  1.00  0.00     0.049 A 
ATOM     49  H   UNL A   1      45.319  26.792  27.406  1.00  0.00     0.167 HD
ATOM     50  C   UNL A   1      41.462  28.437  28.653  1.00  0.00     0.037 A 
ATOM     51  C   UNL A   1      48.019  26.953  26.709  1.00  0.00     0.037 A 
ATOM     52  C   UNL A   1      42.391  29.531  28.760  1.00  0.00     0.049 A 
ATOM     53  C   UNL A   1      47.611  28.338  27.134  1.00  0.00     0.074 A 
ATOM     54  C   UNL A   1      42.160  30.817  29.216  1.00  0.00     0.029 A 
ATOM     55  N   UNL A   1      43.729  29.471  28.395  1.00  0.00    -0.354 N 
ATOM     56  N   UNL A   1      46.447  28.767  27.557  1.00  0.00    -0.248 NA
ATOM     57  C   UNL A   1      48.649  29.377  27.084  1.00  0.00     0.031 C 
ATOM     58  C   UNL A   1      43.341  31.553  29.068  1.00  0.00     0.029 A 
ATOM     59  C   UNL A   1      44.326  30.708  28.586  1.00  0.00     0.049 A 
ATOM     60  H   UNL A   1      44.186  28.670  28.052  1.00  0.00     0.167 HD
ATOM     61  C   UNL A   1      46.619  30.111  27.855  1.00  0.00     0.074 A 
ATOM     62  C   UNL A   1      48.006  30.425  27.579  1.00  0.00     0.031 C 
ATOM     63  C   UNL A   1      45.711  31.006  28.316  1.00  0.00     0.037 A 
BRANCH  50  64
ATOM     64  C   UNL A   1      40.022  28.692  29.001  1.00  0.00     0.064 A 
ATOM     65  C   UNL A   1      39.101  29.157  28.049  1.00  0.00     0.173 A 
ATOM     66  C   UNL A   1      39.548  28.428  30.296  1.00  0.00     0.173 A 
ATOM     67  F   UNL A   1      39.503  29.434  26.800  1.00  0.00    -0.203 F 
ATOM     68  C   UNL A   1      37.770  29.378  28.389  1.00  0.00     0.198 A 
ATOM     69  C   UNL A   1      38.208  28.618  30.622  1.00  0.00     0.198 A 
ATOM     70  F   UNL A   1      40.382  27.975  31.243  1.00  0.00    -0.203 F 
ATOM     71  F   UNL A   1      36.921  29.874  27.477  1.00  0.00    -0.200 F 
ATOM     72  C   UNL A   1      37.321  29.101  29.671  1.00  0.00     0.200 A 
ATOM     73  F   UNL A   1      37.773  28.333  31.857  1.00  0.00    -0.200 F 
ATOM     74  F   UNL A   1      36.037  29.306  29.993  1.00  0.00    -0.200 F 
ENDBRANCH  50  64
BRANCH  51  75
ATOM     75  C   UNL A   1      49.417  26.669  26.287  1.00  0.00     0.064 A 
ATOM     76  C   UNL A   1      50.370  26.216  27.211  1.00  0.00     0.173 A 
ATOM     77  C   UNL A   1      49.834  26.856  24.961  1.00  0.00     0.173 A 
ATOM     78  F   UNL A   1      50.025  26.042  28.495  1.00  0.00    -0.203 F 
ATOM     79  C   UNL A   1      51.690  25.987  26.832  1.00  0.00     0.198 A 
ATOM     80  C   UNL A   1      51.148  26.594  24.575  1.00  0.00     0.198 A 
ATOM     81  F   UNL A   1      48.962  27.281  24.035  1.00  0.00    -0.203 F 
ATOM     82  F   UNL A   1      52.591  25.607  27.747  1.00  0.00    -0.200 F 
ATOM     83  C   UNL A   1      52.077  26.170  25.513  1.00  0.00     0.200 A 
ATOM     84  F   UNL A   1      51.513  26.756  23.296  1.00  0.00    -0.200 F 
ATOM     85  F   UNL A   1      53.346  25.946  25.147  1.00  0.00    -0.200 F 
ENDBRANCH  51  75
BRANCH  63  86
ATOM     86  C   UNL A   1      46.195  32.400  28.597  1.00  0.00     0.064 A 
ATOM     87  C   UNL A   1      46.729  32.762  29.844  1.00  0.00     0.173 A 
ATOM     88  C   UNL A   1      46.160  33.378  27.591  1.00  0.00     0.173 A 
ATOM     89  F   UNL A   1      46.772  31.871  30.845  1.00  0.00    -0.203 F 
ATOM     90  C   UNL A   1      47.180  34.059  30.079  1.00  0.00     0.198 A 
ATOM     91  C   UNL A   1      46.646  34.662  27.819  1.00  0.00     0.198 A 
ATOM     92  F   UNL A   1      45.667  33.084  26.378  1.00  0.00    -0.203 F 
ATOM     93  F   UNL A   1      47.636  34.396  31.294  1.00  0.00    -0.200 F 
ATOM     94  C   UNL A   1      47.147  35.004  29.066  1.00  0.00     0.200 A 
ATOM     95  F   UNL A   1      46.629  35.569  26.833  1.00  0.00    -0.200 F 
ATOM     96  F   UNL A   1      47.592  36.248  29.292  1.00  0.00    -0.200 F 
ENDBRANCH  63  86
ENDBRANCH  37  38
ENDBRANCH  29  32
ENDBRANCH  27  28
ENDBRANCH  26  27
ENDBRANCH   1  26
TORSDOF 14
ENDMDL
