MODEL 1
REMARK VINA RESULT:     -12.7      0.000      0.000
REMARK SMILES O=C(COc1ccc(F)cc1)Nc1sccc1C(=O)NCCCCNC(=O)c1ccc(-c2c3nc(c(-c4c(F)c(F)c(F)c(F)c4F)c4ccc([nH]4)c(-c4c(F)c(F)c(F)c(F)c4F)c4nc(c(-c5c(F)c(F)c(F)c(F)c5F)c5ccc2[nH]5)C=C4)C=C3)cc1
REMARK SMILES IDX 21 1 20 2 18 3 19 4 17 6 13 7 14 8 15 9 16 10 12 11 1 12
REMARK SMILES IDX 2 13 3 15 4 16 5 17 6 18 11 19 7 20 10 21 8 22 9 23 22 24
REMARK SMILES IDX 23 25 24 26 25 27 26 28 27 30 28 31 29 32 90 33 30 34 89 35
REMARK SMILES IDX 31 36 32 37 33 38 83 39 34 40 88 41 82 42 84 43 35 44 87 45
REMARK SMILES IDX 81 46 80 47 36 49 68 50 48 51 67 52 49 53 52 54 66 55 85 56
REMARK SMILES IDX 50 57 51 58 65 60 86 61 53 62 37 63 38 64 46 65 39 66 40 67
REMARK SMILES IDX 44 68 47 69 41 70 42 71 45 72 43 73 69 74 70 75 78 76 71 77
REMARK SMILES IDX 72 78 76 79 79 80 73 81 74 82 77 83 75 84 54 85 55 86 63 87
REMARK SMILES IDX 56 88 57 89 61 90 64 91 58 92 59 93 62 94 60 95
REMARK H PARENT 20 5 12 14 25 29 84 48 52 59
REMARK Flexibility Score: inf
ROOT
ATOM      1  C   UNL A   1      33.048  29.912  26.474  1.00  0.00     0.116 C 
ENDROOT
BRANCH   1   2
ATOM      2  N   UNL A   1      33.630  29.675  25.173  1.00  0.00    -0.352 N 
ATOM      3  C   UNL A   1      33.637  28.526  24.408  1.00  0.00     0.254 C 
ATOM      4  O   UNL A   1      34.221  28.576  23.324  1.00  0.00    -0.269 OA
ATOM      5  H   UNL A   1      34.093  30.447  24.773  1.00  0.00     0.163 HD
BRANCH   3   6
ATOM      6  C   UNL A   1      33.124  27.253  24.926  1.00  0.00     0.074 A 
ATOM      7  C   UNL A   1      31.826  26.788  25.026  1.00  0.00     0.108 A 
ATOM      8  S   UNL A   1      31.696  25.343  25.929  1.00  0.00    -0.126 S 
ATOM      9  C   UNL A   1      33.387  25.148  25.972  1.00  0.00     0.068 A 
ATOM     10  C   UNL A   1      34.028  26.228  25.410  1.00  0.00     0.028 A 
BRANCH   7  11
ATOM     11  N   UNL A   1      30.590  27.202  24.591  1.00  0.00    -0.314 N 
ATOM     12  O   UNL A   1      30.939  27.071  22.295  1.00  0.00    -0.271 OA
ATOM     13  C   UNL A   1      30.247  27.367  23.264  1.00  0.00     0.262 C 
ATOM     14  H   UNL A   1      29.904  27.393  25.271  1.00  0.00     0.170 HD
BRANCH  13  15
ATOM     15  C   UNL A   1      28.909  28.091  23.105  1.00  0.00     0.329 C 
BRANCH  15  16
ATOM     16  O   UNL A   1      28.845  28.874  21.913  1.00  0.00    -0.484 OA
BRANCH  16  17
ATOM     17  C   UNL A   1      28.810  30.201  22.239  1.00  0.00     0.120 A 
ATOM     18  C   UNL A   1      29.147  30.606  23.531  1.00  0.00     0.049 A 
ATOM     19  C   UNL A   1      28.455  31.126  21.259  1.00  0.00     0.049 A 
ATOM     20  C   UNL A   1      29.081  31.957  23.859  1.00  0.00     0.043 A 
ATOM     21  C   UNL A   1      28.393  32.477  21.591  1.00  0.00     0.043 A 
ATOM     22  C   UNL A   1      28.700  32.879  22.889  1.00  0.00     0.123 A 
ATOM     23  F   UNL A   1      28.631  34.176  23.210  1.00  0.00    -0.207 F 
ENDBRANCH  16  17
ENDBRANCH  15  16
ENDBRANCH  13  15
ENDBRANCH   7  11
ENDBRANCH   3   6
ENDBRANCH   1   2
BRANCH   1  24
ATOM     24  C   UNL A   1      31.617  30.435  26.464  1.00  0.00     0.023 C 
BRANCH  24  25
ATOM     25  C   UNL A   1      31.442  31.944  26.637  1.00  0.00     0.023 C 
BRANCH  25  26
ATOM     26  C   UNL A   1      32.651  32.755  27.104  1.00  0.00     0.116 C 
BRANCH  26  27
ATOM     27  N   UNL A   1      32.332  34.071  27.639  1.00  0.00    -0.352 N 
ATOM     28  C   UNL A   1      32.995  34.841  28.568  1.00  0.00     0.251 C 
ATOM     29  H   UNL A   1      31.509  34.475  27.278  1.00  0.00     0.163 HD
ATOM     30  O   UNL A   1      32.550  35.950  28.857  1.00  0.00    -0.269 OA
BRANCH  28  31
ATOM     31  C   UNL A   1      34.194  34.330  29.275  1.00  0.00     0.039 A 
ATOM     32  C   UNL A   1      34.004  33.538  30.413  1.00  0.00     0.014 A 
ATOM     33  C   UNL A   1      35.491  34.603  28.834  1.00  0.00     0.014 A 
ATOM     34  C   UNL A   1      35.102  32.944  31.045  1.00  0.00     0.010 A 
ATOM     35  C   UNL A   1      36.577  33.949  29.419  1.00  0.00     0.010 A 
ATOM     36  C   UNL A   1      36.395  33.104  30.524  1.00  0.00    -0.014 A 
BRANCH  36  37
ATOM     37  C   UNL A   1      37.555  32.383  31.119  1.00  0.00     0.031 A 
ATOM     38  C   UNL A   1      38.052  32.739  32.494  1.00  0.00     0.074 A 
ATOM     39  C   UNL A   1      38.198  31.441  30.400  1.00  0.00     0.049 A 
ATOM     40  N   UNL A   1      39.071  32.250  33.157  1.00  0.00    -0.248 NA
ATOM     41  C   UNL A   1      37.326  33.799  33.210  1.00  0.00     0.031 C 
ATOM     42  C   UNL A   1      37.860  31.044  29.031  1.00  0.00     0.029 A 
ATOM     43  N   UNL A   1      39.275  30.647  30.716  1.00  0.00    -0.354 N 
ATOM     44  C   UNL A   1      39.119  32.955  34.352  1.00  0.00     0.074 A 
ATOM     45  C   UNL A   1      38.054  33.934  34.310  1.00  0.00     0.031 C 
ATOM     46  C   UNL A   1      38.693  30.068  28.636  1.00  0.00     0.029 A 
ATOM     47  C   UNL A   1      39.641  29.785  29.710  1.00  0.00     0.049 A 
ATOM     48  H   UNL A   1      39.740  30.692  31.582  1.00  0.00     0.167 HD
ATOM     49  C   UNL A   1      39.958  32.785  35.401  1.00  0.00     0.037 A 
ATOM     50  C   UNL A   1      40.626  28.865  29.659  1.00  0.00     0.037 A 
ATOM     51  C   UNL A   1      40.988  31.782  35.465  1.00  0.00     0.049 A 
ATOM     52  C   UNL A   1      41.504  28.657  30.863  1.00  0.00     0.074 A 
ATOM     53  C   UNL A   1      41.854  31.504  36.509  1.00  0.00     0.029 A 
ATOM     54  N   UNL A   1      41.282  30.886  34.451  1.00  0.00    -0.354 N 
ATOM     55  N   UNL A   1      41.497  29.290  32.011  1.00  0.00    -0.248 NA
ATOM     56  C   UNL A   1      42.516  27.592  30.775  1.00  0.00     0.031 C 
ATOM     57  C   UNL A   1      42.691  30.456  36.116  1.00  0.00     0.029 A 
ATOM     58  C   UNL A   1      42.316  30.052  34.846  1.00  0.00     0.049 A 
ATOM     59  H   UNL A   1      40.824  30.846  33.580  1.00  0.00     0.167 HD
ATOM     60  C   UNL A   1      42.473  28.683  32.789  1.00  0.00     0.074 A 
ATOM     61  C   UNL A   1      43.048  27.623  31.988  1.00  0.00     0.031 C 
ATOM     62  C   UNL A   1      42.858  28.980  34.053  1.00  0.00     0.037 A 
BRANCH  49  63
ATOM     63  C   UNL A   1      39.790  33.685  36.589  1.00  0.00     0.064 A 
ATOM     64  C   UNL A   1      38.937  33.325  37.642  1.00  0.00     0.173 A 
ATOM     65  C   UNL A   1      40.405  34.945  36.641  1.00  0.00     0.173 A 
ATOM     66  F   UNL A   1      38.320  32.133  37.635  1.00  0.00    -0.203 F 
ATOM     67  C   UNL A   1      38.691  34.201  38.696  1.00  0.00     0.198 A 
ATOM     68  C   UNL A   1      40.177  35.807  37.709  1.00  0.00     0.198 A 
ATOM     69  F   UNL A   1      41.237  35.331  35.663  1.00  0.00    -0.203 F 
ATOM     70  F   UNL A   1      37.845  33.850  39.674  1.00  0.00    -0.200 F 
ATOM     71  C   UNL A   1      39.312  35.440  38.729  1.00  0.00     0.200 A 
ATOM     72  F   UNL A   1      40.794  36.996  37.751  1.00  0.00    -0.200 F 
ATOM     73  F   UNL A   1      39.077  36.281  39.746  1.00  0.00    -0.200 F 
ENDBRANCH  49  63
BRANCH  50  74
ATOM     74  C   UNL A   1      40.802  28.035  28.439  1.00  0.00     0.064 A 
ATOM     75  C   UNL A   1      41.602  28.465  27.371  1.00  0.00     0.173 A 
ATOM     76  C   UNL A   1      40.173  26.788  28.321  1.00  0.00     0.173 A 
ATOM     77  F   UNL A   1      42.222  29.653  27.431  1.00  0.00    -0.203 F 
ATOM     78  C   UNL A   1      41.759  27.682  26.229  1.00  0.00     0.198 A 
ATOM     79  C   UNL A   1      40.352  25.994  27.189  1.00  0.00     0.198 A 
ATOM     80  F   UNL A   1      39.414  26.324  29.324  1.00  0.00    -0.203 F 
ATOM     81  F   UNL A   1      42.511  28.127  25.212  1.00  0.00    -0.200 F 
ATOM     82  C   UNL A   1      41.141  26.443  26.142  1.00  0.00     0.200 A 
ATOM     83  F   UNL A   1      39.774  24.787  27.123  1.00  0.00    -0.200 F 
ATOM     84  F   UNL A   1      41.311  25.682  25.053  1.00  0.00    -0.200 F 
ENDBRANCH  50  74
BRANCH  62  85
ATOM     85  C   UNL A   1      43.914  28.121  34.683  1.00  0.00     0.064 A 
ATOM     86  C   UNL A   1      43.552  26.959  35.382  1.00  0.00     0.173 A 
ATOM     87  C   UNL A   1      45.268  28.481  34.660  1.00  0.00     0.173 A 
ATOM     88  F   UNL A   1      42.267  26.576  35.440  1.00  0.00    -0.203 F 
ATOM     89  C   UNL A   1      44.509  26.194  36.042  1.00  0.00     0.198 A 
ATOM     90  C   UNL A   1      46.226  27.700  35.299  1.00  0.00     0.198 A 
ATOM     91  F   UNL A   1      45.663  29.578  33.996  1.00  0.00    -0.203 F 
ATOM     92  F   UNL A   1      44.137  25.104  36.728  1.00  0.00    -0.200 F 
ATOM     93  C   UNL A   1      45.845  26.562  35.996  1.00  0.00     0.200 A 
ATOM     94  F   UNL A   1      47.520  28.044  35.237  1.00  0.00    -0.200 F 
ATOM     95  F   UNL A   1      46.768  25.819  36.624  1.00  0.00    -0.200 F 
ENDBRANCH  62  85
ENDBRANCH  36  37
ENDBRANCH  28  31
ENDBRANCH  26  27
ENDBRANCH  25  26
ENDBRANCH  24  25
ENDBRANCH   1  24
TORSDOF 15
ENDMDL
MODEL 2
REMARK VINA RESULT:     -12.4      0.596      7.466
REMARK SMILES O=C(COc1ccc(F)cc1)Nc1sccc1C(=O)NCCCCNC(=O)c1ccc(-c2c3nc(c(-c4c(F)c(F)c(F)c(F)c4F)c4ccc([nH]4)c(-c4c(F)c(F)c(F)c(F)c4F)c4nc(c(-c5c(F)c(F)c(F)c(F)c5F)c5ccc2[nH]5)C=C4)C=C3)cc1
REMARK SMILES IDX 21 1 20 2 18 3 19 4 17 6 13 7 14 8 15 9 16 10 12 11 1 12
REMARK SMILES IDX 2 13 3 15 4 16 5 17 6 18 11 19 7 20 10 21 8 22 9 23 22 24
REMARK SMILES IDX 23 25 24 26 25 27 26 28 27 30 28 31 29 32 90 33 30 34 89 35
REMARK SMILES IDX 31 36 32 37 33 38 83 39 34 40 88 41 82 42 84 43 35 44 87 45
REMARK SMILES IDX 81 46 80 47 36 49 68 50 48 51 67 52 49 53 52 54 66 55 85 56
REMARK SMILES IDX 50 57 51 58 65 60 86 61 53 62 37 63 38 64 46 65 39 66 40 67
REMARK SMILES IDX 44 68 47 69 41 70 42 71 45 72 43 73 69 74 70 75 78 76 71 77
REMARK SMILES IDX 72 78 76 79 79 80 73 81 74 82 77 83 75 84 54 85 55 86 63 87
REMARK SMILES IDX 56 88 57 89 61 90 64 91 58 92 59 93 62 94 60 95
REMARK H PARENT 20 5 12 14 25 29 84 48 52 59
REMARK Flexibility Score: inf
ROOT
ATOM      1  C   UNL A   1      33.171  29.591  26.475  1.00  0.00     0.116 C 
ENDROOT
BRANCH   1   2
ATOM      2  N   UNL A   1      33.634  29.545  25.107  1.00  0.00    -0.352 N 
ATOM      3  C   UNL A   1      33.558  28.520  24.186  1.00  0.00     0.254 C 
ATOM      4  O   UNL A   1      34.046  28.727  23.074  1.00  0.00    -0.269 OA
ATOM      5  H   UNL A   1      34.070  30.367  24.783  1.00  0.00     0.163 HD
BRANCH   3   6
ATOM      6  C   UNL A   1      33.076  27.186  24.558  1.00  0.00     0.074 A 
ATOM      7  C   UNL A   1      31.787  26.693  24.641  1.00  0.00     0.108 A 
ATOM      8  S   UNL A   1      31.701  25.146  25.360  1.00  0.00    -0.126 S 
ATOM      9  C   UNL A   1      33.395  24.971  25.325  1.00  0.00     0.068 A 
ATOM     10  C   UNL A   1      34.006  26.121  24.883  1.00  0.00     0.028 A 
BRANCH   7  11
ATOM     11  N   UNL A   1      30.533  27.140  24.299  1.00  0.00    -0.314 N 
ATOM     12  O   UNL A   1      30.810  27.307  21.996  1.00  0.00    -0.271 OA
ATOM     13  C   UNL A   1      30.146  27.467  23.015  1.00  0.00     0.262 C 
ATOM     14  H   UNL A   1      29.867  27.233  25.018  1.00  0.00     0.170 HD
BRANCH  13  15
ATOM     15  C   UNL A   1      28.795  28.184  22.990  1.00  0.00     0.329 C 
BRANCH  15  16
ATOM     16  O   UNL A   1      28.630  29.007  21.834  1.00  0.00    -0.484 OA
BRANCH  16  17
ATOM     17  C   UNL A   1      28.653  30.322  22.203  1.00  0.00     0.120 A 
ATOM     18  C   UNL A   1      28.251  31.303  21.297  1.00  0.00     0.049 A 
ATOM     19  C   UNL A   1      29.064  30.653  23.494  1.00  0.00     0.049 A 
ATOM     20  C   UNL A   1      28.306  32.641  21.674  1.00  0.00     0.043 A 
ATOM     21  C   UNL A   1      29.114  31.993  23.867  1.00  0.00     0.043 A 
ATOM     22  C   UNL A   1      28.741  32.975  22.953  1.00  0.00     0.123 A 
ATOM     23  F   UNL A   1      28.799  34.263  23.310  1.00  0.00    -0.207 F 
ENDBRANCH  16  17
ENDBRANCH  15  16
ENDBRANCH  13  15
ENDBRANCH   7  11
ENDBRANCH   3   6
ENDBRANCH   1   2
BRANCH   1  24
ATOM     24  C   UNL A   1      31.764  30.141  26.671  1.00  0.00     0.023 C 
BRANCH  24  25
ATOM     25  C   UNL A   1      31.614  31.663  26.626  1.00  0.00     0.023 C 
BRANCH  25  26
ATOM     26  C   UNL A   1      32.777  32.511  27.142  1.00  0.00     0.116 C 
BRANCH  26  27
ATOM     27  N   UNL A   1      32.406  33.847  27.583  1.00  0.00    -0.352 N 
ATOM     28  C   UNL A   1      33.015  34.689  28.487  1.00  0.00     0.251 C 
ATOM     29  H   UNL A   1      31.589  34.207  27.169  1.00  0.00     0.163 HD
ATOM     30  O   UNL A   1      32.533  35.801  28.692  1.00  0.00    -0.269 OA
BRANCH  28  31
ATOM     31  C   UNL A   1      34.199  34.253  29.267  1.00  0.00     0.039 A 
ATOM     32  C   UNL A   1      33.985  33.528  30.445  1.00  0.00     0.014 A 
ATOM     33  C   UNL A   1      35.504  34.530  28.857  1.00  0.00     0.014 A 
ATOM     34  C   UNL A   1      35.071  33.002  31.153  1.00  0.00     0.010 A 
ATOM     35  C   UNL A   1      36.583  33.941  29.521  1.00  0.00     0.010 A 
ATOM     36  C   UNL A   1      36.379  33.162  30.670  1.00  0.00    -0.014 A 
BRANCH  36  37
ATOM     37  C   UNL A   1      37.531  32.508  31.349  1.00  0.00     0.031 A 
ATOM     38  C   UNL A   1      38.271  31.380  30.683  1.00  0.00     0.074 A 
ATOM     39  C   UNL A   1      37.882  32.892  32.594  1.00  0.00     0.049 A 
ATOM     40  N   UNL A   1      39.269  30.663  31.136  1.00  0.00    -0.248 NA
ATOM     41  C   UNL A   1      37.816  30.987  29.340  1.00  0.00     0.031 C 
ATOM     42  C   UNL A   1      37.209  33.929  33.380  1.00  0.00     0.029 A 
ATOM     43  N   UNL A   1      38.888  32.454  33.421  1.00  0.00    -0.354 N 
ATOM     44  C   UNL A   1      39.544  29.727  30.148  1.00  0.00     0.074 A 
ATOM     45  C   UNL A   1      38.584  29.937  29.086  1.00  0.00     0.031 C 
ATOM     46  C   UNL A   1      37.835  34.063  34.560  1.00  0.00     0.029 A 
ATOM     47  C   UNL A   1      38.936  33.107  34.629  1.00  0.00     0.049 A 
ATOM     48  H   UNL A   1      39.516  31.738  33.171  1.00  0.00     0.167 HD
ATOM     49  C   UNL A   1      40.526  28.795  30.117  1.00  0.00     0.037 A 
ATOM     50  C   UNL A   1      39.777  32.959  35.673  1.00  0.00     0.037 A 
ATOM     51  C   UNL A   1      41.511  28.614  31.149  1.00  0.00     0.049 A 
ATOM     52  C   UNL A   1      40.895  31.956  35.584  1.00  0.00     0.074 A 
ATOM     53  C   UNL A   1      42.573  27.726  31.180  1.00  0.00     0.029 A 
ATOM     54  N   UNL A   1      41.564  29.342  32.327  1.00  0.00    -0.354 N 
ATOM     55  N   UNL A   1      41.180  31.120  34.616  1.00  0.00    -0.248 NA
ATOM     56  C   UNL A   1      41.822  31.887  36.724  1.00  0.00     0.031 C 
ATOM     57  C   UNL A   1      43.253  27.899  32.389  1.00  0.00     0.029 A 
ATOM     58  C   UNL A   1      42.642  28.924  33.090  1.00  0.00     0.049 A 
ATOM     59  H   UNL A   1      40.930  30.051  32.583  1.00  0.00     0.167 HD
ATOM     60  C   UNL A   1      42.331  30.454  35.012  1.00  0.00     0.074 A 
ATOM     61  C   UNL A   1      42.700  30.988  36.305  1.00  0.00     0.031 C 
ATOM     62  C   UNL A   1      43.018  29.485  34.361  1.00  0.00     0.037 A 
BRANCH  49  63
ATOM     63  C   UNL A   1      40.610  27.903  28.913  1.00  0.00     0.064 A 
ATOM     64  C   UNL A   1      41.397  28.265  27.811  1.00  0.00     0.173 A 
ATOM     65  C   UNL A   1      39.840  26.735  28.817  1.00  0.00     0.173 A 
ATOM     66  F   UNL A   1      42.146  29.378  27.851  1.00  0.00    -0.203 F 
ATOM     67  C   UNL A   1      41.396  27.499  26.648  1.00  0.00     0.198 A 
ATOM     68  C   UNL A   1      39.861  25.958  27.663  1.00  0.00     0.198 A 
ATOM     69  F   UNL A   1      39.078  26.341  29.849  1.00  0.00    -0.203 F 
ATOM     70  F   UNL A   1      42.129  27.883  25.593  1.00  0.00    -0.200 F 
ATOM     71  C   UNL A   1      40.630  26.346  26.576  1.00  0.00     0.200 A 
ATOM     72  F   UNL A   1      39.136  24.832  27.602  1.00  0.00    -0.200 F 
ATOM     73  F   UNL A   1      40.632  25.608  25.457  1.00  0.00    -0.200 F 
ENDBRANCH  49  63
BRANCH  50  74
ATOM     74  C   UNL A   1      39.623  33.818  36.876  1.00  0.00     0.064 A 
ATOM     75  C   UNL A   1      38.867  33.401  37.981  1.00  0.00     0.173 A 
ATOM     76  C   UNL A   1      40.235  35.078  36.943  1.00  0.00     0.173 A 
ATOM     77  F   UNL A   1      38.256  32.208  37.965  1.00  0.00    -0.203 F 
ATOM     78  C   UNL A   1      38.724  34.214  39.103  1.00  0.00     0.198 A 
ATOM     79  C   UNL A   1      40.113  35.879  38.077  1.00  0.00     0.198 A 
ATOM     80  F   UNL A   1      40.984  35.513  35.920  1.00  0.00    -0.203 F 
ATOM     81  F   UNL A   1      37.977  33.801  40.137  1.00  0.00    -0.200 F 
ATOM     82  C   UNL A   1      39.355  35.449  39.155  1.00  0.00     0.200 A 
ATOM     83  F   UNL A   1      40.746  37.059  38.132  1.00  0.00    -0.200 F 
ATOM     84  F   UNL A   1      39.235  36.220  40.244  1.00  0.00    -0.200 F 
ENDBRANCH  50  74
BRANCH  62  85
ATOM     85  C   UNL A   1      44.273  28.968  34.999  1.00  0.00     0.064 A 
ATOM     86  C   UNL A   1      45.515  29.536  34.676  1.00  0.00     0.173 A 
ATOM     87  C   UNL A   1      44.259  27.870  35.871  1.00  0.00     0.173 A 
ATOM     88  F   UNL A   1      45.582  30.584  33.840  1.00  0.00    -0.203 F 
ATOM     89  C   UNL A   1      46.697  29.017  35.194  1.00  0.00     0.198 A 
ATOM     90  C   UNL A   1      45.441  27.370  36.408  1.00  0.00     0.198 A 
ATOM     91  F   UNL A   1      43.095  27.299  36.218  1.00  0.00    -0.203 F 
ATOM     92  F   UNL A   1      47.874  29.558  34.848  1.00  0.00    -0.200 F 
ATOM     93  C   UNL A   1      46.659  27.937  36.064  1.00  0.00     0.200 A 
ATOM     94  F   UNL A   1      45.402  26.340  37.265  1.00  0.00    -0.200 F 
ATOM     95  F   UNL A   1      47.797  27.445  36.572  1.00  0.00    -0.200 F 
ENDBRANCH  62  85
ENDBRANCH  36  37
ENDBRANCH  28  31
ENDBRANCH  26  27
ENDBRANCH  25  26
ENDBRANCH  24  25
ENDBRANCH   1  24
TORSDOF 15
ENDMDL
MODEL 3
REMARK VINA RESULT:     -12.3      0.467      2.022
REMARK SMILES O=C(COc1ccc(F)cc1)Nc1sccc1C(=O)NCCCCNC(=O)c1ccc(-c2c3nc(c(-c4c(F)c(F)c(F)c(F)c4F)c4ccc([nH]4)c(-c4c(F)c(F)c(F)c(F)c4F)c4nc(c(-c5c(F)c(F)c(F)c(F)c5F)c5ccc2[nH]5)C=C4)C=C3)cc1
REMARK SMILES IDX 21 1 20 2 18 3 19 4 17 6 13 7 14 8 15 9 16 10 12 11 1 12
REMARK SMILES IDX 2 13 3 15 4 16 5 17 6 18 11 19 7 20 10 21 8 22 9 23 22 24
REMARK SMILES IDX 23 25 24 26 25 27 26 28 27 30 28 31 29 32 90 33 30 34 89 35
REMARK SMILES IDX 31 36 32 37 33 38 83 39 34 40 88 41 82 42 84 43 35 44 87 45
REMARK SMILES IDX 81 46 80 47 36 49 68 50 48 51 67 52 49 53 52 54 66 55 85 56
REMARK SMILES IDX 50 57 51 58 65 60 86 61 53 62 37 63 38 64 46 65 39 66 40 67
REMARK SMILES IDX 44 68 47 69 41 70 42 71 45 72 43 73 69 74 70 75 78 76 71 77
REMARK SMILES IDX 72 78 76 79 79 80 73 81 74 82 77 83 75 84 54 85 55 86 63 87
REMARK SMILES IDX 56 88 57 89 61 90 64 91 58 92 59 93 62 94 60 95
REMARK H PARENT 20 5 12 14 25 29 84 48 52 59
REMARK Flexibility Score: inf
ROOT
ATOM      1  C   UNL A   1      32.937  29.936  26.588  1.00  0.00     0.116 C 
ENDROOT
BRANCH   1   2
ATOM      2  N   UNL A   1      33.649  29.696  25.354  1.00  0.00    -0.352 N 
ATOM      3  C   UNL A   1      33.712  28.554  24.582  1.00  0.00     0.254 C 
ATOM      4  O   UNL A   1      34.409  28.600  23.567  1.00  0.00    -0.269 OA
ATOM      5  H   UNL A   1      34.167  30.461  25.013  1.00  0.00     0.163 HD
BRANCH   3   6
ATOM      6  C   UNL A   1      33.121  27.289  25.031  1.00  0.00     0.074 A 
ATOM      7  C   UNL A   1      31.802  26.878  25.053  1.00  0.00     0.108 A 
ATOM      8  S   UNL A   1      31.567  25.411  25.897  1.00  0.00    -0.126 S 
ATOM      9  C   UNL A   1      33.244  25.140  26.013  1.00  0.00     0.068 A 
ATOM     10  C   UNL A   1      33.956  26.209  25.521  1.00  0.00     0.028 A 
BRANCH   7  11
ATOM     11  N   UNL A   1      30.607  27.360  24.574  1.00  0.00    -0.314 N 
ATOM     12  O   UNL A   1      30.923  26.956  22.305  1.00  0.00    -0.271 OA
ATOM     13  C   UNL A   1      30.270  27.416  23.236  1.00  0.00     0.262 C 
ATOM     14  H   UNL A   1      29.948  27.685  25.229  1.00  0.00     0.170 HD
BRANCH  13  15
ATOM     15  C   UNL A   1      29.005  28.243  23.000  1.00  0.00     0.329 C 
BRANCH  15  16
ATOM     16  O   UNL A   1      29.016  29.481  23.712  1.00  0.00    -0.484 OA
BRANCH  16  17
ATOM     17  C   UNL A   1      28.678  30.498  22.865  1.00  0.00     0.120 A 
ATOM     18  C   UNL A   1      28.754  31.820  23.304  1.00  0.00     0.049 A 
ATOM     19  C   UNL A   1      28.279  30.188  21.565  1.00  0.00     0.049 A 
ATOM     20  C   UNL A   1      28.379  32.846  22.441  1.00  0.00     0.043 A 
ATOM     21  C   UNL A   1      27.907  31.218  20.705  1.00  0.00     0.043 A 
ATOM     22  C   UNL A   1      27.955  32.536  21.153  1.00  0.00     0.123 A 
ATOM     23  F   UNL A   1      27.589  33.525  20.329  1.00  0.00    -0.207 F 
ENDBRANCH  16  17
ENDBRANCH  15  16
ENDBRANCH  13  15
ENDBRANCH   7  11
ENDBRANCH   3   6
ENDBRANCH   1   2
BRANCH   1  24
ATOM     24  C   UNL A   1      31.534  30.509  26.434  1.00  0.00     0.023 C 
BRANCH  24  25
ATOM     25  C   UNL A   1      31.400  32.028  26.566  1.00  0.00     0.023 C 
BRANCH  25  26
ATOM     26  C   UNL A   1      32.599  32.806  27.108  1.00  0.00     0.116 C 
BRANCH  26  27
ATOM     27  N   UNL A   1      32.283  34.133  27.615  1.00  0.00    -0.352 N 
ATOM     28  C   UNL A   1      32.949  34.920  28.529  1.00  0.00     0.251 C 
ATOM     29  H   UNL A   1      31.462  34.532  27.247  1.00  0.00     0.163 HD
ATOM     30  O   UNL A   1      32.507  36.036  28.796  1.00  0.00    -0.269 OA
BRANCH  28  31
ATOM     31  C   UNL A   1      34.147  34.421  29.245  1.00  0.00     0.039 A 
ATOM     32  C   UNL A   1      33.961  33.743  30.455  1.00  0.00     0.014 A 
ATOM     33  C   UNL A   1      35.440  34.594  28.745  1.00  0.00     0.014 A 
ATOM     34  C   UNL A   1      35.051  33.158  31.108  1.00  0.00     0.010 A 
ATOM     35  C   UNL A   1      36.516  33.947  29.356  1.00  0.00     0.010 A 
ATOM     36  C   UNL A   1      36.333  33.213  30.539  1.00  0.00    -0.014 A 
BRANCH  36  37
ATOM     37  C   UNL A   1      37.479  32.496  31.163  1.00  0.00     0.031 A 
ATOM     38  C   UNL A   1      37.953  32.868  32.542  1.00  0.00     0.074 A 
ATOM     39  C   UNL A   1      38.132  31.542  30.468  1.00  0.00     0.049 A 
ATOM     40  N   UNL A   1      38.958  32.385  33.230  1.00  0.00    -0.248 NA
ATOM     41  C   UNL A   1      37.217  33.940  33.231  1.00  0.00     0.031 C 
ATOM     42  C   UNL A   1      37.818  31.129  29.099  1.00  0.00     0.029 A 
ATOM     43  N   UNL A   1      39.201  30.750  30.814  1.00  0.00    -0.354 N 
ATOM     44  C   UNL A   1      38.987  33.106  34.416  1.00  0.00     0.074 A 
ATOM     45  C   UNL A   1      37.926  34.087  34.342  1.00  0.00     0.031 C 
ATOM     46  C   UNL A   1      38.654  30.145  28.732  1.00  0.00     0.029 A 
ATOM     47  C   UNL A   1      39.582  29.873  29.826  1.00  0.00     0.049 A 
ATOM     48  H   UNL A   1      39.651  30.804  31.688  1.00  0.00     0.167 HD
ATOM     49  C   UNL A   1      39.806  32.946  35.483  1.00  0.00     0.037 A 
ATOM     50  C   UNL A   1      40.564  28.950  29.805  1.00  0.00     0.037 A 
ATOM     51  C   UNL A   1      40.831  31.942  35.579  1.00  0.00     0.049 A 
ATOM     52  C   UNL A   1      41.420  28.754  31.028  1.00  0.00     0.074 A 
ATOM     53  C   UNL A   1      41.678  31.674  36.642  1.00  0.00     0.029 A 
ATOM     54  N   UNL A   1      41.141  31.031  34.581  1.00  0.00    -0.354 N 
ATOM     55  N   UNL A   1      41.395  29.403  32.166  1.00  0.00    -0.248 NA
ATOM     56  C   UNL A   1      42.429  27.685  30.971  1.00  0.00     0.031 C 
ATOM     57  C   UNL A   1      42.518  30.618  36.277  1.00  0.00     0.029 A 
ATOM     58  C   UNL A   1      42.165  30.199  35.006  1.00  0.00     0.049 A 
ATOM     59  H   UNL A   1      40.699  30.981  33.703  1.00  0.00     0.167 HD
ATOM     60  C   UNL A   1      42.354  28.802  32.970  1.00  0.00     0.074 A 
ATOM     61  C   UNL A   1      42.939  27.730  32.194  1.00  0.00     0.031 C 
ATOM     62  C   UNL A   1      42.717  29.115  34.237  1.00  0.00     0.037 A 
BRANCH  49  63
ATOM     63  C   UNL A   1      39.620  33.862  36.655  1.00  0.00     0.064 A 
ATOM     64  C   UNL A   1      40.320  35.074  36.733  1.00  0.00     0.173 A 
ATOM     65  C   UNL A   1      38.815  33.496  37.745  1.00  0.00     0.173 A 
ATOM     66  F   UNL A   1      41.109  35.466  35.720  1.00  0.00    -0.203 F 
ATOM     67  C   UNL A   1      40.236  35.879  37.867  1.00  0.00     0.198 A 
ATOM     68  C   UNL A   1      38.713  34.315  38.865  1.00  0.00     0.198 A 
ATOM     69  F   UNL A   1      38.117  32.350  37.714  1.00  0.00    -0.203 F 
ATOM     70  F   UNL A   1      40.942  37.016  37.933  1.00  0.00    -0.200 F 
ATOM     71  C   UNL A   1      39.432  35.499  38.930  1.00  0.00     0.200 A 
ATOM     72  F   UNL A   1      37.919  33.957  39.884  1.00  0.00    -0.200 F 
ATOM     73  F   UNL A   1      39.350  36.276  40.019  1.00  0.00    -0.200 F 
ENDBRANCH  49  63
BRANCH  50  74
ATOM     74  C   UNL A   1      40.760  28.103  28.599  1.00  0.00     0.064 A 
ATOM     75  C   UNL A   1      40.138  26.852  28.475  1.00  0.00     0.173 A 
ATOM     76  C   UNL A   1      41.575  28.533  27.543  1.00  0.00     0.173 A 
ATOM     77  F   UNL A   1      39.353  26.392  29.459  1.00  0.00    -0.203 F 
ATOM     78  C   UNL A   1      40.330  26.063  27.343  1.00  0.00     0.198 A 
ATOM     79  C   UNL A   1      41.745  27.754  26.400  1.00  0.00     0.198 A 
ATOM     80  F   UNL A   1      42.176  29.730  27.607  1.00  0.00    -0.203 F 
ATOM     81  F   UNL A   1      39.741  24.862  27.259  1.00  0.00    -0.200 F 
ATOM     82  C   UNL A   1      41.126  26.518  26.302  1.00  0.00     0.200 A 
ATOM     83  F   UNL A   1      42.494  28.211  25.387  1.00  0.00    -0.200 F 
ATOM     84  F   UNL A   1      41.292  25.767  25.205  1.00  0.00    -0.200 F 
ENDBRANCH  50  74
BRANCH  62  85
ATOM     85  C   UNL A   1      43.758  28.261  34.897  1.00  0.00     0.064 A 
ATOM     86  C   UNL A   1      45.119  28.578  34.761  1.00  0.00     0.173 A 
ATOM     87  C   UNL A   1      43.421  27.095  35.598  1.00  0.00     0.173 A 
ATOM     88  F   UNL A   1      45.494  29.679  34.091  1.00  0.00    -0.203 F 
ATOM     89  C   UNL A   1      46.103  27.752  35.296  1.00  0.00     0.198 A 
ATOM     90  C   UNL A   1      44.406  26.286  36.155  1.00  0.00     0.198 A 
ATOM     91  F   UNL A   1      42.133  26.756  35.763  1.00  0.00    -0.203 F 
ATOM     92  F   UNL A   1      47.398  28.059  35.129  1.00  0.00    -0.200 F 
ATOM     93  C   UNL A   1      45.746  26.610  35.997  1.00  0.00     0.200 A 
ATOM     94  F   UNL A   1      44.060  25.194  36.850  1.00  0.00    -0.200 F 
ATOM     95  F   UNL A   1      46.694  25.821  36.521  1.00  0.00    -0.200 F 
ENDBRANCH  62  85
ENDBRANCH  36  37
ENDBRANCH  28  31
ENDBRANCH  26  27
ENDBRANCH  25  26
ENDBRANCH  24  25
ENDBRANCH   1  24
TORSDOF 15
ENDMDL
