MODEL 1
REMARK VINA RESULT:     -13.0      0.000      0.000
REMARK SMILES Cc1ccc(C)c(Oc2cccc(F)c2C(=O)NCCCCNC(=O)c2ccc(-c3c4nc(c(-c5c(F)c(F)c(F)c(F)c5F)c5ccc([nH]5)c(-c5c(F)c(F)c(F)c(F)c5F)c5nc(c(-c6c(F)c(F)c(F)c(F)c6F)c6ccc3[nH]6)C=C5)C=C4)cc2)c1
REMARK SMILES IDX 20 1 19 2 18 3 16 4 17 5 15 7 9 8 10 9 11 10 13 11 12 12
REMARK SMILES IDX 14 13 8 14 7 15 1 16 2 17 3 18 89 19 4 20 5 21 6 22 21 23
REMARK SMILES IDX 22 24 23 25 24 26 25 28 26 29 27 30 88 31 28 32 87 33 29 34
REMARK SMILES IDX 30 35 31 36 81 37 32 38 86 39 80 40 82 41 33 42 85 43 79 44
REMARK SMILES IDX 78 45 34 47 66 48 46 49 65 50 47 51 50 52 64 53 83 54 48 55
REMARK SMILES IDX 49 56 63 58 84 59 51 60 35 61 36 62 44 63 37 64 38 65 42 66
REMARK SMILES IDX 45 67 39 68 40 69 43 70 41 71 67 72 68 73 76 74 69 75 70 76
REMARK SMILES IDX 74 77 77 78 71 79 72 80 75 81 73 82 52 83 53 84 61 85 54 86
REMARK SMILES IDX 55 87 59 88 62 89 56 90 57 91 60 92 58 93
REMARK H PARENT 18 6 23 27 82 46 50 57
REMARK Flexibility Score: inf
ROOT
ATOM      1  C   UNL A   1      37.787  23.152  25.885  1.00  0.00     0.023 C 
ENDROOT
BRANCH   1   2
ATOM      2  C   UNL A   1      36.652  23.387  24.886  1.00  0.00     0.116 C 
BRANCH   2   3
ATOM      3  N   UNL A   1      35.411  22.663  25.107  1.00  0.00    -0.352 N 
ATOM      4  C   UNL A   1      34.147  22.789  24.549  1.00  0.00     0.258 C 
ATOM      5  O   UNL A   1      33.340  21.901  24.827  1.00  0.00    -0.269 OA
ATOM      6  H   UNL A   1      35.481  21.948  25.781  1.00  0.00     0.163 HD
BRANCH   4   7
ATOM      7  C   UNL A   1      33.711  23.964  23.735  1.00  0.00     0.118 A 
ATOM      8  C   UNL A   1      33.756  25.265  24.269  1.00  0.00     0.143 A 
ATOM      9  C   UNL A   1      33.624  26.396  23.441  1.00  0.00     0.048 A 
ATOM     10  C   UNL A   1      33.283  26.242  22.103  1.00  0.00     0.007 A 
ATOM     11  C   UNL A   1      33.226  23.846  22.435  1.00  0.00     0.139 A 
ATOM     12  C   UNL A   1      33.035  24.964  21.615  1.00  0.00     0.040 A 
ATOM     13  F   UNL A   1      32.858  22.655  21.937  1.00  0.00    -0.206 F 
BRANCH   8  14
ATOM     14  O   UNL A   1      33.887  25.481  25.625  1.00  0.00    -0.456 OA
BRANCH  14  15
ATOM     15  C   UNL A   1      33.338  26.649  26.152  1.00  0.00     0.130 A 
ATOM     16  C   UNL A   1      34.264  30.202  27.251  1.00  0.00     0.044 C 
ATOM     17  C   UNL A   1      33.469  28.961  26.970  1.00  0.00    -0.047 A 
ATOM     18  C   UNL A   1      32.103  28.927  27.251  1.00  0.00     0.004 A 
ATOM     19  C   UNL A   1      34.072  27.825  26.407  1.00  0.00     0.050 A 
ATOM     20  C   UNL A   1      31.356  27.783  26.970  1.00  0.00     0.007 A 
ATOM     21  C   UNL A   1      31.961  26.636  26.424  1.00  0.00    -0.008 A 
ATOM     22  C   UNL A   1      31.083  25.455  26.119  1.00  0.00     0.048 C 
ENDBRANCH  14  15
ENDBRANCH   8  14
ENDBRANCH   4   7
ENDBRANCH   2   3
ENDBRANCH   1   2
BRANCH   1  23
ATOM     23  C   UNL A   1      38.730  21.948  25.749  1.00  0.00     0.023 C 
BRANCH  23  24
ATOM     24  C   UNL A   1      39.772  21.689  26.840  1.00  0.00     0.116 C 
BRANCH  24  25
ATOM     25  N   UNL A   1      41.177  21.884  26.432  1.00  0.00    -0.352 N 
ATOM     26  C   UNL A   1      41.898  23.044  26.136  1.00  0.00     0.251 C 
ATOM     27  H   UNL A   1      41.696  21.052  26.354  1.00  0.00     0.163 HD
ATOM     28  O   UNL A   1      42.911  22.991  25.460  1.00  0.00    -0.269 OA
BRANCH  26  29
ATOM     29  C   UNL A   1      41.460  24.347  26.681  1.00  0.00     0.039 A 
ATOM     30  C   UNL A   1      40.511  25.210  26.120  1.00  0.00     0.014 A 
ATOM     31  C   UNL A   1      42.146  24.791  27.777  1.00  0.00     0.014 A 
ATOM     32  C   UNL A   1      40.333  26.479  26.701  1.00  0.00     0.010 A 
ATOM     33  C   UNL A   1      41.560  25.696  28.584  1.00  0.00     0.010 A 
ATOM     34  C   UNL A   1      40.936  26.725  27.931  1.00  0.00    -0.014 A 
BRANCH  34  35
ATOM     35  C   UNL A   1      40.998  27.967  28.677  1.00  0.00     0.031 A 
ATOM     36  C   UNL A   1      42.011  28.932  28.194  1.00  0.00     0.074 A 
ATOM     37  C   UNL A   1      39.937  28.389  29.408  1.00  0.00     0.049 A 
ATOM     38  N   UNL A   1      43.081  29.318  28.801  1.00  0.00    -0.248 NA
ATOM     39  C   UNL A   1      41.909  29.412  26.805  1.00  0.00     0.031 C 
ATOM     40  C   UNL A   1      38.629  27.742  29.601  1.00  0.00     0.029 A 
ATOM     41  N   UNL A   1      39.766  29.583  30.035  1.00  0.00    -0.354 N 
ATOM     42  C   UNL A   1      43.695  30.216  27.935  1.00  0.00     0.074 A 
ATOM     43  C   UNL A   1      43.085  30.019  26.651  1.00  0.00     0.031 C 
ATOM     44  C   UNL A   1      37.754  28.634  30.122  1.00  0.00     0.029 A 
ATOM     45  C   UNL A   1      38.461  29.868  30.416  1.00  0.00     0.049 A 
ATOM     46  H   UNL A   1      40.514  30.200  30.207  1.00  0.00     0.167 HD
ATOM     47  C   UNL A   1      44.468  31.239  28.393  1.00  0.00     0.037 A 
ATOM     48  C   UNL A   1      38.012  31.066  30.867  1.00  0.00     0.037 A 
ATOM     49  C   UNL A   1      44.757  31.073  29.796  1.00  0.00     0.049 A 
ATOM     50  C   UNL A   1      39.209  31.851  31.284  1.00  0.00     0.074 A 
ATOM     51  C   UNL A   1      45.357  30.073  30.539  1.00  0.00     0.029 A 
ATOM     52  N   UNL A   1      44.033  31.820  30.697  1.00  0.00    -0.354 N 
ATOM     53  N   UNL A   1      39.966  31.544  32.301  1.00  0.00    -0.248 NA
ATOM     54  C   UNL A   1      39.825  32.718  30.288  1.00  0.00     0.031 C 
ATOM     55  C   UNL A   1      44.569  29.971  31.724  1.00  0.00     0.029 A 
ATOM     56  C   UNL A   1      43.586  30.961  31.671  1.00  0.00     0.049 A 
ATOM     57  H   UNL A   1      43.865  32.789  30.651  1.00  0.00     0.167 HD
ATOM     58  C   UNL A   1      41.258  31.811  31.873  1.00  0.00     0.074 A 
ATOM     59  C   UNL A   1      41.103  32.618  30.664  1.00  0.00     0.031 C 
ATOM     60  C   UNL A   1      42.320  31.101  32.354  1.00  0.00     0.037 A 
BRANCH  47  61
ATOM     61  C   UNL A   1      44.690  32.546  27.673  1.00  0.00     0.064 A 
ATOM     62  C   UNL A   1      43.925  33.718  27.866  1.00  0.00     0.173 A 
ATOM     63  C   UNL A   1      45.871  32.716  26.926  1.00  0.00     0.173 A 
ATOM     64  F   UNL A   1      42.845  33.749  28.656  1.00  0.00    -0.203 F 
ATOM     65  C   UNL A   1      44.301  34.954  27.344  1.00  0.00     0.198 A 
ATOM     66  C   UNL A   1      46.281  33.968  26.463  1.00  0.00     0.198 A 
ATOM     67  F   UNL A   1      46.690  31.678  26.699  1.00  0.00    -0.203 F 
ATOM     68  F   UNL A   1      43.530  36.026  27.571  1.00  0.00    -0.200 F 
ATOM     69  C   UNL A   1      45.494  35.086  26.670  1.00  0.00     0.200 A 
ATOM     70  F   UNL A   1      47.472  34.097  25.863  1.00  0.00    -0.200 F 
ATOM     71  F   UNL A   1      45.907  36.295  26.268  1.00  0.00    -0.200 F 
ENDBRANCH  47  61
BRANCH  48  72
ATOM     72  C   UNL A   1      36.699  31.718  30.624  1.00  0.00     0.064 A 
ATOM     73  C   UNL A   1      36.409  32.357  29.403  1.00  0.00     0.173 A 
ATOM     74  C   UNL A   1      35.836  32.006  31.697  1.00  0.00     0.173 A 
ATOM     75  F   UNL A   1      37.188  32.176  28.328  1.00  0.00    -0.203 F 
ATOM     76  C   UNL A   1      35.373  33.282  29.284  1.00  0.00     0.198 A 
ATOM     77  C   UNL A   1      34.787  32.923  31.571  1.00  0.00     0.198 A 
ATOM     78  F   UNL A   1      36.053  31.463  32.904  1.00  0.00    -0.203 F 
ATOM     79  F   UNL A   1      35.209  33.944  28.133  1.00  0.00    -0.200 F 
ATOM     80  C   UNL A   1      34.574  33.580  30.372  1.00  0.00     0.200 A 
ATOM     81  F   UNL A   1      34.028  33.223  32.635  1.00  0.00    -0.200 F 
ATOM     82  F   UNL A   1      33.625  34.522  30.281  1.00  0.00    -0.200 F 
ENDBRANCH  48  72
BRANCH  60  83
ATOM     83  C   UNL A   1      42.090  30.189  33.530  1.00  0.00     0.064 A 
ATOM     84  C   UNL A   1      42.414  30.654  34.811  1.00  0.00     0.173 A 
ATOM     85  C   UNL A   1      41.738  28.832  33.413  1.00  0.00     0.173 A 
ATOM     86  F   UNL A   1      42.810  31.925  34.982  1.00  0.00    -0.203 F 
ATOM     87  C   UNL A   1      42.398  29.804  35.915  1.00  0.00     0.198 A 
ATOM     88  C   UNL A   1      41.685  27.993  34.524  1.00  0.00     0.198 A 
ATOM     89  F   UNL A   1      41.509  28.278  32.220  1.00  0.00    -0.203 F 
ATOM     90  F   UNL A   1      42.779  30.266  37.114  1.00  0.00    -0.200 F 
ATOM     91  C   UNL A   1      42.027  28.477  35.773  1.00  0.00     0.200 A 
ATOM     92  F   UNL A   1      41.345  26.703  34.376  1.00  0.00    -0.200 F 
ATOM     93  F   UNL A   1      42.030  27.658  36.834  1.00  0.00    -0.200 F 
ENDBRANCH  60  83
ENDBRANCH  34  35
ENDBRANCH  26  29
ENDBRANCH  24  25
ENDBRANCH  23  24
ENDBRANCH   1  23
TORSDOF 13
ENDMDL
MODEL 2
REMARK VINA RESULT:     -13.0      3.176      8.765
REMARK SMILES Cc1ccc(C)c(Oc2cccc(F)c2C(=O)NCCCCNC(=O)c2ccc(-c3c4nc(c(-c5c(F)c(F)c(F)c(F)c5F)c5ccc([nH]5)c(-c5c(F)c(F)c(F)c(F)c5F)c5nc(c(-c6c(F)c(F)c(F)c(F)c6F)c6ccc3[nH]6)C=C5)C=C4)cc2)c1
REMARK SMILES IDX 20 1 19 2 18 3 16 4 17 5 15 7 9 8 10 9 11 10 13 11 12 12
REMARK SMILES IDX 14 13 8 14 7 15 1 16 2 17 3 18 89 19 4 20 5 21 6 22 21 23
REMARK SMILES IDX 22 24 23 25 24 26 25 28 26 29 27 30 88 31 28 32 87 33 29 34
REMARK SMILES IDX 30 35 31 36 81 37 32 38 86 39 80 40 82 41 33 42 85 43 79 44
REMARK SMILES IDX 78 45 34 47 66 48 46 49 65 50 47 51 50 52 64 53 83 54 48 55
REMARK SMILES IDX 49 56 63 58 84 59 51 60 35 61 36 62 44 63 37 64 38 65 42 66
REMARK SMILES IDX 45 67 39 68 40 69 43 70 41 71 67 72 68 73 76 74 69 75 70 76
REMARK SMILES IDX 74 77 77 78 71 79 72 80 75 81 73 82 52 83 53 84 61 85 54 86
REMARK SMILES IDX 55 87 59 88 62 89 56 90 57 91 60 92 58 93
REMARK H PARENT 18 6 23 27 82 46 50 57
REMARK Flexibility Score: inf
ROOT
ATOM      1  C   UNL A   1      35.118  30.495  27.301  1.00  0.00     0.023 C 
ENDROOT
BRANCH   1   2
ATOM      2  C   UNL A   1      34.583  29.063  27.225  1.00  0.00     0.116 C 
BRANCH   2   3
ATOM      3  N   UNL A   1      33.240  28.827  27.729  1.00  0.00    -0.352 N 
ATOM      4  C   UNL A   1      32.086  28.355  27.120  1.00  0.00     0.258 C 
ATOM      5  O   UNL A   1      31.141  28.104  27.868  1.00  0.00    -0.269 OA
ATOM      6  H   UNL A   1      33.128  29.044  28.683  1.00  0.00     0.163 HD
BRANCH   4   7
ATOM      7  C   UNL A   1      31.918  28.236  25.640  1.00  0.00     0.118 A 
ATOM      8  C   UNL A   1      32.460  27.142  24.940  1.00  0.00     0.143 A 
ATOM      9  C   UNL A   1      32.077  26.865  23.613  1.00  0.00     0.048 A 
ATOM     10  C   UNL A   1      31.280  27.765  22.917  1.00  0.00     0.007 A 
ATOM     11  C   UNL A   1      31.248  29.188  24.874  1.00  0.00     0.139 A 
ATOM     12  C   UNL A   1      30.908  28.953  23.537  1.00  0.00     0.040 A 
ATOM     13  F   UNL A   1      30.959  30.400  25.373  1.00  0.00    -0.206 F 
BRANCH   8  14
ATOM     14  O   UNL A   1      33.415  26.327  25.510  1.00  0.00    -0.456 OA
BRANCH  14  15
ATOM     15  C   UNL A   1      33.025  25.047  25.904  1.00  0.00     0.130 A 
ATOM     16  C   UNL A   1      29.976  23.028  27.047  1.00  0.00     0.044 C 
ATOM     17  C   UNL A   1      31.381  23.392  26.668  1.00  0.00    -0.047 A 
ATOM     18  C   UNL A   1      32.389  22.427  26.712  1.00  0.00     0.004 A 
ATOM     19  C   UNL A   1      31.706  24.691  26.248  1.00  0.00     0.050 A 
ATOM     20  C   UNL A   1      33.692  22.756  26.339  1.00  0.00     0.007 A 
ATOM     21  C   UNL A   1      34.025  24.062  25.935  1.00  0.00    -0.008 A 
ATOM     22  C   UNL A   1      35.444  24.329  25.518  1.00  0.00     0.048 C 
ENDBRANCH  14  15
ENDBRANCH   8  14
ENDBRANCH   4   7
ENDBRANCH   2   3
ENDBRANCH   1   2
BRANCH   1  23
ATOM     23  C   UNL A   1      34.252  31.639  27.845  1.00  0.00     0.023 C 
BRANCH  23  24
ATOM     24  C   UNL A   1      34.927  32.936  28.300  1.00  0.00     0.116 C 
BRANCH  24  25
ATOM     25  N   UNL A   1      34.968  33.150  29.759  1.00  0.00    -0.352 N 
ATOM     26  C   UNL A   1      35.502  32.371  30.790  1.00  0.00     0.251 C 
ATOM     27  H   UNL A   1      34.547  33.987  30.059  1.00  0.00     0.163 HD
ATOM     28  O   UNL A   1      35.114  32.509  31.937  1.00  0.00    -0.269 OA
BRANCH  26  29
ATOM     29  C   UNL A   1      36.578  31.398  30.502  1.00  0.00     0.039 A 
ATOM     30  C   UNL A   1      36.442  30.009  30.403  1.00  0.00     0.014 A 
ATOM     31  C   UNL A   1      37.843  31.914  30.449  1.00  0.00     0.014 A 
ATOM     32  C   UNL A   1      37.607  29.229  30.273  1.00  0.00     0.010 A 
ATOM     33  C   UNL A   1      38.791  31.233  29.777  1.00  0.00     0.010 A 
ATOM     34  C   UNL A   1      38.808  29.886  30.020  1.00  0.00    -0.014 A 
BRANCH  34  35
ATOM     35  C   UNL A   1      40.146  29.333  29.955  1.00  0.00     0.031 A 
ATOM     36  C   UNL A   1      40.752  29.017  31.268  1.00  0.00     0.074 A 
ATOM     37  C   UNL A   1      40.590  28.725  28.827  1.00  0.00     0.049 A 
ATOM     38  N   UNL A   1      41.763  29.592  31.826  1.00  0.00    -0.248 NA
ATOM     39  C   UNL A   1      40.062  28.051  32.140  1.00  0.00     0.031 C 
ATOM     40  C   UNL A   1      39.893  28.527  27.546  1.00  0.00     0.029 A 
ATOM     41  N   UNL A   1      41.741  28.026  28.643  1.00  0.00    -0.354 N 
ATOM     42  C   UNL A   1      41.932  28.943  33.044  1.00  0.00     0.074 A 
ATOM     43  C   UNL A   1      40.718  28.219  33.287  1.00  0.00     0.031 C 
ATOM     44  C   UNL A   1      40.553  27.603  26.808  1.00  0.00     0.029 A 
ATOM     45  C   UNL A   1      41.776  27.237  27.500  1.00  0.00     0.049 A 
ATOM     46  H   UNL A   1      42.495  28.076  29.274  1.00  0.00     0.167 HD
ATOM     47  C   UNL A   1      43.155  28.832  33.632  1.00  0.00     0.037 A 
ATOM     48  C   UNL A   1      42.720  26.306  27.209  1.00  0.00     0.037 A 
ATOM     49  C   UNL A   1      44.118  29.684  32.978  1.00  0.00     0.049 A 
ATOM     50  C   UNL A   1      43.894  26.589  28.082  1.00  0.00     0.074 A 
ATOM     51  C   UNL A   1      44.181  31.043  32.730  1.00  0.00     0.029 A 
ATOM     52  N   UNL A   1      44.995  29.104  32.092  1.00  0.00    -0.354 N 
ATOM     53  N   UNL A   1      44.645  27.650  27.974  1.00  0.00    -0.248 NA
ATOM     54  C   UNL A   1      43.954  25.912  29.371  1.00  0.00     0.031 C 
ATOM     55  C   UNL A   1      44.691  31.150  31.401  1.00  0.00     0.029 A 
ATOM     56  C   UNL A   1      44.979  29.863  30.947  1.00  0.00     0.049 A 
ATOM     57  H   UNL A   1      45.534  28.294  32.249  1.00  0.00     0.167 HD
ATOM     58  C   UNL A   1      44.928  28.017  29.282  1.00  0.00     0.074 A 
ATOM     59  C   UNL A   1      44.557  26.860  30.094  1.00  0.00     0.031 C 
ATOM     60  C   UNL A   1      45.144  29.322  29.617  1.00  0.00     0.037 A 
BRANCH  47  61
ATOM     61  C   UNL A   1      43.565  27.728  34.575  1.00  0.00     0.064 A 
ATOM     62  C   UNL A   1      43.870  26.404  34.187  1.00  0.00     0.173 A 
ATOM     63  C   UNL A   1      43.902  28.059  35.901  1.00  0.00     0.173 A 
ATOM     64  F   UNL A   1      43.728  25.973  32.929  1.00  0.00    -0.203 F 
ATOM     65  C   UNL A   1      44.451  25.483  35.057  1.00  0.00     0.198 A 
ATOM     66  C   UNL A   1      44.546  27.155  36.749  1.00  0.00     0.198 A 
ATOM     67  F   UNL A   1      43.681  29.295  36.373  1.00  0.00    -0.203 F 
ATOM     68  F   UNL A   1      44.719  24.245  34.621  1.00  0.00    -0.200 F 
ATOM     69  C   UNL A   1      44.818  25.867  36.327  1.00  0.00     0.200 A 
ATOM     70  F   UNL A   1      44.956  27.557  37.960  1.00  0.00    -0.200 F 
ATOM     71  F   UNL A   1      45.478  25.014  37.122  1.00  0.00    -0.200 F 
ENDBRANCH  47  61
BRANCH  48  72
ATOM     72  C   UNL A   1      42.554  24.997  26.527  1.00  0.00     0.064 A 
ATOM     73  C   UNL A   1      41.887  23.923  27.148  1.00  0.00     0.173 A 
ATOM     74  C   UNL A   1      43.326  24.678  25.395  1.00  0.00     0.173 A 
ATOM     75  F   UNL A   1      41.151  24.113  28.251  1.00  0.00    -0.203 F 
ATOM     76  C   UNL A   1      42.046  22.607  26.712  1.00  0.00     0.198 A 
ATOM     77  C   UNL A   1      43.471  23.360  24.951  1.00  0.00     0.198 A 
ATOM     78  F   UNL A   1      44.016  25.635  24.758  1.00  0.00    -0.203 F 
ATOM     79  F   UNL A   1      41.480  21.611  27.404  1.00  0.00    -0.200 F 
ATOM     80  C   UNL A   1      42.852  22.323  25.627  1.00  0.00     0.200 A 
ATOM     81  F   UNL A   1      44.271  23.088  23.910  1.00  0.00    -0.200 F 
ATOM     82  F   UNL A   1      43.066  21.054  25.252  1.00  0.00    -0.200 F 
ENDBRANCH  48  72
BRANCH  60  83
ATOM     83  C   UNL A   1      45.303  30.324  28.503  1.00  0.00     0.064 A 
ATOM     84  C   UNL A   1      46.595  30.634  28.062  1.00  0.00     0.173 A 
ATOM     85  C   UNL A   1      44.250  31.105  27.995  1.00  0.00     0.173 A 
ATOM     86  F   UNL A   1      47.649  29.962  28.550  1.00  0.00    -0.203 F 
ATOM     87  C   UNL A   1      46.824  31.678  27.169  1.00  0.00     0.198 A 
ATOM     88  C   UNL A   1      44.475  32.124  27.072  1.00  0.00     0.198 A 
ATOM     89  F   UNL A   1      42.998  30.947  28.432  1.00  0.00    -0.203 F 
ATOM     90  F   UNL A   1      48.079  31.991  26.820  1.00  0.00    -0.200 F 
ATOM     91  C   UNL A   1      45.764  32.417  26.668  1.00  0.00     0.200 A 
ATOM     92  F   UNL A   1      43.446  32.850  26.607  1.00  0.00    -0.200 F 
ATOM     93  F   UNL A   1      45.989  33.432  25.823  1.00  0.00    -0.200 F 
ENDBRANCH  60  83
ENDBRANCH  34  35
ENDBRANCH  26  29
ENDBRANCH  24  25
ENDBRANCH  23  24
ENDBRANCH   1  23
TORSDOF 13
ENDMDL
MODEL 3
REMARK VINA RESULT:     -13.0      1.167      2.123
REMARK SMILES Cc1ccc(C)c(Oc2cccc(F)c2C(=O)NCCCCNC(=O)c2ccc(-c3c4nc(c(-c5c(F)c(F)c(F)c(F)c5F)c5ccc([nH]5)c(-c5c(F)c(F)c(F)c(F)c5F)c5nc(c(-c6c(F)c(F)c(F)c(F)c6F)c6ccc3[nH]6)C=C5)C=C4)cc2)c1
REMARK SMILES IDX 20 1 19 2 18 3 16 4 17 5 15 7 9 8 10 9 11 10 13 11 12 12
REMARK SMILES IDX 14 13 8 14 7 15 1 16 2 17 3 18 89 19 4 20 5 21 6 22 21 23
REMARK SMILES IDX 22 24 23 25 24 26 25 28 26 29 27 30 88 31 28 32 87 33 29 34
REMARK SMILES IDX 30 35 31 36 81 37 32 38 86 39 80 40 82 41 33 42 85 43 79 44
REMARK SMILES IDX 78 45 34 47 66 48 46 49 65 50 47 51 50 52 64 53 83 54 48 55
REMARK SMILES IDX 49 56 63 58 84 59 51 60 35 61 36 62 44 63 37 64 38 65 42 66
REMARK SMILES IDX 45 67 39 68 40 69 43 70 41 71 67 72 68 73 76 74 69 75 70 76
REMARK SMILES IDX 74 77 77 78 71 79 72 80 75 81 73 82 52 83 53 84 61 85 54 86
REMARK SMILES IDX 55 87 59 88 62 89 56 90 57 91 60 92 58 93
REMARK H PARENT 18 6 23 27 82 46 50 57
REMARK Flexibility Score: inf
ROOT
ATOM      1  C   UNL A   1      38.714  23.471  26.645  1.00  0.00     0.023 C 
ENDROOT
BRANCH   1   2
ATOM      2  C   UNL A   1      37.413  23.827  25.919  1.00  0.00     0.116 C 
BRANCH   2   3
ATOM      3  N   UNL A   1      37.309  23.448  24.520  1.00  0.00    -0.352 N 
ATOM      4  C   UNL A   1      36.286  22.863  23.787  1.00  0.00     0.258 C 
ATOM      5  O   UNL A   1      36.445  22.826  22.567  1.00  0.00    -0.269 OA
ATOM      6  H   UNL A   1      38.117  23.643  23.992  1.00  0.00     0.163 HD
BRANCH   4   7
ATOM      7  C   UNL A   1      35.089  22.214  24.403  1.00  0.00     0.118 A 
ATOM      8  C   UNL A   1      33.935  22.964  24.696  1.00  0.00     0.143 A 
ATOM      9  C   UNL A   1      32.716  22.331  25.006  1.00  0.00     0.048 A 
ATOM     10  C   UNL A   1      32.674  20.955  25.190  1.00  0.00     0.007 A 
ATOM     11  C   UNL A   1      35.049  20.862  24.738  1.00  0.00     0.139 A 
ATOM     12  C   UNL A   1      33.856  20.228  25.104  1.00  0.00     0.040 A 
ATOM     13  F   UNL A   1      36.170  20.127  24.788  1.00  0.00    -0.206 F 
BRANCH   8  14
ATOM     14  O   UNL A   1      33.963  24.342  24.731  1.00  0.00    -0.456 OA
BRANCH  14  15
ATOM     15  C   UNL A   1      33.167  25.032  23.818  1.00  0.00     0.130 A 
ATOM     16  C   UNL A   1      32.580  25.497  20.060  1.00  0.00     0.044 C 
ATOM     17  C   UNL A   1      32.456  25.641  21.548  1.00  0.00    -0.047 A 
ATOM     18  C   UNL A   1      31.512  26.514  22.090  1.00  0.00     0.004 A 
ATOM     19  C   UNL A   1      33.265  24.894  22.419  1.00  0.00     0.050 A 
ATOM     20  C   UNL A   1      31.379  26.634  23.474  1.00  0.00     0.007 A 
ATOM     21  C   UNL A   1      32.201  25.901  24.349  1.00  0.00    -0.008 A 
ATOM     22  C   UNL A   1      31.974  26.060  25.826  1.00  0.00     0.048 C 
ENDBRANCH  14  15
ENDBRANCH   8  14
ENDBRANCH   4   7
ENDBRANCH   2   3
ENDBRANCH   1   2
BRANCH   1  23
ATOM     23  C   UNL A   1      39.444  22.150  26.368  1.00  0.00     0.023 C 
BRANCH  23  24
ATOM     24  C   UNL A   1      40.699  21.807  27.175  1.00  0.00     0.116 C 
BRANCH  24  25
ATOM     25  N   UNL A   1      41.981  22.109  26.510  1.00  0.00    -0.352 N 
ATOM     26  C   UNL A   1      42.508  23.310  26.028  1.00  0.00     0.251 C 
ATOM     27  H   UNL A   1      42.566  21.328  26.383  1.00  0.00     0.163 HD
ATOM     28  O   UNL A   1      43.388  23.308  25.184  1.00  0.00    -0.269 OA
BRANCH  26  29
ATOM     29  C   UNL A   1      42.033  24.599  26.574  1.00  0.00     0.039 A 
ATOM     30  C   UNL A   1      41.217  25.532  25.923  1.00  0.00     0.014 A 
ATOM     31  C   UNL A   1      42.548  24.953  27.791  1.00  0.00     0.014 A 
ATOM     32  C   UNL A   1      40.990  26.774  26.544  1.00  0.00     0.010 A 
ATOM     33  C   UNL A   1      41.870  25.837  28.547  1.00  0.00     0.010 A 
ATOM     34  C   UNL A   1      41.395  26.926  27.867  1.00  0.00    -0.014 A 
BRANCH  34  35
ATOM     35  C   UNL A   1      41.378  28.122  28.688  1.00  0.00     0.031 A 
ATOM     36  C   UNL A   1      42.381  29.145  28.315  1.00  0.00     0.074 A 
ATOM     37  C   UNL A   1      40.268  28.466  29.386  1.00  0.00     0.049 A 
ATOM     38  N   UNL A   1      43.406  29.526  28.998  1.00  0.00    -0.248 NA
ATOM     39  C   UNL A   1      42.331  29.705  26.953  1.00  0.00     0.031 C 
ATOM     40  C   UNL A   1      38.975  27.769  29.473  1.00  0.00     0.029 A 
ATOM     41  N   UNL A   1      40.027  29.614  30.073  1.00  0.00    -0.354 N 
ATOM     42  C   UNL A   1      44.031  30.494  28.219  1.00  0.00     0.074 A 
ATOM     43  C   UNL A   1      43.492  30.356  26.896  1.00  0.00     0.031 C 
ATOM     44  C   UNL A   1      38.046  28.600  30.000  1.00  0.00     0.029 A 
ATOM     45  C   UNL A   1      38.696  29.836  30.402  1.00  0.00     0.049 A 
ATOM     46  H   UNL A   1      40.744  30.242  30.319  1.00  0.00     0.167 HD
ATOM     47  C   UNL A   1      44.745  31.511  28.776  1.00  0.00     0.037 A 
ATOM     48  C   UNL A   1      38.185  30.990  30.900  1.00  0.00     0.037 A 
ATOM     49  C   UNL A   1      44.970  31.269  30.180  1.00  0.00     0.049 A 
ATOM     50  C   UNL A   1      39.332  31.784  31.423  1.00  0.00     0.074 A 
ATOM     51  C   UNL A   1      45.566  30.245  30.892  1.00  0.00     0.029 A 
ATOM     52  N   UNL A   1      44.177  31.937  31.084  1.00  0.00    -0.354 N 
ATOM     53  N   UNL A   1      40.047  31.439  32.458  1.00  0.00    -0.248 NA
ATOM     54  C   UNL A   1      39.967  32.728  30.512  1.00  0.00     0.031 C 
ATOM     55  C   UNL A   1      44.724  30.047  32.027  1.00  0.00     0.029 A 
ATOM     56  C   UNL A   1      43.712  31.007  31.982  1.00  0.00     0.049 A 
ATOM     57  H   UNL A   1      43.979  32.901  31.087  1.00  0.00     0.167 HD
ATOM     58  C   UNL A   1      41.350  31.771  32.113  1.00  0.00     0.074 A 
ATOM     59  C   UNL A   1      41.227  32.645  30.948  1.00  0.00     0.031 C 
ATOM     60  C   UNL A   1      42.410  31.067  32.606  1.00  0.00     0.037 A 
BRANCH  47  61
ATOM     61  C   UNL A   1      44.959  32.865  28.146  1.00  0.00     0.064 A 
ATOM     62  C   UNL A   1      44.009  33.911  28.133  1.00  0.00     0.173 A 
ATOM     63  C   UNL A   1      46.258  33.227  27.742  1.00  0.00     0.173 A 
ATOM     64  F   UNL A   1      42.767  33.759  28.607  1.00  0.00    -0.203 F 
ATOM     65  C   UNL A   1      44.328  35.208  27.736  1.00  0.00     0.198 A 
ATOM     66  C   UNL A   1      46.590  34.542  27.410  1.00  0.00     0.198 A 
ATOM     67  F   UNL A   1      47.248  32.323  27.737  1.00  0.00    -0.203 F 
ATOM     68  F   UNL A   1      43.378  36.153  27.753  1.00  0.00    -0.200 F 
ATOM     69  C   UNL A   1      45.624  35.531  27.405  1.00  0.00     0.200 A 
ATOM     70  F   UNL A   1      47.866  34.860  27.150  1.00  0.00    -0.200 F 
ATOM     71  F   UNL A   1      45.950  36.802  27.132  1.00  0.00    -0.200 F 
ENDBRANCH  47  61
BRANCH  48  72
ATOM     72  C   UNL A   1      36.864  31.615  30.628  1.00  0.00     0.064 A 
ATOM     73  C   UNL A   1      36.615  32.319  29.435  1.00  0.00     0.173 A 
ATOM     74  C   UNL A   1      35.938  31.807  31.670  1.00  0.00     0.173 A 
ATOM     75  F   UNL A   1      37.453  32.230  28.393  1.00  0.00    -0.203 F 
ATOM     76  C   UNL A   1      35.554  33.218  29.319  1.00  0.00     0.198 A 
ATOM     77  C   UNL A   1      34.867  32.698  31.545  1.00  0.00     0.198 A 
ATOM     78  F   UNL A   1      36.112  31.196  32.850  1.00  0.00    -0.203 F 
ATOM     79  F   UNL A   1      35.426  33.946  28.202  1.00  0.00    -0.200 F 
ATOM     80  C   UNL A   1      34.691  33.421  30.378  1.00  0.00     0.200 A 
ATOM     81  F   UNL A   1      34.045  32.907  32.583  1.00  0.00    -0.200 F 
ATOM     82  F   UNL A   1      33.717  34.338  30.296  1.00  0.00    -0.200 F 
ENDBRANCH  48  72
BRANCH  60  83
ATOM     83  C   UNL A   1      42.152  30.078  33.713  1.00  0.00     0.064 A 
ATOM     84  C   UNL A   1      42.412  30.470  35.032  1.00  0.00     0.173 A 
ATOM     85  C   UNL A   1      41.838  28.725  33.498  1.00  0.00     0.173 A 
ATOM     86  F   UNL A   1      42.770  31.735  35.298  1.00  0.00    -0.203 F 
ATOM     87  C   UNL A   1      42.370  29.552  36.080  1.00  0.00     0.198 A 
ATOM     88  C   UNL A   1      41.758  27.817  34.551  1.00  0.00     0.198 A 
ATOM     89  F   UNL A   1      41.672  28.241  32.264  1.00  0.00    -0.203 F 
ATOM     90  F   UNL A   1      42.690  29.946  37.320  1.00  0.00    -0.200 F 
ATOM     91  C   UNL A   1      42.037  28.229  35.841  1.00  0.00     0.200 A 
ATOM     92  F   UNL A   1      41.456  26.531  34.310  1.00  0.00    -0.200 F 
ATOM     93  F   UNL A   1      42.015  27.346  36.849  1.00  0.00    -0.200 F 
ENDBRANCH  60  83
ENDBRANCH  34  35
ENDBRANCH  26  29
ENDBRANCH  24  25
ENDBRANCH  23  24
ENDBRANCH   1  23
TORSDOF 13
ENDMDL
