MODEL 1
REMARK VINA RESULT:     -12.1      0.000      0.000
REMARK SMILES C[C@@H](CC1CC1)NC(=O)c1cccn1CC(=O)NCCCCNC(=O)c1ccc(-c2c3nc(c(-c4c(F)c(F)c(F)c(F)c4F)c4ccc([nH]4)c(-c4c(F)c(F)c(F)c(F)c4F)c4nc(c(-c5c(F)c(F)c(F)c(F)c5F)c5ccc2[nH]5)C=C4)C=C3)cc1
REMARK SMILES IDX 19 1 18 2 16 3 17 4 15 6 14 7 10 8 11 9 12 10 13 11 8 12
REMARK SMILES IDX 7 13 9 15 2 16 1 17 3 18 4 19 5 20 6 21 20 22 21 23 22 24
REMARK SMILES IDX 23 25 24 26 25 28 26 29 27 30 88 31 28 32 87 33 29 34 30 35
REMARK SMILES IDX 31 36 81 37 32 38 86 39 80 40 82 41 33 42 85 43 79 44 78 45
REMARK SMILES IDX 34 47 66 48 46 49 65 50 47 51 50 52 64 53 83 54 48 55 49 56
REMARK SMILES IDX 63 58 84 59 51 60 35 61 36 62 44 63 37 64 38 65 42 66 45 67
REMARK SMILES IDX 39 68 40 69 43 70 41 71 67 72 68 73 76 74 69 75 70 76 74 77
REMARK SMILES IDX 77 78 71 79 72 80 75 81 73 82 52 83 53 84 61 85 54 86 55 87
REMARK SMILES IDX 59 88 62 89 56 90 57 91 60 92 58 93
REMARK H PARENT 18 5 7 14 23 27 82 46 50 57
REMARK Flexibility Score: inf
ROOT
ATOM      1  C   UNL A   1      37.006  21.845  24.840  1.00  0.00     0.116 C 
ENDROOT
BRANCH   1   2
ATOM      2  N   UNL A   1      36.229  22.439  23.773  1.00  0.00    -0.355 N 
ATOM      3  C   UNL A   1      35.158  23.285  23.872  1.00  0.00     0.239 C 
ATOM      4  O   UNL A   1      34.577  23.598  22.829  1.00  0.00    -0.273 OA
ATOM      5  H   UNL A   1      36.506  22.205  22.859  1.00  0.00     0.163 HD
BRANCH   3   6
ATOM      6  C   UNL A   1      34.760  23.883  25.210  1.00  0.00     0.222 C 
BRANCH   6   7
ATOM      7  N   UNL A   1      33.354  23.693  25.557  1.00  0.00    -0.334 N 
ATOM      8  C   UNL A   1      32.811  22.630  26.269  1.00  0.00     0.107 A 
ATOM      9  C   UNL A   1      31.457  22.907  26.397  1.00  0.00     0.033 A 
ATOM     10  C   UNL A   1      31.175  24.117  25.725  1.00  0.00     0.020 A 
ATOM     11  C   UNL A   1      32.365  24.589  25.226  1.00  0.00     0.087 A 
BRANCH   8  12
ATOM     12  C   UNL A   1      33.581  21.527  26.815  1.00  0.00     0.268 C 
ATOM     13  N   UNL A   1      33.441  20.259  26.306  1.00  0.00    -0.348 N 
ATOM     14  H   UNL A   1      33.992  19.583  26.764  1.00  0.00     0.164 HD
ATOM     15  O   UNL A   1      34.421  21.684  27.696  1.00  0.00    -0.268 OA
BRANCH  13  16
ATOM     16  C   UNL A   1      32.632  19.723  25.214  1.00  0.00     0.079 C 
ATOM     17  C   UNL A   1      32.857  20.464  23.892  1.00  0.00     0.031 C 
BRANCH  16  18
ATOM     18  C   UNL A   1      32.842  18.208  25.067  1.00  0.00     0.028 C 
BRANCH  18  19
ATOM     19  C   UNL A   1      34.083  17.737  24.343  1.00  0.00    -0.009 C 
ATOM     20  C   UNL A   1      34.561  16.320  24.569  1.00  0.00     0.004 C 
ATOM     21  C   UNL A   1      34.149  16.750  23.194  1.00  0.00     0.004 C 
ENDBRANCH  18  19
ENDBRANCH  16  18
ENDBRANCH  13  16
ENDBRANCH   8  12
ENDBRANCH   6   7
ENDBRANCH   3   6
ENDBRANCH   1   2
BRANCH   1  22
ATOM     22  C   UNL A   1      36.733  20.345  24.953  1.00  0.00     0.023 C 
BRANCH  22  23
ATOM     23  C   UNL A   1      37.982  19.455  24.948  1.00  0.00     0.023 C 
BRANCH  23  24
ATOM     24  C   UNL A   1      39.190  20.004  25.714  1.00  0.00     0.116 C 
BRANCH  24  25
ATOM     25  N   UNL A   1      40.238  19.013  25.893  1.00  0.00    -0.352 N 
ATOM     26  C   UNL A   1      41.589  19.206  26.052  1.00  0.00     0.251 C 
ATOM     27  H   UNL A   1      39.939  18.074  25.901  1.00  0.00     0.163 HD
ATOM     28  O   UNL A   1      42.366  18.283  25.821  1.00  0.00    -0.269 OA
BRANCH  26  29
ATOM     29  C   UNL A   1      42.130  20.514  26.478  1.00  0.00     0.039 A 
ATOM     30  C   UNL A   1      42.664  21.366  25.504  1.00  0.00     0.014 A 
ATOM     31  C   UNL A   1      42.182  20.871  27.830  1.00  0.00     0.014 A 
ATOM     32  C   UNL A   1      43.176  22.606  25.873  1.00  0.00     0.010 A 
ATOM     33  C   UNL A   1      42.669  22.120  28.203  1.00  0.00     0.010 A 
ATOM     34  C   UNL A   1      43.144  22.996  27.220  1.00  0.00    -0.014 A 
BRANCH  34  35
ATOM     35  C   UNL A   1      43.426  24.414  27.549  1.00  0.00     0.031 A 
ATOM     36  C   UNL A   1      42.108  25.223  27.689  1.00  0.00     0.074 A 
ATOM     37  C   UNL A   1      44.745  24.770  27.649  1.00  0.00     0.049 A 
ATOM     38  N   UNL A   1      41.850  26.479  27.475  1.00  0.00    -0.248 NA
ATOM     39  C   UNL A   1      40.864  24.489  28.065  1.00  0.00     0.031 C 
ATOM     40  C   UNL A   1      45.884  23.830  27.548  1.00  0.00     0.029 A 
ATOM     41  N   UNL A   1      45.406  25.967  27.846  1.00  0.00    -0.354 N 
ATOM     42  C   UNL A   1      40.503  26.715  27.852  1.00  0.00     0.074 A 
ATOM     43  C   UNL A   1      39.920  25.432  28.091  1.00  0.00     0.031 C 
ATOM     44  C   UNL A   1      47.064  24.485  27.595  1.00  0.00     0.029 A 
ATOM     45  C   UNL A   1      46.825  25.908  27.725  1.00  0.00     0.049 A 
ATOM     46  H   UNL A   1      44.931  26.803  28.055  1.00  0.00     0.167 HD
ATOM     47  C   UNL A   1      39.986  27.963  28.076  1.00  0.00     0.037 A 
ATOM     48  C   UNL A   1      47.729  26.939  27.665  1.00  0.00     0.037 A 
ATOM     49  C   UNL A   1      40.974  28.948  27.810  1.00  0.00     0.049 A 
ATOM     50  C   UNL A   1      46.922  28.147  27.881  1.00  0.00     0.074 A 
ATOM     51  C   UNL A   1      41.486  29.455  26.648  1.00  0.00     0.029 A 
ATOM     52  N   UNL A   1      41.801  29.286  28.851  1.00  0.00    -0.354 N 
ATOM     53  N   UNL A   1      46.419  28.505  29.024  1.00  0.00    -0.248 NA
ATOM     54  C   UNL A   1      46.540  28.947  26.713  1.00  0.00     0.031 C 
ATOM     55  C   UNL A   1      42.850  29.647  26.953  1.00  0.00     0.029 A 
ATOM     56  C   UNL A   1      43.055  29.468  28.327  1.00  0.00     0.049 A 
ATOM     57  H   UNL A   1      41.543  29.381  29.797  1.00  0.00     0.167 HD
ATOM     58  C   UNL A   1      45.418  29.365  28.643  1.00  0.00     0.074 A 
ATOM     59  C   UNL A   1      45.743  29.825  27.312  1.00  0.00     0.031 C 
ATOM     60  C   UNL A   1      44.186  29.251  29.195  1.00  0.00     0.037 A 
BRANCH  47  61
ATOM     61  C   UNL A   1      38.730  28.449  28.756  1.00  0.00     0.064 A 
ATOM     62  C   UNL A   1      38.006  29.510  28.150  1.00  0.00     0.173 A 
ATOM     63  C   UNL A   1      38.439  28.200  30.103  1.00  0.00     0.173 A 
ATOM     64  F   UNL A   1      38.165  29.794  26.848  1.00  0.00    -0.203 F 
ATOM     65  C   UNL A   1      37.177  30.358  28.883  1.00  0.00     0.198 A 
ATOM     66  C   UNL A   1      37.565  29.024  30.823  1.00  0.00     0.198 A 
ATOM     67  F   UNL A   1      39.066  27.229  30.778  1.00  0.00    -0.203 F 
ATOM     68  F   UNL A   1      36.638  31.439  28.298  1.00  0.00    -0.200 F 
ATOM     69  C   UNL A   1      36.975  30.127  30.228  1.00  0.00     0.200 A 
ATOM     70  F   UNL A   1      37.361  28.790  32.127  1.00  0.00    -0.200 F 
ATOM     71  F   UNL A   1      36.242  30.981  30.957  1.00  0.00    -0.200 F 
ENDBRANCH  47  61
BRANCH  48  72
ATOM     72  C   UNL A   1      49.191  27.158  27.316  1.00  0.00     0.064 A 
ATOM     73  C   UNL A   1      50.150  27.789  28.117  1.00  0.00     0.173 A 
ATOM     74  C   UNL A   1      49.721  26.622  26.104  1.00  0.00     0.173 A 
ATOM     75  F   UNL A   1      49.793  28.478  29.206  1.00  0.00    -0.203 F 
ATOM     76  C   UNL A   1      51.526  27.753  27.806  1.00  0.00     0.198 A 
ATOM     77  C   UNL A   1      51.084  26.536  25.821  1.00  0.00     0.198 A 
ATOM     78  F   UNL A   1      48.926  26.152  25.133  1.00  0.00    -0.203 F 
ATOM     79  F   UNL A   1      52.406  28.362  28.614  1.00  0.00    -0.200 F 
ATOM     80  C   UNL A   1      51.994  27.084  26.688  1.00  0.00     0.200 A 
ATOM     81  F   UNL A   1      51.495  25.898  24.716  1.00  0.00    -0.200 F 
ATOM     82  F   UNL A   1      53.307  26.984  26.439  1.00  0.00    -0.200 F 
ENDBRANCH  48  72
BRANCH  60  83
ATOM     83  C   UNL A   1      44.173  28.539  30.535  1.00  0.00     0.064 A 
ATOM     84  C   UNL A   1      44.594  29.219  31.687  1.00  0.00     0.173 A 
ATOM     85  C   UNL A   1      43.879  27.175  30.702  1.00  0.00     0.173 A 
ATOM     86  F   UNL A   1      44.880  30.529  31.620  1.00  0.00    -0.203 F 
ATOM     87  C   UNL A   1      44.726  28.571  32.918  1.00  0.00     0.198 A 
ATOM     88  C   UNL A   1      44.004  26.524  31.931  1.00  0.00     0.198 A 
ATOM     89  F   UNL A   1      43.461  26.440  29.676  1.00  0.00    -0.203 F 
ATOM     90  F   UNL A   1      45.136  29.259  33.993  1.00  0.00    -0.200 F 
ATOM     91  C   UNL A   1      44.434  27.222  33.040  1.00  0.00     0.200 A 
ATOM     92  F   UNL A   1      43.699  25.220  32.035  1.00  0.00    -0.200 F 
ATOM     93  F   UNL A   1      44.551  26.604  34.224  1.00  0.00    -0.200 F 
ENDBRANCH  60  83
ENDBRANCH  34  35
ENDBRANCH  26  29
ENDBRANCH  24  25
ENDBRANCH  23  24
ENDBRANCH  22  23
ENDBRANCH   1  22
TORSDOF 16
ENDMDL
MODEL 2
REMARK VINA RESULT:     -11.8      3.226      7.802
REMARK SMILES C[C@@H](CC1CC1)NC(=O)c1cccn1CC(=O)NCCCCNC(=O)c1ccc(-c2c3nc(c(-c4c(F)c(F)c(F)c(F)c4F)c4ccc([nH]4)c(-c4c(F)c(F)c(F)c(F)c4F)c4nc(c(-c5c(F)c(F)c(F)c(F)c5F)c5ccc2[nH]5)C=C4)C=C3)cc1
REMARK SMILES IDX 19 1 18 2 16 3 17 4 15 6 14 7 10 8 11 9 12 10 13 11 8 12
REMARK SMILES IDX 7 13 9 15 2 16 1 17 3 18 4 19 5 20 6 21 20 22 21 23 22 24
REMARK SMILES IDX 23 25 24 26 25 28 26 29 27 30 88 31 28 32 87 33 29 34 30 35
REMARK SMILES IDX 31 36 81 37 32 38 86 39 80 40 82 41 33 42 85 43 79 44 78 45
REMARK SMILES IDX 34 47 66 48 46 49 65 50 47 51 50 52 64 53 83 54 48 55 49 56
REMARK SMILES IDX 63 58 84 59 51 60 35 61 36 62 44 63 37 64 38 65 42 66 45 67
REMARK SMILES IDX 39 68 40 69 43 70 41 71 67 72 68 73 76 74 69 75 70 76 74 77
REMARK SMILES IDX 77 78 71 79 72 80 75 81 73 82 52 83 53 84 61 85 54 86 55 87
REMARK SMILES IDX 59 88 62 89 56 90 57 91 60 92 58 93
REMARK H PARENT 18 5 7 14 23 27 82 46 50 57
REMARK Flexibility Score: inf
ROOT
ATOM      1  C   UNL A   1      31.828  27.620  27.177  1.00  0.00     0.116 C 
ENDROOT
BRANCH   1   2
ATOM      2  N   UNL A   1      30.839  26.787  26.526  1.00  0.00    -0.355 N 
ATOM      3  C   UNL A   1      31.037  25.648  25.794  1.00  0.00     0.239 C 
ATOM      4  O   UNL A   1      30.055  25.145  25.242  1.00  0.00    -0.273 OA
ATOM      5  H   UNL A   1      29.904  27.077  26.624  1.00  0.00     0.163 HD
BRANCH   3   6
ATOM      6  C   UNL A   1      32.402  24.985  25.741  1.00  0.00     0.222 C 
BRANCH   6   7
ATOM      7  N   UNL A   1      32.627  24.172  24.549  1.00  0.00    -0.334 N 
ATOM      8  C   UNL A   1      32.437  22.801  24.430  1.00  0.00     0.107 A 
ATOM      9  C   UNL A   1      32.728  22.486  23.110  1.00  0.00     0.033 A 
ATOM     10  C   UNL A   1      33.136  23.662  22.441  1.00  0.00     0.020 A 
ATOM     11  C   UNL A   1      33.053  24.691  23.348  1.00  0.00     0.087 A 
BRANCH   8  12
ATOM     12  C   UNL A   1      31.946  21.943  25.495  1.00  0.00     0.268 C 
ATOM     13  N   UNL A   1      32.815  21.170  26.225  1.00  0.00    -0.348 N 
ATOM     14  H   UNL A   1      32.374  20.610  26.905  1.00  0.00     0.164 HD
ATOM     15  O   UNL A   1      30.764  21.918  25.825  1.00  0.00    -0.268 OA
BRANCH  13  16
ATOM     16  C   UNL A   1      34.268  21.021  26.186  1.00  0.00     0.079 C 
ATOM     17  C   UNL A   1      34.750  20.267  24.943  1.00  0.00     0.031 C 
BRANCH  16  18
ATOM     18  C   UNL A   1      34.964  22.381  26.341  1.00  0.00     0.028 C 
BRANCH  18  19
ATOM     19  C   UNL A   1      36.307  22.565  25.671  1.00  0.00    -0.009 C 
ATOM     20  C   UNL A   1      36.370  23.328  24.367  1.00  0.00     0.004 C 
ATOM     21  C   UNL A   1      37.105  23.850  25.564  1.00  0.00     0.004 C 
ENDBRANCH  18  19
ENDBRANCH  16  18
ENDBRANCH  13  16
ENDBRANCH   8  12
ENDBRANCH   6   7
ENDBRANCH   3   6
ENDBRANCH   1   2
BRANCH   1  22
ATOM     22  C   UNL A   1      32.253  28.780  26.276  1.00  0.00     0.023 C 
BRANCH  22  23
ATOM     23  C   UNL A   1      33.694  28.709  25.760  1.00  0.00     0.023 C 
BRANCH  23  24
ATOM     24  C   UNL A   1      34.787  28.793  26.831  1.00  0.00     0.116 C 
BRANCH  24  25
ATOM     25  N   UNL A   1      35.135  30.163  27.171  1.00  0.00    -0.352 N 
ATOM     26  C   UNL A   1      36.210  30.626  27.891  1.00  0.00     0.251 C 
ATOM     27  H   UNL A   1      34.516  30.854  26.840  1.00  0.00     0.163 HD
ATOM     28  O   UNL A   1      36.165  31.744  28.397  1.00  0.00    -0.269 OA
BRANCH  26  29
ATOM     29  C   UNL A   1      37.416  29.794  28.085  1.00  0.00     0.039 A 
ATOM     30  C   UNL A   1      38.376  29.764  27.066  1.00  0.00     0.014 A 
ATOM     31  C   UNL A   1      37.569  28.993  29.222  1.00  0.00     0.014 A 
ATOM     32  C   UNL A   1      39.525  28.993  27.221  1.00  0.00     0.010 A 
ATOM     33  C   UNL A   1      38.728  28.242  29.394  1.00  0.00     0.010 A 
ATOM     34  C   UNL A   1      39.716  28.261  28.401  1.00  0.00    -0.014 A 
BRANCH  34  35
ATOM     35  C   UNL A   1      41.057  27.686  28.665  1.00  0.00     0.031 A 
ATOM     36  C   UNL A   1      41.139  26.220  28.159  1.00  0.00     0.074 A 
ATOM     37  C   UNL A   1      41.957  28.496  29.303  1.00  0.00     0.049 A 
ATOM     38  N   UNL A   1      41.846  25.212  28.576  1.00  0.00    -0.248 NA
ATOM     39  C   UNL A   1      40.232  25.801  27.051  1.00  0.00     0.031 C 
ATOM     40  C   UNL A   1      41.717  29.915  29.654  1.00  0.00     0.029 A 
ATOM     41  N   UNL A   1      43.236  28.316  29.792  1.00  0.00    -0.354 N 
ATOM     42  C   UNL A   1      41.613  24.125  27.695  1.00  0.00     0.074 A 
ATOM     43  C   UNL A   1      40.524  24.514  26.855  1.00  0.00     0.031 C 
ATOM     44  C   UNL A   1      42.751  30.426  30.357  1.00  0.00     0.029 A 
ATOM     45  C   UNL A   1      43.763  29.406  30.544  1.00  0.00     0.049 A 
ATOM     46  H   UNL A   1      43.749  27.491  29.634  1.00  0.00     0.167 HD
ATOM     47  C   UNL A   1      42.419  23.021  27.622  1.00  0.00     0.037 A 
ATOM     48  C   UNL A   1      44.898  29.455  31.314  1.00  0.00     0.037 A 
ATOM     49  C   UNL A   1      43.454  23.115  28.591  1.00  0.00     0.049 A 
ATOM     50  C   UNL A   1      45.542  28.153  31.099  1.00  0.00     0.074 A 
ATOM     51  C   UNL A   1      43.470  22.941  29.947  1.00  0.00     0.029 A 
ATOM     52  N   UNL A   1      44.597  23.770  28.207  1.00  0.00    -0.354 N 
ATOM     53  N   UNL A   1      46.160  27.804  30.011  1.00  0.00    -0.248 NA
ATOM     54  C   UNL A   1      45.375  27.116  32.124  1.00  0.00     0.031 C 
ATOM     55  C   UNL A   1      44.373  23.931  30.388  1.00  0.00     0.029 A 
ATOM     56  C   UNL A   1      45.025  24.499  29.287  1.00  0.00     0.049 A 
ATOM     57  H   UNL A   1      45.029  23.725  27.324  1.00  0.00     0.167 HD
ATOM     58  C   UNL A   1      46.159  26.433  30.105  1.00  0.00     0.074 A 
ATOM     59  C   UNL A   1      45.973  26.107  31.500  1.00  0.00     0.031 C 
ATOM     60  C   UNL A   1      45.805  25.685  29.032  1.00  0.00     0.037 A 
BRANCH  47  61
ATOM     61  C   UNL A   1      42.563  21.918  26.603  1.00  0.00     0.064 A 
ATOM     62  C   UNL A   1      42.080  20.624  26.940  1.00  0.00     0.173 A 
ATOM     63  C   UNL A   1      43.457  21.977  25.527  1.00  0.00     0.173 A 
ATOM     64  F   UNL A   1      41.174  20.462  27.917  1.00  0.00    -0.203 F 
ATOM     65  C   UNL A   1      42.584  19.467  26.350  1.00  0.00     0.198 A 
ATOM     66  C   UNL A   1      43.922  20.812  24.902  1.00  0.00     0.198 A 
ATOM     67  F   UNL A   1      43.981  23.141  25.126  1.00  0.00    -0.203 F 
ATOM     68  F   UNL A   1      42.212  18.263  26.810  1.00  0.00    -0.200 F 
ATOM     69  C   UNL A   1      43.524  19.561  25.344  1.00  0.00     0.200 A 
ATOM     70  F   UNL A   1      44.825  20.908  23.917  1.00  0.00    -0.200 F 
ATOM     71  F   UNL A   1      44.070  18.453  24.824  1.00  0.00    -0.200 F 
ENDBRANCH  47  61
BRANCH  48  72
ATOM     72  C   UNL A   1      45.535  30.359  32.355  1.00  0.00     0.064 A 
ATOM     73  C   UNL A   1      45.012  30.672  33.615  1.00  0.00     0.173 A 
ATOM     74  C   UNL A   1      46.830  30.911  32.119  1.00  0.00     0.173 A 
ATOM     75  F   UNL A   1      43.749  30.366  33.932  1.00  0.00    -0.203 F 
ATOM     76  C   UNL A   1      45.773  31.342  34.596  1.00  0.00     0.198 A 
ATOM     77  C   UNL A   1      47.605  31.525  33.104  1.00  0.00     0.198 A 
ATOM     78  F   UNL A   1      47.403  30.876  30.909  1.00  0.00    -0.203 F 
ATOM     79  F   UNL A   1      45.229  31.606  35.793  1.00  0.00    -0.200 F 
ATOM     80  C   UNL A   1      47.083  31.721  34.357  1.00  0.00     0.200 A 
ATOM     81  F   UNL A   1      48.863  31.897  32.825  1.00  0.00    -0.200 F 
ATOM     82  F   UNL A   1      47.828  32.285  35.317  1.00  0.00    -0.200 F 
ENDBRANCH  48  72
BRANCH  60  83
ATOM     83  C   UNL A   1      45.948  26.405  27.703  1.00  0.00     0.064 A 
ATOM     84  C   UNL A   1      44.804  26.716  26.955  1.00  0.00     0.173 A 
ATOM     85  C   UNL A   1      47.179  26.686  27.087  1.00  0.00     0.173 A 
ATOM     86  F   UNL A   1      43.587  26.494  27.476  1.00  0.00    -0.203 F 
ATOM     87  C   UNL A   1      44.889  27.258  25.669  1.00  0.00     0.198 A 
ATOM     88  C   UNL A   1      47.270  27.234  25.805  1.00  0.00     0.198 A 
ATOM     89  F   UNL A   1      48.325  26.440  27.714  1.00  0.00    -0.203 F 
ATOM     90  F   UNL A   1      43.769  27.537  24.988  1.00  0.00    -0.200 F 
ATOM     91  C   UNL A   1      46.122  27.514  25.093  1.00  0.00     0.200 A 
ATOM     92  F   UNL A   1      48.474  27.492  25.268  1.00  0.00    -0.200 F 
ATOM     93  F   UNL A   1      46.203  28.044  23.864  1.00  0.00    -0.200 F 
ENDBRANCH  60  83
ENDBRANCH  34  35
ENDBRANCH  26  29
ENDBRANCH  24  25
ENDBRANCH  23  24
ENDBRANCH  22  23
ENDBRANCH   1  22
TORSDOF 16
ENDMDL
MODEL 3
REMARK VINA RESULT:     -11.7      3.197      7.872
REMARK SMILES C[C@@H](CC1CC1)NC(=O)c1cccn1CC(=O)NCCCCNC(=O)c1ccc(-c2c3nc(c(-c4c(F)c(F)c(F)c(F)c4F)c4ccc([nH]4)c(-c4c(F)c(F)c(F)c(F)c4F)c4nc(c(-c5c(F)c(F)c(F)c(F)c5F)c5ccc2[nH]5)C=C4)C=C3)cc1
REMARK SMILES IDX 19 1 18 2 16 3 17 4 15 6 14 7 10 8 11 9 12 10 13 11 8 12
REMARK SMILES IDX 7 13 9 15 2 16 1 17 3 18 4 19 5 20 6 21 20 22 21 23 22 24
REMARK SMILES IDX 23 25 24 26 25 28 26 29 27 30 88 31 28 32 87 33 29 34 30 35
REMARK SMILES IDX 31 36 81 37 32 38 86 39 80 40 82 41 33 42 85 43 79 44 78 45
REMARK SMILES IDX 34 47 66 48 46 49 65 50 47 51 50 52 64 53 83 54 48 55 49 56
REMARK SMILES IDX 63 58 84 59 51 60 35 61 36 62 44 63 37 64 38 65 42 66 45 67
REMARK SMILES IDX 39 68 40 69 43 70 41 71 67 72 68 73 76 74 69 75 70 76 74 77
REMARK SMILES IDX 77 78 71 79 72 80 75 81 73 82 52 83 53 84 61 85 54 86 55 87
REMARK SMILES IDX 59 88 62 89 56 90 57 91 60 92 58 93
REMARK H PARENT 18 5 7 14 23 27 82 46 50 57
REMARK Flexibility Score: inf
ROOT
ATOM      1  C   UNL A   1      31.870  27.635  27.124  1.00  0.00     0.116 C 
ENDROOT
BRANCH   1   2
ATOM      2  N   UNL A   1      30.874  26.795  26.495  1.00  0.00    -0.355 N 
ATOM      3  C   UNL A   1      31.064  25.654  25.764  1.00  0.00     0.239 C 
ATOM      4  O   UNL A   1      30.074  25.144  25.231  1.00  0.00    -0.273 OA
ATOM      5  H   UNL A   1      29.939  27.081  26.608  1.00  0.00     0.163 HD
BRANCH   3   6
ATOM      6  C   UNL A   1      32.430  24.997  25.688  1.00  0.00     0.222 C 
BRANCH   6   7
ATOM      7  N   UNL A   1      32.625  24.150  24.515  1.00  0.00    -0.334 N 
ATOM      8  C   UNL A   1      32.408  22.779  24.435  1.00  0.00     0.107 A 
ATOM      9  C   UNL A   1      32.675  22.424  23.120  1.00  0.00     0.033 A 
ATOM     10  C   UNL A   1      33.094  23.575  22.415  1.00  0.00     0.020 A 
ATOM     11  C   UNL A   1      33.043  24.629  23.296  1.00  0.00     0.087 A 
BRANCH   8  12
ATOM     12  C   UNL A   1      31.916  21.959  25.529  1.00  0.00     0.268 C 
ATOM     13  N   UNL A   1      32.783  21.202  26.278  1.00  0.00    -0.348 N 
ATOM     14  H   UNL A   1      32.342  20.667  26.977  1.00  0.00     0.164 HD
ATOM     15  O   UNL A   1      30.736  21.953  25.867  1.00  0.00    -0.268 OA
BRANCH  13  16
ATOM     16  C   UNL A   1      34.235  21.040  26.235  1.00  0.00     0.079 C 
ATOM     17  C   UNL A   1      34.706  20.262  25.003  1.00  0.00     0.031 C 
BRANCH  16  18
ATOM     18  C   UNL A   1      34.943  22.397  26.365  1.00  0.00     0.028 C 
BRANCH  18  19
ATOM     19  C   UNL A   1      36.280  22.562  25.677  1.00  0.00    -0.009 C 
ATOM     20  C   UNL A   1      36.339  23.335  24.380  1.00  0.00     0.004 C 
ATOM     21  C   UNL A   1      37.100  23.832  25.571  1.00  0.00     0.004 C 
ENDBRANCH  18  19
ENDBRANCH  16  18
ENDBRANCH  13  16
ENDBRANCH   8  12
ENDBRANCH   6   7
ENDBRANCH   3   6
ENDBRANCH   1   2
BRANCH   1  22
ATOM     22  C   UNL A   1      32.305  28.768  26.194  1.00  0.00     0.023 C 
BRANCH  22  23
ATOM     23  C   UNL A   1      33.769  28.713  25.743  1.00  0.00     0.023 C 
BRANCH  23  24
ATOM     24  C   UNL A   1      34.812  28.799  26.862  1.00  0.00     0.116 C 
BRANCH  24  25
ATOM     25  N   UNL A   1      35.167  30.168  27.193  1.00  0.00    -0.352 N 
ATOM     26  C   UNL A   1      36.231  30.629  27.932  1.00  0.00     0.251 C 
ATOM     27  H   UNL A   1      34.562  30.862  26.842  1.00  0.00     0.163 HD
ATOM     28  O   UNL A   1      36.187  31.753  28.424  1.00  0.00    -0.269 OA
BRANCH  26  29
ATOM     29  C   UNL A   1      37.424  29.787  28.161  1.00  0.00     0.039 A 
ATOM     30  C   UNL A   1      38.388  29.706  27.148  1.00  0.00     0.014 A 
ATOM     31  C   UNL A   1      37.561  29.025  29.326  1.00  0.00     0.014 A 
ATOM     32  C   UNL A   1      39.525  28.925  27.335  1.00  0.00     0.010 A 
ATOM     33  C   UNL A   1      38.708  28.263  29.530  1.00  0.00     0.010 A 
ATOM     34  C   UNL A   1      39.700  28.233  28.542  1.00  0.00    -0.014 A 
BRANCH  34  35
ATOM     35  C   UNL A   1      41.031  27.648  28.832  1.00  0.00     0.031 A 
ATOM     36  C   UNL A   1      41.128  26.196  28.289  1.00  0.00     0.074 A 
ATOM     37  C   UNL A   1      41.911  28.439  29.521  1.00  0.00     0.049 A 
ATOM     38  N   UNL A   1      41.820  25.176  28.700  1.00  0.00    -0.248 NA
ATOM     39  C   UNL A   1      40.257  25.810  27.141  1.00  0.00     0.031 C 
ATOM     40  C   UNL A   1      41.662  29.847  29.903  1.00  0.00     0.029 A 
ATOM     41  N   UNL A   1      43.174  28.242  30.046  1.00  0.00    -0.354 N 
ATOM     42  C   UNL A   1      41.614  24.113  27.783  1.00  0.00     0.074 A 
ATOM     43  C   UNL A   1      40.553  24.528  26.919  1.00  0.00     0.031 C 
ATOM     44  C   UNL A   1      42.674  30.337  30.653  1.00  0.00     0.029 A 
ATOM     45  C   UNL A   1      43.678  29.310  30.843  1.00  0.00     0.049 A 
ATOM     46  H   UNL A   1      43.691  27.421  29.881  1.00  0.00     0.167 HD
ATOM     47  C   UNL A   1      42.420  23.010  27.705  1.00  0.00     0.037 A 
ATOM     48  C   UNL A   1      44.788  29.335  31.650  1.00  0.00     0.037 A 
ATOM     49  C   UNL A   1      43.424  23.076  28.708  1.00  0.00     0.049 A 
ATOM     50  C   UNL A   1      45.437  28.038  31.420  1.00  0.00     0.074 A 
ATOM     51  C   UNL A   1      43.397  22.865  30.059  1.00  0.00     0.029 A 
ATOM     52  N   UNL A   1      44.579  23.739  28.380  1.00  0.00    -0.354 N 
ATOM     53  N   UNL A   1      46.089  27.718  30.343  1.00  0.00    -0.248 NA
ATOM     54  C   UNL A   1      45.236  26.974  32.410  1.00  0.00     0.031 C 
ATOM     55  C   UNL A   1      44.286  23.840  30.556  1.00  0.00     0.029 A 
ATOM     56  C   UNL A   1      44.974  24.437  29.492  1.00  0.00     0.049 A 
ATOM     57  H   UNL A   1      45.040  23.717  27.509  1.00  0.00     0.167 HD
ATOM     58  C   UNL A   1      46.083  26.346  30.399  1.00  0.00     0.074 A 
ATOM     59  C   UNL A   1      45.852  25.982  31.778  1.00  0.00     0.031 C 
ATOM     60  C   UNL A   1      45.763  25.628  29.295  1.00  0.00     0.037 A 
BRANCH  47  61
ATOM     61  C   UNL A   1      42.596  21.936  26.661  1.00  0.00     0.064 A 
ATOM     62  C   UNL A   1      42.078  20.641  26.936  1.00  0.00     0.173 A 
ATOM     63  C   UNL A   1      43.541  22.011  25.630  1.00  0.00     0.173 A 
ATOM     64  F   UNL A   1      41.124  20.466  27.863  1.00  0.00    -0.203 F 
ATOM     65  C   UNL A   1      42.591  19.493  26.334  1.00  0.00     0.198 A 
ATOM     66  C   UNL A   1      44.017  20.858  24.993  1.00  0.00     0.198 A 
ATOM     67  F   UNL A   1      44.101  23.178  25.290  1.00  0.00    -0.203 F 
ATOM     68  F   UNL A   1      42.179  18.283  26.740  1.00  0.00    -0.200 F 
ATOM     69  C   UNL A   1      43.579  19.601  25.377  1.00  0.00     0.200 A 
ATOM     70  F   UNL A   1      44.968  20.968  24.055  1.00  0.00    -0.200 F 
ATOM     71  F   UNL A   1      44.132  18.500  24.851  1.00  0.00    -0.200 F 
ENDBRANCH  47  61
BRANCH  48  72
ATOM     72  C   UNL A   1      45.392  30.209  32.736  1.00  0.00     0.064 A 
ATOM     73  C   UNL A   1      46.642  30.839  32.695  1.00  0.00     0.173 A 
ATOM     74  C   UNL A   1      44.630  30.523  33.901  1.00  0.00     0.173 A 
ATOM     75  F   UNL A   1      47.538  30.530  31.753  1.00  0.00    -0.203 F 
ATOM     76  C   UNL A   1      47.025  31.804  33.651  1.00  0.00     0.198 A 
ATOM     77  C   UNL A   1      44.982  31.516  34.817  1.00  0.00     0.198 A 
ATOM     78  F   UNL A   1      43.499  29.872  34.202  1.00  0.00    -0.203 F 
ATOM     79  F   UNL A   1      48.228  32.389  33.559  1.00  0.00    -0.200 F 
ATOM     80  C   UNL A   1      46.175  32.177  34.678  1.00  0.00     0.200 A 
ATOM     81  F   UNL A   1      44.139  31.832  35.811  1.00  0.00    -0.200 F 
ATOM     82  F   UNL A   1      46.510  33.149  35.537  1.00  0.00    -0.200 F 
ENDBRANCH  48  72
BRANCH  60  83
ATOM     83  C   UNL A   1      45.949  26.384  27.992  1.00  0.00     0.064 A 
ATOM     84  C   UNL A   1      47.240  26.728  27.567  1.00  0.00     0.173 A 
ATOM     85  C   UNL A   1      44.893  26.887  27.213  1.00  0.00     0.173 A 
ATOM     86  F   UNL A   1      48.307  26.276  28.245  1.00  0.00    -0.203 F 
ATOM     87  C   UNL A   1      47.457  27.535  26.447  1.00  0.00     0.198 A 
ATOM     88  C   UNL A   1      45.104  27.689  26.089  1.00  0.00     0.198 A 
ATOM     89  F   UNL A   1      43.630  26.610  27.522  1.00  0.00    -0.203 F 
ATOM     90  F   UNL A   1      48.708  27.843  26.079  1.00  0.00    -0.200 F 
ATOM     91  C   UNL A   1      46.388  28.018  25.709  1.00  0.00     0.200 A 
ATOM     92  F   UNL A   1      44.057  28.134  25.375  1.00  0.00    -0.200 F 
ATOM     93  F   UNL A   1      46.597  28.784  24.629  1.00  0.00    -0.200 F 
ENDBRANCH  60  83
ENDBRANCH  34  35
ENDBRANCH  26  29
ENDBRANCH  24  25
ENDBRANCH  23  24
ENDBRANCH  22  23
ENDBRANCH   1  22
TORSDOF 16
ENDMDL
