MODEL 1
REMARK VINA RESULT:     -10.8      0.000      0.000
REMARK SMILES O=C(CC1CCN(S(=O)(=O)c2cc[nH]c2)CC1)NCCCCNC(=O)c1ccc(-c2c3nc(c(-c4c(F)c(F)c(F)c(F)c4F)c4ccc([nH]4)c(-c4c(F)c(F)c(F)c(F)c4F)c4nc(c(-c5c(F)c(F)c(F)c(F)c5F)c5ccc2[nH]5)C=C4)C=C3)cc1
REMARK SMILES IDX 20 1 19 2 18 3 1 4 2 5 3 7 4 8 5 9 17 10 6 11 16 12 7 13
REMARK SMILES IDX 8 14 9 15 10 16 11 17 12 18 15 19 13 20 14 21 21 23 22 24
REMARK SMILES IDX 23 25 24 26 25 28 26 29 27 30 88 31 28 32 87 33 29 34 30 35
REMARK SMILES IDX 31 36 81 37 32 38 86 39 80 40 82 41 33 42 85 43 79 44 78 45
REMARK SMILES IDX 34 47 66 48 46 49 65 50 47 51 50 52 64 53 83 54 48 55 49 56
REMARK SMILES IDX 63 58 84 59 51 60 35 61 36 62 44 63 37 64 38 65 42 66 45 67
REMARK SMILES IDX 39 68 40 69 43 70 41 71 67 72 68 73 76 74 69 75 70 76 74 77
REMARK SMILES IDX 77 78 71 79 72 80 75 81 73 82 52 83 53 84 61 85 54 86 55 87
REMARK SMILES IDX 59 88 62 89 56 90 57 91 60 92 58 93
REMARK H PARENT 18 6 14 22 23 27 82 46 50 57
REMARK Flexibility Score: inf
ROOT
ATOM      1  C   UNL A   1      43.458  24.223  25.019  1.00  0.00     0.023 C 
ENDROOT
BRANCH   1   2
ATOM      2  C   UNL A   1      44.911  24.692  24.997  1.00  0.00     0.116 C 
BRANCH   2   3
ATOM      3  N   UNL A   1      45.021  26.135  25.081  1.00  0.00    -0.356 N 
ATOM      4  O   UNL A   1      45.153  26.240  27.369  1.00  0.00    -0.275 OA
ATOM      5  C   UNL A   1      45.187  26.792  26.276  1.00  0.00     0.220 C 
ATOM      6  H   UNL A   1      44.976  26.664  24.251  1.00  0.00     0.163 HD
BRANCH   5   7
ATOM      7  C   UNL A   1      45.424  28.281  26.140  1.00  0.00     0.103 C 
BRANCH   7   8
ATOM      8  C   UNL A   1      45.421  29.138  27.432  1.00  0.00     0.001 C 
ATOM      9  C   UNL A   1      44.168  29.959  27.765  1.00  0.00     0.021 C 
ATOM     10  C   UNL A   1      46.608  30.114  27.448  1.00  0.00     0.021 C 
ATOM     11  C   UNL A   1      43.952  31.136  26.817  1.00  0.00     0.103 C 
ATOM     12  C   UNL A   1      46.407  31.283  26.483  1.00  0.00     0.103 C 
ATOM     13  N   UNL A   1      45.150  32.025  26.784  1.00  0.00    -0.198 NA
BRANCH  13  14
ATOM     14  S   UNL A   1      44.863  33.359  25.723  1.00  0.00     0.244 S 
ATOM     15  O   UNL A   1      46.075  34.137  25.636  1.00  0.00    -0.207 OA
ATOM     16  O   UNL A   1      44.206  32.842  24.535  1.00  0.00    -0.207 OA
BRANCH  14  17
ATOM     17  C   UNL A   1      43.709  34.449  26.413  1.00  0.00     0.100 A 
ATOM     18  C   UNL A   1      43.602  34.796  27.785  1.00  0.00     0.041 A 
ATOM     19  C   UNL A   1      42.775  35.203  25.729  1.00  0.00     0.104 A 
ATOM     20  C   UNL A   1      42.579  35.712  27.899  1.00  0.00     0.083 A 
ATOM     21  N   UNL A   1      42.096  35.967  26.641  1.00  0.00    -0.366 N 
ATOM     22  H   UNL A   1      41.373  36.600  26.428  1.00  0.00     0.165 HD
ENDBRANCH  14  17
ENDBRANCH  13  14
ENDBRANCH   7   8
ENDBRANCH   5   7
ENDBRANCH   2   3
ENDBRANCH   1   2
BRANCH   1  23
ATOM     23  C   UNL A   1      43.028  23.490  26.299  1.00  0.00     0.023 C 
BRANCH  23  24
ATOM     24  C   UNL A   1      42.012  24.255  27.137  1.00  0.00     0.116 C 
BRANCH  24  25
ATOM     25  N   UNL A   1      40.657  24.093  26.633  1.00  0.00    -0.352 N 
ATOM     26  C   UNL A   1      39.512  24.731  27.048  1.00  0.00     0.251 C 
ATOM     27  H   UNL A   1      40.545  23.443  25.901  1.00  0.00     0.163 HD
ATOM     28  O   UNL A   1      38.412  24.243  26.814  1.00  0.00    -0.269 OA
BRANCH  26  29
ATOM     29  C   UNL A   1      39.607  26.017  27.762  1.00  0.00     0.039 A 
ATOM     30  C   UNL A   1      39.235  26.087  29.111  1.00  0.00     0.014 A 
ATOM     31  C   UNL A   1      39.977  27.171  27.063  1.00  0.00     0.014 A 
ATOM     32  C   UNL A   1      39.275  27.313  29.762  1.00  0.00     0.010 A 
ATOM     33  C   UNL A   1      40.085  28.375  27.720  1.00  0.00     0.010 A 
ATOM     34  C   UNL A   1      39.708  28.446  29.059  1.00  0.00    -0.014 A 
BRANCH  34  35
ATOM     35  C   UNL A   1      39.822  29.740  29.742  1.00  0.00     0.031 A 
ATOM     36  C   UNL A   1      38.540  30.565  29.528  1.00  0.00     0.074 A 
ATOM     37  C   UNL A   1      41.009  29.947  30.401  1.00  0.00     0.049 A 
ATOM     38  N   UNL A   1      38.407  31.831  29.298  1.00  0.00    -0.248 NA
ATOM     39  C   UNL A   1      37.218  29.880  29.443  1.00  0.00     0.031 C 
ATOM     40  C   UNL A   1      42.108  28.952  30.499  1.00  0.00     0.029 A 
ATOM     41  N   UNL A   1      41.553  30.993  31.119  1.00  0.00    -0.354 N 
ATOM     42  C   UNL A   1      37.026  32.128  29.253  1.00  0.00     0.074 A 
ATOM     43  C   UNL A   1      36.354  30.867  29.175  1.00  0.00     0.031 C 
ATOM     44  C   UNL A   1      43.189  29.467  31.125  1.00  0.00     0.029 A 
ATOM     45  C   UNL A   1      42.918  30.837  31.507  1.00  0.00     0.049 A 
ATOM     46  H   UNL A   1      41.032  31.796  31.349  1.00  0.00     0.167 HD
ATOM     47  C   UNL A   1      36.541  33.387  29.498  1.00  0.00     0.037 A 
ATOM     48  C   UNL A   1      43.773  31.774  32.032  1.00  0.00     0.037 A 
ATOM     49  C   UNL A   1      37.633  34.221  29.880  1.00  0.00     0.049 A 
ATOM     50  C   UNL A   1      42.923  32.948  32.267  1.00  0.00     0.074 A 
ATOM     51  C   UNL A   1      38.706  34.702  29.175  1.00  0.00     0.029 A 
ATOM     52  N   UNL A   1      37.923  34.235  31.227  1.00  0.00    -0.354 N 
ATOM     53  N   UNL A   1      42.022  33.038  33.199  1.00  0.00    -0.248 NA
ATOM     54  C   UNL A   1      42.988  34.050  31.300  1.00  0.00     0.031 C 
ATOM     55  C   UNL A   1      39.773  34.454  30.059  1.00  0.00     0.029 A 
ATOM     56  C   UNL A   1      39.284  34.199  31.348  1.00  0.00     0.049 A 
ATOM     57  H   UNL A   1      37.272  34.263  31.965  1.00  0.00     0.167 HD
ATOM     58  C   UNL A   1      41.208  34.027  32.705  1.00  0.00     0.074 A 
ATOM     59  C   UNL A   1      42.001  34.804  31.774  1.00  0.00     0.031 C 
ATOM     60  C   UNL A   1      39.875  33.783  32.597  1.00  0.00     0.037 A 
BRANCH  47  61
ATOM     61  C   UNL A   1      35.176  33.956  29.778  1.00  0.00     0.064 A 
ATOM     62  C   UNL A   1      34.634  34.862  28.824  1.00  0.00     0.173 A 
ATOM     63  C   UNL A   1      34.577  33.964  31.041  1.00  0.00     0.173 A 
ATOM     64  F   UNL A   1      35.109  34.900  27.568  1.00  0.00    -0.203 F 
ATOM     65  C   UNL A   1      33.676  35.813  29.164  1.00  0.00     0.198 A 
ATOM     66  C   UNL A   1      33.576  34.888  31.362  1.00  0.00     0.198 A 
ATOM     67  F   UNL A   1      35.016  33.166  32.021  1.00  0.00    -0.203 F 
ATOM     68  F   UNL A   1      33.315  36.749  28.274  1.00  0.00    -0.200 F 
ATOM     69  C   UNL A   1      33.159  35.838  30.443  1.00  0.00     0.200 A 
ATOM     70  F   UNL A   1      33.071  34.907  32.604  1.00  0.00    -0.200 F 
ATOM     71  F   UNL A   1      32.291  36.793  30.800  1.00  0.00    -0.200 F 
ENDBRANCH  47  61
BRANCH  48  72
ATOM     72  C   UNL A   1      45.260  31.974  32.273  1.00  0.00     0.064 A 
ATOM     73  C   UNL A   1      45.914  31.992  33.510  1.00  0.00     0.173 A 
ATOM     74  C   UNL A   1      46.149  32.054  31.156  1.00  0.00     0.173 A 
ATOM     75  F   UNL A   1      45.222  32.074  34.650  1.00  0.00    -0.203 F 
ATOM     76  C   UNL A   1      47.322  31.943  33.611  1.00  0.00     0.198 A 
ATOM     77  C   UNL A   1      47.535  31.934  31.250  1.00  0.00     0.198 A 
ATOM     78  F   UNL A   1      45.701  32.252  29.908  1.00  0.00    -0.203 F 
ATOM     79  F   UNL A   1      47.905  31.961  34.818  1.00  0.00    -0.200 F 
ATOM     80  C   UNL A   1      48.125  31.858  32.484  1.00  0.00     0.200 A 
ATOM     81  F   UNL A   1      48.274  31.871  30.133  1.00  0.00    -0.200 F 
ATOM     82  F   UNL A   1      49.454  31.723  32.586  1.00  0.00    -0.200 F 
ENDBRANCH  48  72
BRANCH  60  83
ATOM     83  C   UNL A   1      39.319  32.788  33.601  1.00  0.00     0.064 A 
ATOM     84  C   UNL A   1      39.397  33.071  34.977  1.00  0.00     0.173 A 
ATOM     85  C   UNL A   1      38.797  31.525  33.274  1.00  0.00     0.173 A 
ATOM     86  F   UNL A   1      39.845  34.267  35.388  1.00  0.00    -0.203 F 
ATOM     87  C   UNL A   1      39.010  32.145  35.951  1.00  0.00     0.198 A 
ATOM     88  C   UNL A   1      38.407  30.596  34.245  1.00  0.00     0.198 A 
ATOM     89  F   UNL A   1      38.642  31.166  32.001  1.00  0.00    -0.203 F 
ATOM     90  F   UNL A   1      39.103  32.465  37.250  1.00  0.00    -0.200 F 
ATOM     91  C   UNL A   1      38.517  30.905  35.586  1.00  0.00     0.200 A 
ATOM     92  F   UNL A   1      37.913  29.403  33.873  1.00  0.00    -0.200 F 
ATOM     93  F   UNL A   1      38.126  30.025  36.519  1.00  0.00    -0.200 F 
ENDBRANCH  60  83
ENDBRANCH  34  35
ENDBRANCH  26  29
ENDBRANCH  24  25
ENDBRANCH  23  24
ENDBRANCH   1  23
TORSDOF 14
ENDMDL
MODEL 2
REMARK VINA RESULT:     -10.5      4.905     10.912
REMARK SMILES O=C(CC1CCN(S(=O)(=O)c2cc[nH]c2)CC1)NCCCCNC(=O)c1ccc(-c2c3nc(c(-c4c(F)c(F)c(F)c(F)c4F)c4ccc([nH]4)c(-c4c(F)c(F)c(F)c(F)c4F)c4nc(c(-c5c(F)c(F)c(F)c(F)c5F)c5ccc2[nH]5)C=C4)C=C3)cc1
REMARK SMILES IDX 20 1 19 2 18 3 1 4 2 5 3 7 4 8 5 9 17 10 6 11 16 12 7 13
REMARK SMILES IDX 8 14 9 15 10 16 11 17 12 18 15 19 13 20 14 21 21 23 22 24
REMARK SMILES IDX 23 25 24 26 25 28 26 29 27 30 88 31 28 32 87 33 29 34 30 35
REMARK SMILES IDX 31 36 81 37 32 38 86 39 80 40 82 41 33 42 85 43 79 44 78 45
REMARK SMILES IDX 34 47 66 48 46 49 65 50 47 51 50 52 64 53 83 54 48 55 49 56
REMARK SMILES IDX 63 58 84 59 51 60 35 61 36 62 44 63 37 64 38 65 42 66 45 67
REMARK SMILES IDX 39 68 40 69 43 70 41 71 67 72 68 73 76 74 69 75 70 76 74 77
REMARK SMILES IDX 77 78 71 79 72 80 75 81 73 82 52 83 53 84 61 85 54 86 55 87
REMARK SMILES IDX 59 88 62 89 56 90 57 91 60 92 58 93
REMARK H PARENT 18 6 14 22 23 27 82 46 50 57
REMARK Flexibility Score: inf
ROOT
ATOM      1  C   UNL A   1      39.221  31.799  30.210  1.00  0.00     0.023 C 
ENDROOT
BRANCH   1   2
ATOM      2  C   UNL A   1      39.478  30.873  31.397  1.00  0.00     0.116 C 
BRANCH   2   3
ATOM      3  N   UNL A   1      38.664  31.218  32.546  1.00  0.00    -0.356 N 
ATOM      4  O   UNL A   1      40.270  32.451  33.626  1.00  0.00    -0.275 OA
ATOM      5  C   UNL A   1      39.120  32.034  33.553  1.00  0.00     0.220 C 
ATOM      6  H   UNL A   1      37.750  30.856  32.606  1.00  0.00     0.163 HD
BRANCH   5   7
ATOM      7  C   UNL A   1      38.075  32.390  34.588  1.00  0.00     0.103 C 
BRANCH   7   8
ATOM      8  C   UNL A   1      37.664  33.879  34.722  1.00  0.00     0.001 C 
ATOM      9  C   UNL A   1      36.284  34.208  35.309  1.00  0.00     0.021 C 
ATOM     10  C   UNL A   1      37.753  34.599  33.367  1.00  0.00     0.021 C 
ATOM     11  C   UNL A   1      35.132  33.828  34.384  1.00  0.00     0.103 C 
ATOM     12  C   UNL A   1      36.612  34.204  32.428  1.00  0.00     0.103 C 
ATOM     13  N   UNL A   1      35.283  34.472  33.046  1.00  0.00    -0.198 NA
BRANCH  13  14
ATOM     14  S   UNL A   1      33.950  34.042  32.032  1.00  0.00     0.244 S 
ATOM     15  O   UNL A   1      34.133  32.680  31.597  1.00  0.00    -0.207 OA
ATOM     16  O   UNL A   1      32.734  34.468  32.704  1.00  0.00    -0.207 OA
BRANCH  14  17
ATOM     17  C   UNL A   1      33.977  34.963  30.567  1.00  0.00     0.100 A 
ATOM     18  C   UNL A   1      34.510  34.538  29.322  1.00  0.00     0.041 A 
ATOM     19  C   UNL A   1      33.419  36.210  30.365  1.00  0.00     0.104 A 
ATOM     20  C   UNL A   1      34.301  35.555  28.416  1.00  0.00     0.083 A 
ATOM     21  N   UNL A   1      33.620  36.559  29.056  1.00  0.00    -0.366 N 
ATOM     22  H   UNL A   1      33.322  37.400  28.639  1.00  0.00     0.165 HD
ENDBRANCH  14  17
ENDBRANCH  13  14
ENDBRANCH   7   8
ENDBRANCH   5   7
ENDBRANCH   2   3
ENDBRANCH   1   2
BRANCH   1  23
ATOM     23  C   UNL A   1      37.765  32.261  30.045  1.00  0.00     0.023 C 
BRANCH  23  24
ATOM     24  C   UNL A   1      37.285  32.286  28.600  1.00  0.00     0.116 C 
BRANCH  24  25
ATOM     25  N   UNL A   1      36.280  31.266  28.341  1.00  0.00    -0.352 N 
ATOM     26  C   UNL A   1      36.468  29.978  27.899  1.00  0.00     0.251 C 
ATOM     27  H   UNL A   1      35.346  31.532  28.504  1.00  0.00     0.163 HD
ATOM     28  O   UNL A   1      35.548  29.363  27.371  1.00  0.00    -0.269 OA
BRANCH  26  29
ATOM     29  C   UNL A   1      37.778  29.326  28.076  1.00  0.00     0.039 A 
ATOM     30  C   UNL A   1      38.788  29.535  27.129  1.00  0.00     0.014 A 
ATOM     31  C   UNL A   1      37.968  28.432  29.136  1.00  0.00     0.014 A 
ATOM     32  C   UNL A   1      40.001  28.874  27.272  1.00  0.00     0.010 A 
ATOM     33  C   UNL A   1      39.191  27.827  29.323  1.00  0.00     0.010 A 
ATOM     34  C   UNL A   1      40.192  28.030  28.375  1.00  0.00    -0.014 A 
BRANCH  34  35
ATOM     35  C   UNL A   1      41.487  27.372  28.587  1.00  0.00     0.031 A 
ATOM     36  C   UNL A   1      41.452  25.943  28.015  1.00  0.00     0.074 A 
ATOM     37  C   UNL A   1      42.428  28.133  29.235  1.00  0.00     0.049 A 
ATOM     38  N   UNL A   1      41.950  24.852  28.500  1.00  0.00    -0.248 NA
ATOM     39  C   UNL A   1      40.656  25.650  26.788  1.00  0.00     0.031 C 
ATOM     40  C   UNL A   1      42.228  29.543  29.663  1.00  0.00     0.029 A 
ATOM     41  N   UNL A   1      43.720  27.921  29.667  1.00  0.00    -0.354 N 
ATOM     42  C   UNL A   1      41.724  23.813  27.569  1.00  0.00     0.074 A 
ATOM     43  C   UNL A   1      40.778  24.326  26.627  1.00  0.00     0.031 C 
ATOM     44  C   UNL A   1      43.290  30.004  30.360  1.00  0.00     0.029 A 
ATOM     45  C   UNL A   1      44.291  28.963  30.459  1.00  0.00     0.049 A 
ATOM     46  H   UNL A   1      44.219  27.102  29.443  1.00  0.00     0.167 HD
ATOM     47  C   UNL A   1      42.500  22.683  27.534  1.00  0.00     0.037 A 
ATOM     48  C   UNL A   1      45.453  28.947  31.191  1.00  0.00     0.037 A 
ATOM     49  C   UNL A   1      43.553  22.832  28.485  1.00  0.00     0.049 A 
ATOM     50  C   UNL A   1      46.078  27.663  30.848  1.00  0.00     0.074 A 
ATOM     51  C   UNL A   1      43.549  22.863  29.855  1.00  0.00     0.029 A 
ATOM     52  N   UNL A   1      44.693  23.447  28.013  1.00  0.00    -0.354 N 
ATOM     53  N   UNL A   1      46.626  27.387  29.703  1.00  0.00    -0.248 NA
ATOM     54  C   UNL A   1      45.958  26.560  31.808  1.00  0.00     0.031 C 
ATOM     55  C   UNL A   1      44.379  23.968  30.126  1.00  0.00     0.029 A 
ATOM     56  C   UNL A   1      45.120  24.307  28.985  1.00  0.00     0.049 A 
ATOM     57  H   UNL A   1      45.119  23.296  27.139  1.00  0.00     0.167 HD
ATOM     58  C   UNL A   1      46.586  26.015  29.698  1.00  0.00     0.074 A 
ATOM     59  C   UNL A   1      46.499  25.588  31.080  1.00  0.00     0.031 C 
ATOM     60  C   UNL A   1      46.018  25.382  28.637  1.00  0.00     0.037 A 
BRANCH  47  61
ATOM     61  C   UNL A   1      42.687  21.562  26.547  1.00  0.00     0.064 A 
ATOM     62  C   UNL A   1      42.274  20.260  26.947  1.00  0.00     0.173 A 
ATOM     63  C   UNL A   1      43.554  21.621  25.452  1.00  0.00     0.173 A 
ATOM     64  F   UNL A   1      41.407  20.096  27.960  1.00  0.00    -0.203 F 
ATOM     65  C   UNL A   1      42.818  19.105  26.392  1.00  0.00     0.198 A 
ATOM     66  C   UNL A   1      44.057  20.456  24.861  1.00  0.00     0.198 A 
ATOM     67  F   UNL A   1      44.019  22.791  25.000  1.00  0.00    -0.203 F 
ATOM     68  F   UNL A   1      42.520  17.906  26.911  1.00  0.00    -0.200 F 
ATOM     69  C   UNL A   1      43.727  19.205  25.358  1.00  0.00     0.200 A 
ATOM     70  F   UNL A   1      44.936  20.555  23.854  1.00  0.00    -0.200 F 
ATOM     71  F   UNL A   1      44.311  18.104  24.866  1.00  0.00    -0.200 F 
ENDBRANCH  47  61
BRANCH  48  72
ATOM     72  C   UNL A   1      46.139  29.747  32.285  1.00  0.00     0.064 A 
ATOM     73  C   UNL A   1      47.242  30.596  32.136  1.00  0.00     0.173 A 
ATOM     74  C   UNL A   1      45.586  29.756  33.603  1.00  0.00     0.173 A 
ATOM     75  F   UNL A   1      47.963  30.592  31.011  1.00  0.00    -0.203 F 
ATOM     76  C   UNL A   1      47.651  31.475  33.164  1.00  0.00     0.198 A 
ATOM     77  C   UNL A   1      45.940  30.671  34.593  1.00  0.00     0.198 A 
ATOM     78  F   UNL A   1      44.661  28.864  33.988  1.00  0.00    -0.203 F 
ATOM     79  F   UNL A   1      48.713  32.272  32.975  1.00  0.00    -0.200 F 
ATOM     80  C   UNL A   1      46.967  31.550  34.366  1.00  0.00     0.200 A 
ATOM     81  F   UNL A   1      45.260  30.697  35.749  1.00  0.00    -0.200 F 
ATOM     82  F   UNL A   1      47.303  32.446  35.304  1.00  0.00    -0.200 F 
ENDBRANCH  48  72
BRANCH  60  83
ATOM     83  C   UNL A   1      46.101  26.133  27.319  1.00  0.00     0.064 A 
ATOM     84  C   UNL A   1      47.359  26.492  26.802  1.00  0.00     0.173 A 
ATOM     85  C   UNL A   1      44.994  26.597  26.590  1.00  0.00     0.173 A 
ATOM     86  F   UNL A   1      48.477  26.063  27.406  1.00  0.00    -0.203 F 
ATOM     87  C   UNL A   1      47.494  27.284  25.656  1.00  0.00     0.198 A 
ATOM     88  C   UNL A   1      45.124  27.387  25.442  1.00  0.00     0.198 A 
ATOM     89  F   UNL A   1      43.755  26.284  26.967  1.00  0.00    -0.203 F 
ATOM     90  F   UNL A   1      48.716  27.597  25.203  1.00  0.00    -0.200 F 
ATOM     91  C   UNL A   1      46.376  27.735  24.977  1.00  0.00     0.200 A 
ATOM     92  F   UNL A   1      44.029  27.801  24.784  1.00  0.00    -0.200 F 
ATOM     93  F   UNL A   1      46.507  28.475  23.867  1.00  0.00    -0.200 F 
ENDBRANCH  60  83
ENDBRANCH  34  35
ENDBRANCH  26  29
ENDBRANCH  24  25
ENDBRANCH  23  24
ENDBRANCH   1  23
TORSDOF 14
ENDMDL
MODEL 3
REMARK VINA RESULT:     -10.3      5.386      9.532
REMARK SMILES O=C(CC1CCN(S(=O)(=O)c2cc[nH]c2)CC1)NCCCCNC(=O)c1ccc(-c2c3nc(c(-c4c(F)c(F)c(F)c(F)c4F)c4ccc([nH]4)c(-c4c(F)c(F)c(F)c(F)c4F)c4nc(c(-c5c(F)c(F)c(F)c(F)c5F)c5ccc2[nH]5)C=C4)C=C3)cc1
REMARK SMILES IDX 20 1 19 2 18 3 1 4 2 5 3 7 4 8 5 9 17 10 6 11 16 12 7 13
REMARK SMILES IDX 8 14 9 15 10 16 11 17 12 18 15 19 13 20 14 21 21 23 22 24
REMARK SMILES IDX 23 25 24 26 25 28 26 29 27 30 88 31 28 32 87 33 29 34 30 35
REMARK SMILES IDX 31 36 81 37 32 38 86 39 80 40 82 41 33 42 85 43 79 44 78 45
REMARK SMILES IDX 34 47 66 48 46 49 65 50 47 51 50 52 64 53 83 54 48 55 49 56
REMARK SMILES IDX 63 58 84 59 51 60 35 61 36 62 44 63 37 64 38 65 42 66 45 67
REMARK SMILES IDX 39 68 40 69 43 70 41 71 67 72 68 73 76 74 69 75 70 76 74 77
REMARK SMILES IDX 77 78 71 79 72 80 75 81 73 82 52 83 53 84 61 85 54 86 55 87
REMARK SMILES IDX 59 88 62 89 56 90 57 91 60 92 58 93
REMARK H PARENT 18 6 14 22 23 27 82 46 50 57
REMARK Flexibility Score: inf
ROOT
ATOM      1  C   UNL A   1      37.068  20.057  24.642  1.00  0.00     0.023 C 
ENDROOT
BRANCH   1   2
ATOM      2  C   UNL A   1      37.348  21.534  24.916  1.00  0.00     0.116 C 
BRANCH   2   3
ATOM      3  N   UNL A   1      36.210  22.374  24.596  1.00  0.00    -0.356 N 
ATOM      4  O   UNL A   1      36.750  24.079  26.035  1.00  0.00    -0.275 OA
ATOM      5  C   UNL A   1      36.034  23.617  25.154  1.00  0.00     0.220 C 
ATOM      6  H   UNL A   1      35.540  22.042  23.956  1.00  0.00     0.163 HD
BRANCH   5   7
ATOM      7  C   UNL A   1      34.865  24.394  24.586  1.00  0.00     0.103 C 
BRANCH   7   8
ATOM      8  C   UNL A   1      33.843  24.999  25.582  1.00  0.00     0.001 C 
ATOM      9  C   UNL A   1      32.355  24.673  25.393  1.00  0.00     0.021 C 
ATOM     10  C   UNL A   1      33.959  26.531  25.628  1.00  0.00     0.021 C 
ATOM     11  C   UNL A   1      31.749  25.329  24.155  1.00  0.00     0.103 C 
ATOM     12  C   UNL A   1      33.374  27.192  24.379  1.00  0.00     0.103 C 
ATOM     13  N   UNL A   1      31.948  26.808  24.180  1.00  0.00    -0.198 NA
BRANCH  13  14
ATOM     14  S   UNL A   1      31.228  27.521  22.779  1.00  0.00     0.244 S 
ATOM     15  O   UNL A   1      31.801  28.832  22.594  1.00  0.00    -0.207 OA
ATOM     16  O   UNL A   1      31.250  26.526  21.720  1.00  0.00    -0.207 OA
BRANCH  14  17
ATOM     17  C   UNL A   1      29.546  27.827  23.047  1.00  0.00     0.100 A 
ATOM     18  C   UNL A   1      28.841  29.004  22.681  1.00  0.00     0.041 A 
ATOM     19  C   UNL A   1      28.622  26.950  23.581  1.00  0.00     0.104 A 
ATOM     20  C   UNL A   1      27.524  28.824  23.045  1.00  0.00     0.083 A 
ATOM     21  N   UNL A   1      27.398  27.565  23.573  1.00  0.00    -0.366 N 
ATOM     22  H   UNL A   1      26.559  27.165  23.897  1.00  0.00     0.165 HD
ENDBRANCH  14  17
ENDBRANCH  13  14
ENDBRANCH   7   8
ENDBRANCH   5   7
ENDBRANCH   2   3
ENDBRANCH   1   2
BRANCH   1  23
ATOM     23  C   UNL A   1      38.154  19.085  25.131  1.00  0.00     0.023 C 
BRANCH  23  24
ATOM     24  C   UNL A   1      39.350  19.770  25.777  1.00  0.00     0.116 C 
BRANCH  24  25
ATOM     25  N   UNL A   1      40.456  18.849  25.990  1.00  0.00    -0.352 N 
ATOM     26  C   UNL A   1      41.799  19.133  26.059  1.00  0.00     0.251 C 
ATOM     27  H   UNL A   1      40.211  17.902  26.100  1.00  0.00     0.163 HD
ATOM     28  O   UNL A   1      42.630  18.252  25.865  1.00  0.00    -0.269 OA
BRANCH  26  29
ATOM     29  C   UNL A   1      42.244  20.500  26.386  1.00  0.00     0.039 A 
ATOM     30  C   UNL A   1      42.277  20.915  27.723  1.00  0.00     0.014 A 
ATOM     31  C   UNL A   1      42.539  21.397  25.353  1.00  0.00     0.014 A 
ATOM     32  C   UNL A   1      42.644  22.221  28.020  1.00  0.00     0.010 A 
ATOM     33  C   UNL A   1      42.971  22.671  25.643  1.00  0.00     0.010 A 
ATOM     34  C   UNL A   1      42.996  23.085  26.973  1.00  0.00    -0.014 A 
BRANCH  34  35
ATOM     35  C   UNL A   1      43.452  24.450  27.264  1.00  0.00     0.031 A 
ATOM     36  C   UNL A   1      42.245  25.357  27.564  1.00  0.00     0.074 A 
ATOM     37  C   UNL A   1      44.811  24.635  27.202  1.00  0.00     0.049 A 
ATOM     38  N   UNL A   1      42.027  26.581  27.205  1.00  0.00    -0.248 NA
ATOM     39  C   UNL A   1      41.052  24.802  28.267  1.00  0.00     0.031 C 
ATOM     40  C   UNL A   1      45.800  23.560  26.924  1.00  0.00     0.029 A 
ATOM     41  N   UNL A   1      45.653  25.717  27.356  1.00  0.00    -0.354 N 
ATOM     42  C   UNL A   1      40.814  27.004  27.793  1.00  0.00     0.074 A 
ATOM     43  C   UNL A   1      40.181  25.819  28.286  1.00  0.00     0.031 C 
ATOM     44  C   UNL A   1      47.054  24.054  26.831  1.00  0.00     0.029 A 
ATOM     45  C   UNL A   1      47.026  25.486  27.042  1.00  0.00     0.049 A 
ATOM     46  H   UNL A   1      45.327  26.594  27.663  1.00  0.00     0.167 HD
ATOM     47  C   UNL A   1      40.532  28.328  28.012  1.00  0.00     0.037 A 
ATOM     48  C   UNL A   1      48.040  26.401  26.898  1.00  0.00     0.037 A 
ATOM     49  C   UNL A   1      41.677  29.096  27.648  1.00  0.00     0.049 A 
ATOM     50  C   UNL A   1      47.435  27.676  27.304  1.00  0.00     0.074 A 
ATOM     51  C   UNL A   1      42.254  29.356  26.433  1.00  0.00     0.029 A 
ATOM     52  N   UNL A   1      42.605  29.285  28.649  1.00  0.00    -0.354 N 
ATOM     53  N   UNL A   1      47.126  27.996  28.525  1.00  0.00    -0.248 NA
ATOM     54  C   UNL A   1      47.017  28.607  26.249  1.00  0.00     0.031 C 
ATOM     55  C   UNL A   1      43.619  29.138  26.704  1.00  0.00     0.029 A 
ATOM     56  C   UNL A   1      43.841  29.131  28.088  1.00  0.00     0.049 A 
ATOM     57  H   UNL A   1      42.413  29.490  29.593  1.00  0.00     0.167 HD
ATOM     58  C   UNL A   1      46.185  28.976  28.326  1.00  0.00     0.074 A 
ATOM     59  C   UNL A   1      46.411  29.519  27.002  1.00  0.00     0.031 C 
ATOM     60  C   UNL A   1      44.975  28.852  28.935  1.00  0.00     0.037 A 
BRANCH  47  61
ATOM     61  C   UNL A   1      39.498  29.066  28.820  1.00  0.00     0.064 A 
ATOM     62  C   UNL A   1      39.440  28.794  30.216  1.00  0.00     0.173 A 
ATOM     63  C   UNL A   1      38.375  29.690  28.269  1.00  0.00     0.173 A 
ATOM     64  F   UNL A   1      40.485  28.237  30.850  1.00  0.00    -0.203 F 
ATOM     65  C   UNL A   1      38.281  28.988  30.963  1.00  0.00     0.198 A 
ATOM     66  C   UNL A   1      37.230  29.933  29.038  1.00  0.00     0.198 A 
ATOM     67  F   UNL A   1      38.313  29.978  26.965  1.00  0.00    -0.203 F 
ATOM     68  F   UNL A   1      38.224  28.566  32.234  1.00  0.00    -0.200 F 
ATOM     69  C   UNL A   1      37.167  29.541  30.366  1.00  0.00     0.200 A 
ATOM     70  F   UNL A   1      36.151  30.475  28.458  1.00  0.00    -0.200 F 
ATOM     71  F   UNL A   1      36.025  29.666  31.056  1.00  0.00    -0.200 F 
ENDBRANCH  47  61
BRANCH  48  72
ATOM     72  C   UNL A   1      49.448  26.485  26.333  1.00  0.00     0.064 A 
ATOM     73  C   UNL A   1      49.804  26.703  24.998  1.00  0.00     0.173 A 
ATOM     74  C   UNL A   1      50.566  26.449  27.223  1.00  0.00     0.173 A 
ATOM     75  F   UNL A   1      48.893  26.617  24.023  1.00  0.00    -0.203 F 
ATOM     76  C   UNL A   1      51.131  27.003  24.618  1.00  0.00     0.198 A 
ATOM     77  C   UNL A   1      51.863  26.814  26.864  1.00  0.00     0.198 A 
ATOM     78  F   UNL A   1      50.442  26.053  28.498  1.00  0.00    -0.203 F 
ATOM     79  F   UNL A   1      51.425  27.207  23.325  1.00  0.00    -0.200 F 
ATOM     80  C   UNL A   1      52.144  27.113  25.557  1.00  0.00     0.200 A 
ATOM     81  F   UNL A   1      52.816  26.892  27.804  1.00  0.00    -0.200 F 
ATOM     82  F   UNL A   1      53.382  27.484  25.204  1.00  0.00    -0.200 F 
ENDBRANCH  48  72
BRANCH  60  83
ATOM     83  C   UNL A   1      44.989  28.081  30.244  1.00  0.00     0.064 A 
ATOM     84  C   UNL A   1      45.759  28.555  31.322  1.00  0.00     0.173 A 
ATOM     85  C   UNL A   1      44.352  26.847  30.454  1.00  0.00     0.173 A 
ATOM     86  F   UNL A   1      46.375  29.743  31.231  1.00  0.00    -0.203 F 
ATOM     87  C   UNL A   1      45.905  27.829  32.509  1.00  0.00     0.198 A 
ATOM     88  C   UNL A   1      44.492  26.118  31.641  1.00  0.00     0.198 A 
ATOM     89  F   UNL A   1      43.566  26.322  29.516  1.00  0.00    -0.203 F 
ATOM     90  F   UNL A   1      46.650  28.325  33.507  1.00  0.00    -0.200 F 
ATOM     91  C   UNL A   1      45.274  26.608  32.668  1.00  0.00     0.200 A 
ATOM     92  F   UNL A   1      43.858  24.943  31.787  1.00  0.00    -0.200 F 
ATOM     93  F   UNL A   1      45.395  25.923  33.814  1.00  0.00    -0.200 F 
ENDBRANCH  60  83
ENDBRANCH  34  35
ENDBRANCH  26  29
ENDBRANCH  24  25
ENDBRANCH  23  24
ENDBRANCH   1  23
TORSDOF 14
ENDMDL
