MODEL 1
REMARK VINA RESULT:     -11.9      0.000      0.000
REMARK SMILES C=CCN(CC(=O)NCCCCNC(=O)c1ccc(-c2c3nc(c(-c4c(F)c(F)c(F)c(F)c4F)c4ccc([nH]4)c(-c4c(F)c(F)c(F)c(F)c4F)c4nc(c(-c5c(F)c(F)c(F)c(F)c5F)c5ccc2[nH]5)C=C4)C=C3)cc1)c1nc2ccccc2s1
REMARK SMILES IDX 10 1 9 2 8 3 6 4 7 5 5 7 4 8 3 9 2 10 1 11 79 12 80 13 87 14
REMARK SMILES IDX 81 15 86 16 82 17 85 18 83 19 84 20 11 21 12 22 13 23 14 24
REMARK SMILES IDX 15 26 16 27 17 28 78 29 18 30 77 31 19 32 20 33 21 34 71 35
REMARK SMILES IDX 22 36 76 37 70 38 72 39 23 40 75 41 69 42 68 43 24 45 56 46
REMARK SMILES IDX 36 47 55 48 37 49 40 50 54 51 73 52 38 53 39 54 53 56 74 57
REMARK SMILES IDX 41 58 25 59 26 60 34 61 27 62 28 63 32 64 35 65 29 66 30 67
REMARK SMILES IDX 33 68 31 69 57 70 58 71 66 72 59 73 60 74 64 75 67 76 61 77
REMARK SMILES IDX 62 78 65 79 63 80 42 81 43 82 51 83 44 84 45 85 49 86 52 87
REMARK SMILES IDX 46 88 47 89 50 90 48 91
REMARK H PARENT 8 6 13 25 72 44 40 55
REMARK Flexibility Score: inf
ROOT
ATOM      1  C   UNL A   1      31.451  27.391  26.352  1.00  0.00     0.023 C 
ENDROOT
BRANCH   1   2
ATOM      2  C   UNL A   1      30.627  26.326  25.631  1.00  0.00     0.116 C 
BRANCH   2   3
ATOM      3  N   UNL A   1      30.215  25.258  26.508  1.00  0.00    -0.355 N 
ATOM      4  C   UNL A   1      30.516  23.925  26.445  1.00  0.00     0.239 C 
ATOM      5  O   UNL A   1      30.182  23.228  27.409  1.00  0.00    -0.273 OA
ATOM      6  H   UNL A   1      29.636  25.525  27.257  1.00  0.00     0.163 HD
BRANCH   4   7
ATOM      7  C   UNL A   1      31.352  23.353  25.285  1.00  0.00     0.219 C 
BRANCH   7   8
ATOM      8  N   UNL A   1      32.701  22.870  25.644  1.00  0.00    -0.335 N 
BRANCH   8   9
ATOM      9  C   UNL A   1      33.590  23.763  26.368  1.00  0.00     0.146 C 
BRANCH   9  10
ATOM     10  C   UNL A   1      34.495  24.545  25.469  1.00  0.00    -0.014 C 
ATOM     11  C   UNL A   1      34.043  25.342  24.490  1.00  0.00     0.006 C 
ENDBRANCH   9  10
ENDBRANCH   8   9
BRANCH   8  12
ATOM     12  C   UNL A   1      33.086  21.649  25.159  1.00  0.00     0.187 A 
ATOM     13  N   UNL A   1      32.288  20.899  24.433  1.00  0.00    -0.220 NA
ATOM     14  S   UNL A   1      34.625  20.915  25.455  1.00  0.00    -0.097 S 
ATOM     15  C   UNL A   1      32.869  19.690  24.110  1.00  0.00     0.084 A 
ATOM     16  C   UNL A   1      34.140  19.488  24.636  1.00  0.00     0.056 A 
ATOM     17  C   UNL A   1      32.284  18.673  23.329  1.00  0.00     0.030 A 
ATOM     18  C   UNL A   1      34.835  18.280  24.457  1.00  0.00     0.021 A 
ATOM     19  C   UNL A   1      32.972  17.473  23.126  1.00  0.00     0.002 A 
ATOM     20  C   UNL A   1      34.225  17.276  23.696  1.00  0.00     0.002 A 
ENDBRANCH   8  12
ENDBRANCH   7   8
ENDBRANCH   4   7
ENDBRANCH   2   3
ENDBRANCH   1   2
BRANCH   1  21
ATOM     21  C   UNL A   1      31.703  28.665  25.543  1.00  0.00     0.023 C 
BRANCH  21  22
ATOM     22  C   UNL A   1      32.945  29.457  25.937  1.00  0.00     0.116 C 
BRANCH  22  23
ATOM     23  N   UNL A   1      32.654  30.818  26.359  1.00  0.00    -0.352 N 
ATOM     24  C   UNL A   1      33.356  31.625  27.224  1.00  0.00     0.251 C 
ATOM     25  H   UNL A   1      31.843  31.218  25.969  1.00  0.00     0.163 HD
ATOM     26  O   UNL A   1      32.910  32.716  27.551  1.00  0.00    -0.269 OA
BRANCH  24  27
ATOM     27  C   UNL A   1      34.635  31.147  27.793  1.00  0.00     0.039 A 
ATOM     28  C   UNL A   1      35.679  32.061  27.959  1.00  0.00     0.014 A 
ATOM     29  C   UNL A   1      34.798  29.814  28.180  1.00  0.00     0.014 A 
ATOM     30  C   UNL A   1      36.862  31.654  28.582  1.00  0.00     0.010 A 
ATOM     31  C   UNL A   1      35.947  29.429  28.865  1.00  0.00     0.010 A 
ATOM     32  C   UNL A   1      36.989  30.345  29.075  1.00  0.00    -0.014 A 
BRANCH  32  33
ATOM     33  C   UNL A   1      38.200  29.915  29.819  1.00  0.00     0.031 A 
ATOM     34  C   UNL A   1      38.461  30.439  31.202  1.00  0.00     0.074 A 
ATOM     35  C   UNL A   1      39.096  29.106  29.224  1.00  0.00     0.049 A 
ATOM     36  N   UNL A   1      39.492  30.238  31.985  1.00  0.00    -0.248 NA
ATOM     37  C   UNL A   1      37.439  31.329  31.773  1.00  0.00     0.031 C 
ATOM     38  C   UNL A   1      38.978  28.561  27.870  1.00  0.00     0.029 A 
ATOM     39  N   UNL A   1      40.290  28.605  29.679  1.00  0.00    -0.354 N 
ATOM     40  C   UNL A   1      39.247  30.982  33.130  1.00  0.00     0.074 A 
ATOM     41  C   UNL A   1      38.001  31.687  32.918  1.00  0.00     0.031 C 
ATOM     42  C   UNL A   1      40.039  27.780  27.616  1.00  0.00     0.029 A 
ATOM     43  C   UNL A   1      40.932  27.799  28.770  1.00  0.00     0.049 A 
ATOM     44  H   UNL A   1      40.653  28.805  30.572  1.00  0.00     0.167 HD
ATOM     45  C   UNL A   1      39.981  31.053  34.267  1.00  0.00     0.037 A 
ATOM     46  C   UNL A   1      42.110  27.153  28.859  1.00  0.00     0.037 A 
ATOM     47  C   UNL A   1      41.212  30.339  34.482  1.00  0.00     0.049 A 
ATOM     48  C   UNL A   1      42.921  27.271  30.120  1.00  0.00     0.074 A 
ATOM     49  C   UNL A   1      42.007  30.307  35.615  1.00  0.00     0.029 A 
ATOM     50  N   UNL A   1      41.832  29.533  33.537  1.00  0.00    -0.354 N 
ATOM     51  N   UNL A   1      42.650  27.929  31.221  1.00  0.00    -0.248 NA
ATOM     52  C   UNL A   1      44.203  26.554  30.150  1.00  0.00     0.031 C 
ATOM     53  C   UNL A   1      43.129  29.518  35.340  1.00  0.00     0.029 A 
ATOM     54  C   UNL A   1      43.010  29.016  34.054  1.00  0.00     0.049 A 
ATOM     55  H   UNL A   1      41.485  29.355  32.633  1.00  0.00     0.167 HD
ATOM     56  C   UNL A   1      43.708  27.678  32.085  1.00  0.00     0.074 A 
ATOM     57  C   UNL A   1      44.621  26.801  31.383  1.00  0.00     0.031 C 
ATOM     58  C   UNL A   1      43.903  28.135  33.347  1.00  0.00     0.037 A 
BRANCH  45  59
ATOM     59  C   UNL A   1      39.462  31.934  35.367  1.00  0.00     0.064 A 
ATOM     60  C   UNL A   1      38.575  31.450  36.341  1.00  0.00     0.173 A 
ATOM     61  C   UNL A   1      39.866  33.275  35.459  1.00  0.00     0.173 A 
ATOM     62  F   UNL A   1      38.147  30.179  36.291  1.00  0.00    -0.203 F 
ATOM     63  C   UNL A   1      38.081  32.283  37.340  1.00  0.00     0.198 A 
ATOM     64  C   UNL A   1      39.396  34.097  36.481  1.00  0.00     0.198 A 
ATOM     65  F   UNL A   1      40.718  33.788  34.560  1.00  0.00    -0.203 F 
ATOM     66  F   UNL A   1      37.189  31.812  38.222  1.00  0.00    -0.200 F 
ATOM     67  C   UNL A   1      38.496  33.603  37.413  1.00  0.00     0.200 A 
ATOM     68  F   UNL A   1      39.809  35.369  36.558  1.00  0.00    -0.200 F 
ATOM     69  F   UNL A   1      38.022  34.405  38.378  1.00  0.00    -0.200 F 
ENDBRANCH  45  59
BRANCH  46  70
ATOM     70  C   UNL A   1      42.576  26.302  27.733  1.00  0.00     0.064 A 
ATOM     71  C   UNL A   1      42.118  24.984  27.598  1.00  0.00     0.173 A 
ATOM     72  C   UNL A   1      43.483  26.781  26.776  1.00  0.00     0.173 A 
ATOM     73  F   UNL A   1      41.268  24.475  28.500  1.00  0.00    -0.203 F 
ATOM     74  C   UNL A   1      42.564  24.171  26.559  1.00  0.00     0.198 A 
ATOM     75  C   UNL A   1      43.907  25.974  25.721  1.00  0.00     0.198 A 
ATOM     76  F   UNL A   1      43.947  28.035  26.860  1.00  0.00    -0.203 F 
ATOM     77  F   UNL A   1      42.144  22.900  26.477  1.00  0.00    -0.200 F 
ATOM     78  C   UNL A   1      43.453  24.668  25.618  1.00  0.00     0.200 A 
ATOM     79  F   UNL A   1      44.756  26.463  24.808  1.00  0.00    -0.200 F 
ATOM     80  F   UNL A   1      43.878  23.886  24.616  1.00  0.00    -0.200 F 
ENDBRANCH  46  70
BRANCH  58  81
ATOM     81  C   UNL A   1      45.131  27.659  34.067  1.00  0.00     0.064 A 
ATOM     82  C   UNL A   1      46.338  28.371  34.019  1.00  0.00     0.173 A 
ATOM     83  C   UNL A   1      45.087  26.492  34.846  1.00  0.00     0.173 A 
ATOM     84  F   UNL A   1      46.437  29.483  33.275  1.00  0.00    -0.203 F 
ATOM     85  C   UNL A   1      47.464  27.919  34.703  1.00  0.00     0.198 A 
ATOM     86  C   UNL A   1      46.206  26.059  35.553  1.00  0.00     0.198 A 
ATOM     87  F   UNL A   1      43.955  25.776  34.930  1.00  0.00    -0.203 F 
ATOM     88  F   UNL A   1      48.619  28.590  34.604  1.00  0.00    -0.200 F 
ATOM     89  C   UNL A   1      47.394  26.769  35.476  1.00  0.00     0.200 A 
ATOM     90  F   UNL A   1      46.133  24.956  36.309  1.00  0.00    -0.200 F 
ATOM     91  F   UNL A   1      48.477  26.340  36.139  1.00  0.00    -0.200 F 
ENDBRANCH  58  81
ENDBRANCH  32  33
ENDBRANCH  24  27
ENDBRANCH  22  23
ENDBRANCH  21  22
ENDBRANCH   1  21
TORSDOF 15
ENDMDL
MODEL 2
REMARK VINA RESULT:     -11.9      4.759      8.063
REMARK SMILES C=CCN(CC(=O)NCCCCNC(=O)c1ccc(-c2c3nc(c(-c4c(F)c(F)c(F)c(F)c4F)c4ccc([nH]4)c(-c4c(F)c(F)c(F)c(F)c4F)c4nc(c(-c5c(F)c(F)c(F)c(F)c5F)c5ccc2[nH]5)C=C4)C=C3)cc1)c1nc2ccccc2s1
REMARK SMILES IDX 10 1 9 2 8 3 6 4 7 5 5 7 4 8 3 9 2 10 1 11 79 12 80 13 87 14
REMARK SMILES IDX 81 15 86 16 82 17 85 18 83 19 84 20 11 21 12 22 13 23 14 24
REMARK SMILES IDX 15 26 16 27 17 28 78 29 18 30 77 31 19 32 20 33 21 34 71 35
REMARK SMILES IDX 22 36 76 37 70 38 72 39 23 40 75 41 69 42 68 43 24 45 56 46
REMARK SMILES IDX 36 47 55 48 37 49 40 50 54 51 73 52 38 53 39 54 53 56 74 57
REMARK SMILES IDX 41 58 25 59 26 60 34 61 27 62 28 63 32 64 35 65 29 66 30 67
REMARK SMILES IDX 33 68 31 69 57 70 58 71 66 72 59 73 60 74 64 75 67 76 61 77
REMARK SMILES IDX 62 78 65 79 63 80 42 81 43 82 51 83 44 84 45 85 49 86 52 87
REMARK SMILES IDX 46 88 47 89 50 90 48 91
REMARK H PARENT 8 6 13 25 72 44 40 55
REMARK Flexibility Score: inf
ROOT
ATOM      1  C   UNL A   1      37.330  21.279  24.750  1.00  0.00     0.023 C 
ENDROOT
BRANCH   1   2
ATOM      2  C   UNL A   1      35.835  21.155  25.032  1.00  0.00     0.116 C 
BRANCH   2   3
ATOM      3  N   UNL A   1      35.482  21.603  26.357  1.00  0.00    -0.355 N 
ATOM      4  C   UNL A   1      34.403  22.341  26.760  1.00  0.00     0.239 C 
ATOM      5  O   UNL A   1      34.226  22.459  27.977  1.00  0.00    -0.273 OA
ATOM      6  H   UNL A   1      36.105  21.340  27.072  1.00  0.00     0.163 HD
BRANCH   4   7
ATOM      7  C   UNL A   1      33.386  22.884  25.738  1.00  0.00     0.219 C 
BRANCH   7   8
ATOM      8  N   UNL A   1      32.191  22.043  25.515  1.00  0.00    -0.335 N 
BRANCH   8   9
ATOM      9  C   UNL A   1      30.895  22.553  25.929  1.00  0.00     0.146 C 
BRANCH   9  10
ATOM     10  C   UNL A   1      30.963  23.936  26.497  1.00  0.00    -0.014 C 
ATOM     11  C   UNL A   1      30.464  25.011  25.867  1.00  0.00     0.006 C 
ENDBRANCH   9  10
ENDBRANCH   8   9
BRANCH   8  12
ATOM     12  C   UNL A   1      32.390  20.773  25.047  1.00  0.00     0.187 A 
ATOM     13  N   UNL A   1      32.527  19.742  25.851  1.00  0.00    -0.220 NA
ATOM     14  S   UNL A   1      32.526  20.351  23.374  1.00  0.00    -0.097 S 
ATOM     15  C   UNL A   1      32.778  18.577  25.157  1.00  0.00     0.084 A 
ATOM     16  C   UNL A   1      32.874  18.721  23.777  1.00  0.00     0.056 A 
ATOM     17  C   UNL A   1      32.954  17.298  25.722  1.00  0.00     0.030 A 
ATOM     18  C   UNL A   1      33.196  17.641  22.938  1.00  0.00     0.021 A 
ATOM     19  C   UNL A   1      33.256  16.210  24.898  1.00  0.00     0.002 A 
ATOM     20  C   UNL A   1      33.389  16.386  23.524  1.00  0.00     0.002 A 
ENDBRANCH   8  12
ENDBRANCH   7   8
ENDBRANCH   4   7
ENDBRANCH   2   3
ENDBRANCH   1   2
BRANCH   1  21
ATOM     21  C   UNL A   1      38.150  20.028  25.067  1.00  0.00     0.023 C 
BRANCH  21  22
ATOM     22  C   UNL A   1      39.283  20.222  26.069  1.00  0.00     0.116 C 
BRANCH  22  23
ATOM     23  N   UNL A   1      40.280  19.163  26.028  1.00  0.00    -0.352 N 
ATOM     24  C   UNL A   1      41.648  19.259  26.131  1.00  0.00     0.251 C 
ATOM     25  H   UNL A   1      39.925  18.252  25.912  1.00  0.00     0.163 HD
ATOM     26  O   UNL A   1      42.350  18.270  25.970  1.00  0.00    -0.269 OA
BRANCH  24  27
ATOM     27  C   UNL A   1      42.271  20.575  26.396  1.00  0.00     0.039 A 
ATOM     28  C   UNL A   1      42.620  21.383  25.311  1.00  0.00     0.014 A 
ATOM     29  C   UNL A   1      42.488  21.017  27.704  1.00  0.00     0.014 A 
ATOM     30  C   UNL A   1      43.119  22.668  25.539  1.00  0.00     0.010 A 
ATOM     31  C   UNL A   1      42.918  22.322  27.928  1.00  0.00     0.010 A 
ATOM     32  C   UNL A   1      43.235  23.161  26.849  1.00  0.00    -0.014 A 
BRANCH  32  33
ATOM     33  C   UNL A   1      43.679  24.553  27.112  1.00  0.00     0.031 A 
ATOM     34  C   UNL A   1      42.700  25.575  27.618  1.00  0.00     0.074 A 
ATOM     35  C   UNL A   1      44.946  24.914  26.835  1.00  0.00     0.049 A 
ATOM     36  N   UNL A   1      42.876  26.853  27.843  1.00  0.00    -0.248 NA
ATOM     37  C   UNL A   1      41.333  25.102  27.882  1.00  0.00     0.031 C 
ATOM     38  C   UNL A   1      45.981  24.026  26.303  1.00  0.00     0.029 A 
ATOM     39  N   UNL A   1      45.578  26.126  26.953  1.00  0.00    -0.354 N 
ATOM     40  C   UNL A   1      41.644  27.335  28.263  1.00  0.00     0.074 A 
ATOM     41  C   UNL A   1      40.714  26.228  28.205  1.00  0.00     0.031 C 
ATOM     42  C   UNL A   1      47.125  24.715  26.169  1.00  0.00     0.029 A 
ATOM     43  C   UNL A   1      46.896  26.100  26.567  1.00  0.00     0.049 A 
ATOM     44  H   UNL A   1      45.130  26.937  27.284  1.00  0.00     0.167 HD
ATOM     45  C   UNL A   1      41.322  28.582  28.683  1.00  0.00     0.037 A 
ATOM     46  C   UNL A   1      47.813  27.085  26.534  1.00  0.00     0.037 A 
ATOM     47  C   UNL A   1      42.252  29.679  28.754  1.00  0.00     0.049 A 
ATOM     48  C   UNL A   1      47.423  28.469  26.977  1.00  0.00     0.074 A 
ATOM     49  C   UNL A   1      42.036  30.968  29.209  1.00  0.00     0.029 A 
ATOM     50  N   UNL A   1      43.579  29.614  28.352  1.00  0.00    -0.354 N 
ATOM     51  N   UNL A   1      46.271  28.900  27.431  1.00  0.00    -0.248 NA
ATOM     52  C   UNL A   1      48.464  29.504  26.904  1.00  0.00     0.031 C 
ATOM     53  C   UNL A   1      43.219  31.695  29.042  1.00  0.00     0.029 A 
ATOM     54  C   UNL A   1      44.188  30.847  28.530  1.00  0.00     0.049 A 
ATOM     55  H   UNL A   1      44.022  28.811  27.994  1.00  0.00     0.167 HD
ATOM     56  C   UNL A   1      46.457  30.244  27.729  1.00  0.00     0.074 A 
ATOM     57  C   UNL A   1      47.836  30.554  27.414  1.00  0.00     0.031 C 
ATOM     58  C   UNL A   1      45.565  31.138  28.221  1.00  0.00     0.037 A 
BRANCH  45  59
ATOM     59  C   UNL A   1      39.900  28.821  29.102  1.00  0.00     0.064 A 
ATOM     60  C   UNL A   1      39.484  28.640  30.430  1.00  0.00     0.173 A 
ATOM     61  C   UNL A   1      38.943  29.250  28.169  1.00  0.00     0.173 A 
ATOM     62  F   UNL A   1      40.356  28.218  31.358  1.00  0.00    -0.203 F 
ATOM     63  C   UNL A   1      38.157  28.839  30.801  1.00  0.00     0.198 A 
ATOM     64  C   UNL A   1      37.623  29.481  28.551  1.00  0.00     0.198 A 
ATOM     65  F   UNL A   1      39.287  29.447  26.888  1.00  0.00    -0.203 F 
ATOM     66  F   UNL A   1      37.773  28.601  32.062  1.00  0.00    -0.200 F 
ATOM     67  C   UNL A   1      37.230  29.266  29.863  1.00  0.00     0.200 A 
ATOM     68  F   UNL A   1      36.731  29.907  27.646  1.00  0.00    -0.200 F 
ATOM     69  F   UNL A   1      35.952  29.460  30.221  1.00  0.00    -0.200 F 
ENDBRANCH  45  59
BRANCH  46  70
ATOM     70  C   UNL A   1      49.204  26.791  26.100  1.00  0.00     0.064 A 
ATOM     71  C   UNL A   1      49.595  26.998  24.770  1.00  0.00     0.173 A 
ATOM     72  C   UNL A   1      50.166  26.301  26.996  1.00  0.00     0.173 A 
ATOM     73  F   UNL A   1      48.705  27.445  23.872  1.00  0.00    -0.203 F 
ATOM     74  C   UNL A   1      50.889  26.707  24.347  1.00  0.00     0.198 A 
ATOM     75  C   UNL A   1      51.468  26.036  26.577  1.00  0.00     0.198 A 
ATOM     76  F   UNL A   1      49.842  26.090  28.279  1.00  0.00    -0.203 F 
ATOM     77  F   UNL A   1      51.225  26.872  23.060  1.00  0.00    -0.200 F 
ATOM     78  C   UNL A   1      51.827  26.232  25.252  1.00  0.00     0.200 A 
ATOM     79  F   UNL A   1      52.374  25.590  27.457  1.00  0.00    -0.200 F 
ATOM     80  F   UNL A   1      53.073  25.956  24.845  1.00  0.00    -0.200 F 
ENDBRANCH  46  70
BRANCH  58  81
ATOM     81  C   UNL A   1      46.063  32.528  28.490  1.00  0.00     0.064 A 
ATOM     82  C   UNL A   1      45.983  33.541  27.523  1.00  0.00     0.173 A 
ATOM     83  C   UNL A   1      46.595  32.859  29.746  1.00  0.00     0.173 A 
ATOM     84  F   UNL A   1      45.498  33.272  26.301  1.00  0.00    -0.203 F 
ATOM     85  C   UNL A   1      46.441  34.828  27.795  1.00  0.00     0.198 A 
ATOM     86  C   UNL A   1      47.024  34.154  30.024  1.00  0.00     0.198 A 
ATOM     87  F   UNL A   1      46.689  31.929  30.708  1.00  0.00    -0.203 F 
ATOM     88  F   UNL A   1      46.398  35.767  26.840  1.00  0.00    -0.200 F 
ATOM     89  C   UNL A   1      46.952  35.135  29.047  1.00  0.00     0.200 A 
ATOM     90  F   UNL A   1      47.505  34.453  31.238  1.00  0.00    -0.200 F 
ATOM     91  F   UNL A   1      47.385  36.376  29.309  1.00  0.00    -0.200 F 
ENDBRANCH  58  81
ENDBRANCH  32  33
ENDBRANCH  24  27
ENDBRANCH  22  23
ENDBRANCH  21  22
ENDBRANCH   1  21
TORSDOF 15
ENDMDL
MODEL 3
REMARK VINA RESULT:     -11.8      3.268      8.701
REMARK SMILES C=CCN(CC(=O)NCCCCNC(=O)c1ccc(-c2c3nc(c(-c4c(F)c(F)c(F)c(F)c4F)c4ccc([nH]4)c(-c4c(F)c(F)c(F)c(F)c4F)c4nc(c(-c5c(F)c(F)c(F)c(F)c5F)c5ccc2[nH]5)C=C4)C=C3)cc1)c1nc2ccccc2s1
REMARK SMILES IDX 10 1 9 2 8 3 6 4 7 5 5 7 4 8 3 9 2 10 1 11 79 12 80 13 87 14
REMARK SMILES IDX 81 15 86 16 82 17 85 18 83 19 84 20 11 21 12 22 13 23 14 24
REMARK SMILES IDX 15 26 16 27 17 28 78 29 18 30 77 31 19 32 20 33 21 34 71 35
REMARK SMILES IDX 22 36 76 37 70 38 72 39 23 40 75 41 69 42 68 43 24 45 56 46
REMARK SMILES IDX 36 47 55 48 37 49 40 50 54 51 73 52 38 53 39 54 53 56 74 57
REMARK SMILES IDX 41 58 25 59 26 60 34 61 27 62 28 63 32 64 35 65 29 66 30 67
REMARK SMILES IDX 33 68 31 69 57 70 58 71 66 72 59 73 60 74 64 75 67 76 61 77
REMARK SMILES IDX 62 78 65 79 63 80 42 81 43 82 51 83 44 84 45 85 49 86 52 87
REMARK SMILES IDX 46 88 47 89 50 90 48 91
REMARK H PARENT 8 6 13 25 72 44 40 55
REMARK Flexibility Score: inf
ROOT
ATOM      1  C   UNL A   1      31.771  30.506  26.324  1.00  0.00     0.023 C 
ENDROOT
BRANCH   1   2
ATOM      2  C   UNL A   1      33.227  30.049  26.381  1.00  0.00     0.116 C 
BRANCH   2   3
ATOM      3  N   UNL A   1      33.352  28.620  26.541  1.00  0.00    -0.355 N 
ATOM      4  C   UNL A   1      33.639  27.669  25.600  1.00  0.00     0.239 C 
ATOM      5  O   UNL A   1      33.860  26.524  26.010  1.00  0.00    -0.273 OA
ATOM      6  H   UNL A   1      33.213  28.283  27.454  1.00  0.00     0.163 HD
BRANCH   4   7
ATOM      7  C   UNL A   1      33.809  28.044  24.116  1.00  0.00     0.219 C 
BRANCH   7   8
ATOM      8  N   UNL A   1      32.940  27.317  23.168  1.00  0.00    -0.335 N 
BRANCH   8   9
ATOM      9  C   UNL A   1      33.528  26.274  22.344  1.00  0.00     0.146 C 
BRANCH   9  10
ATOM     10  C   UNL A   1      32.533  25.600  21.453  1.00  0.00    -0.014 C 
ATOM     11  C   UNL A   1      32.667  25.542  20.119  1.00  0.00     0.006 C 
ENDBRANCH   9  10
ENDBRANCH   8   9
BRANCH   8  12
ATOM     12  C   UNL A   1      31.652  27.757  23.025  1.00  0.00     0.187 A 
ATOM     13  N   UNL A   1      31.357  28.878  22.406  1.00  0.00    -0.220 NA
ATOM     14  S   UNL A   1      30.260  26.944  23.655  1.00  0.00    -0.097 S 
ATOM     15  C   UNL A   1      30.004  29.147  22.440  1.00  0.00     0.084 A 
ATOM     16  C   UNL A   1      29.237  28.220  23.139  1.00  0.00     0.056 A 
ATOM     17  C   UNL A   1      29.365  30.257  21.854  1.00  0.00     0.030 A 
ATOM     18  C   UNL A   1      27.855  28.389  23.323  1.00  0.00     0.021 A 
ATOM     19  C   UNL A   1      27.987  30.429  22.013  1.00  0.00     0.002 A 
ATOM     20  C   UNL A   1      27.246  29.512  22.752  1.00  0.00     0.002 A 
ENDBRANCH   8  12
ENDBRANCH   7   8
ENDBRANCH   4   7
ENDBRANCH   2   3
ENDBRANCH   1   2
BRANCH   1  21
ATOM     21  C   UNL A   1      31.557  32.001  26.567  1.00  0.00     0.023 C 
BRANCH  21  22
ATOM     22  C   UNL A   1      32.678  32.711  27.316  1.00  0.00     0.116 C 
BRANCH  22  23
ATOM     23  N   UNL A   1      32.376  34.098  27.633  1.00  0.00    -0.352 N 
ATOM     24  C   UNL A   1      32.975  34.927  28.552  1.00  0.00     0.251 C 
ATOM     25  H   UNL A   1      31.640  34.500  27.115  1.00  0.00     0.163 HD
ATOM     26  O   UNL A   1      32.523  36.044  28.764  1.00  0.00    -0.269 OA
BRANCH  24  27
ATOM     27  C   UNL A   1      34.147  34.445  29.315  1.00  0.00     0.039 A 
ATOM     28  C   UNL A   1      33.934  33.801  30.537  1.00  0.00     0.014 A 
ATOM     29  C   UNL A   1      35.444  34.605  28.820  1.00  0.00     0.014 A 
ATOM     30  C   UNL A   1      35.018  33.253  31.228  1.00  0.00     0.010 A 
ATOM     31  C   UNL A   1      36.512  33.996  29.473  1.00  0.00     0.010 A 
ATOM     32  C   UNL A   1      36.310  33.312  30.681  1.00  0.00    -0.014 A 
BRANCH  32  33
ATOM     33  C   UNL A   1      37.462  32.660  31.352  1.00  0.00     0.031 A 
ATOM     34  C   UNL A   1      38.185  31.526  30.680  1.00  0.00     0.074 A 
ATOM     35  C   UNL A   1      37.817  33.043  32.593  1.00  0.00     0.049 A 
ATOM     36  N   UNL A   1      39.166  30.785  31.129  1.00  0.00    -0.248 NA
ATOM     37  C   UNL A   1      37.726  31.161  29.332  1.00  0.00     0.031 C 
ATOM     38  C   UNL A   1      37.170  34.103  33.368  1.00  0.00     0.029 A 
ATOM     39  N   UNL A   1      38.804  32.579  33.425  1.00  0.00    -0.354 N 
ATOM     40  C   UNL A   1      39.432  29.863  30.127  1.00  0.00     0.074 A 
ATOM     41  C   UNL A   1      38.472  30.097  29.071  1.00  0.00     0.031 C 
ATOM     42  C   UNL A   1      37.795  34.228  34.549  1.00  0.00     0.029 A 
ATOM     43  C   UNL A   1      38.860  33.233  34.632  1.00  0.00     0.049 A 
ATOM     44  H   UNL A   1      39.415  31.847  33.181  1.00  0.00     0.167 HD
ATOM     45  C   UNL A   1      40.406  28.922  30.080  1.00  0.00     0.037 A 
ATOM     46  C   UNL A   1      39.676  33.047  35.687  1.00  0.00     0.037 A 
ATOM     47  C   UNL A   1      41.370  28.700  31.125  1.00  0.00     0.049 A 
ATOM     48  C   UNL A   1      40.729  31.975  35.621  1.00  0.00     0.074 A 
ATOM     49  C   UNL A   1      42.424  27.803  31.153  1.00  0.00     0.029 A 
ATOM     50  N   UNL A   1      41.393  29.382  32.334  1.00  0.00    -0.354 N 
ATOM     51  N   UNL A   1      41.012  31.150  34.644  1.00  0.00    -0.248 NA
ATOM     52  C   UNL A   1      41.579  31.812  36.810  1.00  0.00     0.031 C 
ATOM     53  C   UNL A   1      43.058  27.912  32.396  1.00  0.00     0.029 A 
ATOM     54  C   UNL A   1      42.432  28.910  33.123  1.00  0.00     0.049 A 
ATOM     55  H   UNL A   1      40.766  30.095  32.592  1.00  0.00     0.167 HD
ATOM     56  C   UNL A   1      42.091  30.393  35.083  1.00  0.00     0.074 A 
ATOM     57  C   UNL A   1      42.418  30.865  36.412  1.00  0.00     0.031 C 
ATOM     58  C   UNL A   1      42.751  29.398  34.441  1.00  0.00     0.037 A 
BRANCH  45  59
ATOM     59  C   UNL A   1      40.473  28.063  28.849  1.00  0.00     0.064 A 
ATOM     60  C   UNL A   1      41.232  28.441  27.730  1.00  0.00     0.173 A 
ATOM     61  C   UNL A   1      39.783  26.843  28.790  1.00  0.00     0.173 A 
ATOM     62  F   UNL A   1      41.900  29.604  27.729  1.00  0.00    -0.203 F 
ATOM     63  C   UNL A   1      41.266  27.649  26.586  1.00  0.00     0.198 A 
ATOM     64  C   UNL A   1      39.847  26.037  27.656  1.00  0.00     0.198 A 
ATOM     65  F   UNL A   1      39.049  26.430  29.833  1.00  0.00    -0.203 F 
ATOM     66  F   UNL A   1      41.949  28.061  25.509  1.00  0.00    -0.200 F 
ATOM     67  C   UNL A   1      40.579  26.446  26.551  1.00  0.00     0.200 A 
ATOM     68  F   UNL A   1      39.193  24.868  27.630  1.00  0.00    -0.200 F 
ATOM     69  F   UNL A   1      40.614  25.683  25.449  1.00  0.00    -0.200 F 
ENDBRANCH  45  59
BRANCH  46  70
ATOM     70  C   UNL A   1      39.556  33.922  36.882  1.00  0.00     0.064 A 
ATOM     71  C   UNL A   1      40.212  35.160  36.929  1.00  0.00     0.173 A 
ATOM     72  C   UNL A   1      38.791  33.545  37.996  1.00  0.00     0.173 A 
ATOM     73  F   UNL A   1      40.973  35.554  35.898  1.00  0.00    -0.203 F 
ATOM     74  C   UNL A   1      40.124  35.979  38.052  1.00  0.00     0.198 A 
ATOM     75  C   UNL A   1      38.681  34.378  39.107  1.00  0.00     0.198 A 
ATOM     76  F   UNL A   1      38.142  32.372  37.998  1.00  0.00    -0.203 F 
ATOM     77  F   UNL A   1      40.796  37.138  38.089  1.00  0.00    -0.200 F 
ATOM     78  C   UNL A   1      39.354  35.591  39.138  1.00  0.00     0.200 A 
ATOM     79  F   UNL A   1      37.927  34.005  40.149  1.00  0.00    -0.200 F 
ATOM     80  F   UNL A   1      39.266  36.381  40.216  1.00  0.00    -0.200 F 
ENDBRANCH  46  70
BRANCH  58  81
ATOM     81  C   UNL A   1      43.921  28.781  35.150  1.00  0.00     0.064 A 
ATOM     82  C   UNL A   1      45.220  29.291  35.014  1.00  0.00     0.173 A 
ATOM     83  C   UNL A   1      43.732  27.685  36.007  1.00  0.00     0.173 A 
ATOM     84  F   UNL A   1      45.456  30.327  34.194  1.00  0.00    -0.203 F 
ATOM     85  C   UNL A   1      46.292  28.712  35.689  1.00  0.00     0.198 A 
ATOM     86  C   UNL A   1      44.801  27.127  36.704  1.00  0.00     0.198 A 
ATOM     87  F   UNL A   1      42.509  27.162  36.177  1.00  0.00    -0.203 F 
ATOM     88  F   UNL A   1      47.531  29.187  35.506  1.00  0.00    -0.200 F 
ATOM     89  C   UNL A   1      46.079  27.636  36.539  1.00  0.00     0.200 A 
ATOM     90  F   UNL A   1      44.592  26.097  37.534  1.00  0.00    -0.200 F 
ATOM     91  F   UNL A   1      47.111  27.085  37.193  1.00  0.00    -0.200 F 
ENDBRANCH  58  81
ENDBRANCH  32  33
ENDBRANCH  24  27
ENDBRANCH  22  23
ENDBRANCH  21  22
ENDBRANCH   1  21
TORSDOF 15
ENDMDL
