MODEL 1
REMARK VINA RESULT:     -11.9      0.000      0.000
REMARK SMILES COc1ccc(OCc2nc(C)no2)c(/C=C/C(=O)NCCCCNC(=O)c2ccc(-c3c4nc(c(-c5c(F)c(F)c(F)c(F)c5F)c5ccc([nH]5)c(-c5c(F)c(F)c(F)c(F)c5F)c5nc(c(-c6c(F)c(F)c(F)c(F)c6F)c6ccc3[nH]6)C=C5)C=C4)cc2)c1
REMARK SMILES IDX 21 1 20 2 18 3 19 4 17 6 16 7 15 8 3 9 4 10 91 11 5 12 6 13
REMARK SMILES IDX 2 14 1 15 7 16 8 17 9 18 10 19 14 20 11 21 13 22 12 23 22 24
REMARK SMILES IDX 23 25 24 26 25 27 26 28 27 30 28 31 29 32 90 33 30 34 89 35
REMARK SMILES IDX 31 36 32 37 33 38 83 39 34 40 88 41 82 42 84 43 35 44 87 45
REMARK SMILES IDX 81 46 80 47 36 49 68 50 48 51 67 52 49 53 52 54 66 55 85 56
REMARK SMILES IDX 50 57 51 58 65 60 86 61 53 62 37 63 38 64 46 65 39 66 40 67
REMARK SMILES IDX 44 68 47 69 41 70 42 71 45 72 43 73 69 74 70 75 78 76 71 77
REMARK SMILES IDX 72 78 76 79 79 80 73 81 74 82 77 83 75 84 54 85 55 86 63 87
REMARK SMILES IDX 56 88 57 89 61 90 64 91 58 92 59 93 62 94 60 95
REMARK H PARENT 20 5 25 29 84 48 52 59
REMARK Flexibility Score: inf
ROOT
ATOM      1  C   UNL A   1      33.861  20.671  25.294  1.00  0.00     0.116 C 
ENDROOT
BRANCH   1   2
ATOM      2  N   UNL A   1      33.456  21.003  26.646  1.00  0.00    -0.353 N 
ATOM      3  C   UNL A   1      33.070  22.205  27.155  1.00  0.00     0.244 C 
ATOM      4  O   UNL A   1      32.938  22.357  28.366  1.00  0.00    -0.270 OA
ATOM      5  H   UNL A   1      33.460  20.254  27.286  1.00  0.00     0.163 HD
BRANCH   3   6
ATOM      6  C   UNL A   1      32.804  23.346  26.251  1.00  0.00     0.072 C 
ATOM      7  C   UNL A   1      33.689  24.350  26.193  1.00  0.00     0.018 C 
BRANCH   7   8
ATOM      8  C   UNL A   1      33.703  25.396  25.172  1.00  0.00     0.020 A 
ATOM      9  C   UNL A   1      33.653  25.834  22.771  1.00  0.00     0.119 A 
ATOM     10  C   UNL A   1      33.676  27.199  23.026  1.00  0.00     0.050 A 
ATOM     11  C   UNL A   1      33.706  24.937  23.837  1.00  0.00     0.058 A 
ATOM     12  C   UNL A   1      33.658  27.661  24.342  1.00  0.00     0.051 A 
ATOM     13  C   UNL A   1      33.626  26.775  25.429  1.00  0.00     0.127 A 
BRANCH   9  14
ATOM     14  O   UNL A   1      33.616  25.469  21.453  1.00  0.00    -0.497 OA
ATOM     15  C   UNL A   1      32.370  25.724  20.808  1.00  0.00     0.278 C 
ENDBRANCH   9  14
BRANCH  13  16
ATOM     16  O   UNL A   1      33.475  27.444  26.613  1.00  0.00    -0.483 OA
BRANCH  16  17
ATOM     17  C   UNL A   1      32.587  28.555  26.800  1.00  0.00     0.329 C 
BRANCH  17  18
ATOM     18  C   UNL A   1      33.299  29.840  27.035  1.00  0.00     0.264 A 
ATOM     19  N   UNL A   1      32.852  31.076  27.130  1.00  0.00    -0.193 NA
ATOM     20  O   UNL A   1      34.617  29.724  27.387  1.00  0.00    -0.336 OA
ATOM     21  C   UNL A   1      33.939  31.742  27.632  1.00  0.00     0.169 A 
ATOM     22  N   UNL A   1      35.034  30.992  27.800  1.00  0.00    -0.063 NA
ATOM     23  C   UNL A   1      33.858  33.143  28.080  1.00  0.00     0.093 C 
ENDBRANCH  17  18
ENDBRANCH  16  17
ENDBRANCH  13  16
ENDBRANCH   7   8
ENDBRANCH   3   6
ENDBRANCH   1   2
BRANCH   1  24
ATOM     24  C   UNL A   1      35.379  20.666  25.152  1.00  0.00     0.023 C 
BRANCH  24  25
ATOM     25  C   UNL A   1      35.944  21.923  24.488  1.00  0.00     0.023 C 
BRANCH  25  26
ATOM     26  C   UNL A   1      37.311  22.362  25.001  1.00  0.00     0.116 C 
BRANCH  26  27
ATOM     27  N   UNL A   1      38.139  21.261  25.472  1.00  0.00    -0.352 N 
ATOM     28  C   UNL A   1      39.278  21.322  26.238  1.00  0.00     0.251 C 
ATOM     29  H   UNL A   1      37.845  20.359  25.209  1.00  0.00     0.163 HD
ATOM     30  O   UNL A   1      39.919  20.313  26.498  1.00  0.00    -0.269 OA
BRANCH  28  31
ATOM     31  C   UNL A   1      39.741  22.643  26.701  1.00  0.00     0.039 A 
ATOM     32  C   UNL A   1      40.779  22.700  27.632  1.00  0.00     0.014 A 
ATOM     33  C   UNL A   1      39.196  23.809  26.160  1.00  0.00     0.014 A 
ATOM     34  C   UNL A   1      41.323  23.938  27.973  1.00  0.00     0.010 A 
ATOM     35  C   UNL A   1      39.781  25.035  26.452  1.00  0.00     0.010 A 
ATOM     36  C   UNL A   1      40.851  25.108  27.357  1.00  0.00    -0.014 A 
BRANCH  36  37
ATOM     37  C   UNL A   1      41.466  26.425  27.645  1.00  0.00     0.031 A 
ATOM     38  C   UNL A   1      42.863  26.714  27.184  1.00  0.00     0.074 A 
ATOM     39  C   UNL A   1      40.794  27.322  28.390  1.00  0.00     0.049 A 
ATOM     40  N   UNL A   1      43.604  27.771  27.397  1.00  0.00    -0.248 NA
ATOM     41  C   UNL A   1      43.531  25.658  26.406  1.00  0.00     0.031 C 
ATOM     42  C   UNL A   1      39.457  27.122  28.951  1.00  0.00     0.029 A 
ATOM     43  N   UNL A   1      41.152  28.575  28.819  1.00  0.00    -0.354 N 
ATOM     44  C   UNL A   1      44.824  27.503  26.793  1.00  0.00     0.074 A 
ATOM     45  C   UNL A   1      44.746  26.161  26.257  1.00  0.00     0.031 C 
ATOM     46  C   UNL A   1      39.103  28.217  29.642  1.00  0.00     0.029 A 
ATOM     47  C   UNL A   1      40.197  29.183  29.594  1.00  0.00     0.049 A 
ATOM     48  H   UNL A   1      42.013  28.995  28.593  1.00  0.00     0.167 HD
ATOM     49  C   UNL A   1      45.902  28.313  26.675  1.00  0.00     0.037 A 
ATOM     50  C   UNL A   1      40.207  30.386  30.200  1.00  0.00     0.037 A 
ATOM     51  C   UNL A   1      45.965  29.654  27.193  1.00  0.00     0.049 A 
ATOM     52  C   UNL A   1      41.404  31.280  30.032  1.00  0.00     0.074 A 
ATOM     53  C   UNL A   1      46.984  30.580  27.076  1.00  0.00     0.029 A 
ATOM     54  N   UNL A   1      44.957  30.259  27.932  1.00  0.00    -0.354 N 
ATOM     55  N   UNL A   1      42.524  31.047  29.393  1.00  0.00    -0.248 NA
ATOM     56  C   UNL A   1      41.332  32.608  30.656  1.00  0.00     0.031 C 
ATOM     57  C   UNL A   1      46.609  31.735  27.773  1.00  0.00     0.029 A 
ATOM     58  C   UNL A   1      45.337  31.542  28.290  1.00  0.00     0.049 A 
ATOM     59  H   UNL A   1      44.098  29.838  28.166  1.00  0.00     0.167 HD
ATOM     60  C   UNL A   1      43.285  32.202  29.522  1.00  0.00     0.074 A 
ATOM     61  C   UNL A   1      42.489  33.141  30.286  1.00  0.00     0.031 C 
ATOM     62  C   UNL A   1      44.529  32.460  29.051  1.00  0.00     0.037 A 
BRANCH  49  63
ATOM     63  C   UNL A   1      47.095  27.763  25.951  1.00  0.00     0.064 A 
ATOM     64  C   UNL A   1      48.193  27.230  26.645  1.00  0.00     0.173 A 
ATOM     65  C   UNL A   1      47.147  27.768  24.550  1.00  0.00     0.173 A 
ATOM     66  F   UNL A   1      48.200  27.216  27.987  1.00  0.00    -0.203 F 
ATOM     67  C   UNL A   1      49.313  26.759  25.965  1.00  0.00     0.198 A 
ATOM     68  C   UNL A   1      48.256  27.268  23.872  1.00  0.00     0.198 A 
ATOM     69  F   UNL A   1      46.124  28.263  23.837  1.00  0.00    -0.203 F 
ATOM     70  F   UNL A   1      50.373  26.312  26.653  1.00  0.00    -0.200 F 
ATOM     71  C   UNL A   1      49.341  26.774  24.579  1.00  0.00     0.200 A 
ATOM     72  F   UNL A   1      48.279  27.274  22.531  1.00  0.00    -0.200 F 
ATOM     73  F   UNL A   1      50.420  26.323  23.926  1.00  0.00    -0.200 F 
ENDBRANCH  49  63
BRANCH  50  74
ATOM     74  C   UNL A   1      39.029  30.817  30.993  1.00  0.00     0.064 A 
ATOM     75  C   UNL A   1      37.966  31.502  30.388  1.00  0.00     0.173 A 
ATOM     76  C   UNL A   1      38.929  30.533  32.363  1.00  0.00     0.173 A 
ATOM     77  F   UNL A   1      38.025  31.810  29.085  1.00  0.00    -0.203 F 
ATOM     78  C   UNL A   1      36.852  31.898  31.127  1.00  0.00     0.198 A 
ATOM     79  C   UNL A   1      37.805  30.909  33.095  1.00  0.00     0.198 A 
ATOM     80  F   UNL A   1      39.916  29.874  32.985  1.00  0.00    -0.203 F 
ATOM     81  F   UNL A   1      35.864  32.579  30.531  1.00  0.00    -0.200 F 
ATOM     82  C   UNL A   1      36.770  31.596  32.477  1.00  0.00     0.200 A 
ATOM     83  F   UNL A   1      37.722  30.602  34.396  1.00  0.00    -0.200 F 
ATOM     84  F   UNL A   1      35.694  31.969  33.185  1.00  0.00    -0.200 F 
ENDBRANCH  50  74
BRANCH  62  85
ATOM     85  C   UNL A   1      45.098  33.818  29.333  1.00  0.00     0.064 A 
ATOM     86  C   UNL A   1      45.869  34.066  30.478  1.00  0.00     0.173 A 
ATOM     87  C   UNL A   1      44.908  34.870  28.426  1.00  0.00     0.173 A 
ATOM     88  F   UNL A   1      46.066  33.097  31.383  1.00  0.00    -0.203 F 
ATOM     89  C   UNL A   1      46.412  35.327  30.714  1.00  0.00     0.198 A 
ATOM     90  C   UNL A   1      45.474  36.121  28.652  1.00  0.00     0.198 A 
ATOM     91  F   UNL A   1      44.183  34.681  27.313  1.00  0.00    -0.203 F 
ATOM     92  F   UNL A   1      47.111  35.554  31.834  1.00  0.00    -0.200 F 
ATOM     93  C   UNL A   1      46.220  36.351  29.797  1.00  0.00     0.200 A 
ATOM     94  F   UNL A   1      45.297  37.107  27.760  1.00  0.00    -0.200 F 
ATOM     95  F   UNL A   1      46.749  37.561  30.023  1.00  0.00    -0.200 F 
ENDBRANCH  62  85
ENDBRANCH  36  37
ENDBRANCH  28  31
ENDBRANCH  26  27
ENDBRANCH  25  26
ENDBRANCH  24  25
ENDBRANCH   1  24
TORSDOF 16
ENDMDL
MODEL 2
REMARK VINA RESULT:     -11.8      2.609      8.438
REMARK SMILES COc1ccc(OCc2nc(C)no2)c(/C=C/C(=O)NCCCCNC(=O)c2ccc(-c3c4nc(c(-c5c(F)c(F)c(F)c(F)c5F)c5ccc([nH]5)c(-c5c(F)c(F)c(F)c(F)c5F)c5nc(c(-c6c(F)c(F)c(F)c(F)c6F)c6ccc3[nH]6)C=C5)C=C4)cc2)c1
REMARK SMILES IDX 21 1 20 2 18 3 19 4 17 6 16 7 15 8 3 9 4 10 91 11 5 12 6 13
REMARK SMILES IDX 2 14 1 15 7 16 8 17 9 18 10 19 14 20 11 21 13 22 12 23 22 24
REMARK SMILES IDX 23 25 24 26 25 27 26 28 27 30 28 31 29 32 90 33 30 34 89 35
REMARK SMILES IDX 31 36 32 37 33 38 83 39 34 40 88 41 82 42 84 43 35 44 87 45
REMARK SMILES IDX 81 46 80 47 36 49 68 50 48 51 67 52 49 53 52 54 66 55 85 56
REMARK SMILES IDX 50 57 51 58 65 60 86 61 53 62 37 63 38 64 46 65 39 66 40 67
REMARK SMILES IDX 44 68 47 69 41 70 42 71 45 72 43 73 69 74 70 75 78 76 71 77
REMARK SMILES IDX 72 78 76 79 79 80 73 81 74 82 77 83 75 84 54 85 55 86 63 87
REMARK SMILES IDX 56 88 57 89 61 90 64 91 58 92 59 93 62 94 60 95
REMARK H PARENT 20 5 25 29 84 48 52 59
REMARK Flexibility Score: inf
ROOT
ATOM      1  C   UNL A   1      35.986  21.058  25.483  1.00  0.00     0.116 C 
ENDROOT
BRANCH   1   2
ATOM      2  N   UNL A   1      36.682  22.171  26.097  1.00  0.00    -0.353 N 
ATOM      3  C   UNL A   1      36.385  23.498  26.055  1.00  0.00     0.244 C 
ATOM      4  O   UNL A   1      37.183  24.332  26.473  1.00  0.00    -0.270 OA
ATOM      5  H   UNL A   1      37.484  21.934  26.618  1.00  0.00     0.163 HD
BRANCH   3   6
ATOM      6  C   UNL A   1      35.089  23.954  25.502  1.00  0.00     0.072 C 
ATOM      7  C   UNL A   1      34.018  23.999  26.305  1.00  0.00     0.018 C 
BRANCH   7   8
ATOM      8  C   UNL A   1      32.759  24.668  25.986  1.00  0.00     0.020 A 
ATOM      9  C   UNL A   1      31.630  26.829  25.861  1.00  0.00     0.119 A 
ATOM     10  C   UNL A   1      30.484  26.197  25.400  1.00  0.00     0.050 A 
ATOM     11  C   UNL A   1      32.750  26.065  26.189  1.00  0.00     0.058 A 
ATOM     12  C   UNL A   1      30.489  24.818  25.183  1.00  0.00     0.051 A 
ATOM     13  C   UNL A   1      31.632  24.043  25.427  1.00  0.00     0.127 A 
BRANCH   9  14
ATOM     14  O   UNL A   1      31.555  28.188  25.993  1.00  0.00    -0.497 OA
ATOM     15  C   UNL A   1      31.751  28.660  27.324  1.00  0.00     0.278 C 
ENDBRANCH   9  14
BRANCH  13  16
ATOM     16  O   UNL A   1      31.454  22.749  25.017  1.00  0.00    -0.483 OA
BRANCH  16  17
ATOM     17  C   UNL A   1      32.247  22.113  24.004  1.00  0.00     0.329 C 
BRANCH  17  18
ATOM     18  C   UNL A   1      32.219  20.628  24.088  1.00  0.00     0.264 A 
ATOM     19  N   UNL A   1      32.441  19.702  23.176  1.00  0.00    -0.193 NA
ATOM     20  O   UNL A   1      32.120  20.113  25.353  1.00  0.00    -0.336 OA
ATOM     21  C   UNL A   1      32.550  18.566  23.934  1.00  0.00     0.169 A 
ATOM     22  N   UNL A   1      32.357  18.741  25.246  1.00  0.00    -0.063 NA
ATOM     23  C   UNL A   1      32.984  17.281  23.357  1.00  0.00     0.093 C 
ENDBRANCH  17  18
ENDBRANCH  16  17
ENDBRANCH  13  16
ENDBRANCH   7   8
ENDBRANCH   3   6
ENDBRANCH   1   2
BRANCH   1  24
ATOM     24  C   UNL A   1      36.959  19.992  24.993  1.00  0.00     0.023 C 
BRANCH  24  25
ATOM     25  C   UNL A   1      38.391  20.496  24.809  1.00  0.00     0.023 C 
BRANCH  25  26
ATOM     26  C   UNL A   1      39.285  20.354  26.036  1.00  0.00     0.116 C 
BRANCH  26  27
ATOM     27  N   UNL A   1      40.206  19.229  25.961  1.00  0.00    -0.352 N 
ATOM     28  C   UNL A   1      41.573  19.240  26.100  1.00  0.00     0.251 C 
ATOM     29  H   UNL A   1      39.797  18.350  25.790  1.00  0.00     0.163 HD
ATOM     30  O   UNL A   1      42.232  18.222  25.936  1.00  0.00    -0.269 OA
BRANCH  28  31
ATOM     31  C   UNL A   1      42.236  20.520  26.404  1.00  0.00     0.039 A 
ATOM     32  C   UNL A   1      42.702  21.302  25.345  1.00  0.00     0.014 A 
ATOM     33  C   UNL A   1      42.328  20.970  27.723  1.00  0.00     0.014 A 
ATOM     34  C   UNL A   1      43.202  22.576  25.607  1.00  0.00     0.010 A 
ATOM     35  C   UNL A   1      42.766  22.263  27.975  1.00  0.00     0.010 A 
ATOM     36  C   UNL A   1      43.203  23.078  26.919  1.00  0.00    -0.014 A 
BRANCH  36  37
ATOM     37  C   UNL A   1      43.657  24.458  27.209  1.00  0.00     0.031 A 
ATOM     38  C   UNL A   1      42.680  25.474  27.721  1.00  0.00     0.074 A 
ATOM     39  C   UNL A   1      44.927  24.810  26.934  1.00  0.00     0.049 A 
ATOM     40  N   UNL A   1      42.861  26.746  27.966  1.00  0.00    -0.248 NA
ATOM     41  C   UNL A   1      41.307  25.003  27.959  1.00  0.00     0.031 C 
ATOM     42  C   UNL A   1      45.946  23.924  26.369  1.00  0.00     0.029 A 
ATOM     43  N   UNL A   1      45.571  26.013  27.074  1.00  0.00    -0.354 N 
ATOM     44  C   UNL A   1      41.624  27.229  28.372  1.00  0.00     0.074 A 
ATOM     45  C   UNL A   1      40.689  26.129  28.284  1.00  0.00     0.031 C 
ATOM     46  C   UNL A   1      47.090  24.611  26.220  1.00  0.00     0.029 A 
ATOM     47  C   UNL A   1      46.877  25.989  26.655  1.00  0.00     0.049 A 
ATOM     48  H   UNL A   1      45.137  26.816  27.441  1.00  0.00     0.167 HD
ATOM     49  C   UNL A   1      41.306  28.472  28.804  1.00  0.00     0.037 A 
ATOM     50  C   UNL A   1      47.797  26.970  26.622  1.00  0.00     0.037 A 
ATOM     51  C   UNL A   1      42.246  29.556  28.908  1.00  0.00     0.049 A 
ATOM     52  C   UNL A   1      47.428  28.336  27.131  1.00  0.00     0.074 A 
ATOM     53  C   UNL A   1      42.042  30.836  29.390  1.00  0.00     0.029 A 
ATOM     54  N   UNL A   1      43.577  29.482  28.520  1.00  0.00    -0.354 N 
ATOM     55  N   UNL A   1      46.276  28.764  27.586  1.00  0.00    -0.248 NA
ATOM     56  C   UNL A   1      48.492  29.350  27.137  1.00  0.00     0.031 C 
ATOM     57  C   UNL A   1      43.240  31.548  29.261  1.00  0.00     0.029 A 
ATOM     58  C   UNL A   1      44.202  30.699  28.738  1.00  0.00     0.049 A 
ATOM     59  H   UNL A   1      44.012  28.682  28.145  1.00  0.00     0.167 HD
ATOM     60  C   UNL A   1      46.476  30.089  27.948  1.00  0.00     0.074 A 
ATOM     61  C   UNL A   1      47.867  30.389  27.676  1.00  0.00     0.031 C 
ATOM     62  C   UNL A   1      45.588  30.977  28.460  1.00  0.00     0.037 A 
BRANCH  49  63
ATOM     63  C   UNL A   1      39.879  28.714  29.199  1.00  0.00     0.064 A 
ATOM     64  C   UNL A   1      39.426  28.458  30.503  1.00  0.00     0.173 A 
ATOM     65  C   UNL A   1      38.953  29.207  28.269  1.00  0.00     0.173 A 
ATOM     66  F   UNL A   1      40.269  27.971  31.427  1.00  0.00    -0.203 F 
ATOM     67  C   UNL A   1      38.091  28.648  30.850  1.00  0.00     0.198 A 
ATOM     68  C   UNL A   1      37.625  29.426  28.628  1.00  0.00     0.198 A 
ATOM     69  F   UNL A   1      39.333  29.472  27.011  1.00  0.00    -0.203 F 
ATOM     70  F   UNL A   1      37.671  28.338  32.084  1.00  0.00    -0.200 F 
ATOM     71  C   UNL A   1      37.193  29.136  29.913  1.00  0.00     0.200 A 
ATOM     72  F   UNL A   1      36.759  29.907  27.725  1.00  0.00    -0.200 F 
ATOM     73  F   UNL A   1      35.908  29.317  30.247  1.00  0.00    -0.200 F 
ENDBRANCH  49  63
BRANCH  50  74
ATOM     74  C   UNL A   1      49.162  26.681  26.113  1.00  0.00     0.064 A 
ATOM     75  C   UNL A   1      50.129  26.095  26.942  1.00  0.00     0.173 A 
ATOM     76  C   UNL A   1      49.519  26.959  24.786  1.00  0.00     0.173 A 
ATOM     77  F   UNL A   1      49.838  25.828  28.223  1.00  0.00    -0.203 F 
ATOM     78  C   UNL A   1      51.407  25.811  26.465  1.00  0.00     0.198 A 
ATOM     79  C   UNL A   1      50.790  26.652  24.304  1.00  0.00     0.198 A 
ATOM     80  F   UNL A   1      48.626  27.511  23.952  1.00  0.00    -0.203 F 
ATOM     81  F   UNL A   1      52.323  25.280  27.287  1.00  0.00    -0.200 F 
ATOM     82  C   UNL A   1      51.734  26.083  25.146  1.00  0.00     0.200 A 
ATOM     83  F   UNL A   1      51.097  26.902  23.025  1.00  0.00    -0.200 F 
ATOM     84  F   UNL A   1      52.961  25.800  24.685  1.00  0.00    -0.200 F 
ENDBRANCH  50  74
BRANCH  62  85
ATOM     85  C   UNL A   1      46.099  32.350  28.774  1.00  0.00     0.064 A 
ATOM     86  C   UNL A   1      46.049  33.385  27.829  1.00  0.00     0.173 A 
ATOM     87  C   UNL A   1      46.603  32.646  30.049  1.00  0.00     0.173 A 
ATOM     88  F   UNL A   1      45.590  33.148  26.592  1.00  0.00    -0.203 F 
ATOM     89  C   UNL A   1      46.504  34.663  28.144  1.00  0.00     0.198 A 
ATOM     90  C   UNL A   1      47.033  33.930  30.369  1.00  0.00     0.198 A 
ATOM     91  F   UNL A   1      46.667  31.690  30.989  1.00  0.00    -0.203 F 
ATOM     92  F   UNL A   1      46.485  35.627  27.214  1.00  0.00    -0.200 F 
ATOM     93  C   UNL A   1      46.989  34.936  29.415  1.00  0.00     0.200 A 
ATOM     94  F   UNL A   1      47.491  34.195  31.601  1.00  0.00    -0.200 F 
ATOM     95  F   UNL A   1      47.421  36.168  29.718  1.00  0.00    -0.200 F 
ENDBRANCH  62  85
ENDBRANCH  36  37
ENDBRANCH  28  31
ENDBRANCH  26  27
ENDBRANCH  25  26
ENDBRANCH  24  25
ENDBRANCH   1  24
TORSDOF 16
ENDMDL
MODEL 3
REMARK VINA RESULT:     -11.8      4.667     10.122
REMARK SMILES COc1ccc(OCc2nc(C)no2)c(/C=C/C(=O)NCCCCNC(=O)c2ccc(-c3c4nc(c(-c5c(F)c(F)c(F)c(F)c5F)c5ccc([nH]5)c(-c5c(F)c(F)c(F)c(F)c5F)c5nc(c(-c6c(F)c(F)c(F)c(F)c6F)c6ccc3[nH]6)C=C5)C=C4)cc2)c1
REMARK SMILES IDX 21 1 20 2 18 3 19 4 17 6 16 7 15 8 3 9 4 10 91 11 5 12 6 13
REMARK SMILES IDX 2 14 1 15 7 16 8 17 9 18 10 19 14 20 11 21 13 22 12 23 22 24
REMARK SMILES IDX 23 25 24 26 25 27 26 28 27 30 28 31 29 32 90 33 30 34 89 35
REMARK SMILES IDX 31 36 32 37 33 38 83 39 34 40 88 41 82 42 84 43 35 44 87 45
REMARK SMILES IDX 81 46 80 47 36 49 68 50 48 51 67 52 49 53 52 54 66 55 85 56
REMARK SMILES IDX 50 57 51 58 65 60 86 61 53 62 37 63 38 64 46 65 39 66 40 67
REMARK SMILES IDX 44 68 47 69 41 70 42 71 45 72 43 73 69 74 70 75 78 76 71 77
REMARK SMILES IDX 72 78 76 79 79 80 73 81 74 82 77 83 75 84 54 85 55 86 63 87
REMARK SMILES IDX 56 88 57 89 61 90 64 91 58 92 59 93 62 94 60 95
REMARK H PARENT 20 5 25 29 84 48 52 59
REMARK Flexibility Score: inf
ROOT
ATOM      1  C   UNL A   1      34.156  30.027  27.193  1.00  0.00     0.116 C 
ENDROOT
BRANCH   1   2
ATOM      2  N   UNL A   1      32.949  29.318  27.567  1.00  0.00    -0.353 N 
ATOM      3  C   UNL A   1      32.513  28.093  27.162  1.00  0.00     0.244 C 
ATOM      4  O   UNL A   1      31.375  27.716  27.427  1.00  0.00    -0.270 OA
ATOM      5  H   UNL A   1      32.361  29.787  28.202  1.00  0.00     0.163 HD
BRANCH   3   6
ATOM      6  C   UNL A   1      33.409  27.199  26.395  1.00  0.00     0.072 C 
ATOM      7  C   UNL A   1      32.980  25.973  26.068  1.00  0.00     0.018 C 
BRANCH   7   8
ATOM      8  C   UNL A   1      33.628  25.089  25.102  1.00  0.00     0.020 A 
ATOM      9  C   UNL A   1      35.136  23.186  24.844  1.00  0.00     0.119 A 
ATOM     10  C   UNL A   1      34.957  23.239  23.468  1.00  0.00     0.050 A 
ATOM     11  C   UNL A   1      34.505  24.130  25.653  1.00  0.00     0.058 A 
ATOM     12  C   UNL A   1      34.081  24.174  22.915  1.00  0.00     0.051 A 
ATOM     13  C   UNL A   1      33.372  25.078  23.720  1.00  0.00     0.127 A 
BRANCH   9  14
ATOM     14  O   UNL A   1      35.969  22.204  25.305  1.00  0.00    -0.497 OA
ATOM     15  C   UNL A   1      35.529  20.879  25.016  1.00  0.00     0.278 C 
ENDBRANCH   9  14
BRANCH  13  16
ATOM     16  O   UNL A   1      32.475  25.804  22.984  1.00  0.00    -0.483 OA
BRANCH  16  17
ATOM     17  C   UNL A   1      32.706  27.145  22.532  1.00  0.00     0.329 C 
BRANCH  17  18
ATOM     18  C   UNL A   1      31.523  28.031  22.702  1.00  0.00     0.264 A 
ATOM     19  N   UNL A   1      30.324  27.993  22.155  1.00  0.00    -0.193 NA
ATOM     20  O   UNL A   1      31.612  28.941  23.720  1.00  0.00    -0.336 OA
ATOM     21  C   UNL A   1      29.623  28.881  22.926  1.00  0.00     0.169 A 
ATOM     22  N   UNL A   1      30.339  29.494  23.876  1.00  0.00    -0.063 NA
ATOM     23  C   UNL A   1      28.163  29.041  22.802  1.00  0.00     0.093 C 
ENDBRANCH  17  18
ENDBRANCH  16  17
ENDBRANCH  13  16
ENDBRANCH   7   8
ENDBRANCH   3   6
ENDBRANCH   1   2
BRANCH   1  24
ATOM     24  C   UNL A   1      34.314  31.319  27.988  1.00  0.00     0.023 C 
BRANCH  24  25
ATOM     25  C   UNL A   1      33.088  32.232  27.937  1.00  0.00     0.023 C 
BRANCH  25  26
ATOM     26  C   UNL A   1      33.320  33.584  27.272  1.00  0.00     0.116 C 
BRANCH  26  27
ATOM     27  N   UNL A   1      32.730  34.700  27.996  1.00  0.00    -0.352 N 
ATOM     28  C   UNL A   1      33.109  35.220  29.210  1.00  0.00     0.251 C 
ATOM     29  H   UNL A   1      31.963  35.138  27.561  1.00  0.00     0.163 HD
ATOM     30  O   UNL A   1      32.471  36.119  29.740  1.00  0.00    -0.269 OA
BRANCH  28  31
ATOM     31  C   UNL A   1      34.281  34.636  29.888  1.00  0.00     0.039 A 
ATOM     32  C   UNL A   1      34.080  33.889  31.050  1.00  0.00     0.014 A 
ATOM     33  C   UNL A   1      35.555  34.770  29.332  1.00  0.00     0.014 A 
ATOM     34  C   UNL A   1      35.156  33.213  31.621  1.00  0.00     0.010 A 
ATOM     35  C   UNL A   1      36.613  34.045  29.865  1.00  0.00     0.010 A 
ATOM     36  C   UNL A   1      36.421  33.258  31.011  1.00  0.00    -0.014 A 
BRANCH  36  37
ATOM     37  C   UNL A   1      37.560  32.485  31.557  1.00  0.00     0.031 A 
ATOM     38  C   UNL A   1      38.145  32.854  32.888  1.00  0.00     0.074 A 
ATOM     39  C   UNL A   1      38.113  31.506  30.817  1.00  0.00     0.049 A 
ATOM     40  N   UNL A   1      39.184  32.351  33.504  1.00  0.00    -0.248 NA
ATOM     41  C   UNL A   1      37.494  33.960  33.608  1.00  0.00     0.031 C 
ATOM     42  C   UNL A   1      37.672  31.106  29.480  1.00  0.00     0.029 A 
ATOM     43  N   UNL A   1      39.180  30.683  31.076  1.00  0.00    -0.354 N 
ATOM     44  C   UNL A   1      39.318  33.087  34.674  1.00  0.00     0.074 A 
ATOM     45  C   UNL A   1      38.293  34.107  34.653  1.00  0.00     0.031 C 
ATOM     46  C   UNL A   1      38.454  30.108  29.040  1.00  0.00     0.029 A 
ATOM     47  C   UNL A   1      39.466  29.816  30.052  1.00  0.00     0.049 A 
ATOM     48  H   UNL A   1      39.690  30.713  31.917  1.00  0.00     0.167 HD
ATOM     49  C   UNL A   1      40.201  32.908  35.684  1.00  0.00     0.037 A 
ATOM     50  C   UNL A   1      40.439  28.892  29.943  1.00  0.00     0.037 A 
ATOM     51  C   UNL A   1      41.205  31.878  35.707  1.00  0.00     0.049 A 
ATOM     52  C   UNL A   1      41.392  28.694  31.089  1.00  0.00     0.074 A 
ATOM     53  C   UNL A   1      42.109  31.573  36.707  1.00  0.00     0.029 A 
ATOM     54  N   UNL A   1      41.436  30.983  34.671  1.00  0.00    -0.354 N 
ATOM     55  N   UNL A   1      41.463  29.343  32.225  1.00  0.00    -0.248 NA
ATOM     56  C   UNL A   1      42.389  27.625  30.943  1.00  0.00     0.031 C 
ATOM     57  C   UNL A   1      42.911  30.514  36.263  1.00  0.00     0.029 A 
ATOM     58  C   UNL A   1      42.478  30.133  35.003  1.00  0.00     0.049 A 
ATOM     59  H   UNL A   1      40.932  30.956  33.825  1.00  0.00     0.167 HD
ATOM     60  C   UNL A   1      42.498  28.754  32.938  1.00  0.00     0.074 A 
ATOM     61  C   UNL A   1      43.015  27.682  32.111  1.00  0.00     0.031 C 
ATOM     62  C   UNL A   1      42.977  29.073  34.165  1.00  0.00     0.037 A 
BRANCH  49  63
ATOM     63  C   UNL A   1      40.109  33.851  36.848  1.00  0.00     0.064 A 
ATOM     64  C   UNL A   1      39.258  33.592  37.935  1.00  0.00     0.173 A 
ATOM     65  C   UNL A   1      40.876  35.024  36.881  1.00  0.00     0.173 A 
ATOM     66  F   UNL A   1      38.492  32.491  37.945  1.00  0.00    -0.203 F 
ATOM     67  C   UNL A   1      39.150  34.492  38.991  1.00  0.00     0.198 A 
ATOM     68  C   UNL A   1      40.787  35.907  37.954  1.00  0.00     0.198 A 
ATOM     69  F   UNL A   1      41.707  35.318  35.870  1.00  0.00    -0.203 F 
ATOM     70  F   UNL A   1      38.285  34.253  39.987  1.00  0.00    -0.200 F 
ATOM     71  C   UNL A   1      39.918  35.647  39.002  1.00  0.00     0.200 A 
ATOM     72  F   UNL A   1      41.537  37.019  37.970  1.00  0.00    -0.200 F 
ATOM     73  F   UNL A   1      39.811  36.513  40.019  1.00  0.00    -0.200 F 
ENDBRANCH  49  63
BRANCH  50  74
ATOM     74  C   UNL A   1      40.534  28.069  28.711  1.00  0.00     0.064 A 
ATOM     75  C   UNL A   1      41.326  28.481  27.630  1.00  0.00     0.173 A 
ATOM     76  C   UNL A   1      39.859  26.845  28.598  1.00  0.00     0.173 A 
ATOM     77  F   UNL A   1      41.976  29.653  27.685  1.00  0.00    -0.203 F 
ATOM     78  C   UNL A   1      41.428  27.706  26.476  1.00  0.00     0.198 A 
ATOM     79  C   UNL A   1      39.981  26.059  27.454  1.00  0.00     0.198 A 
ATOM     80  F   UNL A   1      39.097  26.404  29.608  1.00  0.00    -0.203 F 
ATOM     81  F   UNL A   1      42.166  28.138  25.445  1.00  0.00    -0.200 F 
ATOM     82  C   UNL A   1      40.761  26.493  26.392  1.00  0.00     0.200 A 
ATOM     83  F   UNL A   1      39.348  24.882  27.382  1.00  0.00    -0.200 F 
ATOM     84  F   UNL A   1      40.868  25.743  25.286  1.00  0.00    -0.200 F 
ENDBRANCH  50  74
BRANCH  62  85
ATOM     85  C   UNL A   1      44.106  28.240  34.695  1.00  0.00     0.064 A 
ATOM     86  C   UNL A   1      43.871  27.058  35.412  1.00  0.00     0.173 A 
ATOM     87  C   UNL A   1      45.436  28.605  34.444  1.00  0.00     0.173 A 
ATOM     88  F   UNL A   1      42.616  26.676  35.690  1.00  0.00    -0.203 F 
ATOM     89  C   UNL A   1      44.930  26.281  35.876  1.00  0.00     0.198 A 
ATOM     90  C   UNL A   1      46.491  27.813  34.886  1.00  0.00     0.198 A 
ATOM     91  F   UNL A   1      45.713  29.724  33.757  1.00  0.00    -0.203 F 
ATOM     92  F   UNL A   1      44.683  25.177  36.594  1.00  0.00    -0.200 F 
ATOM     93  C   UNL A   1      46.238  26.655  35.606  1.00  0.00     0.200 A 
ATOM     94  F   UNL A   1      47.755  28.169  34.616  1.00  0.00    -0.200 F 
ATOM     95  F   UNL A   1      47.255  25.903  36.048  1.00  0.00    -0.200 F 
ENDBRANCH  62  85
ENDBRANCH  36  37
ENDBRANCH  28  31
ENDBRANCH  26  27
ENDBRANCH  25  26
ENDBRANCH  24  25
ENDBRANCH   1  24
TORSDOF 16
ENDMDL
