MODEL 1
REMARK VINA RESULT:     -11.9      0.000      0.000
REMARK SMILES CO[C@H]1C[C@@H](C(=O)NCCCCNC(=O)c2ccc(-c3c4nc(c(-c5c(F)c(F)c(F)c(F)c5F)c5ccc([nH]5)c(-c5c(F)c(F)c(F)c(F)c5F)c5nc(c(-c6c(F)c(F)c(F)c(F)c6F)c6ccc3[nH]6)C=C5)C=C4)cc2)N(C(=O)CSc2cccs2)C1
REMARK SMILES IDX 9 1 8 2 6 3 7 4 5 6 3 7 4 8 89 9 79 10 2 11 1 12 80 13 81 14
REMARK SMILES IDX 82 15 83 16 84 17 85 18 88 19 86 20 87 21 10 22 11 23 12 24
REMARK SMILES IDX 13 25 14 26 15 28 16 29 17 30 78 31 18 32 77 33 19 34 20 35
REMARK SMILES IDX 21 36 71 37 22 38 76 39 70 40 72 41 23 42 75 43 69 44 68 45
REMARK SMILES IDX 24 47 56 48 36 49 55 50 37 51 40 52 54 53 73 54 38 55 39 56
REMARK SMILES IDX 53 58 74 59 41 60 25 61 26 62 34 63 27 64 28 65 32 66 35 67
REMARK SMILES IDX 29 68 30 69 33 70 31 71 57 72 58 73 66 74 59 75 60 76 64 77
REMARK SMILES IDX 67 78 61 79 62 80 65 81 63 82 42 83 43 84 51 85 44 86 45 87
REMARK SMILES IDX 49 88 52 89 46 90 47 91 50 92 48 93
REMARK H PARENT 8 5 13 27 72 46 40 57
REMARK Flexibility Score: inf
ROOT
ATOM      1  C   UNL A   1      32.825  30.127  26.808  1.00  0.00     0.116 C 
ENDROOT
BRANCH   1   2
ATOM      2  N   UNL A   1      33.602  29.308  25.898  1.00  0.00    -0.354 N 
ATOM      3  C   UNL A   1      33.246  28.229  25.146  1.00  0.00     0.242 C 
ATOM      4  O   UNL A   1      34.056  27.842  24.298  1.00  0.00    -0.273 OA
ATOM      5  H   UNL A   1      34.546  29.575  25.810  1.00  0.00     0.163 HD
BRANCH   3   6
ATOM      6  C   UNL A   1      31.843  27.606  25.221  1.00  0.00     0.177 C 
ATOM      7  C   UNL A   1      30.703  25.674  26.108  1.00  0.00     0.139 C 
ATOM      8  C   UNL A   1      31.792  26.687  26.449  1.00  0.00     0.069 C 
ATOM      9  C   UNL A   1      30.810  25.517  24.591  1.00  0.00     0.152 C 
ATOM     10  N   UNL A   1      31.408  26.758  24.105  1.00  0.00    -0.327 N 
BRANCH   7  11
ATOM     11  O   UNL A   1      30.717  24.439  26.814  1.00  0.00    -0.380 OA
ATOM     12  C   UNL A   1      31.946  23.733  26.873  1.00  0.00     0.195 C 
ENDBRANCH   7  11
BRANCH  10  13
ATOM     13  C   UNL A   1      31.240  27.126  22.782  1.00  0.00     0.233 C 
ATOM     14  O   UNL A   1      31.649  26.396  21.874  1.00  0.00    -0.274 OA
BRANCH  13  15
ATOM     15  C   UNL A   1      30.667  28.502  22.448  1.00  0.00     0.175 C 
BRANCH  15  16
ATOM     16  S   UNL A   1      28.967  28.703  23.023  1.00  0.00    -0.105 SA
BRANCH  16  17
ATOM     17  C   UNL A   1      28.751  30.407  22.692  1.00  0.00     0.060 A 
ATOM     18  C   UNL A   1      28.926  31.415  23.613  1.00  0.00     0.027 A 
ATOM     19  S   UNL A   1      28.275  31.007  21.165  1.00  0.00    -0.137 S 
ATOM     20  C   UNL A   1      28.606  32.692  23.072  1.00  0.00     0.013 A 
ATOM     21  C   UNL A   1      28.222  32.613  21.751  1.00  0.00     0.066 A 
ENDBRANCH  16  17
ENDBRANCH  15  16
ENDBRANCH  13  15
ENDBRANCH  10  13
ENDBRANCH   3   6
ENDBRANCH   1   2
BRANCH   1  22
ATOM     22  C   UNL A   1      31.627  30.811  26.151  1.00  0.00     0.023 C 
BRANCH  22  23
ATOM     23  C   UNL A   1      31.415  32.266  26.563  1.00  0.00     0.023 C 
BRANCH  23  24
ATOM     24  C   UNL A   1      32.573  32.855  27.352  1.00  0.00     0.116 C 
BRANCH  24  25
ATOM     25  N   UNL A   1      32.370  34.264  27.657  1.00  0.00    -0.352 N 
ATOM     26  C   UNL A   1      32.973  35.032  28.617  1.00  0.00     0.251 C 
ATOM     27  H   UNL A   1      31.707  34.728  27.096  1.00  0.00     0.163 HD
ATOM     28  O   UNL A   1      32.551  36.158  28.867  1.00  0.00    -0.269 OA
BRANCH  26  29
ATOM     29  C   UNL A   1      34.120  34.484  29.361  1.00  0.00     0.039 A 
ATOM     30  C   UNL A   1      33.895  33.845  30.581  1.00  0.00     0.014 A 
ATOM     31  C   UNL A   1      35.412  34.586  28.839  1.00  0.00     0.014 A 
ATOM     32  C   UNL A   1      34.967  33.260  31.254  1.00  0.00     0.010 A 
ATOM     33  C   UNL A   1      36.459  33.920  29.460  1.00  0.00     0.010 A 
ATOM     34  C   UNL A   1      36.251  33.267  30.683  1.00  0.00    -0.014 A 
BRANCH  34  35
ATOM     35  C   UNL A   1      37.397  32.620  31.363  1.00  0.00     0.031 A 
ATOM     36  C   UNL A   1      38.119  31.486  30.691  1.00  0.00     0.074 A 
ATOM     37  C   UNL A   1      37.750  33.020  32.600  1.00  0.00     0.049 A 
ATOM     38  N   UNL A   1      39.101  30.747  31.140  1.00  0.00    -0.248 NA
ATOM     39  C   UNL A   1      37.654  31.111  29.344  1.00  0.00     0.031 C 
ATOM     40  C   UNL A   1      37.093  34.080  33.367  1.00  0.00     0.029 A 
ATOM     41  N   UNL A   1      38.746  32.575  33.431  1.00  0.00    -0.354 N 
ATOM     42  C   UNL A   1      39.365  29.823  30.137  1.00  0.00     0.074 A 
ATOM     43  C   UNL A   1      38.393  30.042  29.091  1.00  0.00     0.031 C 
ATOM     44  C   UNL A   1      37.726  34.227  34.543  1.00  0.00     0.029 A 
ATOM     45  C   UNL A   1      38.802  33.244  34.630  1.00  0.00     0.049 A 
ATOM     46  H   UNL A   1      39.364  31.847  33.191  1.00  0.00     0.167 HD
ATOM     47  C   UNL A   1      40.351  28.898  30.081  1.00  0.00     0.037 A 
ATOM     48  C   UNL A   1      39.626  33.076  35.680  1.00  0.00     0.037 A 
ATOM     49  C   UNL A   1      41.325  28.697  31.121  1.00  0.00     0.049 A 
ATOM     50  C   UNL A   1      40.693  32.015  35.603  1.00  0.00     0.074 A 
ATOM     51  C   UNL A   1      42.385  27.810  31.151  1.00  0.00     0.029 A 
ATOM     52  N   UNL A   1      41.353  29.397  32.319  1.00  0.00    -0.354 N 
ATOM     53  N   UNL A   1      40.974  31.188  34.625  1.00  0.00    -0.248 NA
ATOM     54  C   UNL A   1      41.565  31.871  36.777  1.00  0.00     0.031 C 
ATOM     55  C   UNL A   1      43.025  27.937  32.388  1.00  0.00     0.029 A 
ATOM     56  C   UNL A   1      42.402  28.948  33.103  1.00  0.00     0.049 A 
ATOM     57  H   UNL A   1      40.720  30.107  32.572  1.00  0.00     0.167 HD
ATOM     58  C   UNL A   1      42.075  30.456  35.048  1.00  0.00     0.074 A 
ATOM     59  C   UNL A   1      42.420  30.948  36.365  1.00  0.00     0.031 C 
ATOM     60  C   UNL A   1      42.741  29.464  34.405  1.00  0.00     0.037 A 
BRANCH  47  61
ATOM     61  C   UNL A   1      40.432  28.044  28.847  1.00  0.00     0.064 A 
ATOM     62  C   UNL A   1      41.196  28.430  27.734  1.00  0.00     0.173 A 
ATOM     63  C   UNL A   1      39.763  26.812  28.785  1.00  0.00     0.173 A 
ATOM     64  F   UNL A   1      41.845  29.604  27.735  1.00  0.00    -0.203 F 
ATOM     65  C   UNL A   1      41.262  27.631  26.595  1.00  0.00     0.198 A 
ATOM     66  C   UNL A   1      39.860  25.999  27.658  1.00  0.00     0.198 A 
ATOM     67  F   UNL A   1      39.020  26.392  29.819  1.00  0.00    -0.203 F 
ATOM     68  F   UNL A   1      41.952  28.049  25.526  1.00  0.00    -0.200 F 
ATOM     69  C   UNL A   1      40.601  26.412  26.562  1.00  0.00     0.200 A 
ATOM     70  F   UNL A   1      39.232  24.816  27.632  1.00  0.00    -0.200 F 
ATOM     71  F   UNL A   1      40.673  25.641  25.469  1.00  0.00    -0.200 F 
ENDBRANCH  47  61
BRANCH  48  72
ATOM     72  C   UNL A   1      39.498  33.941  36.883  1.00  0.00     0.064 A 
ATOM     73  C   UNL A   1      40.139  35.188  36.943  1.00  0.00     0.173 A 
ATOM     74  C   UNL A   1      38.763  33.534  38.005  1.00  0.00     0.173 A 
ATOM     75  F   UNL A   1      40.869  35.616  35.902  1.00  0.00    -0.203 F 
ATOM     76  C   UNL A   1      40.077  35.976  38.089  1.00  0.00     0.198 A 
ATOM     77  C   UNL A   1      38.674  34.338  39.139  1.00  0.00     0.198 A 
ATOM     78  F   UNL A   1      38.125  32.354  37.999  1.00  0.00    -0.203 F 
ATOM     79  F   UNL A   1      40.750  37.134  38.141  1.00  0.00    -0.200 F 
ATOM     80  C   UNL A   1      39.342  35.553  39.186  1.00  0.00     0.200 A 
ATOM     81  F   UNL A   1      37.948  33.933  40.190  1.00  0.00    -0.200 F 
ATOM     82  F   UNL A   1      39.285  36.309  40.290  1.00  0.00    -0.200 F 
ENDBRANCH  48  72
BRANCH  60  83
ATOM     83  C   UNL A   1      43.944  28.885  35.093  1.00  0.00     0.064 A 
ATOM     84  C   UNL A   1      43.848  27.773  35.942  1.00  0.00     0.173 A 
ATOM     85  C   UNL A   1      45.217  29.433  34.869  1.00  0.00     0.173 A 
ATOM     86  F   UNL A   1      42.654  27.220  36.201  1.00  0.00    -0.203 F 
ATOM     87  C   UNL A   1      44.978  27.253  36.568  1.00  0.00     0.198 A 
ATOM     88  C   UNL A   1      46.348  28.887  35.467  1.00  0.00     0.198 A 
ATOM     89  F   UNL A   1      45.365  30.492  34.058  1.00  0.00    -0.203 F 
ATOM     90  F   UNL A   1      44.855  26.226  37.421  1.00  0.00    -0.200 F 
ATOM     91  C   UNL A   1      46.227  27.804  36.323  1.00  0.00     0.200 A 
ATOM     92  F   UNL A   1      47.556  29.411  35.214  1.00  0.00    -0.200 F 
ATOM     93  F   UNL A   1      47.313  27.296  36.920  1.00  0.00    -0.200 F 
ENDBRANCH  60  83
ENDBRANCH  34  35
ENDBRANCH  26  29
ENDBRANCH  24  25
ENDBRANCH  23  24
ENDBRANCH  22  23
ENDBRANCH   1  22
TORSDOF 16
ENDMDL
MODEL 2
REMARK VINA RESULT:     -11.8      0.987      7.477
REMARK SMILES CO[C@H]1C[C@@H](C(=O)NCCCCNC(=O)c2ccc(-c3c4nc(c(-c5c(F)c(F)c(F)c(F)c5F)c5ccc([nH]5)c(-c5c(F)c(F)c(F)c(F)c5F)c5nc(c(-c6c(F)c(F)c(F)c(F)c6F)c6ccc3[nH]6)C=C5)C=C4)cc2)N(C(=O)CSc2cccs2)C1
REMARK SMILES IDX 9 1 8 2 6 3 7 4 5 6 3 7 4 8 89 9 79 10 2 11 1 12 80 13 81 14
REMARK SMILES IDX 82 15 83 16 84 17 85 18 88 19 86 20 87 21 10 22 11 23 12 24
REMARK SMILES IDX 13 25 14 26 15 28 16 29 17 30 78 31 18 32 77 33 19 34 20 35
REMARK SMILES IDX 21 36 71 37 22 38 76 39 70 40 72 41 23 42 75 43 69 44 68 45
REMARK SMILES IDX 24 47 56 48 36 49 55 50 37 51 40 52 54 53 73 54 38 55 39 56
REMARK SMILES IDX 53 58 74 59 41 60 25 61 26 62 34 63 27 64 28 65 32 66 35 67
REMARK SMILES IDX 29 68 30 69 33 70 31 71 57 72 58 73 66 74 59 75 60 76 64 77
REMARK SMILES IDX 67 78 61 79 62 80 65 81 63 82 42 83 43 84 51 85 44 86 45 87
REMARK SMILES IDX 49 88 52 89 46 90 47 91 50 92 48 93
REMARK H PARENT 8 5 13 27 72 46 40 57
REMARK Flexibility Score: inf
ROOT
ATOM      1  C   UNL A   1      32.881  30.123  26.481  1.00  0.00     0.116 C 
ENDROOT
BRANCH   1   2
ATOM      2  N   UNL A   1      33.665  29.701  25.335  1.00  0.00    -0.354 N 
ATOM      3  C   UNL A   1      33.602  28.567  24.582  1.00  0.00     0.242 C 
ATOM      4  O   UNL A   1      34.253  28.551  23.533  1.00  0.00    -0.273 OA
ATOM      5  H   UNL A   1      34.359  30.341  25.056  1.00  0.00     0.163 HD
BRANCH   3   6
ATOM      6  C   UNL A   1      32.647  27.412  24.921  1.00  0.00     0.177 C 
ATOM      7  C   UNL A   1      32.640  25.015  25.198  1.00  0.00     0.139 C 
ATOM      8  C   UNL A   1      33.478  26.256  25.494  1.00  0.00     0.069 C 
ATOM      9  C   UNL A   1      31.940  25.351  23.880  1.00  0.00     0.152 C 
ATOM     10  N   UNL A   1      31.882  26.810  23.823  1.00  0.00    -0.327 N 
BRANCH   7  11
ATOM     11  O   UNL A   1      33.312  23.762  25.186  1.00  0.00    -0.380 OA
ATOM     12  C   UNL A   1      34.269  23.542  24.163  1.00  0.00     0.195 C 
ENDBRANCH   7  11
BRANCH  10  13
ATOM     13  C   UNL A   1      30.947  27.425  23.011  1.00  0.00     0.233 C 
ATOM     14  O   UNL A   1      30.873  27.136  21.812  1.00  0.00    -0.274 OA
BRANCH  13  15
ATOM     15  C   UNL A   1      30.093  28.562  23.569  1.00  0.00     0.175 C 
BRANCH  15  16
ATOM     16  S   UNL A   1      28.451  28.627  22.821  1.00  0.00    -0.105 SA
BRANCH  16  17
ATOM     17  C   UNL A   1      28.385  30.329  22.419  1.00  0.00     0.060 A 
ATOM     18  C   UNL A   1      28.061  30.832  21.180  1.00  0.00     0.027 A 
ATOM     19  S   UNL A   1      28.738  31.566  23.544  1.00  0.00    -0.137 S 
ATOM     20  C   UNL A   1      28.163  32.252  21.139  1.00  0.00     0.013 A 
ATOM     21  C   UNL A   1      28.539  32.779  22.355  1.00  0.00     0.066 A 
ENDBRANCH  16  17
ENDBRANCH  15  16
ENDBRANCH  13  15
ENDBRANCH  10  13
ENDBRANCH   3   6
ENDBRANCH   1   2
BRANCH   1  22
ATOM     22  C   UNL A   1      31.557  30.790  26.109  1.00  0.00     0.023 C 
BRANCH  22  23
ATOM     23  C   UNL A   1      31.375  32.203  26.661  1.00  0.00     0.023 C 
BRANCH  23  24
ATOM     24  C   UNL A   1      32.667  32.847  27.134  1.00  0.00     0.116 C 
BRANCH  24  25
ATOM     25  N   UNL A   1      32.461  34.209  27.605  1.00  0.00    -0.352 N 
ATOM     26  C   UNL A   1      33.069  34.862  28.644  1.00  0.00     0.251 C 
ATOM     27  H   UNL A   1      31.794  34.734  27.106  1.00  0.00     0.163 HD
ATOM     28  O   UNL A   1      32.645  35.949  29.027  1.00  0.00    -0.269 OA
BRANCH  26  29
ATOM     29  C   UNL A   1      34.223  34.235  29.312  1.00  0.00     0.039 A 
ATOM     30  C   UNL A   1      33.997  33.331  30.350  1.00  0.00     0.014 A 
ATOM     31  C   UNL A   1      35.523  34.528  28.892  1.00  0.00     0.014 A 
ATOM     32  C   UNL A   1      35.082  32.679  30.936  1.00  0.00     0.010 A 
ATOM     33  C   UNL A   1      36.590  33.807  29.409  1.00  0.00     0.010 A 
ATOM     34  C   UNL A   1      36.383  32.889  30.448  1.00  0.00    -0.014 A 
BRANCH  34  35
ATOM     35  C   UNL A   1      37.546  32.181  31.031  1.00  0.00     0.031 A 
ATOM     36  C   UNL A   1      38.026  32.546  32.408  1.00  0.00     0.074 A 
ATOM     37  C   UNL A   1      38.195  31.253  30.303  1.00  0.00     0.049 A 
ATOM     38  N   UNL A   1      39.059  32.094  33.072  1.00  0.00    -0.248 NA
ATOM     39  C   UNL A   1      37.260  33.582  33.124  1.00  0.00     0.031 C 
ATOM     40  C   UNL A   1      37.846  30.849  28.940  1.00  0.00     0.029 A 
ATOM     41  N   UNL A   1      39.290  30.484  30.608  1.00  0.00    -0.354 N 
ATOM     42  C   UNL A   1      39.067  32.791  34.274  1.00  0.00     0.074 A 
ATOM     43  C   UNL A   1      37.986  33.749  34.218  1.00  0.00     0.031 C 
ATOM     44  C   UNL A   1      38.689  29.882  28.539  1.00  0.00     0.029 A 
ATOM     45  C   UNL A   1      39.662  29.631  29.597  1.00  0.00     0.049 A 
ATOM     46  H   UNL A   1      39.763  30.538  31.470  1.00  0.00     0.167 HD
ATOM     47  C   UNL A   1      39.883  32.623  35.341  1.00  0.00     0.037 A 
ATOM     48  C   UNL A   1      40.679  28.752  29.534  1.00  0.00     0.037 A 
ATOM     49  C   UNL A   1      40.947  31.656  35.394  1.00  0.00     0.049 A 
ATOM     50  C   UNL A   1      41.591  28.611  30.724  1.00  0.00     0.074 A 
ATOM     51  C   UNL A   1      41.812  31.381  36.438  1.00  0.00     0.029 A 
ATOM     52  N   UNL A   1      41.291  30.806  34.353  1.00  0.00    -0.354 N 
ATOM     53  N   UNL A   1      41.553  29.230  31.879  1.00  0.00    -0.248 NA
ATOM     54  C   UNL A   1      42.686  27.639  30.603  1.00  0.00     0.031 C 
ATOM     55  C   UNL A   1      42.712  30.400  36.011  1.00  0.00     0.029 A 
ATOM     56  C   UNL A   1      42.368  30.018  34.723  1.00  0.00     0.049 A 
ATOM     57  H   UNL A   1      40.837  30.769  33.480  1.00  0.00     0.167 HD
ATOM     58  C   UNL A   1      42.588  28.696  32.634  1.00  0.00     0.074 A 
ATOM     59  C   UNL A   1      43.228  27.691  31.811  1.00  0.00     0.031 C 
ATOM     60  C   UNL A   1      42.978  29.009  33.895  1.00  0.00     0.037 A 
BRANCH  47  61
ATOM     61  C   UNL A   1      39.644  33.495  36.540  1.00  0.00     0.064 A 
ATOM     62  C   UNL A   1      38.743  33.125  37.551  1.00  0.00     0.173 A 
ATOM     63  C   UNL A   1      40.344  34.701  36.699  1.00  0.00     0.173 A 
ATOM     64  F   UNL A   1      38.037  31.989  37.444  1.00  0.00    -0.203 F 
ATOM     65  C   UNL A   1      38.529  33.943  38.658  1.00  0.00     0.198 A 
ATOM     66  C   UNL A   1      40.154  35.499  37.825  1.00  0.00     0.198 A 
ATOM     67  F   UNL A   1      41.219  35.103  35.766  1.00  0.00    -0.203 F 
ATOM     68  F   UNL A   1      37.621  33.594  39.580  1.00  0.00    -0.200 F 
ATOM     69  C   UNL A   1      39.240  35.124  38.798  1.00  0.00     0.200 A 
ATOM     70  F   UNL A   1      40.852  36.634  37.965  1.00  0.00    -0.200 F 
ATOM     71  F   UNL A   1      39.040  35.905  39.868  1.00  0.00    -0.200 F 
ENDBRANCH  47  61
BRANCH  48  72
ATOM     72  C   UNL A   1      40.878  27.918  28.319  1.00  0.00     0.064 A 
ATOM     73  C   UNL A   1      40.299  26.644  28.218  1.00  0.00     0.173 A 
ATOM     74  C   UNL A   1      41.669  28.359  27.249  1.00  0.00     0.173 A 
ATOM     75  F   UNL A   1      39.548  26.170  29.222  1.00  0.00    -0.203 F 
ATOM     76  C   UNL A   1      40.533  25.832  27.111  1.00  0.00     0.198 A 
ATOM     77  C   UNL A   1      41.875  27.559  26.127  1.00  0.00     0.198 A 
ATOM     78  F   UNL A   1      42.241  29.572  27.290  1.00  0.00    -0.203 F 
ATOM     79  F   UNL A   1      40.018  24.595  27.071  1.00  0.00    -0.200 F 
ATOM     80  C   UNL A   1      41.317  26.290  26.065  1.00  0.00     0.200 A 
ATOM     81  F   UNL A   1      42.620  28.014  25.110  1.00  0.00    -0.200 F 
ATOM     82  F   UNL A   1      41.546  25.508  25.002  1.00  0.00    -0.200 F 
ENDBRANCH  48  72
BRANCH  60  83
ATOM     83  C   UNL A   1      44.112  28.218  34.481  1.00  0.00     0.064 A 
ATOM     84  C   UNL A   1      43.901  27.001  35.145  1.00  0.00     0.173 A 
ATOM     85  C   UNL A   1      45.434  28.672  34.345  1.00  0.00     0.173 A 
ATOM     86  F   UNL A   1      42.656  26.529  35.314  1.00  0.00    -0.203 F 
ATOM     87  C   UNL A   1      44.968  26.283  35.680  1.00  0.00     0.198 A 
ATOM     88  C   UNL A   1      46.500  27.933  34.849  1.00  0.00     0.198 A 
ATOM     89  F   UNL A   1      45.691  29.826  33.712  1.00  0.00    -0.203 F 
ATOM     90  F   UNL A   1      44.737  25.152  36.360  1.00  0.00    -0.200 F 
ATOM     91  C   UNL A   1      46.266  26.746  35.523  1.00  0.00     0.200 A 
ATOM     92  F   UNL A   1      47.755  28.374  34.681  1.00  0.00    -0.200 F 
ATOM     93  F   UNL A   1      47.292  26.050  36.032  1.00  0.00    -0.200 F 
ENDBRANCH  60  83
ENDBRANCH  34  35
ENDBRANCH  26  29
ENDBRANCH  24  25
ENDBRANCH  23  24
ENDBRANCH  22  23
ENDBRANCH   1  22
TORSDOF 16
ENDMDL
MODEL 3
REMARK VINA RESULT:     -11.7      0.895      1.874
REMARK SMILES CO[C@H]1C[C@@H](C(=O)NCCCCNC(=O)c2ccc(-c3c4nc(c(-c5c(F)c(F)c(F)c(F)c5F)c5ccc([nH]5)c(-c5c(F)c(F)c(F)c(F)c5F)c5nc(c(-c6c(F)c(F)c(F)c(F)c6F)c6ccc3[nH]6)C=C5)C=C4)cc2)N(C(=O)CSc2cccs2)C1
REMARK SMILES IDX 9 1 8 2 6 3 7 4 5 6 3 7 4 8 89 9 79 10 2 11 1 12 80 13 81 14
REMARK SMILES IDX 82 15 83 16 84 17 85 18 88 19 86 20 87 21 10 22 11 23 12 24
REMARK SMILES IDX 13 25 14 26 15 28 16 29 17 30 78 31 18 32 77 33 19 34 20 35
REMARK SMILES IDX 21 36 71 37 22 38 76 39 70 40 72 41 23 42 75 43 69 44 68 45
REMARK SMILES IDX 24 47 56 48 36 49 55 50 37 51 40 52 54 53 73 54 38 55 39 56
REMARK SMILES IDX 53 58 74 59 41 60 25 61 26 62 34 63 27 64 28 65 32 66 35 67
REMARK SMILES IDX 29 68 30 69 33 70 31 71 57 72 58 73 66 74 59 75 60 76 64 77
REMARK SMILES IDX 67 78 61 79 62 80 65 81 63 82 42 83 43 84 51 85 44 86 45 87
REMARK SMILES IDX 49 88 52 89 46 90 47 91 50 92 48 93
REMARK H PARENT 8 5 13 27 72 46 40 57
REMARK Flexibility Score: inf
ROOT
ATOM      1  C   UNL A   1      32.991  29.945  26.042  1.00  0.00     0.116 C 
ENDROOT
BRANCH   1   2
ATOM      2  N   UNL A   1      33.318  29.740  24.644  1.00  0.00    -0.354 N 
ATOM      3  C   UNL A   1      33.217  28.630  23.859  1.00  0.00     0.242 C 
ATOM      4  O   UNL A   1      33.372  28.784  22.644  1.00  0.00    -0.273 OA
ATOM      5  H   UNL A   1      33.673  30.535  24.185  1.00  0.00     0.163 HD
BRANCH   3   6
ATOM      6  C   UNL A   1      32.773  27.270  24.419  1.00  0.00     0.177 C 
ATOM      7  C   UNL A   1      33.225  24.913  24.176  1.00  0.00     0.139 C 
ATOM      8  C   UNL A   1      33.920  26.271  24.216  1.00  0.00     0.069 C 
ATOM      9  C   UNL A   1      31.870  25.213  23.533  1.00  0.00     0.152 C 
ATOM     10  N   UNL A   1      31.606  26.624  23.806  1.00  0.00    -0.327 N 
BRANCH   7  11
ATOM     11  O   UNL A   1      33.927  23.841  23.558  1.00  0.00    -0.380 OA
ATOM     12  C   UNL A   1      34.501  22.859  24.405  1.00  0.00     0.195 C 
ENDBRANCH   7  11
BRANCH  10  13
ATOM     13  C   UNL A   1      30.307  27.097  23.760  1.00  0.00     0.233 C 
ATOM     14  O   UNL A   1      29.426  26.571  24.447  1.00  0.00    -0.274 OA
BRANCH  13  15
ATOM     15  C   UNL A   1      29.935  28.188  22.758  1.00  0.00     0.175 C 
BRANCH  15  16
ATOM     16  S   UNL A   1      28.204  28.686  22.885  1.00  0.00    -0.105 SA
BRANCH  16  17
ATOM     17  C   UNL A   1      28.381  30.409  22.640  1.00  0.00     0.060 A 
ATOM     18  C   UNL A   1      28.741  31.309  23.617  1.00  0.00     0.027 A 
ATOM     19  S   UNL A   1      28.105  31.169  21.135  1.00  0.00    -0.137 S 
ATOM     20  C   UNL A   1      28.730  32.649  23.136  1.00  0.00     0.013 A 
ATOM     21  C   UNL A   1      28.386  32.718  21.805  1.00  0.00     0.066 A 
ENDBRANCH  16  17
ENDBRANCH  15  16
ENDBRANCH  13  15
ENDBRANCH  10  13
ENDBRANCH   3   6
ENDBRANCH   1   2
BRANCH   1  22
ATOM     22  C   UNL A   1      31.561  30.428  26.276  1.00  0.00     0.023 C 
BRANCH  22  23
ATOM     23  C   UNL A   1      31.422  31.933  26.500  1.00  0.00     0.023 C 
BRANCH  23  24
ATOM     24  C   UNL A   1      32.599  32.555  27.233  1.00  0.00     0.116 C 
BRANCH  24  25
ATOM     25  N   UNL A   1      32.388  33.967  27.512  1.00  0.00    -0.352 N 
ATOM     26  C   UNL A   1      32.990  34.758  28.455  1.00  0.00     0.251 C 
ATOM     27  H   UNL A   1      31.722  34.417  26.943  1.00  0.00     0.163 HD
ATOM     28  O   UNL A   1      32.562  35.887  28.683  1.00  0.00    -0.269 OA
BRANCH  26  29
ATOM     29  C   UNL A   1      34.142  34.232  29.207  1.00  0.00     0.039 A 
ATOM     30  C   UNL A   1      33.913  33.452  30.341  1.00  0.00     0.014 A 
ATOM     31  C   UNL A   1      35.445  34.494  28.774  1.00  0.00     0.014 A 
ATOM     32  C   UNL A   1      34.997  32.890  31.014  1.00  0.00     0.010 A 
ATOM     33  C   UNL A   1      36.513  33.855  29.386  1.00  0.00     0.010 A 
ATOM     34  C   UNL A   1      36.302  33.062  30.522  1.00  0.00    -0.014 A 
BRANCH  34  35
ATOM     35  C   UNL A   1      37.466  32.444  31.201  1.00  0.00     0.031 A 
ATOM     36  C   UNL A   1      38.208  31.322  30.532  1.00  0.00     0.074 A 
ATOM     37  C   UNL A   1      37.816  32.859  32.433  1.00  0.00     0.049 A 
ATOM     38  N   UNL A   1      39.209  30.607  30.980  1.00  0.00    -0.248 NA
ATOM     39  C   UNL A   1      37.746  30.928  29.189  1.00  0.00     0.031 C 
ATOM     40  C   UNL A   1      37.141  33.909  33.198  1.00  0.00     0.029 A 
ATOM     41  N   UNL A   1      38.826  32.441  33.262  1.00  0.00    -0.354 N 
ATOM     42  C   UNL A   1      39.488  29.683  29.982  1.00  0.00     0.074 A 
ATOM     43  C   UNL A   1      38.506  29.874  28.939  1.00  0.00     0.031 C 
ATOM     44  C   UNL A   1      37.776  34.076  34.369  1.00  0.00     0.029 A 
ATOM     45  C   UNL A   1      38.873  33.118  34.457  1.00  0.00     0.049 A 
ATOM     46  H   UNL A   1      39.458  31.724  33.023  1.00  0.00     0.167 HD
ATOM     47  C   UNL A   1      40.493  28.778  29.925  1.00  0.00     0.037 A 
ATOM     48  C   UNL A   1      39.705  32.973  35.504  1.00  0.00     0.037 A 
ATOM     49  C   UNL A   1      41.476  28.604  30.962  1.00  0.00     0.049 A 
ATOM     50  C   UNL A   1      40.794  31.935  35.428  1.00  0.00     0.074 A 
ATOM     51  C   UNL A   1      42.555  27.741  30.992  1.00  0.00     0.029 A 
ATOM     52  N   UNL A   1      41.495  29.312  32.156  1.00  0.00    -0.354 N 
ATOM     53  N   UNL A   1      41.088  31.109  34.453  1.00  0.00    -0.248 NA
ATOM     54  C   UNL A   1      41.675  31.817  36.598  1.00  0.00     0.031 C 
ATOM     55  C   UNL A   1      43.198  27.889  32.225  1.00  0.00     0.029 A 
ATOM     56  C   UNL A   1      42.557  28.891  32.938  1.00  0.00     0.049 A 
ATOM     57  H   UNL A   1      40.848  30.010  32.408  1.00  0.00     0.167 HD
ATOM     58  C   UNL A   1      42.207  30.403  34.875  1.00  0.00     0.074 A 
ATOM     59  C   UNL A   1      42.548  30.910  36.187  1.00  0.00     0.031 C 
ATOM     60  C   UNL A   1      42.891  29.422  34.235  1.00  0.00     0.037 A 
BRANCH  47  61
ATOM     61  C   UNL A   1      40.586  27.919  28.697  1.00  0.00     0.064 A 
ATOM     62  C   UNL A   1      39.909  26.693  28.603  1.00  0.00     0.173 A 
ATOM     63  C   UNL A   1      41.336  28.338  27.586  1.00  0.00     0.173 A 
ATOM     64  F   UNL A   1      39.190  26.239  29.641  1.00  0.00    -0.203 F 
ATOM     65  C   UNL A   1      40.004  25.905  27.459  1.00  0.00     0.198 A 
ATOM     66  C   UNL A   1      41.399  27.563  26.430  1.00  0.00     0.198 A 
ATOM     67  F   UNL A   1      42.001  29.502  27.618  1.00  0.00    -0.203 F 
ATOM     68  F   UNL A   1      39.394  24.712  27.418  1.00  0.00    -0.200 F 
ATOM     69  C   UNL A   1      40.742  26.344  26.371  1.00  0.00     0.200 A 
ATOM     70  F   UNL A   1      42.101  27.996  25.374  1.00  0.00    -0.200 F 
ATOM     71  F   UNL A   1      40.824  25.589  25.267  1.00  0.00    -0.200 F 
ENDBRANCH  47  61
BRANCH  48  72
ATOM     72  C   UNL A   1      39.565  33.843  36.702  1.00  0.00     0.064 A 
ATOM     73  C   UNL A   1      40.212  35.086  36.768  1.00  0.00     0.173 A 
ATOM     74  C   UNL A   1      38.811  33.443  37.814  1.00  0.00     0.173 A 
ATOM     75  F   UNL A   1      40.959  35.506  35.737  1.00  0.00    -0.203 F 
ATOM     76  C   UNL A   1      40.137  35.878  37.911  1.00  0.00     0.198 A 
ATOM     77  C   UNL A   1      38.710  34.251  38.945  1.00  0.00     0.198 A 
ATOM     78  F   UNL A   1      38.166  32.267  37.802  1.00  0.00    -0.203 F 
ATOM     79  F   UNL A   1      40.816  37.032  37.969  1.00  0.00    -0.200 F 
ATOM     80  C   UNL A   1      39.384  35.462  38.998  1.00  0.00     0.200 A 
ATOM     81  F   UNL A   1      37.966  33.853  39.986  1.00  0.00    -0.200 F 
ATOM     82  F   UNL A   1      39.315  36.222  40.099  1.00  0.00    -0.200 F 
ENDBRANCH  48  72
BRANCH  60  83
ATOM     83  C   UNL A   1      44.109  28.873  34.920  1.00  0.00     0.064 A 
ATOM     84  C   UNL A   1      45.378  29.445  34.745  1.00  0.00     0.173 A 
ATOM     85  C   UNL A   1      43.996  27.778  35.791  1.00  0.00     0.173 A 
ATOM     86  F   UNL A   1      45.544  30.484  33.913  1.00  0.00    -0.203 F 
ATOM     87  C   UNL A   1      46.494  28.919  35.393  1.00  0.00     0.198 A 
ATOM     88  C   UNL A   1      45.107  27.280  36.464  1.00  0.00     0.198 A 
ATOM     89  F   UNL A   1      42.804  27.200  35.999  1.00  0.00    -0.203 F 
ATOM     90  F   UNL A   1      47.706  29.445  35.166  1.00  0.00    -0.200 F 
ATOM     91  C   UNL A   1      46.356  27.844  36.257  1.00  0.00     0.200 A 
ATOM     92  F   UNL A   1      44.968  26.252  37.314  1.00  0.00    -0.200 F 
ATOM     93  F   UNL A   1      47.429  27.345  36.885  1.00  0.00    -0.200 F 
ENDBRANCH  60  83
ENDBRANCH  34  35
ENDBRANCH  26  29
ENDBRANCH  24  25
ENDBRANCH  23  24
ENDBRANCH  22  23
ENDBRANCH   1  22
TORSDOF 16
ENDMDL
