MODEL 1
REMARK VINA RESULT:     -11.8      0.000      0.000
REMARK SMILES C[C@H](Cc1ccc(N)cc1)C(=O)NCCCCNC(=O)c1ccc(-c2c3nc(c(-c4c(F)c(F)c(F)c(F)c4F)c4ccc([nH]4)c(-c4c(F)c(F)c(F)c(F)c4F)c4nc(c(-c5c(F)c(F)c(F)c(F)c5F)c5ccc2[nH]5)C=C4)C=C3)cc1
REMARK SMILES IDX 15 1 14 2 13 3 11 4 12 5 2 7 1 8 3 9 4 10 5 11 10 12 6 13
REMARK SMILES IDX 9 14 7 15 8 16 16 19 17 20 18 21 19 22 20 24 21 25 22 26
REMARK SMILES IDX 83 27 23 28 82 29 24 30 25 31 26 32 76 33 27 34 81 35 75 36
REMARK SMILES IDX 77 37 28 38 80 39 74 40 73 41 29 43 61 44 41 45 60 46 42 47
REMARK SMILES IDX 45 48 59 49 78 50 43 51 44 52 58 54 79 55 46 56 30 57 31 58
REMARK SMILES IDX 39 59 32 60 33 61 37 62 40 63 34 64 35 65 38 66 36 67 62 68
REMARK SMILES IDX 63 69 71 70 64 71 65 72 69 73 72 74 66 75 67 76 70 77 68 78
REMARK SMILES IDX 47 79 48 80 56 81 49 82 50 83 54 84 57 85 51 86 52 87 55 88
REMARK SMILES IDX 53 89
REMARK H PARENT 13 6 8 17 8 18 18 23 77 42 45 53
REMARK Flexibility Score: inf
ROOT
ATOM      1  C   UNL A   1      31.900  30.218  26.895  1.00  0.00     0.023 C 
ENDROOT
BRANCH   1   2
ATOM      2  C   UNL A   1      33.309  29.635  26.828  1.00  0.00     0.116 C 
BRANCH   2   3
ATOM      3  N   UNL A   1      33.795  29.513  25.474  1.00  0.00    -0.356 N 
ATOM      4  C   UNL A   1      33.712  28.462  24.609  1.00  0.00     0.223 C 
ATOM      5  O   UNL A   1      34.212  28.614  23.492  1.00  0.00    -0.275 OA
ATOM      6  H   UNL A   1      34.255  30.309  25.121  1.00  0.00     0.163 HD
BRANCH   4   7
ATOM      7  C   UNL A   1      32.975  27.163  24.961  1.00  0.00     0.079 C 
ATOM      8  C   UNL A   1      33.928  26.203  25.672  1.00  0.00     0.018 C 
BRANCH   7   9
ATOM      9  C   UNL A   1      32.110  26.607  23.803  1.00  0.00     0.048 C 
BRANCH   9  10
ATOM     10  C   UNL A   1      30.682  27.099  23.645  1.00  0.00    -0.047 A 
ATOM     11  C   UNL A   1      30.427  28.333  23.037  1.00  0.00     0.006 A 
ATOM     12  C   UNL A   1      29.575  26.334  24.039  1.00  0.00     0.006 A 
ATOM     13  C   UNL A   1      29.113  28.780  22.841  1.00  0.00     0.026 A 
ATOM     14  C   UNL A   1      28.268  26.783  23.844  1.00  0.00     0.026 A 
ATOM     15  C   UNL A   1      28.021  28.001  23.223  1.00  0.00     0.031 A 
BRANCH  15  16
ATOM     16  N   UNL A   1      26.725  28.469  23.099  1.00  0.00    -0.399 N 
ATOM     17  H   UNL A   1      26.504  29.126  22.400  1.00  0.00     0.156 HD
ATOM     18  H   UNL A   1      26.025  28.146  23.712  1.00  0.00     0.156 HD
ENDBRANCH  15  16
ENDBRANCH   9  10
ENDBRANCH   7   9
ENDBRANCH   4   7
ENDBRANCH   2   3
ENDBRANCH   1   2
BRANCH   1  19
ATOM     19  C   UNL A   1      31.840  31.721  26.645  1.00  0.00     0.023 C 
BRANCH  19  20
ATOM     20  C   UNL A   1      32.836  32.549  27.450  1.00  0.00     0.116 C 
BRANCH  20  21
ATOM     21  N   UNL A   1      32.423  33.929  27.662  1.00  0.00    -0.352 N 
ATOM     22  C   UNL A   1      32.959  34.864  28.522  1.00  0.00     0.251 C 
ATOM     23  H   UNL A   1      31.660  34.234  27.120  1.00  0.00     0.163 HD
ATOM     24  O   UNL A   1      32.453  35.963  28.652  1.00  0.00    -0.269 OA
BRANCH  22  25
ATOM     25  C   UNL A   1      34.142  34.485  29.326  1.00  0.00     0.039 A 
ATOM     26  C   UNL A   1      33.946  33.964  30.607  1.00  0.00     0.014 A 
ATOM     27  C   UNL A   1      35.424  34.567  28.778  1.00  0.00     0.014 A 
ATOM     28  C   UNL A   1      35.033  33.439  31.306  1.00  0.00     0.010 A 
ATOM     29  C   UNL A   1      36.490  33.971  29.441  1.00  0.00     0.010 A 
ATOM     30  C   UNL A   1      36.304  33.394  30.709  1.00  0.00    -0.014 A 
BRANCH  30  31
ATOM     31  C   UNL A   1      37.453  32.740  31.383  1.00  0.00     0.031 A 
ATOM     32  C   UNL A   1      38.148  31.583  30.725  1.00  0.00     0.074 A 
ATOM     33  C   UNL A   1      37.813  33.131  32.621  1.00  0.00     0.049 A 
ATOM     34  N   UNL A   1      39.103  30.817  31.189  1.00  0.00    -0.248 NA
ATOM     35  C   UNL A   1      37.686  31.215  29.377  1.00  0.00     0.031 C 
ATOM     36  C   UNL A   1      37.176  34.200  33.391  1.00  0.00     0.029 A 
ATOM     37  N   UNL A   1      38.794  32.660  33.457  1.00  0.00    -0.354 N 
ATOM     38  C   UNL A   1      39.339  29.871  30.202  1.00  0.00     0.074 A 
ATOM     39  C   UNL A   1      38.391  30.121  29.138  1.00  0.00     0.031 C 
ATOM     40  C   UNL A   1      37.796  34.318  34.578  1.00  0.00     0.029 A 
ATOM     41  C   UNL A   1      38.849  33.311  34.665  1.00  0.00     0.049 A 
ATOM     42  H   UNL A   1      39.404  31.926  33.214  1.00  0.00     0.167 HD
ATOM     43  C   UNL A   1      40.279  28.896  30.172  1.00  0.00     0.037 A 
ATOM     44  C   UNL A   1      39.654  33.114  35.726  1.00  0.00     0.037 A 
ATOM     45  C   UNL A   1      41.242  28.671  31.217  1.00  0.00     0.049 A 
ATOM     46  C   UNL A   1      40.704  32.038  35.662  1.00  0.00     0.074 A 
ATOM     47  C   UNL A   1      42.275  27.750  31.254  1.00  0.00     0.029 A 
ATOM     48  N   UNL A   1      41.292  29.377  32.409  1.00  0.00    -0.354 N 
ATOM     49  N   UNL A   1      40.961  31.192  34.695  1.00  0.00    -0.248 NA
ATOM     50  C   UNL A   1      41.579  31.894  36.834  1.00  0.00     0.031 C 
ATOM     51  C   UNL A   1      42.928  27.877  32.485  1.00  0.00     0.029 A 
ATOM     52  C   UNL A   1      42.330  28.905  33.196  1.00  0.00     0.049 A 
ATOM     53  H   UNL A   1      40.680  30.108  32.659  1.00  0.00     0.167 HD
ATOM     54  C   UNL A   1      42.041  30.433  35.128  1.00  0.00     0.074 A 
ATOM     55  C   UNL A   1      42.399  30.930  36.441  1.00  0.00     0.031 C 
ATOM     56  C   UNL A   1      42.677  29.417  34.496  1.00  0.00     0.037 A 
BRANCH  43  57
ATOM     57  C   UNL A   1      40.315  28.010  28.963  1.00  0.00     0.064 A 
ATOM     58  C   UNL A   1      41.062  28.352  27.825  1.00  0.00     0.173 A 
ATOM     59  C   UNL A   1      39.616  26.794  28.948  1.00  0.00     0.173 A 
ATOM     60  F   UNL A   1      41.737  29.511  27.784  1.00  0.00    -0.203 F 
ATOM     61  C   UNL A   1      41.082  27.526  26.705  1.00  0.00     0.198 A 
ATOM     62  C   UNL A   1      39.662  25.955  27.837  1.00  0.00     0.198 A 
ATOM     63  F   UNL A   1      38.890  26.417  30.011  1.00  0.00    -0.203 F 
ATOM     64  F   UNL A   1      41.758  27.900  25.611  1.00  0.00    -0.200 F 
ATOM     65  C   UNL A   1      40.387  26.326  26.714  1.00  0.00     0.200 A 
ATOM     66  F   UNL A   1      39.000  24.790  27.851  1.00  0.00    -0.200 F 
ATOM     67  F   UNL A   1      40.410  25.529  25.637  1.00  0.00    -0.200 F 
ENDBRANCH  43  57
BRANCH  44  68
ATOM     68  C   UNL A   1      39.520  33.974  36.931  1.00  0.00     0.064 A 
ATOM     69  C   UNL A   1      38.751  33.560  38.026  1.00  0.00     0.173 A 
ATOM     70  C   UNL A   1      40.155  35.222  37.012  1.00  0.00     0.173 A 
ATOM     71  F   UNL A   1      38.110  32.382  37.987  1.00  0.00    -0.203 F 
ATOM     72  C   UNL A   1      38.606  34.369  39.151  1.00  0.00     0.198 A 
ATOM     73  C   UNL A   1      40.029  36.019  38.147  1.00  0.00     0.198 A 
ATOM     74  F   UNL A   1      40.906  35.662  35.991  1.00  0.00    -0.203 F 
ATOM     75  F   UNL A   1      37.831  33.967  40.168  1.00  0.00    -0.200 F 
ATOM     76  C   UNL A   1      39.249  35.596  39.213  1.00  0.00     0.200 A 
ATOM     77  F   UNL A   1      40.662  37.199  38.209  1.00  0.00    -0.200 F 
ATOM     78  F   UNL A   1      39.112  36.373  40.296  1.00  0.00    -0.200 F 
ENDBRANCH  44  68
BRANCH  56  79
ATOM     79  C   UNL A   1      43.846  28.795  35.201  1.00  0.00     0.064 A 
ATOM     80  C   UNL A   1      45.150  29.278  35.027  1.00  0.00     0.173 A 
ATOM     81  C   UNL A   1      43.649  27.731  36.094  1.00  0.00     0.173 A 
ATOM     82  F   UNL A   1      45.390  30.284  34.172  1.00  0.00    -0.203 F 
ATOM     83  C   UNL A   1      46.220  28.705  35.708  1.00  0.00     0.198 A 
ATOM     84  C   UNL A   1      44.718  27.178  36.794  1.00  0.00     0.198 A 
ATOM     85  F   UNL A   1      42.419  27.238  36.299  1.00  0.00    -0.203 F 
ATOM     86  F   UNL A   1      47.465  29.154  35.496  1.00  0.00    -0.200 F 
ATOM     87  C   UNL A   1      46.003  27.661  36.596  1.00  0.00     0.200 A 
ATOM     88  F   UNL A   1      44.505  26.178  37.660  1.00  0.00    -0.200 F 
ATOM     89  F   UNL A   1      47.034  27.115  37.255  1.00  0.00    -0.200 F 
ENDBRANCH  56  79
ENDBRANCH  30  31
ENDBRANCH  22  25
ENDBRANCH  20  21
ENDBRANCH  19  20
ENDBRANCH   1  19
TORSDOF 14
ENDMDL
MODEL 2
REMARK VINA RESULT:     -11.8      1.377      7.927
REMARK SMILES C[C@H](Cc1ccc(N)cc1)C(=O)NCCCCNC(=O)c1ccc(-c2c3nc(c(-c4c(F)c(F)c(F)c(F)c4F)c4ccc([nH]4)c(-c4c(F)c(F)c(F)c(F)c4F)c4nc(c(-c5c(F)c(F)c(F)c(F)c5F)c5ccc2[nH]5)C=C4)C=C3)cc1
REMARK SMILES IDX 15 1 14 2 13 3 11 4 12 5 2 7 1 8 3 9 4 10 5 11 10 12 6 13
REMARK SMILES IDX 9 14 7 15 8 16 16 19 17 20 18 21 19 22 20 24 21 25 22 26
REMARK SMILES IDX 83 27 23 28 82 29 24 30 25 31 26 32 76 33 27 34 81 35 75 36
REMARK SMILES IDX 77 37 28 38 80 39 74 40 73 41 29 43 61 44 41 45 60 46 42 47
REMARK SMILES IDX 45 48 59 49 78 50 43 51 44 52 58 54 79 55 46 56 30 57 31 58
REMARK SMILES IDX 39 59 32 60 33 61 37 62 40 63 34 64 35 65 38 66 36 67 62 68
REMARK SMILES IDX 63 69 71 70 64 71 65 72 69 73 72 74 66 75 67 76 70 77 68 78
REMARK SMILES IDX 47 79 48 80 56 81 49 82 50 83 54 84 57 85 51 86 52 87 55 88
REMARK SMILES IDX 53 89
REMARK H PARENT 13 6 8 17 8 18 18 23 77 42 45 53
REMARK Flexibility Score: inf
ROOT
ATOM      1  C   UNL A   1      31.831  30.542  26.591  1.00  0.00     0.023 C 
ENDROOT
BRANCH   1   2
ATOM      2  C   UNL A   1      31.364  29.907  25.285  1.00  0.00     0.116 C 
BRANCH   2   3
ATOM      3  N   UNL A   1      32.438  29.732  24.338  1.00  0.00    -0.356 N 
ATOM      4  C   UNL A   1      33.353  28.726  24.232  1.00  0.00     0.223 C 
ATOM      5  O   UNL A   1      34.179  28.811  23.319  1.00  0.00    -0.275 OA
ATOM      6  H   UNL A   1      32.523  30.446  23.665  1.00  0.00     0.163 HD
BRANCH   4   7
ATOM      7  C   UNL A   1      33.334  27.497  25.150  1.00  0.00     0.079 C 
ATOM      8  C   UNL A   1      34.066  27.814  26.454  1.00  0.00     0.018 C 
BRANCH   7   9
ATOM      9  C   UNL A   1      33.679  26.174  24.424  1.00  0.00     0.048 C 
BRANCH   9  10
ATOM     10  C   UNL A   1      33.936  24.925  25.247  1.00  0.00    -0.047 A 
ATOM     11  C   UNL A   1      35.226  24.387  25.326  1.00  0.00     0.006 A 
ATOM     12  C   UNL A   1      32.931  24.297  25.997  1.00  0.00     0.006 A 
ATOM     13  C   UNL A   1      35.489  23.262  26.120  1.00  0.00     0.026 A 
ATOM     14  C   UNL A   1      33.196  23.176  26.785  1.00  0.00     0.026 A 
ATOM     15  C   UNL A   1      34.482  22.659  26.873  1.00  0.00     0.031 A 
BRANCH  15  16
ATOM     16  N   UNL A   1      34.721  21.505  27.599  1.00  0.00    -0.399 N 
ATOM     17  H   UNL A   1      34.693  20.629  27.153  1.00  0.00     0.156 HD
ATOM     18  H   UNL A   1      34.917  21.562  28.562  1.00  0.00     0.156 HD
ENDBRANCH  15  16
ENDBRANCH   9  10
ENDBRANCH   7   9
ENDBRANCH   4   7
ENDBRANCH   2   3
ENDBRANCH   1   2
BRANCH   1  19
ATOM     19  C   UNL A   1      31.607  32.049  26.662  1.00  0.00     0.023 C 
BRANCH  19  20
ATOM     20  C   UNL A   1      32.748  32.841  27.291  1.00  0.00     0.116 C 
BRANCH  20  21
ATOM     21  N   UNL A   1      32.392  34.207  27.650  1.00  0.00    -0.352 N 
ATOM     22  C   UNL A   1      32.964  35.021  28.605  1.00  0.00     0.251 C 
ATOM     23  H   UNL A   1      31.644  34.600  27.145  1.00  0.00     0.163 HD
ATOM     24  O   UNL A   1      32.503  36.120  28.852  1.00  0.00    -0.269 OA
BRANCH  22  25
ATOM     25  C   UNL A   1      34.127  34.509  29.363  1.00  0.00     0.039 A 
ATOM     26  C   UNL A   1      33.905  33.869  30.584  1.00  0.00     0.014 A 
ATOM     27  C   UNL A   1      35.412  34.589  28.822  1.00  0.00     0.014 A 
ATOM     28  C   UNL A   1      34.967  33.227  31.222  1.00  0.00     0.010 A 
ATOM     29  C   UNL A   1      36.449  33.881  29.418  1.00  0.00     0.010 A 
ATOM     30  C   UNL A   1      36.236  33.187  30.620  1.00  0.00    -0.014 A 
BRANCH  30  31
ATOM     31  C   UNL A   1      37.353  32.417  31.220  1.00  0.00     0.031 A 
ATOM     32  C   UNL A   1      37.864  32.779  32.585  1.00  0.00     0.074 A 
ATOM     33  C   UNL A   1      37.962  31.453  30.504  1.00  0.00     0.049 A 
ATOM     34  N   UNL A   1      38.888  32.296  33.242  1.00  0.00    -0.248 NA
ATOM     35  C   UNL A   1      37.147  33.850  33.295  1.00  0.00     0.031 C 
ATOM     36  C   UNL A   1      37.600  31.051  29.144  1.00  0.00     0.029 A 
ATOM     37  N   UNL A   1      39.028  30.646  30.815  1.00  0.00    -0.354 N 
ATOM     38  C   UNL A   1      38.948  33.017  34.426  1.00  0.00     0.074 A 
ATOM     39  C   UNL A   1      37.895  34.006  34.376  1.00  0.00     0.031 C 
ATOM     40  C   UNL A   1      38.416  30.059  28.745  1.00  0.00     0.029 A 
ATOM     41  C   UNL A   1      39.378  29.781  29.807  1.00  0.00     0.049 A 
ATOM     42  H   UNL A   1      39.497  30.681  31.680  1.00  0.00     0.167 HD
ATOM     43  C   UNL A   1      39.790  32.851  35.475  1.00  0.00     0.037 A 
ATOM     44  C   UNL A   1      40.368  28.870  29.744  1.00  0.00     0.037 A 
ATOM     45  C   UNL A   1      40.816  31.845  35.536  1.00  0.00     0.049 A 
ATOM     46  C   UNL A   1      41.277  28.691  30.929  1.00  0.00     0.074 A 
ATOM     47  C   UNL A   1      41.679  31.554  36.579  1.00  0.00     0.029 A 
ATOM     48  N   UNL A   1      41.114  30.959  34.511  1.00  0.00    -0.354 N 
ATOM     49  N   UNL A   1      41.282  29.333  32.071  1.00  0.00    -0.248 NA
ATOM     50  C   UNL A   1      42.315  27.656  30.818  1.00  0.00     0.031 C 
ATOM     51  C   UNL A   1      42.523  30.516  36.170  1.00  0.00     0.029 A 
ATOM     52  C   UNL A   1      42.158  30.131  34.890  1.00  0.00     0.049 A 
ATOM     53  H   UNL A   1      40.652  30.925  33.642  1.00  0.00     0.167 HD
ATOM     54  C   UNL A   1      42.302  28.766  32.824  1.00  0.00     0.074 A 
ATOM     55  C   UNL A   1      42.885  27.716  32.014  1.00  0.00     0.031 C 
ATOM     56  C   UNL A   1      42.718  29.086  34.074  1.00  0.00     0.037 A 
BRANCH  43  57
ATOM     57  C   UNL A   1      39.624  33.775  36.645  1.00  0.00     0.064 A 
ATOM     58  C   UNL A   1      38.833  33.426  37.750  1.00  0.00     0.173 A 
ATOM     59  C   UNL A   1      40.281  35.014  36.674  1.00  0.00     0.173 A 
ATOM     60  F   UNL A   1      38.172  32.258  37.763  1.00  0.00    -0.203 F 
ATOM     61  C   UNL A   1      38.679  34.294  38.825  1.00  0.00     0.198 A 
ATOM     62  C   UNL A   1      40.150  35.869  37.766  1.00  0.00     0.198 A 
ATOM     63  F   UNL A   1      41.054  35.396  35.646  1.00  0.00    -0.203 F 
ATOM     64  F   UNL A   1      37.875  33.961  39.844  1.00  0.00    -0.200 F 
ATOM     65  C   UNL A   1      39.343  35.512  38.836  1.00  0.00     0.200 A 
ATOM     66  F   UNL A   1      40.801  37.040  37.780  1.00  0.00    -0.200 F 
ATOM     67  F   UNL A   1      39.198  36.346  39.875  1.00  0.00    -0.200 F 
ENDBRANCH  43  57
BRANCH  44  68
ATOM     68  C   UNL A   1      40.532  28.035  28.526  1.00  0.00     0.064 A 
ATOM     69  C   UNL A   1      39.910  26.783  28.425  1.00  0.00     0.173 A 
ATOM     70  C   UNL A   1      41.309  28.468  27.442  1.00  0.00     0.173 A 
ATOM     71  F   UNL A   1      39.173  26.318  29.445  1.00  0.00    -0.203 F 
ATOM     72  C   UNL A   1      40.075  25.986  27.294  1.00  0.00     0.198 A 
ATOM     73  C   UNL A   1      41.452  27.681  26.301  1.00  0.00     0.198 A 
ATOM     74  F   UNL A   1      41.921  29.661  27.488  1.00  0.00    -0.203 F 
ATOM     75  F   UNL A   1      39.503  24.775  27.241  1.00  0.00    -0.200 F 
ATOM     76  C   UNL A   1      40.841  26.438  26.231  1.00  0.00     0.200 A 
ATOM     77  F   UNL A   1      42.183  28.127  25.269  1.00  0.00    -0.200 F 
ATOM     78  F   UNL A   1      40.997  25.674  25.141  1.00  0.00    -0.200 F 
ENDBRANCH  44  68
BRANCH  56  79
ATOM     79  C   UNL A   1      43.837  28.272  34.654  1.00  0.00     0.064 A 
ATOM     80  C   UNL A   1      45.172  28.687  34.562  1.00  0.00     0.173 A 
ATOM     81  C   UNL A   1      43.561  27.084  35.349  1.00  0.00     0.173 A 
ATOM     82  F   UNL A   1      45.486  29.808  33.894  1.00  0.00    -0.203 F 
ATOM     83  C   UNL A   1      46.195  27.932  35.127  1.00  0.00     0.198 A 
ATOM     84  C   UNL A   1      44.584  26.345  35.936  1.00  0.00     0.198 A 
ATOM     85  F   UNL A   1      42.298  26.648  35.470  1.00  0.00    -0.203 F 
ATOM     86  F   UNL A   1      47.469  28.325  34.991  1.00  0.00    -0.200 F 
ATOM     87  C   UNL A   1      45.901  26.766  35.820  1.00  0.00     0.200 A 
ATOM     88  F   UNL A   1      44.297  25.227  36.615  1.00  0.00    -0.200 F 
ATOM     89  F   UNL A   1      46.887  26.045  36.369  1.00  0.00    -0.200 F 
ENDBRANCH  56  79
ENDBRANCH  30  31
ENDBRANCH  22  25
ENDBRANCH  20  21
ENDBRANCH  19  20
ENDBRANCH   1  19
TORSDOF 14
ENDMDL
MODEL 3
REMARK VINA RESULT:     -11.8      1.314      7.691
REMARK SMILES C[C@H](Cc1ccc(N)cc1)C(=O)NCCCCNC(=O)c1ccc(-c2c3nc(c(-c4c(F)c(F)c(F)c(F)c4F)c4ccc([nH]4)c(-c4c(F)c(F)c(F)c(F)c4F)c4nc(c(-c5c(F)c(F)c(F)c(F)c5F)c5ccc2[nH]5)C=C4)C=C3)cc1
REMARK SMILES IDX 15 1 14 2 13 3 11 4 12 5 2 7 1 8 3 9 4 10 5 11 10 12 6 13
REMARK SMILES IDX 9 14 7 15 8 16 16 19 17 20 18 21 19 22 20 24 21 25 22 26
REMARK SMILES IDX 83 27 23 28 82 29 24 30 25 31 26 32 76 33 27 34 81 35 75 36
REMARK SMILES IDX 77 37 28 38 80 39 74 40 73 41 29 43 61 44 41 45 60 46 42 47
REMARK SMILES IDX 45 48 59 49 78 50 43 51 44 52 58 54 79 55 46 56 30 57 31 58
REMARK SMILES IDX 39 59 32 60 33 61 37 62 40 63 34 64 35 65 38 66 36 67 62 68
REMARK SMILES IDX 63 69 71 70 64 71 65 72 69 73 72 74 66 75 67 76 70 77 68 78
REMARK SMILES IDX 47 79 48 80 56 81 49 82 50 83 54 84 57 85 51 86 52 87 55 88
REMARK SMILES IDX 53 89
REMARK H PARENT 13 6 8 17 8 18 18 23 77 42 45 53
REMARK Flexibility Score: inf
ROOT
ATOM      1  C   UNL A   1      31.779  30.578  26.570  1.00  0.00     0.023 C 
ENDROOT
BRANCH   1   2
ATOM      2  C   UNL A   1      31.340  29.913  25.269  1.00  0.00     0.116 C 
BRANCH   2   3
ATOM      3  N   UNL A   1      32.454  29.577  24.415  1.00  0.00    -0.356 N 
ATOM      4  C   UNL A   1      33.485  28.709  24.627  1.00  0.00     0.223 C 
ATOM      5  O   UNL A   1      34.320  28.598  23.725  1.00  0.00    -0.275 OA
ATOM      6  H   UNL A   1      32.472  30.043  23.547  1.00  0.00     0.163 HD
BRANCH   4   7
ATOM      7  C   UNL A   1      33.587  27.846  25.891  1.00  0.00     0.079 C 
ATOM      8  C   UNL A   1      34.483  28.537  26.918  1.00  0.00     0.018 C 
BRANCH   7   9
ATOM      9  C   UNL A   1      33.835  26.346  25.600  1.00  0.00     0.048 C 
BRANCH   9  10
ATOM     10  C   UNL A   1      32.738  25.342  25.908  1.00  0.00    -0.047 A 
ATOM     11  C   UNL A   1      33.064  24.065  26.377  1.00  0.00     0.006 A 
ATOM     12  C   UNL A   1      31.376  25.658  25.796  1.00  0.00     0.006 A 
ATOM     13  C   UNL A   1      32.062  23.143  26.711  1.00  0.00     0.026 A 
ATOM     14  C   UNL A   1      30.381  24.737  26.127  1.00  0.00     0.026 A 
ATOM     15  C   UNL A   1      30.712  23.477  26.610  1.00  0.00     0.031 A 
BRANCH  15  16
ATOM     16  N   UNL A   1      29.720  22.547  26.867  1.00  0.00    -0.399 N 
ATOM     17  H   UNL A   1      29.509  22.297  27.795  1.00  0.00     0.156 HD
ATOM     18  H   UNL A   1      29.226  22.136  26.121  1.00  0.00     0.156 HD
ENDBRANCH  15  16
ENDBRANCH   9  10
ENDBRANCH   7   9
ENDBRANCH   4   7
ENDBRANCH   2   3
ENDBRANCH   1   2
BRANCH   1  19
ATOM     19  C   UNL A   1      31.628  32.096  26.571  1.00  0.00     0.023 C 
BRANCH  19  20
ATOM     20  C   UNL A   1      32.733  32.853  27.299  1.00  0.00     0.116 C 
BRANCH  20  21
ATOM     21  N   UNL A   1      32.375  34.217  27.663  1.00  0.00    -0.352 N 
ATOM     22  C   UNL A   1      32.951  35.033  28.614  1.00  0.00     0.251 C 
ATOM     23  H   UNL A   1      31.620  34.608  27.165  1.00  0.00     0.163 HD
ATOM     24  O   UNL A   1      32.488  36.129  28.867  1.00  0.00    -0.269 OA
BRANCH  22  25
ATOM     25  C   UNL A   1      34.123  34.524  29.361  1.00  0.00     0.039 A 
ATOM     26  C   UNL A   1      33.918  33.918  30.601  1.00  0.00     0.014 A 
ATOM     27  C   UNL A   1      35.398  34.574  28.793  1.00  0.00     0.014 A 
ATOM     28  C   UNL A   1      34.985  33.278  31.235  1.00  0.00     0.010 A 
ATOM     29  C   UNL A   1      36.438  33.868  29.385  1.00  0.00     0.010 A 
ATOM     30  C   UNL A   1      36.240  33.206  30.608  1.00  0.00    -0.014 A 
BRANCH  30  31
ATOM     31  C   UNL A   1      37.360  32.437  31.205  1.00  0.00     0.031 A 
ATOM     32  C   UNL A   1      37.874  32.799  32.568  1.00  0.00     0.074 A 
ATOM     33  C   UNL A   1      37.967  31.473  30.487  1.00  0.00     0.049 A 
ATOM     34  N   UNL A   1      38.901  32.317  33.222  1.00  0.00    -0.248 NA
ATOM     35  C   UNL A   1      37.159  33.870  33.280  1.00  0.00     0.031 C 
ATOM     36  C   UNL A   1      37.601  31.070  29.128  1.00  0.00     0.029 A 
ATOM     37  N   UNL A   1      39.034  30.666  30.795  1.00  0.00    -0.354 N 
ATOM     38  C   UNL A   1      38.964  33.038  34.406  1.00  0.00     0.074 A 
ATOM     39  C   UNL A   1      37.910  34.027  34.359  1.00  0.00     0.031 C 
ATOM     40  C   UNL A   1      38.416  30.080  28.727  1.00  0.00     0.029 A 
ATOM     41  C   UNL A   1      39.382  29.801  29.786  1.00  0.00     0.049 A 
ATOM     42  H   UNL A   1      39.506  30.702  31.658  1.00  0.00     0.167 HD
ATOM     43  C   UNL A   1      39.810  32.872  35.452  1.00  0.00     0.037 A 
ATOM     44  C   UNL A   1      40.371  28.891  29.720  1.00  0.00     0.037 A 
ATOM     45  C   UNL A   1      40.836  31.867  35.510  1.00  0.00     0.049 A 
ATOM     46  C   UNL A   1      41.285  28.712  30.902  1.00  0.00     0.074 A 
ATOM     47  C   UNL A   1      41.702  31.577  36.550  1.00  0.00     0.029 A 
ATOM     48  N   UNL A   1      41.131  30.981  34.485  1.00  0.00    -0.354 N 
ATOM     49  N   UNL A   1      41.293  29.355  32.044  1.00  0.00    -0.248 NA
ATOM     50  C   UNL A   1      42.322  27.678  30.788  1.00  0.00     0.031 C 
ATOM     51  C   UNL A   1      42.546  30.539  36.139  1.00  0.00     0.029 A 
ATOM     52  C   UNL A   1      42.177  30.153  34.860  1.00  0.00     0.049 A 
ATOM     53  H   UNL A   1      40.666  30.946  33.616  1.00  0.00     0.167 HD
ATOM     54  C   UNL A   1      42.315  28.788  32.793  1.00  0.00     0.074 A 
ATOM     55  C   UNL A   1      42.896  27.739  31.981  1.00  0.00     0.031 C 
ATOM     56  C   UNL A   1      42.735  29.109  34.042  1.00  0.00     0.037 A 
BRANCH  43  57
ATOM     57  C   UNL A   1      39.647  33.797  36.622  1.00  0.00     0.064 A 
ATOM     58  C   UNL A   1      40.271  35.054  36.657  1.00  0.00     0.173 A 
ATOM     59  C   UNL A   1      38.840  33.434  37.711  1.00  0.00     0.173 A 
ATOM     60  F   UNL A   1      41.064  35.440  35.646  1.00  0.00    -0.203 F 
ATOM     61  C   UNL A   1      40.119  35.899  37.751  1.00  0.00     0.198 A 
ATOM     62  C   UNL A   1      38.666  34.296  38.791  1.00  0.00     0.198 A 
ATOM     63  F   UNL A   1      38.217  32.246  37.727  1.00  0.00    -0.203 F 
ATOM     64  F   UNL A   1      40.768  37.071  37.784  1.00  0.00    -0.200 F 
ATOM     65  C   UNL A   1      39.312  35.523  38.814  1.00  0.00     0.200 A 
ATOM     66  F   UNL A   1      37.877  33.937  39.813  1.00  0.00    -0.200 F 
ATOM     67  F   UNL A   1      39.163  36.340  39.866  1.00  0.00    -0.200 F 
ENDBRANCH  43  57
BRANCH  44  68
ATOM     68  C   UNL A   1      40.532  28.056  28.501  1.00  0.00     0.064 A 
ATOM     69  C   UNL A   1      39.919  26.799  28.407  1.00  0.00     0.173 A 
ATOM     70  C   UNL A   1      41.298  28.494  27.411  1.00  0.00     0.173 A 
ATOM     71  F   UNL A   1      39.193  26.330  29.432  1.00  0.00    -0.203 F 
ATOM     72  C   UNL A   1      40.080  26.003  27.275  1.00  0.00     0.198 A 
ATOM     73  C   UNL A   1      41.437  27.707  26.269  1.00  0.00     0.198 A 
ATOM     74  F   UNL A   1      41.901  29.691  27.451  1.00  0.00    -0.203 F 
ATOM     75  F   UNL A   1      39.517  24.787  27.228  1.00  0.00    -0.200 F 
ATOM     76  C   UNL A   1      40.835  26.459  26.205  1.00  0.00     0.200 A 
ATOM     77  F   UNL A   1      42.157  28.157  25.232  1.00  0.00    -0.200 F 
ATOM     78  F   UNL A   1      40.988  25.695  25.115  1.00  0.00    -0.200 F 
ENDBRANCH  44  68
BRANCH  56  79
ATOM     79  C   UNL A   1      43.856  28.295  34.619  1.00  0.00     0.064 A 
ATOM     80  C   UNL A   1      45.190  28.714  34.527  1.00  0.00     0.173 A 
ATOM     81  C   UNL A   1      43.584  27.105  35.310  1.00  0.00     0.173 A 
ATOM     82  F   UNL A   1      45.501  29.838  33.863  1.00  0.00    -0.203 F 
ATOM     83  C   UNL A   1      46.215  27.959  35.089  1.00  0.00     0.198 A 
ATOM     84  C   UNL A   1      44.609  26.366  35.894  1.00  0.00     0.198 A 
ATOM     85  F   UNL A   1      42.322  26.665  35.430  1.00  0.00    -0.203 F 
ATOM     86  F   UNL A   1      47.488  28.356  34.954  1.00  0.00    -0.200 F 
ATOM     87  C   UNL A   1      45.924  26.790  35.778  1.00  0.00     0.200 A 
ATOM     88  F   UNL A   1      44.325  25.245  36.569  1.00  0.00    -0.200 F 
ATOM     89  F   UNL A   1      46.912  26.069  36.324  1.00  0.00    -0.200 F 
ENDBRANCH  56  79
ENDBRANCH  30  31
ENDBRANCH  22  25
ENDBRANCH  20  21
ENDBRANCH  19  20
ENDBRANCH   1  19
TORSDOF 14
ENDMDL
