MODEL 1
REMARK VINA RESULT:     -12.9      0.000      0.000
REMARK SMILES CS(=O)(=O)c1ccc(N2N=C(C(=O)NCCCCNC(=O)c3ccc(-c4c5nc(c(-c6c(F)c(F)c(F)c(F)c6F)c6ccc([nH]6)c(-c6c(F)c(F)c(F)c(F)c6F)c6nc(c(-c7c(F)c(F)c(F)c(F)c7F)c7ccc4[nH]7)C=C6)C=C5)cc3)C[C@H]2c2cccs2)cc1
REMARK SMILES IDX 16 1 15 2 14 3 12 4 13 5 11 7 9 8 10 9 86 10 85 11 8 12 5 13
REMARK SMILES IDX 6 14 93 15 7 16 92 17 2 18 1 19 3 20 4 21 87 22 88 23 91 24
REMARK SMILES IDX 89 25 90 26 17 27 18 28 19 29 20 30 21 32 22 33 23 34 84 35
REMARK SMILES IDX 24 36 83 37 25 38 26 39 27 40 77 41 28 42 82 43 76 44 78 45
REMARK SMILES IDX 29 46 81 47 75 48 74 49 30 51 62 52 42 53 61 54 43 55 46 56
REMARK SMILES IDX 60 57 79 58 44 59 45 60 59 62 80 63 47 64 31 65 32 66 40 67
REMARK SMILES IDX 33 68 34 69 38 70 41 71 35 72 36 73 39 74 37 75 63 76 64 77
REMARK SMILES IDX 72 78 65 79 66 80 70 81 73 82 67 83 68 84 71 85 69 86 48 87
REMARK SMILES IDX 49 88 57 89 50 90 51 91 55 92 58 93 52 94 53 95 56 96 54 97
REMARK H PARENT 14 6 19 31 78 50 46 61
REMARK Flexibility Score: inf
ROOT
ATOM      1  C   UNL A   1      31.532  27.963  26.950  1.00  0.00     0.023 C 
ENDROOT
BRANCH   1   2
ATOM      2  C   UNL A   1      31.728  26.523  26.497  1.00  0.00     0.116 C 
BRANCH   2   3
ATOM      3  N   UNL A   1      30.772  26.148  25.475  1.00  0.00    -0.351 N 
ATOM      4  C   UNL A   1      30.772  25.236  24.450  1.00  0.00     0.267 C 
ATOM      5  O   UNL A   1      29.802  25.237  23.696  1.00  0.00    -0.268 OA
ATOM      6  H   UNL A   1      29.935  26.665  25.527  1.00  0.00     0.163 HD
BRANCH   4   7
ATOM      7  C   UNL A   1      31.869  24.205  24.222  1.00  0.00     0.128 C 
ATOM      8  N   UNL A   1      32.936  22.367  24.441  1.00  0.00    -0.256 N 
ATOM      9  N   UNL A   1      31.742  22.985  24.654  1.00  0.00    -0.171 NA
ATOM     10  C   UNL A   1      33.916  23.201  23.739  1.00  0.00     0.154 C 
ATOM     11  C   UNL A   1      33.127  24.482  23.473  1.00  0.00     0.097 C 
BRANCH   8  12
ATOM     12  C   UNL A   1      33.028  20.978  24.384  1.00  0.00     0.060 A 
ATOM     13  C   UNL A   1      33.389  18.198  24.182  1.00  0.00     0.067 A 
ATOM     14  C   UNL A   1      32.498  18.844  23.324  1.00  0.00     0.022 A 
ATOM     15  C   UNL A   1      34.065  18.917  25.166  1.00  0.00     0.022 A 
ATOM     16  C   UNL A   1      32.312  20.229  23.440  1.00  0.00     0.029 A 
ATOM     17  C   UNL A   1      33.879  20.295  25.261  1.00  0.00     0.029 A 
BRANCH  13  18
ATOM     18  S   UNL A   1      33.705  16.455  24.073  1.00  0.00     0.175 S 
ATOM     19  C   UNL A   1      35.082  16.115  25.127  1.00  0.00     0.163 C 
ATOM     20  O   UNL A   1      34.141  16.192  22.711  1.00  0.00    -0.224 OA
ATOM     21  O   UNL A   1      32.539  15.794  24.623  1.00  0.00    -0.224 OA
ENDBRANCH  13  18
ENDBRANCH   8  12
BRANCH  10  22
ATOM     22  C   UNL A   1      35.243  23.442  24.438  1.00  0.00     0.030 A 
ATOM     23  C   UNL A   1      35.437  24.071  25.657  1.00  0.00     0.017 A 
ATOM     24  S   UNL A   1      36.752  22.977  23.755  1.00  0.00    -0.147 S 
ATOM     25  C   UNL A   1      36.806  24.131  26.039  1.00  0.00     0.012 A 
ATOM     26  C   UNL A   1      37.623  23.517  25.119  1.00  0.00     0.065 A 
ENDBRANCH  10  22
ENDBRANCH   4   7
ENDBRANCH   2   3
ENDBRANCH   1   2
BRANCH   1  27
ATOM     27  C   UNL A   1      31.697  28.997  25.841  1.00  0.00     0.023 C 
BRANCH  27  28
ATOM     28  C   UNL A   1      32.961  29.843  25.938  1.00  0.00     0.116 C 
BRANCH  28  29
ATOM     29  N   UNL A   1      32.711  31.205  26.392  1.00  0.00    -0.352 N 
ATOM     30  C   UNL A   1      33.436  31.963  27.279  1.00  0.00     0.251 C 
ATOM     31  H   UNL A   1      31.914  31.640  26.012  1.00  0.00     0.163 HD
ATOM     32  O   UNL A   1      33.020  33.053  27.655  1.00  0.00    -0.269 OA
BRANCH  30  33
ATOM     33  C   UNL A   1      34.707  31.429  27.803  1.00  0.00     0.039 A 
ATOM     34  C   UNL A   1      35.787  32.297  27.974  1.00  0.00     0.014 A 
ATOM     35  C   UNL A   1      34.807  30.088  28.182  1.00  0.00     0.014 A 
ATOM     36  C   UNL A   1      36.944  31.835  28.602  1.00  0.00     0.010 A 
ATOM     37  C   UNL A   1      35.922  29.655  28.888  1.00  0.00     0.010 A 
ATOM     38  C   UNL A   1      37.003  30.524  29.105  1.00  0.00    -0.014 A 
BRANCH  38  39
ATOM     39  C   UNL A   1      38.186  30.043  29.862  1.00  0.00     0.031 A 
ATOM     40  C   UNL A   1      38.433  30.532  31.262  1.00  0.00     0.074 A 
ATOM     41  C   UNL A   1      39.072  29.222  29.265  1.00  0.00     0.049 A 
ATOM     42  N   UNL A   1      39.437  30.280  32.062  1.00  0.00    -0.248 NA
ATOM     43  C   UNL A   1      37.433  31.451  31.828  1.00  0.00     0.031 C 
ATOM     44  C   UNL A   1      38.971  28.722  27.892  1.00  0.00     0.029 A 
ATOM     45  N   UNL A   1      40.237  28.669  29.734  1.00  0.00    -0.354 N 
ATOM     46  C   UNL A   1      39.195  31.016  33.214  1.00  0.00     0.074 A 
ATOM     47  C   UNL A   1      37.985  31.774  32.987  1.00  0.00     0.031 C 
ATOM     48  C   UNL A   1      40.015  27.917  27.639  1.00  0.00     0.029 A 
ATOM     49  C   UNL A   1      40.880  27.877  28.814  1.00  0.00     0.049 A 
ATOM     50  H   UNL A   1      40.580  28.825  30.643  1.00  0.00     0.167 HD
ATOM     51  C   UNL A   1      39.905  31.037  34.367  1.00  0.00     0.037 A 
ATOM     52  C   UNL A   1      42.043  27.203  28.904  1.00  0.00     0.037 A 
ATOM     53  C   UNL A   1      41.098  30.264  34.595  1.00  0.00     0.049 A 
ATOM     54  C   UNL A   1      42.819  27.255  30.194  1.00  0.00     0.074 A 
ATOM     55  C   UNL A   1      41.854  30.167  35.748  1.00  0.00     0.029 A 
ATOM     56  N   UNL A   1      41.712  29.462  33.644  1.00  0.00    -0.354 N 
ATOM     57  N   UNL A   1      42.538  27.889  31.306  1.00  0.00    -0.248 NA
ATOM     58  C   UNL A   1      44.072  26.488  30.243  1.00  0.00     0.031 C 
ATOM     59  C   UNL A   1      42.960  29.355  35.479  1.00  0.00     0.029 A 
ATOM     60  C   UNL A   1      42.856  28.890  34.177  1.00  0.00     0.049 A 
ATOM     61  H   UNL A   1      41.385  29.320  32.726  1.00  0.00     0.167 HD
ATOM     62  C   UNL A   1      43.558  27.575  32.194  1.00  0.00     0.074 A 
ATOM     63  C   UNL A   1      44.456  26.678  31.496  1.00  0.00     0.031 C 
ATOM     64  C   UNL A   1      43.736  27.992  33.472  1.00  0.00     0.037 A 
BRANCH  51  65
ATOM     65  C   UNL A   1      39.409  31.925  35.474  1.00  0.00     0.064 A 
ATOM     66  C   UNL A   1      38.496  31.467  36.436  1.00  0.00     0.173 A 
ATOM     67  C   UNL A   1      39.883  33.241  35.594  1.00  0.00     0.173 A 
ATOM     68  F   UNL A   1      38.002  30.222  36.360  1.00  0.00    -0.203 F 
ATOM     69  C   UNL A   1      38.051  32.302  37.458  1.00  0.00     0.198 A 
ATOM     70  C   UNL A   1      39.463  34.061  36.638  1.00  0.00     0.198 A 
ATOM     71  F   UNL A   1      40.760  33.729  34.706  1.00  0.00    -0.203 F 
ATOM     72  F   UNL A   1      37.137  31.860  38.331  1.00  0.00    -0.200 F 
ATOM     73  C   UNL A   1      38.542  33.595  37.563  1.00  0.00     0.200 A 
ATOM     74  F   UNL A   1      39.949  35.305  36.747  1.00  0.00    -0.200 F 
ATOM     75  F   UNL A   1      38.120  34.394  38.554  1.00  0.00    -0.200 F 
ENDBRANCH  51  65
BRANCH  52  76
ATOM     76  C   UNL A   1      42.537  26.408  27.749  1.00  0.00     0.064 A 
ATOM     77  C   UNL A   1      43.443  26.954  26.829  1.00  0.00     0.173 A 
ATOM     78  C   UNL A   1      42.104  25.092  27.530  1.00  0.00     0.173 A 
ATOM     79  F   UNL A   1      43.875  28.216  26.983  1.00  0.00    -0.203 F 
ATOM     80  C   UNL A   1      43.875  26.227  25.722  1.00  0.00     0.198 A 
ATOM     81  C   UNL A   1      42.562  24.352  26.441  1.00  0.00     0.198 A 
ATOM     82  F   UNL A   1      41.242  24.517  28.382  1.00  0.00    -0.203 F 
ATOM     83  F   UNL A   1      44.698  26.794  24.830  1.00  0.00    -0.200 F 
ATOM     84  C   UNL A   1      43.438  24.925  25.532  1.00  0.00     0.200 A 
ATOM     85  F   UNL A   1      42.151  23.089  26.270  1.00  0.00    -0.200 F 
ATOM     86  F   UNL A   1      43.855  24.225  24.468  1.00  0.00    -0.200 F 
ENDBRANCH  52  76
BRANCH  64  87
ATOM     87  C   UNL A   1      44.923  27.450  34.217  1.00  0.00     0.064 A 
ATOM     88  C   UNL A   1      44.862  26.246  34.935  1.00  0.00     0.173 A 
ATOM     89  C   UNL A   1      46.152  28.128  34.177  1.00  0.00     0.173 A 
ATOM     90  F   UNL A   1      43.708  25.566  35.016  1.00  0.00    -0.203 F 
ATOM     91  C   UNL A   1      45.977  25.758  35.611  1.00  0.00     0.198 A 
ATOM     92  C   UNL A   1      47.274  27.618  34.824  1.00  0.00     0.198 A 
ATOM     93  F   UNL A   1      46.268  29.279  33.498  1.00  0.00    -0.203 F 
ATOM     94  F   UNL A   1      45.880  24.636  36.335  1.00  0.00    -0.200 F 
ATOM     95  C   UNL A   1      47.184  26.439  35.548  1.00  0.00     0.200 A 
ATOM     96  F   UNL A   1      48.443  28.269  34.746  1.00  0.00    -0.200 F 
ATOM     97  F   UNL A   1      48.258  25.962  36.190  1.00  0.00    -0.200 F 
ENDBRANCH  64  87
ENDBRANCH  38  39
ENDBRANCH  30  33
ENDBRANCH  28  29
ENDBRANCH  27  28
ENDBRANCH   1  27
TORSDOF 14
ENDMDL
MODEL 2
REMARK VINA RESULT:     -12.8      2.778      3.780
REMARK SMILES CS(=O)(=O)c1ccc(N2N=C(C(=O)NCCCCNC(=O)c3ccc(-c4c5nc(c(-c6c(F)c(F)c(F)c(F)c6F)c6ccc([nH]6)c(-c6c(F)c(F)c(F)c(F)c6F)c6nc(c(-c7c(F)c(F)c(F)c(F)c7F)c7ccc4[nH]7)C=C6)C=C5)cc3)C[C@H]2c2cccs2)cc1
REMARK SMILES IDX 16 1 15 2 14 3 12 4 13 5 11 7 9 8 10 9 86 10 85 11 8 12 5 13
REMARK SMILES IDX 6 14 93 15 7 16 92 17 2 18 1 19 3 20 4 21 87 22 88 23 91 24
REMARK SMILES IDX 89 25 90 26 17 27 18 28 19 29 20 30 21 32 22 33 23 34 84 35
REMARK SMILES IDX 24 36 83 37 25 38 26 39 27 40 77 41 28 42 82 43 76 44 78 45
REMARK SMILES IDX 29 46 81 47 75 48 74 49 30 51 62 52 42 53 61 54 43 55 46 56
REMARK SMILES IDX 60 57 79 58 44 59 45 60 59 62 80 63 47 64 31 65 32 66 40 67
REMARK SMILES IDX 33 68 34 69 38 70 41 71 35 72 36 73 39 74 37 75 63 76 64 77
REMARK SMILES IDX 72 78 65 79 66 80 70 81 73 82 67 83 68 84 71 85 69 86 48 87
REMARK SMILES IDX 49 88 57 89 50 90 51 91 55 92 58 93 52 94 53 95 56 96 54 97
REMARK H PARENT 14 6 19 31 78 50 46 61
REMARK Flexibility Score: inf
ROOT
ATOM      1  C   UNL A   1      31.400  27.526  26.685  1.00  0.00     0.023 C 
ENDROOT
BRANCH   1   2
ATOM      2  C   UNL A   1      31.360  26.032  26.397  1.00  0.00     0.116 C 
BRANCH   2   3
ATOM      3  N   UNL A   1      30.598  25.738  25.201  1.00  0.00    -0.351 N 
ATOM      4  C   UNL A   1      30.788  24.914  24.121  1.00  0.00     0.267 C 
ATOM      5  O   UNL A   1      29.959  24.972  23.215  1.00  0.00    -0.268 OA
ATOM      6  H   UNL A   1      29.754  26.244  25.152  1.00  0.00     0.163 HD
BRANCH   4   7
ATOM      7  C   UNL A   1      31.927  23.911  23.999  1.00  0.00     0.128 C 
ATOM      8  N   UNL A   1      33.032  22.116  24.349  1.00  0.00    -0.256 N 
ATOM      9  N   UNL A   1      31.809  22.702  24.463  1.00  0.00    -0.171 NA
ATOM     10  C   UNL A   1      34.031  22.958  23.685  1.00  0.00     0.154 C 
ATOM     11  C   UNL A   1      33.224  24.205  23.324  1.00  0.00     0.097 C 
BRANCH   8  12
ATOM     12  C   UNL A   1      33.169  20.730  24.345  1.00  0.00     0.060 A 
ATOM     13  C   UNL A   1      33.589  17.954  24.205  1.00  0.00     0.067 A 
ATOM     14  C   UNL A   1      32.475  18.518  23.581  1.00  0.00     0.022 A 
ATOM     15  C   UNL A   1      34.467  18.754  24.934  1.00  0.00     0.022 A 
ATOM     16  C   UNL A   1      32.264  19.900  23.667  1.00  0.00     0.029 A 
ATOM     17  C   UNL A   1      34.250  20.129  25.001  1.00  0.00     0.029 A 
BRANCH  13  18
ATOM     18  S   UNL A   1      33.943  16.218  24.111  1.00  0.00     0.175 S 
ATOM     19  C   UNL A   1      35.314  15.914  25.185  1.00  0.00     0.163 C 
ATOM     20  O   UNL A   1      34.403  15.956  22.757  1.00  0.00    -0.224 OA
ATOM     21  O   UNL A   1      32.785  15.535  24.650  1.00  0.00    -0.224 OA
ENDBRANCH  13  18
ENDBRANCH   8  12
BRANCH  10  22
ATOM     22  C   UNL A   1      35.301  23.263  24.460  1.00  0.00     0.030 A 
ATOM     23  C   UNL A   1      35.397  23.958  25.655  1.00  0.00     0.017 A 
ATOM     24  S   UNL A   1      36.863  22.796  23.909  1.00  0.00    -0.147 S 
ATOM     25  C   UNL A   1      36.736  24.067  26.127  1.00  0.00     0.012 A 
ATOM     26  C   UNL A   1      37.626  23.424  25.299  1.00  0.00     0.065 A 
ENDBRANCH  10  22
ENDBRANCH   4   7
ENDBRANCH   2   3
ENDBRANCH   1   2
BRANCH   1  27
ATOM     27  C   UNL A   1      32.654  28.229  26.175  1.00  0.00     0.023 C 
BRANCH  27  28
ATOM     28  C   UNL A   1      33.674  28.581  27.251  1.00  0.00     0.116 C 
BRANCH  28  29
ATOM     29  N   UNL A   1      33.655  29.988  27.628  1.00  0.00    -0.352 N 
ATOM     30  C   UNL A   1      34.646  30.734  28.218  1.00  0.00     0.251 C 
ATOM     31  H   UNL A   1      32.819  30.469  27.432  1.00  0.00     0.163 HD
ATOM     32  O   UNL A   1      34.427  31.882  28.589  1.00  0.00    -0.269 OA
BRANCH  30  33
ATOM     33  C   UNL A   1      35.969  30.120  28.436  1.00  0.00     0.039 A 
ATOM     34  C   UNL A   1      36.908  30.152  27.404  1.00  0.00     0.014 A 
ATOM     35  C   UNL A   1      36.298  29.572  29.678  1.00  0.00     0.014 A 
ATOM     36  C   UNL A   1      38.207  29.703  27.645  1.00  0.00     0.010 A 
ATOM     37  C   UNL A   1      37.613  29.213  29.944  1.00  0.00     0.010 A 
ATOM     38  C   UNL A   1      38.581  29.274  28.930  1.00  0.00    -0.014 A 
BRANCH  38  39
ATOM     39  C   UNL A   1      39.982  28.886  29.233  1.00  0.00     0.031 A 
ATOM     40  C   UNL A   1      40.877  29.829  29.988  1.00  0.00     0.074 A 
ATOM     41  C   UNL A   1      40.466  27.717  28.769  1.00  0.00     0.049 A 
ATOM     42  N   UNL A   1      42.143  29.701  30.296  1.00  0.00    -0.248 NA
ATOM     43  C   UNL A   1      40.278  31.098  30.431  1.00  0.00     0.031 C 
ATOM     44  C   UNL A   1      39.712  26.743  27.977  1.00  0.00     0.029 A 
ATOM     45  N   UNL A   1      41.711  27.153  28.890  1.00  0.00    -0.354 N 
ATOM     46  C   UNL A   1      42.491  30.873  30.954  1.00  0.00     0.074 A 
ATOM     47  C   UNL A   1      41.324  31.727  30.946  1.00  0.00     0.031 C 
ATOM     48  C   UNL A   1      40.501  25.692  27.706  1.00  0.00     0.029 A 
ATOM     49  C   UNL A   1      41.827  25.934  28.266  1.00  0.00     0.049 A 
ATOM     50  H   UNL A   1      42.452  27.580  29.377  1.00  0.00     0.167 HD
ATOM     51  C   UNL A   1      43.670  31.197  31.535  1.00  0.00     0.037 A 
ATOM     52  C   UNL A   1      42.887  25.111  28.150  1.00  0.00     0.037 A 
ATOM     53  C   UNL A   1      44.822  30.334  31.558  1.00  0.00     0.049 A 
ATOM     54  C   UNL A   1      44.190  25.502  28.794  1.00  0.00     0.074 A 
ATOM     55  C   UNL A   1      46.042  30.542  32.175  1.00  0.00     0.029 A 
ATOM     56  N   UNL A   1      44.897  29.101  30.928  1.00  0.00    -0.354 N 
ATOM     57  N   UNL A   1      44.484  26.576  29.485  1.00  0.00    -0.248 NA
ATOM     58  C   UNL A   1      45.308  24.559  28.650  1.00  0.00     0.031 C 
ATOM     59  C   UNL A   1      46.877  29.464  31.867  1.00  0.00     0.029 A 
ATOM     60  C   UNL A   1      46.155  28.550  31.115  1.00  0.00     0.049 A 
ATOM     61  H   UNL A   1      44.166  28.679  30.421  1.00  0.00     0.167 HD
ATOM     62  C   UNL A   1      45.806  26.426  29.883  1.00  0.00     0.074 A 
ATOM     63  C   UNL A   1      46.251  25.146  29.371  1.00  0.00     0.031 C 
ATOM     64  C   UNL A   1      46.581  27.270  30.606  1.00  0.00     0.037 A 
BRANCH  51  65
ATOM     65  C   UNL A   1      43.774  32.542  32.197  1.00  0.00     0.064 A 
ATOM     66  C   UNL A   1      43.419  32.734  33.541  1.00  0.00     0.173 A 
ATOM     67  C   UNL A   1      44.271  33.646  31.486  1.00  0.00     0.173 A 
ATOM     68  F   UNL A   1      42.927  31.716  34.262  1.00  0.00    -0.203 F 
ATOM     69  C   UNL A   1      43.528  33.988  34.139  1.00  0.00     0.198 A 
ATOM     70  C   UNL A   1      44.412  34.888  32.098  1.00  0.00     0.198 A 
ATOM     71  F   UNL A   1      44.630  33.518  30.200  1.00  0.00    -0.203 F 
ATOM     72  F   UNL A   1      43.130  34.159  35.407  1.00  0.00    -0.200 F 
ATOM     73  C   UNL A   1      44.032  35.061  33.420  1.00  0.00     0.200 A 
ATOM     74  F   UNL A   1      44.912  35.921  31.406  1.00  0.00    -0.200 F 
ATOM     75  F   UNL A   1      44.144  36.264  34.001  1.00  0.00    -0.200 F 
ENDBRANCH  51  65
BRANCH  52  76
ATOM     76  C   UNL A   1      42.758  23.828  27.409  1.00  0.00     0.064 A 
ATOM     77  C   UNL A   1      42.266  22.675  28.038  1.00  0.00     0.173 A 
ATOM     78  C   UNL A   1      43.138  23.721  26.062  1.00  0.00     0.173 A 
ATOM     79  F   UNL A   1      41.906  22.720  29.330  1.00  0.00    -0.203 F 
ATOM     80  C   UNL A   1      42.184  21.462  27.359  1.00  0.00     0.198 A 
ATOM     81  C   UNL A   1      43.024  22.514  25.374  1.00  0.00     0.198 A 
ATOM     82  F   UNL A   1      43.609  24.794  25.410  1.00  0.00    -0.203 F 
ATOM     83  F   UNL A   1      41.762  20.364  28.002  1.00  0.00    -0.200 F 
ATOM     84  C   UNL A   1      42.559  21.384  26.026  1.00  0.00     0.200 A 
ATOM     85  F   UNL A   1      43.370  22.447  24.081  1.00  0.00    -0.200 F 
ATOM     86  F   UNL A   1      42.478  20.216  25.373  1.00  0.00    -0.200 F 
ENDBRANCH  52  76
BRANCH  64  87
ATOM     87  C   UNL A   1      47.979  26.822  30.926  1.00  0.00     0.064 A 
ATOM     88  C   UNL A   1      48.259  25.986  32.017  1.00  0.00     0.173 A 
ATOM     89  C   UNL A   1      49.051  27.206  30.104  1.00  0.00     0.173 A 
ATOM     90  F   UNL A   1      47.273  25.602  32.843  1.00  0.00    -0.203 F 
ATOM     91  C   UNL A   1      49.560  25.576  32.290  1.00  0.00     0.198 A 
ATOM     92  C   UNL A   1      50.346  26.764  30.358  1.00  0.00     0.198 A 
ATOM     93  F   UNL A   1      48.838  27.999  29.042  1.00  0.00    -0.203 F 
ATOM     94  F   UNL A   1      49.811  24.822  33.369  1.00  0.00    -0.200 F 
ATOM     95  C   UNL A   1      50.602  25.957  31.456  1.00  0.00     0.200 A 
ATOM     96  F   UNL A   1      51.345  27.120  29.540  1.00  0.00    -0.200 F 
ATOM     97  F   UNL A   1      51.852  25.553  31.715  1.00  0.00    -0.200 F 
ENDBRANCH  64  87
ENDBRANCH  38  39
ENDBRANCH  30  33
ENDBRANCH  28  29
ENDBRANCH  27  28
ENDBRANCH   1  27
TORSDOF 14
ENDMDL
MODEL 3
REMARK VINA RESULT:     -12.8      1.378      2.206
REMARK SMILES CS(=O)(=O)c1ccc(N2N=C(C(=O)NCCCCNC(=O)c3ccc(-c4c5nc(c(-c6c(F)c(F)c(F)c(F)c6F)c6ccc([nH]6)c(-c6c(F)c(F)c(F)c(F)c6F)c6nc(c(-c7c(F)c(F)c(F)c(F)c7F)c7ccc4[nH]7)C=C6)C=C5)cc3)C[C@H]2c2cccs2)cc1
REMARK SMILES IDX 16 1 15 2 14 3 12 4 13 5 11 7 9 8 10 9 86 10 85 11 8 12 5 13
REMARK SMILES IDX 6 14 93 15 7 16 92 17 2 18 1 19 3 20 4 21 87 22 88 23 91 24
REMARK SMILES IDX 89 25 90 26 17 27 18 28 19 29 20 30 21 32 22 33 23 34 84 35
REMARK SMILES IDX 24 36 83 37 25 38 26 39 27 40 77 41 28 42 82 43 76 44 78 45
REMARK SMILES IDX 29 46 81 47 75 48 74 49 30 51 62 52 42 53 61 54 43 55 46 56
REMARK SMILES IDX 60 57 79 58 44 59 45 60 59 62 80 63 47 64 31 65 32 66 40 67
REMARK SMILES IDX 33 68 34 69 38 70 41 71 35 72 36 73 39 74 37 75 63 76 64 77
REMARK SMILES IDX 72 78 65 79 66 80 70 81 73 82 67 83 68 84 71 85 69 86 48 87
REMARK SMILES IDX 49 88 57 89 50 90 51 91 55 92 58 93 52 94 53 95 56 96 54 97
REMARK H PARENT 14 6 19 31 78 50 46 61
REMARK Flexibility Score: inf
ROOT
ATOM      1  C   UNL A   1      32.207  28.756  23.505  1.00  0.00     0.023 C 
ENDROOT
BRANCH   1   2
ATOM      2  C   UNL A   1      33.474  27.986  23.161  1.00  0.00     0.116 C 
BRANCH   2   3
ATOM      3  N   UNL A   1      33.304  27.181  21.969  1.00  0.00    -0.351 N 
ATOM      4  C   UNL A   1      33.174  25.836  21.731  1.00  0.00     0.267 C 
ATOM      5  O   UNL A   1      33.132  25.474  20.557  1.00  0.00    -0.268 OA
ATOM      6  H   UNL A   1      33.277  27.719  21.145  1.00  0.00     0.163 HD
BRANCH   4   7
ATOM      7  C   UNL A   1      33.036  24.783  22.822  1.00  0.00     0.128 C 
ATOM      8  N   UNL A   1      32.668  22.865  23.688  1.00  0.00    -0.256 N 
ATOM      9  N   UNL A   1      32.939  23.520  22.526  1.00  0.00    -0.171 NA
ATOM     10  C   UNL A   1      32.663  23.732  24.869  1.00  0.00     0.154 C 
ATOM     11  C   UNL A   1      33.038  25.092  24.280  1.00  0.00     0.097 C 
BRANCH   8  12
ATOM     12  C   UNL A   1      32.920  21.501  23.820  1.00  0.00     0.060 A 
ATOM     13  C   UNL A   1      33.578  18.772  23.964  1.00  0.00     0.067 A 
ATOM     14  C   UNL A   1      32.469  19.178  23.220  1.00  0.00     0.022 A 
ATOM     15  C   UNL A   1      34.333  19.707  24.671  1.00  0.00     0.022 A 
ATOM     16  C   UNL A   1      32.138  20.539  23.165  1.00  0.00     0.029 A 
ATOM     17  C   UNL A   1      33.997  21.058  24.596  1.00  0.00     0.029 A 
BRANCH  13  18
ATOM     18  S   UNL A   1      34.082  17.073  24.052  1.00  0.00     0.175 S 
ATOM     19  C   UNL A   1      32.865  16.225  25.015  1.00  0.00     0.163 C 
ATOM     20  O   UNL A   1      35.320  17.040  24.815  1.00  0.00    -0.224 OA
ATOM     21  O   UNL A   1      34.027  16.559  22.699  1.00  0.00    -0.224 OA
ENDBRANCH  13  18
ENDBRANCH   8  12
BRANCH  10  22
ATOM     22  C   UNL A   1      31.389  23.763  25.696  1.00  0.00     0.030 A 
ATOM     23  C   UNL A   1      30.840  22.712  26.413  1.00  0.00     0.017 A 
ATOM     24  S   UNL A   1      30.395  25.161  25.823  1.00  0.00    -0.147 S 
ATOM     25  C   UNL A   1      29.640  23.070  27.090  1.00  0.00     0.012 A 
ATOM     26  C   UNL A   1      29.319  24.393  26.901  1.00  0.00     0.065 A 
ENDBRANCH  10  22
ENDBRANCH   4   7
ENDBRANCH   2   3
ENDBRANCH   1   2
BRANCH   1  27
ATOM     27  C   UNL A   1      31.934  28.878  25.001  1.00  0.00     0.023 C 
BRANCH  27  28
ATOM     28  C   UNL A   1      33.056  29.524  25.805  1.00  0.00     0.116 C 
BRANCH  28  29
ATOM     29  N   UNL A   1      32.726  30.859  26.286  1.00  0.00    -0.352 N 
ATOM     30  C   UNL A   1      33.398  31.635  27.200  1.00  0.00     0.251 C 
ATOM     31  H   UNL A   1      31.913  31.260  25.904  1.00  0.00     0.163 HD
ATOM     32  O   UNL A   1      32.919  32.692  27.594  1.00  0.00    -0.269 OA
BRANCH  30  33
ATOM     33  C   UNL A   1      34.689  31.157  27.731  1.00  0.00     0.039 A 
ATOM     34  C   UNL A   1      35.724  32.075  27.920  1.00  0.00     0.014 A 
ATOM     35  C   UNL A   1      34.850  29.819  28.099  1.00  0.00     0.014 A 
ATOM     36  C   UNL A   1      36.897  31.663  28.553  1.00  0.00     0.010 A 
ATOM     37  C   UNL A   1      35.979  29.434  28.811  1.00  0.00     0.010 A 
ATOM     38  C   UNL A   1      37.014  30.351  29.045  1.00  0.00    -0.014 A 
BRANCH  38  39
ATOM     39  C   UNL A   1      38.213  29.921  29.808  1.00  0.00     0.031 A 
ATOM     40  C   UNL A   1      38.444  30.439  31.200  1.00  0.00     0.074 A 
ATOM     41  C   UNL A   1      39.125  29.121  29.222  1.00  0.00     0.049 A 
ATOM     42  N   UNL A   1      39.456  30.231  32.004  1.00  0.00    -0.248 NA
ATOM     43  C   UNL A   1      37.414  31.333  31.753  1.00  0.00     0.031 C 
ATOM     44  C   UNL A   1      39.040  28.598  27.857  1.00  0.00     0.029 A 
ATOM     45  N   UNL A   1      40.308  28.614  29.698  1.00  0.00    -0.354 N 
ATOM     46  C   UNL A   1      39.191  30.976  33.144  1.00  0.00     0.074 A 
ATOM     47  C   UNL A   1      37.956  31.691  32.907  1.00  0.00     0.031 C 
ATOM     48  C   UNL A   1      40.110  27.824  27.616  1.00  0.00     0.029 A 
ATOM     49  C   UNL A   1      40.976  27.829  28.790  1.00  0.00     0.049 A 
ATOM     50  H   UNL A   1      40.646  28.794  30.605  1.00  0.00     0.167 HD
ATOM     51  C   UNL A   1      39.900  31.038  34.296  1.00  0.00     0.037 A 
ATOM     52  C   UNL A   1      42.161  27.195  28.889  1.00  0.00     0.037 A 
ATOM     53  C   UNL A   1      41.117  30.308  34.534  1.00  0.00     0.049 A 
ATOM     54  C   UNL A   1      42.935  27.292  30.177  1.00  0.00     0.074 A 
ATOM     55  C   UNL A   1      41.877  30.253  35.689  1.00  0.00     0.029 A 
ATOM     56  N   UNL A   1      41.757  29.512  33.595  1.00  0.00    -0.354 N 
ATOM     57  N   UNL A   1      42.634  27.933  31.280  1.00  0.00    -0.248 NA
ATOM     58  C   UNL A   1      44.212  26.567  30.237  1.00  0.00     0.031 C 
ATOM     59  C   UNL A   1      43.009  29.473  35.430  1.00  0.00     0.029 A 
ATOM     60  C   UNL A   1      42.920  28.986  34.135  1.00  0.00     0.049 A 
ATOM     61  H   UNL A   1      41.435  29.346  32.680  1.00  0.00     0.167 HD
ATOM     62  C   UNL A   1      43.664  27.666  32.172  1.00  0.00     0.074 A 
ATOM     63  C   UNL A   1      44.590  26.788  31.487  1.00  0.00     0.031 C 
ATOM     64  C   UNL A   1      43.828  28.106  33.444  1.00  0.00     0.037 A 
BRANCH  51  65
ATOM     65  C   UNL A   1      39.375  31.925  35.390  1.00  0.00     0.064 A 
ATOM     66  C   UNL A   1      38.504  31.443  36.379  1.00  0.00     0.173 A 
ATOM     67  C   UNL A   1      39.780  33.267  35.471  1.00  0.00     0.173 A 
ATOM     68  F   UNL A   1      38.076  30.172  36.341  1.00  0.00    -0.203 F 
ATOM     69  C   UNL A   1      38.032  32.279  37.389  1.00  0.00     0.198 A 
ATOM     70  C   UNL A   1      39.335  34.089  36.502  1.00  0.00     0.198 A 
ATOM     71  F   UNL A   1      40.616  33.779  34.556  1.00  0.00    -0.203 F 
ATOM     72  F   UNL A   1      37.157  31.811  38.288  1.00  0.00    -0.200 F 
ATOM     73  C   UNL A   1      38.455  33.598  37.454  1.00  0.00     0.200 A 
ATOM     74  F   UNL A   1      39.755  35.360  36.573  1.00  0.00    -0.200 F 
ATOM     75  F   UNL A   1      38.007  34.398  38.432  1.00  0.00    -0.200 F 
ENDBRANCH  51  65
BRANCH  52  76
ATOM     76  C   UNL A   1      42.680  26.399  27.746  1.00  0.00     0.064 A 
ATOM     77  C   UNL A   1      43.579  26.957  26.826  1.00  0.00     0.173 A 
ATOM     78  C   UNL A   1      42.279  25.071  27.538  1.00  0.00     0.173 A 
ATOM     79  F   UNL A   1      43.981  28.229  26.969  1.00  0.00    -0.203 F 
ATOM     80  C   UNL A   1      44.035  26.228  25.729  1.00  0.00     0.198 A 
ATOM     81  C   UNL A   1      42.761  24.331  26.459  1.00  0.00     0.198 A 
ATOM     82  F   UNL A   1      41.425  24.486  28.391  1.00  0.00    -0.203 F 
ATOM     83  F   UNL A   1      44.850  26.805  24.836  1.00  0.00    -0.200 F 
ATOM     84  C   UNL A   1      43.629  24.914  25.550  1.00  0.00     0.200 A 
ATOM     85  F   UNL A   1      42.380  23.057  26.300  1.00  0.00    -0.200 F 
ATOM     86  F   UNL A   1      44.069  24.213  24.496  1.00  0.00    -0.200 F 
ENDBRANCH  52  76
BRANCH  64  87
ATOM     87  C   UNL A   1      45.033  27.615  34.195  1.00  0.00     0.064 A 
ATOM     88  C   UNL A   1      46.245  28.321  34.196  1.00  0.00     0.173 A 
ATOM     89  C   UNL A   1      44.959  26.439  34.958  1.00  0.00     0.173 A 
ATOM     90  F   UNL A   1      46.373  29.444  33.472  1.00  0.00    -0.203 F 
ATOM     91  C   UNL A   1      47.346  27.852  34.906  1.00  0.00     0.198 A 
ATOM     92  C   UNL A   1      46.051  25.992  35.697  1.00  0.00     0.198 A 
ATOM     93  F   UNL A   1      43.821  25.729  34.999  1.00  0.00    -0.203 F 
ATOM     94  F   UNL A   1      48.510  28.513  34.848  1.00  0.00    -0.200 F 
ATOM     95  C   UNL A   1      47.247  26.693  35.663  1.00  0.00     0.200 A 
ATOM     96  F   UNL A   1      45.945  24.883  36.440  1.00  0.00    -0.200 F 
ATOM     97  F   UNL A   1      48.305  26.249  36.354  1.00  0.00    -0.200 F 
ENDBRANCH  64  87
ENDBRANCH  38  39
ENDBRANCH  30  33
ENDBRANCH  28  29
ENDBRANCH  27  28
ENDBRANCH   1  27
TORSDOF 14
ENDMDL
