MODEL 1
REMARK VINA RESULT:     -14.0      0.000      0.000
REMARK SMILES Cc1ccc([C@H](C)Nc2ccc(C(=O)NCCCCNC(=O)c3ccc(-c4c5nc(c(-c6c(F)c(F)c(F)c(F)c6F)c6ccc([nH]6)c(-c6c(F)c(F)c(F)c(F)c6F)c6nc(c(-c7c(F)c(F)c(F)c(F)c7F)c7ccc4[nH]7)C=C6)C=C5)cc3)cc2Cl)cc1F
REMARK SMILES IDX 17 1 16 2 15 3 13 4 14 5 12 7 9 8 10 9 87 10 11 11 86 12
REMARK SMILES IDX 88 13 8 14 6 16 7 17 5 18 1 19 2 20 3 21 90 22 4 23 89 24
REMARK SMILES IDX 91 25 18 26 19 27 20 28 21 29 22 31 23 32 24 33 85 34 25 35
REMARK SMILES IDX 84 36 26 37 27 38 28 39 78 40 29 41 83 42 77 43 79 44 30 45
REMARK SMILES IDX 82 46 76 47 75 48 31 50 63 51 43 52 62 53 44 54 47 55 61 56
REMARK SMILES IDX 80 57 45 58 46 59 60 61 81 62 48 63 32 64 33 65 41 66 34 67
REMARK SMILES IDX 35 68 39 69 42 70 36 71 37 72 40 73 38 74 64 75 65 76 73 77
REMARK SMILES IDX 66 78 67 79 71 80 74 81 68 82 69 83 72 84 70 85 49 86 50 87
REMARK SMILES IDX 58 88 51 89 52 90 56 91 59 92 53 93 54 94 57 95 55 96
REMARK H PARENT 15 6 8 15 20 30 79 49 47 60
REMARK Flexibility Score: inf
ROOT
ATOM      1  C   UNL A   1      32.740  29.579  24.847  1.00  0.00     0.023 C 
ENDROOT
BRANCH   1   2
ATOM      2  C   UNL A   1      31.257  29.956  24.979  1.00  0.00     0.116 C 
BRANCH   2   3
ATOM      3  N   UNL A   1      30.642  30.045  23.669  1.00  0.00    -0.352 N 
ATOM      4  C   UNL A   1      30.334  29.102  22.717  1.00  0.00     0.251 C 
ATOM      5  O   UNL A   1      29.892  29.517  21.644  1.00  0.00    -0.269 OA
ATOM      6  H   UNL A   1      30.396  30.962  23.409  1.00  0.00     0.163 HD
BRANCH   4   7
ATOM      7  C   UNL A   1      30.449  27.628  22.931  1.00  0.00     0.041 A 
ATOM      8  C   UNL A   1      30.702  24.846  23.577  1.00  0.00     0.053 A 
ATOM      9  C   UNL A   1      29.641  25.635  24.065  1.00  0.00     0.028 A 
ATOM     10  C   UNL A   1      31.648  25.508  22.787  1.00  0.00     0.065 A 
ATOM     11  C   UNL A   1      29.534  27.006  23.781  1.00  0.00     0.016 A 
ATOM     12  C   UNL A   1      31.443  26.830  22.385  1.00  0.00     0.036 A 
ATOM     13  Cl  UNL A   1      33.144  24.851  22.209  1.00  0.00    -0.082 Cl
BRANCH   8  14
ATOM     14  N   UNL A   1      30.707  23.517  23.950  1.00  0.00    -0.377 N 
ATOM     15  H   UNL A   1      30.052  22.940  23.494  1.00  0.00     0.161 HD
BRANCH  14  16
ATOM     16  C   UNL A   1      31.561  22.861  24.934  1.00  0.00     0.106 C 
ATOM     17  C   UNL A   1      30.757  22.834  26.248  1.00  0.00     0.036 C 
BRANCH  16  18
ATOM     18  C   UNL A   1      32.071  21.527  24.385  1.00  0.00    -0.023 A 
ATOM     19  C   UNL A   1      32.822  17.449  23.074  1.00  0.00     0.047 C 
ATOM     20  C   UNL A   1      32.613  18.867  23.503  1.00  0.00    -0.015 A 
ATOM     21  C   UNL A   1      32.364  19.891  22.585  1.00  0.00     0.007 A 
ATOM     22  C   UNL A   1      32.629  19.189  24.852  1.00  0.00     0.126 A 
ATOM     23  C   UNL A   1      32.087  21.199  23.021  1.00  0.00     0.006 A 
ATOM     24  C   UNL A   1      32.401  20.492  25.281  1.00  0.00     0.045 A 
ATOM     25  F   UNL A   1      32.838  18.232  25.769  1.00  0.00    -0.207 F 
ENDBRANCH  16  18
ENDBRANCH  14  16
ENDBRANCH   8  14
ENDBRANCH   4   7
ENDBRANCH   2   3
ENDBRANCH   1   2
BRANCH   1  26
ATOM     26  C   UNL A   1      33.158  28.415  25.751  1.00  0.00     0.023 C 
BRANCH  26  27
ATOM     27  C   UNL A   1      34.144  28.844  26.822  1.00  0.00     0.116 C 
BRANCH  27  28
ATOM     28  N   UNL A   1      34.259  30.301  26.898  1.00  0.00    -0.352 N 
ATOM     29  C   UNL A   1      35.134  31.028  27.675  1.00  0.00     0.251 C 
ATOM     30  H   UNL A   1      33.643  30.819  26.332  1.00  0.00     0.163 HD
ATOM     31  O   UNL A   1      34.958  32.205  27.931  1.00  0.00    -0.269 OA
BRANCH  29  32
ATOM     32  C   UNL A   1      36.337  30.334  28.138  1.00  0.00     0.039 A 
ATOM     33  C   UNL A   1      36.416  29.745  29.406  1.00  0.00     0.014 A 
ATOM     34  C   UNL A   1      37.394  30.293  27.234  1.00  0.00     0.014 A 
ATOM     35  C   UNL A   1      37.584  29.080  29.763  1.00  0.00     0.010 A 
ATOM     36  C   UNL A   1      38.467  29.513  27.520  1.00  0.00     0.010 A 
ATOM     37  C   UNL A   1      38.596  28.990  28.812  1.00  0.00    -0.014 A 
BRANCH  37  38
ATOM     38  C   UNL A   1      39.915  28.441  29.033  1.00  0.00     0.031 A 
ATOM     39  C   UNL A   1      40.175  27.033  28.749  1.00  0.00     0.074 A 
ATOM     40  C   UNL A   1      40.862  29.397  29.160  1.00  0.00     0.049 A 
ATOM     41  N   UNL A   1      41.275  26.444  29.044  1.00  0.00    -0.248 NA
ATOM     42  C   UNL A   1      39.201  26.148  28.121  1.00  0.00     0.031 C 
ATOM     43  C   UNL A   1      42.289  29.364  28.902  1.00  0.00     0.029 A 
ATOM     44  N   UNL A   1      40.643  30.693  29.658  1.00  0.00    -0.354 N 
ATOM     45  C   UNL A   1      41.298  25.249  28.359  1.00  0.00     0.074 A 
ATOM     46  C   UNL A   1      39.932  25.041  27.944  1.00  0.00     0.031 C 
ATOM     47  C   UNL A   1      42.857  30.416  29.529  1.00  0.00     0.029 A 
ATOM     48  C   UNL A   1      41.821  31.035  30.346  1.00  0.00     0.049 A 
ATOM     49  H   UNL A   1      39.835  31.246  29.549  1.00  0.00     0.167 HD
ATOM     50  C   UNL A   1      42.520  24.694  28.107  1.00  0.00     0.037 A 
ATOM     51  C   UNL A   1      41.765  31.024  31.716  1.00  0.00     0.037 A 
ATOM     52  C   UNL A   1      43.566  25.509  28.740  1.00  0.00     0.049 A 
ATOM     53  C   UNL A   1      42.575  29.892  32.320  1.00  0.00     0.074 A 
ATOM     54  C   UNL A   1      44.431  26.494  28.295  1.00  0.00     0.029 A 
ATOM     55  N   UNL A   1      43.556  25.611  30.116  1.00  0.00    -0.354 N 
ATOM     56  N   UNL A   1      43.065  28.894  31.635  1.00  0.00    -0.248 NA
ATOM     57  C   UNL A   1      42.857  29.771  33.745  1.00  0.00     0.031 C 
ATOM     58  C   UNL A   1      44.903  27.213  29.441  1.00  0.00     0.029 A 
ATOM     59  C   UNL A   1      44.338  26.649  30.573  1.00  0.00     0.049 A 
ATOM     60  H   UNL A   1      43.046  25.009  30.705  1.00  0.00     0.167 HD
ATOM     61  C   UNL A   1      43.719  28.031  32.463  1.00  0.00     0.074 A 
ATOM     62  C   UNL A   1      43.527  28.606  33.786  1.00  0.00     0.031 C 
ATOM     63  C   UNL A   1      44.356  26.910  32.006  1.00  0.00     0.037 A 
BRANCH  50  64
ATOM     64  C   UNL A   1      42.845  23.565  27.151  1.00  0.00     0.064 A 
ATOM     65  C   UNL A   1      42.423  22.248  27.456  1.00  0.00     0.173 A 
ATOM     66  C   UNL A   1      43.579  23.671  25.953  1.00  0.00     0.173 A 
ATOM     67  F   UNL A   1      41.659  21.988  28.526  1.00  0.00    -0.203 F 
ATOM     68  C   UNL A   1      42.764  21.140  26.674  1.00  0.00     0.198 A 
ATOM     69  C   UNL A   1      43.928  22.561  25.174  1.00  0.00     0.198 A 
ATOM     70  F   UNL A   1      43.965  24.847  25.455  1.00  0.00    -0.203 F 
ATOM     71  F   UNL A   1      42.346  19.920  27.037  1.00  0.00    -0.200 F 
ATOM     72  C   UNL A   1      43.528  21.294  25.539  1.00  0.00     0.200 A 
ATOM     73  F   UNL A   1      44.655  22.736  24.060  1.00  0.00    -0.200 F 
ATOM     74  F   UNL A   1      43.864  20.234  24.793  1.00  0.00    -0.200 F 
ENDBRANCH  50  64
BRANCH  51  75
ATOM     75  C   UNL A   1      40.419  31.496  32.200  1.00  0.00     0.064 A 
ATOM     76  C   UNL A   1      39.539  30.520  32.726  1.00  0.00     0.173 A 
ATOM     77  C   UNL A   1      40.219  32.821  32.612  1.00  0.00     0.173 A 
ATOM     78  F   UNL A   1      39.672  29.235  32.358  1.00  0.00    -0.203 F 
ATOM     79  C   UNL A   1      38.649  30.824  33.755  1.00  0.00     0.198 A 
ATOM     80  C   UNL A   1      39.294  33.127  33.616  1.00  0.00     0.198 A 
ATOM     81  F   UNL A   1      40.999  33.805  32.141  1.00  0.00    -0.203 F 
ATOM     82  F   UNL A   1      37.962  29.840  34.355  1.00  0.00    -0.200 F 
ATOM     83  C   UNL A   1      38.552  32.122  34.224  1.00  0.00     0.200 A 
ATOM     84  F   UNL A   1      39.192  34.386  34.068  1.00  0.00    -0.200 F 
ATOM     85  F   UNL A   1      37.778  32.399  35.282  1.00  0.00    -0.200 F 
ENDBRANCH  51  75
BRANCH  63  86
ATOM     86  C   UNL A   1      45.034  25.926  32.919  1.00  0.00     0.064 A 
ATOM     87  C   UNL A   1      46.414  25.698  32.878  1.00  0.00     0.173 A 
ATOM     88  C   UNL A   1      44.302  25.121  33.823  1.00  0.00     0.173 A 
ATOM     89  F   UNL A   1      47.188  26.319  31.976  1.00  0.00    -0.203 F 
ATOM     90  C   UNL A   1      47.035  24.813  33.761  1.00  0.00     0.198 A 
ATOM     91  C   UNL A   1      44.913  24.185  34.648  1.00  0.00     0.198 A 
ATOM     92  F   UNL A   1      42.976  25.236  33.972  1.00  0.00    -0.203 F 
ATOM     93  F   UNL A   1      48.370  24.702  33.758  1.00  0.00    -0.200 F 
ATOM     94  C   UNL A   1      46.284  24.055  34.643  1.00  0.00     0.200 A 
ATOM     95  F   UNL A   1      44.162  23.429  35.462  1.00  0.00    -0.200 F 
ATOM     96  F   UNL A   1      46.880  23.205  35.489  1.00  0.00    -0.200 F 
ENDBRANCH  63  86
ENDBRANCH  37  38
ENDBRANCH  29  32
ENDBRANCH  27  28
ENDBRANCH  26  27
ENDBRANCH   1  26
TORSDOF 14
ENDMDL
MODEL 2
REMARK VINA RESULT:     -14.0      3.625      9.497
REMARK SMILES Cc1ccc([C@H](C)Nc2ccc(C(=O)NCCCCNC(=O)c3ccc(-c4c5nc(c(-c6c(F)c(F)c(F)c(F)c6F)c6ccc([nH]6)c(-c6c(F)c(F)c(F)c(F)c6F)c6nc(c(-c7c(F)c(F)c(F)c(F)c7F)c7ccc4[nH]7)C=C6)C=C5)cc3)cc2Cl)cc1F
REMARK SMILES IDX 17 1 16 2 15 3 13 4 14 5 12 7 9 8 10 9 87 10 11 11 86 12
REMARK SMILES IDX 88 13 8 14 6 16 7 17 5 18 1 19 2 20 3 21 90 22 4 23 89 24
REMARK SMILES IDX 91 25 18 26 19 27 20 28 21 29 22 31 23 32 24 33 85 34 25 35
REMARK SMILES IDX 84 36 26 37 27 38 28 39 78 40 29 41 83 42 77 43 79 44 30 45
REMARK SMILES IDX 82 46 76 47 75 48 31 50 63 51 43 52 62 53 44 54 47 55 61 56
REMARK SMILES IDX 80 57 45 58 46 59 60 61 81 62 48 63 32 64 33 65 41 66 34 67
REMARK SMILES IDX 35 68 39 69 42 70 36 71 37 72 40 73 38 74 64 75 65 76 73 77
REMARK SMILES IDX 66 78 67 79 71 80 74 81 68 82 69 83 72 84 70 85 49 86 50 87
REMARK SMILES IDX 58 88 51 89 52 90 56 91 59 92 53 93 54 94 57 95 55 96
REMARK H PARENT 15 6 8 15 20 30 79 49 47 60
REMARK Flexibility Score: inf
ROOT
ATOM      1  C   UNL A   1      35.567  21.553  26.000  1.00  0.00     0.023 C 
ENDROOT
BRANCH   1   2
ATOM      2  C   UNL A   1      35.588  20.407  24.977  1.00  0.00     0.116 C 
BRANCH   2   3
ATOM      3  N   UNL A   1      34.404  19.582  25.122  1.00  0.00    -0.352 N 
ATOM      4  C   UNL A   1      33.060  19.873  25.136  1.00  0.00     0.251 C 
ATOM      5  O   UNL A   1      32.291  18.941  25.378  1.00  0.00    -0.269 OA
ATOM      6  H   UNL A   1      34.601  18.624  25.233  1.00  0.00     0.163 HD
BRANCH   4   7
ATOM      7  C   UNL A   1      32.491  21.218  24.823  1.00  0.00     0.041 A 
ATOM      8  C   UNL A   1      31.616  23.859  24.131  1.00  0.00     0.053 A 
ATOM      9  C   UNL A   1      32.009  22.921  23.156  1.00  0.00     0.028 A 
ATOM     10  C   UNL A   1      31.712  23.440  25.463  1.00  0.00     0.065 A 
ATOM     11  C   UNL A   1      32.474  21.639  23.493  1.00  0.00     0.016 A 
ATOM     12  C   UNL A   1      32.024  22.114  25.773  1.00  0.00     0.036 A 
ATOM     13  Cl  UNL A   1      31.482  24.426  26.869  1.00  0.00    -0.082 Cl
BRANCH   8  14
ATOM     14  N   UNL A   1      31.204  25.093  23.671  1.00  0.00    -0.377 N 
ATOM     15  H   UNL A   1      30.230  25.233  23.627  1.00  0.00     0.161 HD
BRANCH  14  16
ATOM     16  C   UNL A   1      32.030  26.217  23.242  1.00  0.00     0.106 C 
ATOM     17  C   UNL A   1      31.447  26.687  21.896  1.00  0.00     0.036 C 
BRANCH  16  18
ATOM     18  C   UNL A   1      32.146  27.248  24.367  1.00  0.00    -0.023 A 
ATOM     19  C   UNL A   1      33.078  30.469  27.134  1.00  0.00     0.047 C 
ATOM     20  C   UNL A   1      32.714  29.347  26.215  1.00  0.00    -0.015 A 
ATOM     21  C   UNL A   1      31.561  29.377  25.427  1.00  0.00     0.007 A 
ATOM     22  C   UNL A   1      33.554  28.248  26.102  1.00  0.00     0.126 A 
ATOM     23  C   UNL A   1      31.287  28.348  24.509  1.00  0.00     0.006 A 
ATOM     24  C   UNL A   1      33.259  27.207  25.228  1.00  0.00     0.045 A 
ATOM     25  F   UNL A   1      34.685  28.190  26.820  1.00  0.00    -0.207 F 
ENDBRANCH  16  18
ENDBRANCH  14  16
ENDBRANCH   8  14
ENDBRANCH   4   7
ENDBRANCH   2   3
ENDBRANCH   1   2
BRANCH   1  26
ATOM     26  C   UNL A   1      35.719  22.940  25.367  1.00  0.00     0.023 C 
BRANCH  26  27
ATOM     27  C   UNL A   1      37.020  23.613  25.763  1.00  0.00     0.116 C 
BRANCH  27  28
ATOM     28  N   UNL A   1      38.028  22.637  26.180  1.00  0.00    -0.352 N 
ATOM     29  C   UNL A   1      39.321  22.895  26.580  1.00  0.00     0.251 C 
ATOM     30  H   UNL A   1      37.751  21.693  26.175  1.00  0.00     0.163 HD
ATOM     31  O   UNL A   1      40.183  22.035  26.596  1.00  0.00    -0.269 OA
BRANCH  29  32
ATOM     32  C   UNL A   1      39.608  24.251  27.051  1.00  0.00     0.039 A 
ATOM     33  C   UNL A   1      40.242  25.202  26.242  1.00  0.00     0.014 A 
ATOM     34  C   UNL A   1      39.204  24.534  28.352  1.00  0.00     0.014 A 
ATOM     35  C   UNL A   1      40.457  26.477  26.752  1.00  0.00     0.010 A 
ATOM     36  C   UNL A   1      39.269  25.817  28.790  1.00  0.00     0.010 A 
ATOM     37  C   UNL A   1      39.975  26.756  28.028  1.00  0.00    -0.014 A 
BRANCH  37  38
ATOM     38  C   UNL A   1      40.198  27.978  28.766  1.00  0.00     0.031 A 
ATOM     39  C   UNL A   1      39.243  29.077  28.661  1.00  0.00     0.074 A 
ATOM     40  C   UNL A   1      41.110  27.833  29.753  1.00  0.00     0.049 A 
ATOM     41  N   UNL A   1      39.438  30.235  29.175  1.00  0.00    -0.248 NA
ATOM     42  C   UNL A   1      37.978  28.975  27.941  1.00  0.00     0.031 C 
ATOM     43  C   UNL A   1      41.292  28.556  30.997  1.00  0.00     0.029 A 
ATOM     44  N   UNL A   1      42.178  26.918  29.740  1.00  0.00    -0.354 N 
ATOM     45  C   UNL A   1      38.230  30.898  29.165  1.00  0.00     0.074 A 
ATOM     46  C   UNL A   1      37.410  30.147  28.247  1.00  0.00     0.031 C 
ATOM     47  C   UNL A   1      42.538  28.307  31.453  1.00  0.00     0.029 A 
ATOM     48  C   UNL A   1      43.232  27.562  30.410  1.00  0.00     0.049 A 
ATOM     49  H   UNL A   1      42.186  26.015  29.345  1.00  0.00     0.167 HD
ATOM     50  C   UNL A   1      38.058  31.901  30.076  1.00  0.00     0.037 A 
ATOM     51  C   UNL A   1      44.263  28.032  29.639  1.00  0.00     0.037 A 
ATOM     52  C   UNL A   1      39.306  32.098  30.826  1.00  0.00     0.049 A 
ATOM     53  C   UNL A   1      44.303  29.548  29.585  1.00  0.00     0.074 A 
ATOM     54  C   UNL A   1      39.773  31.679  32.061  1.00  0.00     0.029 A 
ATOM     55  N   UNL A   1      40.420  32.511  30.124  1.00  0.00    -0.354 N 
ATOM     56  N   UNL A   1      43.339  30.322  30.007  1.00  0.00    -0.248 NA
ATOM     57  C   UNL A   1      45.408  30.308  29.013  1.00  0.00     0.031 C 
ATOM     58  C   UNL A   1      41.199  31.814  32.059  1.00  0.00     0.029 A 
ATOM     59  C   UNL A   1      41.587  32.331  30.834  1.00  0.00     0.049 A 
ATOM     60  H   UNL A   1      40.384  32.892  29.217  1.00  0.00     0.167 HD
ATOM     61  C   UNL A   1      43.662  31.630  29.800  1.00  0.00     0.074 A 
ATOM     62  C   UNL A   1      44.956  31.568  29.137  1.00  0.00     0.031 C 
ATOM     63  C   UNL A   1      42.844  32.660  30.175  1.00  0.00     0.037 A 
BRANCH  50  64
ATOM     64  C   UNL A   1      36.765  32.585  30.469  1.00  0.00     0.064 A 
ATOM     65  C   UNL A   1      36.172  33.517  29.583  1.00  0.00     0.173 A 
ATOM     66  C   UNL A   1      36.067  32.417  31.681  1.00  0.00     0.173 A 
ATOM     67  F   UNL A   1      36.675  33.741  28.362  1.00  0.00    -0.203 F 
ATOM     68  C   UNL A   1      35.031  34.257  29.911  1.00  0.00     0.198 A 
ATOM     69  C   UNL A   1      34.931  33.165  32.013  1.00  0.00     0.198 A 
ATOM     70  F   UNL A   1      36.421  31.505  32.587  1.00  0.00    -0.203 F 
ATOM     71  F   UNL A   1      34.537  35.137  29.030  1.00  0.00    -0.200 F 
ATOM     72  C   UNL A   1      34.418  34.091  31.133  1.00  0.00     0.200 A 
ATOM     73  F   UNL A   1      34.335  32.972  33.200  1.00  0.00    -0.200 F 
ATOM     74  F   UNL A   1      33.331  34.806  31.453  1.00  0.00    -0.200 F 
ENDBRANCH  50  64
BRANCH  51  75
ATOM     75  C   UNL A   1      44.531  27.105  28.481  1.00  0.00     0.064 A 
ATOM     76  C   UNL A   1      44.125  27.537  27.197  1.00  0.00     0.173 A 
ATOM     77  C   UNL A   1      45.556  26.150  28.538  1.00  0.00     0.173 A 
ATOM     78  F   UNL A   1      43.138  28.441  27.077  1.00  0.00    -0.203 F 
ATOM     79  C   UNL A   1      44.842  27.186  26.053  1.00  0.00     0.198 A 
ATOM     80  C   UNL A   1      46.244  25.770  27.381  1.00  0.00     0.198 A 
ATOM     81  F   UNL A   1      45.981  25.677  29.718  1.00  0.00    -0.203 F 
ATOM     82  F   UNL A   1      44.541  27.758  24.876  1.00  0.00    -0.200 F 
ATOM     83  C   UNL A   1      45.923  26.330  26.151  1.00  0.00     0.200 A 
ATOM     84  F   UNL A   1      47.289  24.933  27.471  1.00  0.00    -0.200 F 
ATOM     85  F   UNL A   1      46.678  26.074  25.074  1.00  0.00    -0.200 F 
ENDBRANCH  51  75
BRANCH  63  86
ATOM     86  C   UNL A   1      43.169  34.102  29.903  1.00  0.00     0.064 A 
ATOM     87  C   UNL A   1      43.310  35.043  30.930  1.00  0.00     0.173 A 
ATOM     88  C   UNL A   1      43.280  34.606  28.585  1.00  0.00     0.173 A 
ATOM     89  F   UNL A   1      43.106  34.700  32.210  1.00  0.00    -0.203 F 
ATOM     90  C   UNL A   1      43.654  36.370  30.664  1.00  0.00     0.198 A 
ATOM     91  C   UNL A   1      43.548  35.944  28.320  1.00  0.00     0.198 A 
ATOM     92  F   UNL A   1      43.175  33.820  27.507  1.00  0.00    -0.203 F 
ATOM     93  F   UNL A   1      43.879  37.212  31.681  1.00  0.00    -0.200 F 
ATOM     94  C   UNL A   1      43.770  36.820  29.360  1.00  0.00     0.200 A 
ATOM     95  F   UNL A   1      43.611  36.368  27.050  1.00  0.00    -0.200 F 
ATOM     96  F   UNL A   1      44.098  38.093  29.106  1.00  0.00    -0.200 F 
ENDBRANCH  63  86
ENDBRANCH  37  38
ENDBRANCH  29  32
ENDBRANCH  27  28
ENDBRANCH  26  27
ENDBRANCH   1  26
TORSDOF 14
ENDMDL
MODEL 3
REMARK VINA RESULT:     -13.9      3.746      9.572
REMARK SMILES Cc1ccc([C@H](C)Nc2ccc(C(=O)NCCCCNC(=O)c3ccc(-c4c5nc(c(-c6c(F)c(F)c(F)c(F)c6F)c6ccc([nH]6)c(-c6c(F)c(F)c(F)c(F)c6F)c6nc(c(-c7c(F)c(F)c(F)c(F)c7F)c7ccc4[nH]7)C=C6)C=C5)cc3)cc2Cl)cc1F
REMARK SMILES IDX 17 1 16 2 15 3 13 4 14 5 12 7 9 8 10 9 87 10 11 11 86 12
REMARK SMILES IDX 88 13 8 14 6 16 7 17 5 18 1 19 2 20 3 21 90 22 4 23 89 24
REMARK SMILES IDX 91 25 18 26 19 27 20 28 21 29 22 31 23 32 24 33 85 34 25 35
REMARK SMILES IDX 84 36 26 37 27 38 28 39 78 40 29 41 83 42 77 43 79 44 30 45
REMARK SMILES IDX 82 46 76 47 75 48 31 50 63 51 43 52 62 53 44 54 47 55 61 56
REMARK SMILES IDX 80 57 45 58 46 59 60 61 81 62 48 63 32 64 33 65 41 66 34 67
REMARK SMILES IDX 35 68 39 69 42 70 36 71 37 72 40 73 38 74 64 75 65 76 73 77
REMARK SMILES IDX 66 78 67 79 71 80 74 81 68 82 69 83 72 84 70 85 49 86 50 87
REMARK SMILES IDX 58 88 51 89 52 90 56 91 59 92 53 93 54 94 57 95 55 96
REMARK H PARENT 15 6 8 15 20 30 79 49 47 60
REMARK Flexibility Score: inf
ROOT
ATOM      1  C   UNL A   1      35.462  21.458  26.046  1.00  0.00     0.023 C 
ENDROOT
BRANCH   1   2
ATOM      2  C   UNL A   1      35.451  20.342  24.991  1.00  0.00     0.116 C 
BRANCH   2   3
ATOM      3  N   UNL A   1      34.273  19.511  25.149  1.00  0.00    -0.352 N 
ATOM      4  C   UNL A   1      32.926  19.784  25.102  1.00  0.00     0.251 C 
ATOM      5  O   UNL A   1      32.160  18.859  25.376  1.00  0.00    -0.269 OA
ATOM      6  H   UNL A   1      34.477  18.564  25.325  1.00  0.00     0.163 HD
BRANCH   4   7
ATOM      7  C   UNL A   1      32.352  21.100  24.688  1.00  0.00     0.041 A 
ATOM      8  C   UNL A   1      31.479  23.702  23.857  1.00  0.00     0.053 A 
ATOM      9  C   UNL A   1      32.147  22.821  22.983  1.00  0.00     0.028 A 
ATOM     10  C   UNL A   1      31.298  23.248  25.168  1.00  0.00     0.065 A 
ATOM     11  C   UNL A   1      32.610  21.561  23.397  1.00  0.00     0.016 A 
ATOM     12  C   UNL A   1      31.621  21.935  25.520  1.00  0.00     0.036 A 
ATOM     13  Cl  UNL A   1      30.686  24.173  26.500  1.00  0.00    -0.082 Cl
BRANCH   8  14
ATOM     14  N   UNL A   1      31.099  24.921  23.335  1.00  0.00    -0.377 N 
ATOM     15  H   UNL A   1      30.507  24.887  22.549  1.00  0.00     0.161 HD
BRANCH  14  16
ATOM     16  C   UNL A   1      31.464  26.255  23.802  1.00  0.00     0.106 C 
ATOM     17  C   UNL A   1      32.962  26.424  23.484  1.00  0.00     0.036 C 
BRANCH  16  18
ATOM     18  C   UNL A   1      30.495  27.296  23.238  1.00  0.00    -0.023 A 
ATOM     19  C   UNL A   1      27.654  30.478  22.394  1.00  0.00     0.047 C 
ATOM     20  C   UNL A   1      28.636  29.373  22.629  1.00  0.00    -0.015 A 
ATOM     21  C   UNL A   1      29.985  29.495  22.287  1.00  0.00     0.007 A 
ATOM     22  C   UNL A   1      28.219  28.198  23.236  1.00  0.00     0.126 A 
ATOM     23  C   UNL A   1      30.902  28.475  22.596  1.00  0.00     0.006 A 
ATOM     24  C   UNL A   1      29.117  27.170  23.501  1.00  0.00     0.045 A 
ATOM     25  F   UNL A   1      26.938  28.050  23.606  1.00  0.00    -0.207 F 
ENDBRANCH  16  18
ENDBRANCH  14  16
ENDBRANCH   8  14
ENDBRANCH   4   7
ENDBRANCH   2   3
ENDBRANCH   1   2
BRANCH   1  26
ATOM     26  C   UNL A   1      35.638  22.859  25.451  1.00  0.00     0.023 C 
BRANCH  26  27
ATOM     27  C   UNL A   1      36.871  23.560  25.989  1.00  0.00     0.116 C 
BRANCH  27  28
ATOM     28  N   UNL A   1      37.957  22.616  26.254  1.00  0.00    -0.352 N 
ATOM     29  C   UNL A   1      39.279  22.915  26.501  1.00  0.00     0.251 C 
ATOM     30  H   UNL A   1      37.716  21.662  26.258  1.00  0.00     0.163 HD
ATOM     31  O   UNL A   1      40.167  22.090  26.389  1.00  0.00    -0.269 OA
BRANCH  29  32
ATOM     32  C   UNL A   1      39.572  24.271  26.969  1.00  0.00     0.039 A 
ATOM     33  C   UNL A   1      40.179  25.228  26.147  1.00  0.00     0.014 A 
ATOM     34  C   UNL A   1      39.204  24.547  28.282  1.00  0.00     0.014 A 
ATOM     35  C   UNL A   1      40.402  26.503  26.655  1.00  0.00     0.010 A 
ATOM     36  C   UNL A   1      39.274  25.828  28.723  1.00  0.00     0.010 A 
ATOM     37  C   UNL A   1      39.955  26.774  27.945  1.00  0.00    -0.014 A 
BRANCH  37  38
ATOM     38  C   UNL A   1      40.192  27.995  28.682  1.00  0.00     0.031 A 
ATOM     39  C   UNL A   1      39.225  29.087  28.613  1.00  0.00     0.074 A 
ATOM     40  C   UNL A   1      41.137  27.852  29.637  1.00  0.00     0.049 A 
ATOM     41  N   UNL A   1      39.428  30.244  29.127  1.00  0.00    -0.248 NA
ATOM     42  C   UNL A   1      37.938  28.977  27.935  1.00  0.00     0.031 C 
ATOM     43  C   UNL A   1      41.353  28.570  30.879  1.00  0.00     0.029 A 
ATOM     44  N   UNL A   1      42.211  26.945  29.585  1.00  0.00    -0.354 N 
ATOM     45  C   UNL A   1      38.215  30.897  29.160  1.00  0.00     0.074 A 
ATOM     46  C   UNL A   1      37.371  30.143  28.265  1.00  0.00     0.031 C 
ATOM     47  C   UNL A   1      42.616  28.330  31.292  1.00  0.00     0.029 A 
ATOM     48  C   UNL A   1      43.282  27.595  30.224  1.00  0.00     0.049 A 
ATOM     49  H   UNL A   1      42.213  26.045  29.186  1.00  0.00     0.167 HD
ATOM     50  C   UNL A   1      38.065  31.894  30.080  1.00  0.00     0.037 A 
ATOM     51  C   UNL A   1      44.283  28.077  29.422  1.00  0.00     0.037 A 
ATOM     52  C   UNL A   1      39.335  32.097  30.790  1.00  0.00     0.049 A 
ATOM     53  C   UNL A   1      44.309  29.593  29.374  1.00  0.00     0.074 A 
ATOM     54  C   UNL A   1      39.845  31.676  32.007  1.00  0.00     0.029 A 
ATOM     55  N   UNL A   1      40.423  32.523  30.054  1.00  0.00    -0.354 N 
ATOM     56  N   UNL A   1      43.353  30.358  29.830  1.00  0.00    -0.248 NA
ATOM     57  C   UNL A   1      45.389  30.365  28.770  1.00  0.00     0.031 C 
ATOM     58  C   UNL A   1      41.270  31.822  31.959  1.00  0.00     0.029 A 
ATOM     59  C   UNL A   1      41.614  32.349  30.724  1.00  0.00     0.049 A 
ATOM     60  H   UNL A   1      40.354  32.907  29.150  1.00  0.00     0.167 HD
ATOM     61  C   UNL A   1      43.659  31.670  29.620  1.00  0.00     0.074 A 
ATOM     62  C   UNL A   1      44.931  31.621  28.915  1.00  0.00     0.031 C 
ATOM     63  C   UNL A   1      42.845  32.691  30.027  1.00  0.00     0.037 A 
BRANCH  50  64
ATOM     64  C   UNL A   1      36.780  32.566  30.519  1.00  0.00     0.064 A 
ATOM     65  C   UNL A   1      36.126  33.462  29.639  1.00  0.00     0.173 A 
ATOM     66  C   UNL A   1      36.146  32.419  31.768  1.00  0.00     0.173 A 
ATOM     67  F   UNL A   1      36.565  33.662  28.389  1.00  0.00    -0.203 F 
ATOM     68  C   UNL A   1      34.990  34.191  30.003  1.00  0.00     0.198 A 
ATOM     69  C   UNL A   1      35.014  33.156  32.136  1.00  0.00     0.198 A 
ATOM     70  F   UNL A   1      36.561  31.539  32.680  1.00  0.00    -0.203 F 
ATOM     71  F   UNL A   1      34.437  35.038  29.125  1.00  0.00    -0.200 F 
ATOM     72  C   UNL A   1      34.441  34.048  31.258  1.00  0.00     0.200 A 
ATOM     73  F   UNL A   1      34.481  32.985  33.356  1.00  0.00    -0.200 F 
ATOM     74  F   UNL A   1      33.358  34.752  31.613  1.00  0.00    -0.200 F 
ENDBRANCH  50  64
BRANCH  51  75
ATOM     75  C   UNL A   1      44.520  27.158  28.251  1.00  0.00     0.064 A 
ATOM     76  C   UNL A   1      44.065  27.590  26.983  1.00  0.00     0.173 A 
ATOM     77  C   UNL A   1      45.557  26.214  28.268  1.00  0.00     0.173 A 
ATOM     78  F   UNL A   1      43.065  28.484  26.902  1.00  0.00    -0.203 F 
ATOM     79  C   UNL A   1      44.744  27.252  25.814  1.00  0.00     0.198 A 
ATOM     80  C   UNL A   1      46.208  25.846  27.085  1.00  0.00     0.198 A 
ATOM     81  F   UNL A   1      46.027  25.740  29.430  1.00  0.00    -0.203 F 
ATOM     82  F   UNL A   1      44.397  27.825  24.651  1.00  0.00    -0.200 F 
ATOM     83  C   UNL A   1      45.837  26.407  25.870  1.00  0.00     0.200 A 
ATOM     84  F   UNL A   1      47.264  25.020  27.136  1.00  0.00    -0.200 F 
ATOM     85  F   UNL A   1      46.557  26.163  24.766  1.00  0.00    -0.200 F 
ENDBRANCH  51  75
BRANCH  63  86
ATOM     86  C   UNL A   1      43.150  34.137  29.751  1.00  0.00     0.064 A 
ATOM     87  C   UNL A   1      43.342  35.069  30.778  1.00  0.00     0.173 A 
ATOM     88  C   UNL A   1      43.189  34.654  28.434  1.00  0.00     0.173 A 
ATOM     89  F   UNL A   1      43.209  34.713  32.064  1.00  0.00    -0.203 F 
ATOM     90  C   UNL A   1      43.667  36.399  30.507  1.00  0.00     0.198 A 
ATOM     91  C   UNL A   1      43.437  35.995  28.168  1.00  0.00     0.198 A 
ATOM     92  F   UNL A   1      43.029  33.877  27.356  1.00  0.00    -0.203 F 
ATOM     93  F   UNL A   1      43.943  37.233  31.518  1.00  0.00    -0.200 F 
ATOM     94  C   UNL A   1      43.711  36.862  29.203  1.00  0.00     0.200 A 
ATOM     95  F   UNL A   1      43.430  36.430  26.900  1.00  0.00    -0.200 F 
ATOM     96  F   UNL A   1      44.021  38.139  28.944  1.00  0.00    -0.200 F 
ENDBRANCH  63  86
ENDBRANCH  37  38
ENDBRANCH  29  32
ENDBRANCH  27  28
ENDBRANCH  26  27
ENDBRANCH   1  26
TORSDOF 14
ENDMDL
