MODEL 1
REMARK VINA RESULT:     -13.5      0.000      0.000
REMARK SMILES Cc1ccc(C)c(NS(=O)(=O)c2cc(C(=O)NCCCCNC(=O)c3ccc(-c4c5nc(c(-c6c(F)c(F)c(F)c(F)c6F)c6ccc([nH]6)c(-c6c(F)c(F)c(F)c(F)c6F)c6nc(c(-c7c(F)c(F)c(F)c(F)c7F)c7ccc4[nH]7)C=C6)C=C5)cc3)ccc2Cl)c1
REMARK SMILES IDX 19 1 18 2 17 3 15 4 16 5 14 7 12 8 13 9 90 10 89 11 91 12
REMARK SMILES IDX 88 13 9 14 10 15 11 16 8 17 7 19 1 20 2 21 3 22 92 23 4 24
REMARK SMILES IDX 5 25 6 26 20 27 21 28 22 29 23 30 24 32 25 33 26 34 87 35
REMARK SMILES IDX 27 36 86 37 28 38 29 39 30 40 80 41 31 42 85 43 79 44 81 45
REMARK SMILES IDX 32 46 84 47 78 48 77 49 33 51 65 52 45 53 64 54 46 55 49 56
REMARK SMILES IDX 63 57 82 58 47 59 48 60 62 62 83 63 50 64 34 65 35 66 43 67
REMARK SMILES IDX 36 68 37 69 41 70 44 71 38 72 39 73 42 74 40 75 66 76 67 77
REMARK SMILES IDX 75 78 68 79 69 80 73 81 76 82 70 83 71 84 74 85 72 86 51 87
REMARK SMILES IDX 52 88 60 89 53 90 54 91 58 92 61 93 55 94 56 95 59 96 57 97
REMARK H PARENT 17 6 8 18 22 31 81 50 49 61
REMARK Flexibility Score: inf
ROOT
ATOM      1  C   UNL A   1      35.437  21.743  24.796  1.00  0.00     0.023 C 
ENDROOT
BRANCH   1   2
ATOM      2  C   UNL A   1      34.242  20.932  25.306  1.00  0.00     0.116 C 
BRANCH   2   3
ATOM      3  N   UNL A   1      33.296  20.526  24.287  1.00  0.00    -0.352 N 
ATOM      4  C   UNL A   1      32.418  21.234  23.504  1.00  0.00     0.251 C 
ATOM      5  O   UNL A   1      32.002  20.657  22.497  1.00  0.00    -0.269 OA
ATOM      6  H   UNL A   1      33.279  19.555  24.124  1.00  0.00     0.163 HD
BRANCH   4   7
ATOM      7  C   UNL A   1      31.903  22.609  23.805  1.00  0.00     0.041 A 
ATOM      8  C   UNL A   1      31.648  24.914  22.979  1.00  0.00     0.107 A 
ATOM      9  C   UNL A   1      32.158  23.603  22.845  1.00  0.00     0.037 A 
ATOM     10  C   UNL A   1      30.768  25.209  24.008  1.00  0.00     0.061 A 
ATOM     11  C   UNL A   1      30.577  24.256  25.011  1.00  0.00     0.023 A 
ATOM     12  Cl  UNL A   1      29.809  26.636  24.091  1.00  0.00    -0.083 Cl
ATOM     13  C   UNL A   1      31.158  22.982  24.922  1.00  0.00     0.015 A 
BRANCH   8  14
ATOM     14  S   UNL A   1      32.328  26.138  21.898  1.00  0.00     0.263 S 
ATOM     15  O   UNL A   1      31.217  26.888  21.368  1.00  0.00    -0.201 OA
ATOM     16  O   UNL A   1      33.243  25.453  20.998  1.00  0.00    -0.201 OA
BRANCH  14  17
ATOM     17  N   UNL A   1      33.253  27.236  22.768  1.00  0.00    -0.279 N 
ATOM     18  H   UNL A   1      33.926  27.740  22.257  1.00  0.00     0.180 HD
BRANCH  17  19
ATOM     19  C   UNL A   1      33.173  27.521  24.170  1.00  0.00     0.052 A 
ATOM     20  C   UNL A   1      31.833  30.584  26.037  1.00  0.00     0.044 C 
ATOM     21  C   UNL A   1      32.391  29.218  25.770  1.00  0.00    -0.049 A 
ATOM     22  C   UNL A   1      32.641  28.331  26.810  1.00  0.00     0.004 A 
ATOM     23  C   UNL A   1      32.634  28.792  24.460  1.00  0.00     0.030 A 
ATOM     24  C   UNL A   1      33.262  27.110  26.546  1.00  0.00     0.006 A 
ATOM     25  C   UNL A   1      33.616  26.727  25.235  1.00  0.00    -0.027 A 
ATOM     26  C   UNL A   1      34.489  25.515  25.098  1.00  0.00     0.046 C 
ENDBRANCH  17  19
ENDBRANCH  14  17
ENDBRANCH   8  14
ENDBRANCH   4   7
ENDBRANCH   2   3
ENDBRANCH   1   2
BRANCH   1  27
ATOM     27  C   UNL A   1      36.864  21.363  25.225  1.00  0.00     0.023 C 
BRANCH  27  28
ATOM     28  C   UNL A   1      37.908  22.438  25.576  1.00  0.00     0.116 C 
BRANCH  28  29
ATOM     29  N   UNL A   1      39.240  21.944  25.899  1.00  0.00    -0.352 N 
ATOM     30  C   UNL A   1      40.377  22.531  26.414  1.00  0.00     0.251 C 
ATOM     31  H   UNL A   1      39.353  20.984  25.709  1.00  0.00     0.163 HD
ATOM     32  O   UNL A   1      41.444  21.930  26.280  1.00  0.00    -0.269 OA
BRANCH  30  33
ATOM     33  C   UNL A   1      40.365  23.807  27.177  1.00  0.00     0.039 A 
ATOM     34  C   UNL A   1      39.287  24.701  27.051  1.00  0.00     0.014 A 
ATOM     35  C   UNL A   1      41.457  24.204  27.934  1.00  0.00     0.014 A 
ATOM     36  C   UNL A   1      39.376  25.987  27.600  1.00  0.00     0.010 A 
ATOM     37  C   UNL A   1      41.525  25.427  28.542  1.00  0.00     0.010 A 
ATOM     38  C   UNL A   1      40.534  26.353  28.295  1.00  0.00    -0.014 A 
BRANCH  38  39
ATOM     39  C   UNL A   1      40.782  27.690  28.798  1.00  0.00     0.031 A 
ATOM     40  C   UNL A   1      41.938  28.403  28.224  1.00  0.00     0.074 A 
ATOM     41  C   UNL A   1      39.857  28.415  29.464  1.00  0.00     0.049 A 
ATOM     42  N   UNL A   1      43.014  28.762  28.833  1.00  0.00    -0.248 NA
ATOM     43  C   UNL A   1      41.907  28.733  26.792  1.00  0.00     0.031 C 
ATOM     44  C   UNL A   1      38.450  28.090  29.726  1.00  0.00     0.029 A 
ATOM     45  N   UNL A   1      39.981  29.679  29.954  1.00  0.00    -0.354 N 
ATOM     46  C   UNL A   1      43.741  29.506  27.914  1.00  0.00     0.074 A 
ATOM     47  C   UNL A   1      43.082  29.348  26.640  1.00  0.00     0.031 C 
ATOM     48  C   UNL A   1      37.810  29.197  30.168  1.00  0.00     0.029 A 
ATOM     49  C   UNL A   1      38.792  30.245  30.382  1.00  0.00     0.049 A 
ATOM     50  H   UNL A   1      40.844  30.152  30.001  1.00  0.00     0.167 HD
ATOM     51  C   UNL A   1      44.718  30.362  28.314  1.00  0.00     0.037 A 
ATOM     52  C   UNL A   1      38.629  31.494  30.874  1.00  0.00     0.037 A 
ATOM     53  C   UNL A   1      45.053  30.179  29.703  1.00  0.00     0.049 A 
ATOM     54  C   UNL A   1      39.956  31.974  31.327  1.00  0.00     0.074 A 
ATOM     55  C   UNL A   1      45.543  29.134  30.460  1.00  0.00     0.029 A 
ATOM     56  N   UNL A   1      44.530  31.080  30.597  1.00  0.00    -0.354 N 
ATOM     57  N   UNL A   1      40.615  31.482  32.340  1.00  0.00    -0.248 NA
ATOM     58  C   UNL A   1      40.730  32.834  30.443  1.00  0.00     0.031 C 
ATOM     59  C   UNL A   1      44.908  29.257  31.733  1.00  0.00     0.029 A 
ATOM     60  C   UNL A   1      44.079  30.379  31.688  1.00  0.00     0.049 A 
ATOM     61  H   UNL A   1      44.488  32.056  30.477  1.00  0.00     0.167 HD
ATOM     62  C   UNL A   1      41.948  31.625  31.995  1.00  0.00     0.074 A 
ATOM     63  C   UNL A   1      41.956  32.599  30.915  1.00  0.00     0.031 C 
ATOM     64  C   UNL A   1      42.881  30.724  32.423  1.00  0.00     0.037 A 
BRANCH  51  65
ATOM     65  C   UNL A   1      45.152  31.577  27.547  1.00  0.00     0.064 A 
ATOM     66  C   UNL A   1      46.465  31.648  27.047  1.00  0.00     0.173 A 
ATOM     67  C   UNL A   1      44.410  32.775  27.508  1.00  0.00     0.173 A 
ATOM     68  F   UNL A   1      47.267  30.572  27.083  1.00  0.00    -0.203 F 
ATOM     69  C   UNL A   1      47.006  32.842  26.569  1.00  0.00     0.198 A 
ATOM     70  C   UNL A   1      44.933  33.953  26.976  1.00  0.00     0.198 A 
ATOM     71  F   UNL A   1      43.202  32.873  28.077  1.00  0.00    -0.203 F 
ATOM     72  F   UNL A   1      48.293  32.890  26.199  1.00  0.00    -0.200 F 
ATOM     73  C   UNL A   1      46.239  33.993  26.529  1.00  0.00     0.200 A 
ATOM     74  F   UNL A   1      44.184  35.064  26.969  1.00  0.00    -0.200 F 
ATOM     75  F   UNL A   1      46.768  35.149  26.108  1.00  0.00    -0.200 F 
ENDBRANCH  51  65
BRANCH  52  76
ATOM     76  C   UNL A   1      37.438  32.366  30.845  1.00  0.00     0.064 A 
ATOM     77  C   UNL A   1      37.135  33.135  29.712  1.00  0.00     0.173 A 
ATOM     78  C   UNL A   1      36.431  32.256  31.822  1.00  0.00     0.173 A 
ATOM     79  F   UNL A   1      38.027  33.254  28.719  1.00  0.00    -0.203 F 
ATOM     80  C   UNL A   1      35.884  33.734  29.549  1.00  0.00     0.198 A 
ATOM     81  C   UNL A   1      35.185  32.862  31.663  1.00  0.00     0.198 A 
ATOM     82  F   UNL A   1      36.606  31.476  32.900  1.00  0.00    -0.203 F 
ATOM     83  F   UNL A   1      35.606  34.400  28.419  1.00  0.00    -0.200 F 
ATOM     84  C   UNL A   1      34.906  33.587  30.519  1.00  0.00     0.200 A 
ATOM     85  F   UNL A   1      34.233  32.680  32.589  1.00  0.00    -0.200 F 
ATOM     86  F   UNL A   1      33.684  34.103  30.330  1.00  0.00    -0.200 F 
ENDBRANCH  52  76
BRANCH  64  87
ATOM     87  C   UNL A   1      42.514  29.856  33.593  1.00  0.00     0.064 A 
ATOM     88  C   UNL A   1      41.919  28.587  33.482  1.00  0.00     0.173 A 
ATOM     89  C   UNL A   1      42.870  30.288  34.878  1.00  0.00     0.173 A 
ATOM     90  F   UNL A   1      41.645  28.057  32.283  1.00  0.00    -0.203 F 
ATOM     91  C   UNL A   1      41.638  27.818  34.609  1.00  0.00     0.198 A 
ATOM     92  C   UNL A   1      42.624  29.501  36.001  1.00  0.00     0.198 A 
ATOM     93  F   UNL A   1      43.492  31.467  35.043  1.00  0.00    -0.203 F 
ATOM     94  F   UNL A   1      41.046  26.622  34.478  1.00  0.00    -0.200 F 
ATOM     95  C   UNL A   1      41.995  28.274  35.868  1.00  0.00     0.200 A 
ATOM     96  F   UNL A   1      43.014  29.926  37.210  1.00  0.00    -0.200 F 
ATOM     97  F   UNL A   1      41.756  27.520  36.950  1.00  0.00    -0.200 F 
ENDBRANCH  64  87
ENDBRANCH  38  39
ENDBRANCH  30  33
ENDBRANCH  28  29
ENDBRANCH  27  28
ENDBRANCH   1  27
TORSDOF 14
ENDMDL
MODEL 2
REMARK VINA RESULT:     -13.5      1.340      2.091
REMARK SMILES Cc1ccc(C)c(NS(=O)(=O)c2cc(C(=O)NCCCCNC(=O)c3ccc(-c4c5nc(c(-c6c(F)c(F)c(F)c(F)c6F)c6ccc([nH]6)c(-c6c(F)c(F)c(F)c(F)c6F)c6nc(c(-c7c(F)c(F)c(F)c(F)c7F)c7ccc4[nH]7)C=C6)C=C5)cc3)ccc2Cl)c1
REMARK SMILES IDX 19 1 18 2 17 3 15 4 16 5 14 7 12 8 13 9 90 10 89 11 91 12
REMARK SMILES IDX 88 13 9 14 10 15 11 16 8 17 7 19 1 20 2 21 3 22 92 23 4 24
REMARK SMILES IDX 5 25 6 26 20 27 21 28 22 29 23 30 24 32 25 33 26 34 87 35
REMARK SMILES IDX 27 36 86 37 28 38 29 39 30 40 80 41 31 42 85 43 79 44 81 45
REMARK SMILES IDX 32 46 84 47 78 48 77 49 33 51 65 52 45 53 64 54 46 55 49 56
REMARK SMILES IDX 63 57 82 58 47 59 48 60 62 62 83 63 50 64 34 65 35 66 43 67
REMARK SMILES IDX 36 68 37 69 41 70 44 71 38 72 39 73 42 74 40 75 66 76 67 77
REMARK SMILES IDX 75 78 68 79 69 80 73 81 76 82 70 83 71 84 74 85 72 86 51 87
REMARK SMILES IDX 52 88 60 89 53 90 54 91 58 92 61 93 55 94 56 95 59 96 57 97
REMARK H PARENT 17 6 8 18 22 31 81 50 49 61
REMARK Flexibility Score: inf
ROOT
ATOM      1  C   UNL A   1      36.162  20.719  25.235  1.00  0.00     0.023 C 
ENDROOT
BRANCH   1   2
ATOM      2  C   UNL A   1      35.487  19.488  24.622  1.00  0.00     0.116 C 
BRANCH   2   3
ATOM      3  N   UNL A   1      34.270  19.062  25.281  1.00  0.00    -0.352 N 
ATOM      4  C   UNL A   1      32.957  19.434  25.130  1.00  0.00     0.251 C 
ATOM      5  O   UNL A   1      32.116  18.653  25.583  1.00  0.00    -0.269 OA
ATOM      6  H   UNL A   1      34.411  18.373  25.970  1.00  0.00     0.163 HD
BRANCH   4   7
ATOM      7  C   UNL A   1      32.483  20.714  24.511  1.00  0.00     0.041 A 
ATOM      8  C   UNL A   1      32.038  23.108  24.872  1.00  0.00     0.107 A 
ATOM      9  C   UNL A   1      32.390  21.830  25.360  1.00  0.00     0.037 A 
ATOM     10  C   UNL A   1      31.904  23.312  23.507  1.00  0.00     0.061 A 
ATOM     11  C   UNL A   1      31.910  22.196  22.667  1.00  0.00     0.023 A 
ATOM     12  Cl  UNL A   1      31.829  24.858  22.755  1.00  0.00    -0.083 Cl
ATOM     13  C   UNL A   1      32.172  20.911  23.168  1.00  0.00     0.015 A 
BRANCH   8  14
ATOM     14  S   UNL A   1      31.620  24.327  26.083  1.00  0.00     0.263 S 
ATOM     15  O   UNL A   1      31.633  23.664  27.363  1.00  0.00    -0.201 OA
ATOM     16  O   UNL A   1      30.412  24.994  25.619  1.00  0.00    -0.201 OA
BRANCH  14  17
ATOM     17  N   UNL A   1      32.812  25.505  26.161  1.00  0.00    -0.279 N 
ATOM     18  H   UNL A   1      33.671  25.231  26.558  1.00  0.00     0.180 HD
BRANCH  17  19
ATOM     19  C   UNL A   1      32.723  26.864  25.716  1.00  0.00     0.052 A 
ATOM     20  C   UNL A   1      34.248  28.615  22.671  1.00  0.00     0.044 C 
ATOM     21  C   UNL A   1      33.432  28.370  23.904  1.00  0.00    -0.049 A 
ATOM     22  C   UNL A   1      32.593  29.354  24.415  1.00  0.00     0.004 A 
ATOM     23  C   UNL A   1      33.464  27.127  24.545  1.00  0.00     0.030 A 
ATOM     24  C   UNL A   1      31.929  29.141  25.623  1.00  0.00     0.006 A 
ATOM     25  C   UNL A   1      32.054  27.929  26.334  1.00  0.00    -0.027 A 
ATOM     26  C   UNL A   1      31.497  27.901  27.725  1.00  0.00     0.046 C 
ENDBRANCH  17  19
ENDBRANCH  14  17
ENDBRANCH   8  14
ENDBRANCH   4   7
ENDBRANCH   2   3
ENDBRANCH   1   2
BRANCH   1  27
ATOM     27  C   UNL A   1      37.652  20.992  24.970  1.00  0.00     0.023 C 
BRANCH  27  28
ATOM     28  C   UNL A   1      38.422  22.067  25.757  1.00  0.00     0.116 C 
BRANCH  28  29
ATOM     29  N   UNL A   1      39.838  21.800  25.974  1.00  0.00    -0.352 N 
ATOM     30  C   UNL A   1      40.900  22.569  26.401  1.00  0.00     0.251 C 
ATOM     31  H   UNL A   1      40.091  20.869  25.773  1.00  0.00     0.163 HD
ATOM     32  O   UNL A   1      42.037  22.148  26.184  1.00  0.00    -0.269 OA
BRANCH  30  33
ATOM     33  C   UNL A   1      40.738  23.833  27.167  1.00  0.00     0.039 A 
ATOM     34  C   UNL A   1      39.642  24.679  26.922  1.00  0.00     0.014 A 
ATOM     35  C   UNL A   1      41.715  24.268  28.051  1.00  0.00     0.014 A 
ATOM     36  C   UNL A   1      39.607  25.960  27.487  1.00  0.00     0.010 A 
ATOM     37  C   UNL A   1      41.654  25.486  28.672  1.00  0.00     0.010 A 
ATOM     38  C   UNL A   1      40.656  26.369  28.317  1.00  0.00    -0.014 A 
BRANCH  38  39
ATOM     39  C   UNL A   1      40.781  27.709  28.856  1.00  0.00     0.031 A 
ATOM     40  C   UNL A   1      41.850  28.549  28.284  1.00  0.00     0.074 A 
ATOM     41  C   UNL A   1      39.803  28.319  29.558  1.00  0.00     0.049 A 
ATOM     42  N   UNL A   1      42.897  28.995  28.886  1.00  0.00    -0.248 NA
ATOM     43  C   UNL A   1      41.759  28.914  26.864  1.00  0.00     0.031 C 
ATOM     44  C   UNL A   1      38.439  27.849  29.834  1.00  0.00     0.029 A 
ATOM     45  N   UNL A   1      39.811  29.576  30.085  1.00  0.00    -0.354 N 
ATOM     46  C   UNL A   1      43.529  29.833  27.978  1.00  0.00     0.074 A 
ATOM     47  C   UNL A   1      42.864  29.647  26.712  1.00  0.00     0.031 C 
ATOM     48  C   UNL A   1      37.703  28.874  30.320  1.00  0.00     0.029 A 
ATOM     49  C   UNL A   1      38.580  30.008  30.549  1.00  0.00     0.049 A 
ATOM     50  H   UNL A   1      40.623  30.130  30.132  1.00  0.00     0.167 HD
ATOM     51  C   UNL A   1      44.425  30.770  28.388  1.00  0.00     0.037 A 
ATOM     52  C   UNL A   1      38.304  31.220  31.081  1.00  0.00     0.037 A 
ATOM     53  C   UNL A   1      44.802  30.583  29.765  1.00  0.00     0.049 A 
ATOM     54  C   UNL A   1      39.586  31.817  31.527  1.00  0.00     0.074 A 
ATOM     55  C   UNL A   1      45.408  29.570  30.483  1.00  0.00     0.029 A 
ATOM     56  N   UNL A   1      44.211  31.401  30.694  1.00  0.00    -0.354 N 
ATOM     57  N   UNL A   1      40.310  31.364  32.513  1.00  0.00    -0.248 NA
ATOM     58  C   UNL A   1      40.255  32.773  30.656  1.00  0.00     0.031 C 
ATOM     59  C   UNL A   1      44.789  29.593  31.769  1.00  0.00     0.029 A 
ATOM     60  C   UNL A   1      43.852  30.629  31.771  1.00  0.00     0.049 A 
ATOM     61  H   UNL A   1      44.070  32.371  30.605  1.00  0.00     0.167 HD
ATOM     62  C   UNL A   1      41.616  31.647  32.151  1.00  0.00     0.074 A 
ATOM     63  C   UNL A   1      41.506  32.648  31.100  1.00  0.00     0.031 C 
ATOM     64  C   UNL A   1      42.641  30.832  32.536  1.00  0.00     0.037 A 
BRANCH  51  65
ATOM     65  C   UNL A   1      44.722  32.044  27.651  1.00  0.00     0.064 A 
ATOM     66  C   UNL A   1      45.949  32.185  26.979  1.00  0.00     0.173 A 
ATOM     67  C   UNL A   1      43.958  33.220  27.796  1.00  0.00     0.173 A 
ATOM     68  F   UNL A   1      46.770  31.133  26.831  1.00  0.00    -0.203 F 
ATOM     69  C   UNL A   1      46.394  33.422  26.511  1.00  0.00     0.198 A 
ATOM     70  C   UNL A   1      44.377  34.444  27.276  1.00  0.00     0.198 A 
ATOM     71  F   UNL A   1      42.840  33.246  28.533  1.00  0.00    -0.203 F 
ATOM     72  F   UNL A   1      47.615  33.531  25.970  1.00  0.00    -0.200 F 
ATOM     73  C   UNL A   1      45.606  34.550  26.655  1.00  0.00     0.200 A 
ATOM     74  F   UNL A   1      43.612  35.531  27.448  1.00  0.00    -0.200 F 
ATOM     75  F   UNL A   1      46.047  35.745  26.243  1.00  0.00    -0.200 F 
ENDBRANCH  51  65
BRANCH  52  76
ATOM     76  C   UNL A   1      37.033  31.970  31.098  1.00  0.00     0.064 A 
ATOM     77  C   UNL A   1      36.268  32.067  32.270  1.00  0.00     0.173 A 
ATOM     78  C   UNL A   1      36.681  32.830  30.041  1.00  0.00     0.173 A 
ATOM     79  F   UNL A   1      36.566  31.310  33.335  1.00  0.00    -0.203 F 
ATOM     80  C   UNL A   1      35.230  32.993  32.390  1.00  0.00     0.198 A 
ATOM     81  C   UNL A   1      35.638  33.749  30.159  1.00  0.00     0.198 A 
ATOM     82  F   UNL A   1      37.407  32.861  28.913  1.00  0.00    -0.203 F 
ATOM     83  F   UNL A   1      34.569  33.106  33.551  1.00  0.00    -0.200 F 
ATOM     84  C   UNL A   1      34.923  33.842  31.339  1.00  0.00     0.200 A 
ATOM     85  F   UNL A   1      35.376  34.591  29.149  1.00  0.00    -0.200 F 
ATOM     86  F   UNL A   1      33.974  34.777  31.479  1.00  0.00    -0.200 F 
ENDBRANCH  52  76
BRANCH  64  87
ATOM     87  C   UNL A   1      42.384  29.899  33.685  1.00  0.00     0.064 A 
ATOM     88  C   UNL A   1      41.902  28.586  33.546  1.00  0.00     0.173 A 
ATOM     89  C   UNL A   1      42.733  30.322  34.975  1.00  0.00     0.173 A 
ATOM     90  F   UNL A   1      41.645  28.069  32.338  1.00  0.00    -0.203 F 
ATOM     91  C   UNL A   1      41.721  27.760  34.654  1.00  0.00     0.198 A 
ATOM     92  C   UNL A   1      42.588  29.482  36.076  1.00  0.00     0.198 A 
ATOM     93  F   UNL A   1      43.251  31.546  35.163  1.00  0.00    -0.203 F 
ATOM     94  F   UNL A   1      41.235  26.520  34.497  1.00  0.00    -0.200 F 
ATOM     95  C   UNL A   1      42.069  28.208  35.918  1.00  0.00     0.200 A 
ATOM     96  F   UNL A   1      42.971  29.903  37.290  1.00  0.00    -0.200 F 
ATOM     97  F   UNL A   1      41.926  27.402  36.980  1.00  0.00    -0.200 F 
ENDBRANCH  64  87
ENDBRANCH  38  39
ENDBRANCH  30  33
ENDBRANCH  28  29
ENDBRANCH  27  28
ENDBRANCH   1  27
TORSDOF 14
ENDMDL
MODEL 3
REMARK VINA RESULT:     -13.5      1.628      2.397
REMARK SMILES Cc1ccc(C)c(NS(=O)(=O)c2cc(C(=O)NCCCCNC(=O)c3ccc(-c4c5nc(c(-c6c(F)c(F)c(F)c(F)c6F)c6ccc([nH]6)c(-c6c(F)c(F)c(F)c(F)c6F)c6nc(c(-c7c(F)c(F)c(F)c(F)c7F)c7ccc4[nH]7)C=C6)C=C5)cc3)ccc2Cl)c1
REMARK SMILES IDX 19 1 18 2 17 3 15 4 16 5 14 7 12 8 13 9 90 10 89 11 91 12
REMARK SMILES IDX 88 13 9 14 10 15 11 16 8 17 7 19 1 20 2 21 3 22 92 23 4 24
REMARK SMILES IDX 5 25 6 26 20 27 21 28 22 29 23 30 24 32 25 33 26 34 87 35
REMARK SMILES IDX 27 36 86 37 28 38 29 39 30 40 80 41 31 42 85 43 79 44 81 45
REMARK SMILES IDX 32 46 84 47 78 48 77 49 33 51 65 52 45 53 64 54 46 55 49 56
REMARK SMILES IDX 63 57 82 58 47 59 48 60 62 62 83 63 50 64 34 65 35 66 43 67
REMARK SMILES IDX 36 68 37 69 41 70 44 71 38 72 39 73 42 74 40 75 66 76 67 77
REMARK SMILES IDX 75 78 68 79 69 80 73 81 76 82 70 83 71 84 74 85 72 86 51 87
REMARK SMILES IDX 52 88 60 89 53 90 54 91 58 92 61 93 55 94 56 95 59 96 57 97
REMARK H PARENT 17 6 8 18 22 31 81 50 49 61
REMARK Flexibility Score: inf
ROOT
ATOM      1  C   UNL A   1      39.306  21.504  25.992  1.00  0.00     0.023 C 
ENDROOT
BRANCH   1   2
ATOM      2  C   UNL A   1      37.941  22.157  25.756  1.00  0.00     0.116 C 
BRANCH   2   3
ATOM      3  N   UNL A   1      37.478  22.135  24.384  1.00  0.00    -0.352 N 
ATOM      4  C   UNL A   1      36.583  22.917  23.696  1.00  0.00     0.251 C 
ATOM      5  O   UNL A   1      36.658  22.875  22.466  1.00  0.00    -0.269 OA
ATOM      6  H   UNL A   1      37.884  21.423  23.838  1.00  0.00     0.163 HD
BRANCH   4   7
ATOM      7  C   UNL A   1      35.513  23.762  24.318  1.00  0.00     0.041 A 
ATOM      8  C   UNL A   1      33.622  25.284  23.906  1.00  0.00     0.107 A 
ATOM      9  C   UNL A   1      34.715  24.518  23.443  1.00  0.00     0.037 A 
ATOM     10  C   UNL A   1      33.235  25.198  25.235  1.00  0.00     0.061 A 
ATOM     11  C   UNL A   1      34.069  24.520  26.126  1.00  0.00     0.023 A 
ATOM     12  Cl  UNL A   1      31.740  25.785  25.854  1.00  0.00    -0.083 Cl
ATOM     13  C   UNL A   1      35.207  23.833  25.676  1.00  0.00     0.015 A 
BRANCH   8  14
ATOM     14  S   UNL A   1      32.933  26.446  22.765  1.00  0.00     0.263 S 
ATOM     15  O   UNL A   1      31.501  26.376  22.913  1.00  0.00    -0.201 OA
ATOM     16  O   UNL A   1      33.547  26.189  21.471  1.00  0.00    -0.201 OA
BRANCH  14  17
ATOM     17  N   UNL A   1      33.366  28.010  23.193  1.00  0.00    -0.279 N 
ATOM     18  H   UNL A   1      33.932  28.497  22.550  1.00  0.00     0.180 HD
BRANCH  17  19
ATOM     19  C   UNL A   1      33.006  28.716  24.387  1.00  0.00     0.052 A 
ATOM     20  C   UNL A   1      34.956  29.326  27.626  1.00  0.00     0.044 C 
ATOM     21  C   UNL A   1      33.880  29.395  26.585  1.00  0.00    -0.049 A 
ATOM     22  C   UNL A   1      32.756  30.192  26.767  1.00  0.00     0.004 A 
ATOM     23  C   UNL A   1      34.005  28.688  25.384  1.00  0.00     0.030 A 
ATOM     24  C   UNL A   1      31.720  30.156  25.835  1.00  0.00     0.006 A 
ATOM     25  C   UNL A   1      31.792  29.351  24.678  1.00  0.00    -0.027 A 
ATOM     26  C   UNL A   1      30.533  29.203  23.878  1.00  0.00     0.046 C 
ENDBRANCH  17  19
ENDBRANCH  14  17
ENDBRANCH   8  14
ENDBRANCH   4   7
ENDBRANCH   2   3
ENDBRANCH   1   2
BRANCH   1  27
ATOM     27  C   UNL A   1      40.110  21.837  27.260  1.00  0.00     0.023 C 
BRANCH  27  28
ATOM     28  C   UNL A   1      41.591  21.444  27.397  1.00  0.00     0.116 C 
BRANCH  28  29
ATOM     29  N   UNL A   1      42.496  22.043  26.425  1.00  0.00    -0.352 N 
ATOM     30  C   UNL A   1      42.665  23.323  25.940  1.00  0.00     0.251 C 
ATOM     31  H   UNL A   1      43.122  21.394  26.029  1.00  0.00     0.163 HD
ATOM     32  O   UNL A   1      43.302  23.462  24.895  1.00  0.00    -0.269 OA
BRANCH  30  33
ATOM     33  C   UNL A   1      42.183  24.537  26.652  1.00  0.00     0.039 A 
ATOM     34  C   UNL A   1      41.173  25.338  26.089  1.00  0.00     0.014 A 
ATOM     35  C   UNL A   1      42.789  24.975  27.819  1.00  0.00     0.014 A 
ATOM     36  C   UNL A   1      40.874  26.585  26.652  1.00  0.00     0.010 A 
ATOM     37  C   UNL A   1      42.452  26.155  28.425  1.00  0.00     0.010 A 
ATOM     38  C   UNL A   1      41.569  27.003  27.791  1.00  0.00    -0.014 A 
BRANCH  38  39
ATOM     39  C   UNL A   1      41.425  28.318  28.384  1.00  0.00     0.031 A 
ATOM     40  C   UNL A   1      42.429  29.326  27.995  1.00  0.00     0.074 A 
ATOM     41  C   UNL A   1      40.284  28.751  28.962  1.00  0.00     0.049 A 
ATOM     42  N   UNL A   1      43.310  29.883  28.751  1.00  0.00    -0.248 NA
ATOM     43  C   UNL A   1      42.477  29.748  26.588  1.00  0.00     0.031 C 
ATOM     44  C   UNL A   1      38.979  28.083  29.029  1.00  0.00     0.029 A 
ATOM     45  N   UNL A   1      40.040  29.967  29.523  1.00  0.00    -0.354 N 
ATOM     46  C   UNL A   1      43.930  30.845  27.967  1.00  0.00     0.074 A 
ATOM     47  C   UNL A   1      43.475  30.633  26.615  1.00  0.00     0.031 C 
ATOM     48  C   UNL A   1      38.043  28.969  29.439  1.00  0.00     0.029 A 
ATOM     49  C   UNL A   1      38.709  30.201  29.824  1.00  0.00     0.049 A 
ATOM     50  H   UNL A   1      40.750  30.626  29.701  1.00  0.00     0.167 HD
ATOM     51  C   UNL A   1      44.619  31.875  28.527  1.00  0.00     0.037 A 
ATOM     52  C   UNL A   1      38.192  31.334  30.350  1.00  0.00     0.037 A 
ATOM     53  C   UNL A   1      44.831  31.672  29.937  1.00  0.00     0.049 A 
ATOM     54  C   UNL A   1      39.303  32.079  30.989  1.00  0.00     0.074 A 
ATOM     55  C   UNL A   1      45.475  30.718  30.700  1.00  0.00     0.029 A 
ATOM     56  N   UNL A   1      44.009  32.352  30.799  1.00  0.00    -0.354 N 
ATOM     57  N   UNL A   1      39.945  31.682  32.052  1.00  0.00    -0.248 NA
ATOM     58  C   UNL A   1      39.937  33.163  30.251  1.00  0.00     0.031 C 
ATOM     59  C   UNL A   1      44.692  30.590  31.887  1.00  0.00     0.029 A 
ATOM     60  C   UNL A   1      43.624  31.484  31.790  1.00  0.00     0.049 A 
ATOM     61  H   UNL A   1      43.743  33.297  30.722  1.00  0.00     0.167 HD
ATOM     62  C   UNL A   1      41.234  32.162  31.886  1.00  0.00     0.074 A 
ATOM     63  C   UNL A   1      41.123  33.190  30.862  1.00  0.00     0.031 C 
ATOM     64  C   UNL A   1      42.305  31.478  32.384  1.00  0.00     0.037 A 
BRANCH  51  65
ATOM     65  C   UNL A   1      44.824  33.214  27.879  1.00  0.00     0.064 A 
ATOM     66  C   UNL A   1      46.120  33.605  27.494  1.00  0.00     0.173 A 
ATOM     67  C   UNL A   1      43.842  34.224  27.857  1.00  0.00     0.173 A 
ATOM     68  F   UNL A   1      47.134  32.726  27.527  1.00  0.00    -0.203 F 
ATOM     69  C   UNL A   1      46.416  34.922  27.142  1.00  0.00     0.198 A 
ATOM     70  C   UNL A   1      44.127  35.526  27.448  1.00  0.00     0.198 A 
ATOM     71  F   UNL A   1      42.606  34.014  28.330  1.00  0.00    -0.203 F 
ATOM     72  F   UNL A   1      47.683  35.274  26.883  1.00  0.00    -0.200 F 
ATOM     73  C   UNL A   1      45.419  35.881  27.114  1.00  0.00     0.200 A 
ATOM     74  F   UNL A   1      43.154  36.448  27.451  1.00  0.00    -0.200 F 
ATOM     75  F   UNL A   1      45.708  37.154  26.814  1.00  0.00    -0.200 F 
ENDBRANCH  51  65
BRANCH  52  76
ATOM     76  C   UNL A   1      36.835  31.899  30.213  1.00  0.00     0.064 A 
ATOM     77  C   UNL A   1      35.952  31.927  31.302  1.00  0.00     0.173 A 
ATOM     78  C   UNL A   1      36.476  32.664  29.087  1.00  0.00     0.173 A 
ATOM     79  F   UNL A   1      36.243  31.256  32.425  1.00  0.00    -0.203 F 
ATOM     80  C   UNL A   1      34.790  32.703  31.281  1.00  0.00     0.198 A 
ATOM     81  C   UNL A   1      35.311  33.431  29.064  1.00  0.00     0.198 A 
ATOM     82  F   UNL A   1      37.299  32.759  28.033  1.00  0.00    -0.203 F 
ATOM     83  F   UNL A   1      34.008  32.761  32.368  1.00  0.00    -0.200 F 
ATOM     84  C   UNL A   1      34.477  33.463  30.166  1.00  0.00     0.200 A 
ATOM     85  F   UNL A   1      35.038  34.194  27.996  1.00  0.00    -0.200 F 
ATOM     86  F   UNL A   1      33.400  34.260  30.173  1.00  0.00    -0.200 F 
ENDBRANCH  52  76
BRANCH  64  87
ATOM     87  C   UNL A   1      42.034  30.461  33.456  1.00  0.00     0.064 A 
ATOM     88  C   UNL A   1      41.694  29.120  33.208  1.00  0.00     0.173 A 
ATOM     89  C   UNL A   1      42.222  30.839  34.793  1.00  0.00     0.173 A 
ATOM     90  F   UNL A   1      41.598  28.653  31.957  1.00  0.00    -0.203 F 
ATOM     91  C   UNL A   1      41.491  28.219  34.251  1.00  0.00     0.198 A 
ATOM     92  C   UNL A   1      42.057  29.927  35.833  1.00  0.00     0.198 A 
ATOM     93  F   UNL A   1      42.602  32.092  35.090  1.00  0.00    -0.203 F 
ATOM     94  F   UNL A   1      41.142  26.951  33.988  1.00  0.00    -0.200 F 
ATOM     95  C   UNL A   1      41.678  28.623  35.564  1.00  0.00     0.200 A 
ATOM     96  F   UNL A   1      42.285  30.310  37.097  1.00  0.00    -0.200 F 
ATOM     97  F   UNL A   1      41.516  27.748  36.566  1.00  0.00    -0.200 F 
ENDBRANCH  64  87
ENDBRANCH  38  39
ENDBRANCH  30  33
ENDBRANCH  28  29
ENDBRANCH  27  28
ENDBRANCH   1  27
TORSDOF 14
ENDMDL
