MODEL 1
REMARK VINA RESULT:     -11.6      0.000      0.000
REMARK SMILES Cc1nsc(N(C)C(=O)[C@@H](C)CCC[C@H](C)[NH3+])c1C(=O)NCCCCNC(=O)c1ccc(-c2c3nc(c(-c4c(F)c(F)c(F)c(F)c4F)c4ccc([nH]4)c(-c4c(F)c(F)c(F)c(F)c4F)c4nc(c(-c5c(F)c(F)c(F)c(F)c5F)c5ccc2[nH]5)C=C4)C=C3)cc1
REMARK SMILES IDX 1 1 2 2 3 3 4 4 5 5 18 6 19 7 20 8 21 9 22 11 23 12 24 13
REMARK SMILES IDX 25 14 26 15 27 16 28 18 29 19 30 20 91 21 31 22 90 23 32 24
REMARK SMILES IDX 33 25 34 26 84 27 35 28 89 29 83 30 85 31 36 32 88 33 82 34
REMARK SMILES IDX 81 35 37 37 69 38 49 39 68 40 50 41 53 42 67 43 86 44 51 45
REMARK SMILES IDX 52 46 66 48 87 49 54 50 38 51 39 52 47 53 40 54 41 55 45 56
REMARK SMILES IDX 48 57 42 58 43 59 46 60 44 61 70 62 71 63 79 64 72 65 73 66
REMARK SMILES IDX 77 67 80 68 74 69 75 70 78 71 76 72 55 73 56 74 64 75 57 76
REMARK SMILES IDX 58 77 62 78 65 79 59 80 60 81 63 82 61 83 6 84 7 85 8 86
REMARK SMILES IDX 9 87 10 88 11 89 12 90 13 91 14 92 15 93 16 94 17 95
REMARK H PARENT 21 10 26 17 85 36 53 47 17 96 17 97 17 98
REMARK Flexibility Score: inf
ROOT
ATOM      1  C   UNL A   1      37.332  23.707  25.292  1.00  0.00     0.069 C 
ATOM      2  C   UNL A   1      35.929  23.390  25.660  1.00  0.00     0.066 A 
ATOM      3  N   UNL A   1      35.866  22.420  26.573  1.00  0.00    -0.195 NA
ATOM      4  S   UNL A   1      34.315  22.070  26.897  1.00  0.00    -0.017 S 
ATOM      5  C   UNL A   1      33.628  23.096  25.708  1.00  0.00     0.131 A 
ATOM      6  C   UNL A   1      34.643  23.967  25.243  1.00  0.00     0.097 A 
ENDROOT
BRANCH   6   7
ATOM      7  C   UNL A   1      34.283  25.201  24.519  1.00  0.00     0.256 C 
ATOM      8  O   UNL A   1      34.167  25.194  23.287  1.00  0.00    -0.269 OA
ATOM      9  N   UNL A   1      34.044  26.437  25.068  1.00  0.00    -0.352 N 
ATOM     10  H   UNL A   1      34.458  27.181  24.574  1.00  0.00     0.163 HD
BRANCH   9  11
ATOM     11  C   UNL A   1      33.298  26.847  26.231  1.00  0.00     0.116 C 
BRANCH  11  12
ATOM     12  C   UNL A   1      32.670  28.233  26.083  1.00  0.00     0.023 C 
BRANCH  12  13
ATOM     13  C   UNL A   1      32.903  29.202  27.248  1.00  0.00     0.023 C 
BRANCH  13  14
ATOM     14  C   UNL A   1      33.918  30.308  26.976  1.00  0.00     0.116 C 
BRANCH  14  15
ATOM     15  N   UNL A   1      33.890  31.370  27.979  1.00  0.00    -0.352 N 
ATOM     16  C   UNL A   1      34.780  31.579  29.009  1.00  0.00     0.251 C 
ATOM     17  H   UNL A   1      33.147  32.012  27.911  1.00  0.00     0.163 HD
ATOM     18  O   UNL A   1      34.459  32.233  30.003  1.00  0.00    -0.269 OA
BRANCH  16  19
ATOM     19  C   UNL A   1      36.135  31.023  28.904  1.00  0.00     0.039 A 
ATOM     20  C   UNL A   1      37.259  31.853  28.900  1.00  0.00     0.014 A 
ATOM     21  C   UNL A   1      36.267  29.636  28.829  1.00  0.00     0.014 A 
ATOM     22  C   UNL A   1      38.524  31.272  28.909  1.00  0.00     0.010 A 
ATOM     23  C   UNL A   1      37.510  29.061  28.944  1.00  0.00     0.010 A 
ATOM     24  C   UNL A   1      38.640  29.874  28.955  1.00  0.00    -0.014 A 
BRANCH  24  25
ATOM     25  C   UNL A   1      39.936  29.245  29.191  1.00  0.00     0.031 A 
ATOM     26  C   UNL A   1      40.247  29.006  30.629  1.00  0.00     0.074 A 
ATOM     27  C   UNL A   1      40.677  28.717  28.194  1.00  0.00     0.049 A 
ATOM     28  N   UNL A   1      41.236  29.491  31.303  1.00  0.00    -0.248 NA
ATOM     29  C   UNL A   1      39.287  28.252  31.452  1.00  0.00     0.031 C 
ATOM     30  C   UNL A   1      40.354  28.648  26.765  1.00  0.00     0.029 A 
ATOM     31  N   UNL A   1      41.845  28.021  28.264  1.00  0.00    -0.354 N 
ATOM     32  C   UNL A   1      41.135  28.962  32.587  1.00  0.00     0.074 A 
ATOM     33  C   UNL A   1      39.836  28.347  32.665  1.00  0.00     0.031 C 
ATOM     34  C   UNL A   1      41.170  27.759  26.157  1.00  0.00     0.029 A 
ATOM     35  C   UNL A   1      42.161  27.303  27.114  1.00  0.00     0.049 A 
ATOM     36  H   UNL A   1      42.421  28.025  29.063  1.00  0.00     0.167 HD
ATOM     37  C   UNL A   1      42.232  28.881  33.392  1.00  0.00     0.037 A 
ATOM     38  C   UNL A   1      43.148  26.378  26.973  1.00  0.00     0.037 A 
ATOM     39  C   UNL A   1      43.286  29.733  32.900  1.00  0.00     0.049 A 
ATOM     40  C   UNL A   1      44.125  26.617  28.066  1.00  0.00     0.074 A 
ATOM     41  C   UNL A   1      43.402  31.091  32.668  1.00  0.00     0.029 A 
ATOM     42  N   UNL A   1      44.308  29.146  32.193  1.00  0.00    -0.354 N 
ATOM     43  N   UNL A   1      44.887  27.674  28.125  1.00  0.00    -0.248 NA
ATOM     44  C   UNL A   1      43.908  25.930  29.331  1.00  0.00     0.031 C 
ATOM     45  C   UNL A   1      44.149  31.194  31.458  1.00  0.00     0.029 A 
ATOM     46  C   UNL A   1      44.524  29.906  31.074  1.00  0.00     0.049 A 
ATOM     47  H   UNL A   1      44.795  28.329  32.445  1.00  0.00     0.167 HD
ATOM     48  C   UNL A   1      44.854  28.048  29.459  1.00  0.00     0.074 A 
ATOM     49  C   UNL A   1      44.311  26.890  30.169  1.00  0.00     0.031 C 
ATOM     50  C   UNL A   1      44.977  29.358  29.820  1.00  0.00     0.037 A 
BRANCH  37  51
ATOM     51  C   UNL A   1      42.512  27.763  34.372  1.00  0.00     0.064 A 
ATOM     52  C   UNL A   1      43.100  26.573  33.892  1.00  0.00     0.173 A 
ATOM     53  C   UNL A   1      41.945  27.679  35.661  1.00  0.00     0.173 A 
ATOM     54  F   UNL A   1      43.675  26.533  32.680  1.00  0.00    -0.203 F 
ATOM     55  C   UNL A   1      43.016  25.369  34.596  1.00  0.00     0.198 A 
ATOM     56  C   UNL A   1      41.909  26.487  36.383  1.00  0.00     0.198 A 
ATOM     57  F   UNL A   1      41.303  28.704  36.231  1.00  0.00    -0.203 F 
ATOM     58  F   UNL A   1      43.456  24.236  34.031  1.00  0.00    -0.200 F 
ATOM     59  C   UNL A   1      42.408  25.324  35.836  1.00  0.00     0.200 A 
ATOM     60  F   UNL A   1      41.304  26.461  37.579  1.00  0.00    -0.200 F 
ATOM     61  F   UNL A   1      42.258  24.160  36.480  1.00  0.00    -0.200 F 
ENDBRANCH  37  51
BRANCH  38  62
ATOM     62  C   UNL A   1      43.177  25.152  26.135  1.00  0.00     0.064 A 
ATOM     63  C   UNL A   1      44.216  24.926  25.214  1.00  0.00     0.173 A 
ATOM     64  C   UNL A   1      42.351  24.046  26.418  1.00  0.00     0.173 A 
ATOM     65  F   UNL A   1      45.076  25.909  24.911  1.00  0.00    -0.203 F 
ATOM     66  C   UNL A   1      44.437  23.666  24.644  1.00  0.00     0.198 A 
ATOM     67  C   UNL A   1      42.567  22.791  25.844  1.00  0.00     0.198 A 
ATOM     68  F   UNL A   1      41.373  24.131  27.331  1.00  0.00    -0.203 F 
ATOM     69  F   UNL A   1      45.481  23.476  23.825  1.00  0.00    -0.200 F 
ATOM     70  C   UNL A   1      43.621  22.597  24.971  1.00  0.00     0.200 A 
ATOM     71  F   UNL A   1      41.790  21.758  26.195  1.00  0.00    -0.200 F 
ATOM     72  F   UNL A   1      43.871  21.375  24.480  1.00  0.00    -0.200 F 
ENDBRANCH  38  62
BRANCH  50  73
ATOM     73  C   UNL A   1      45.404  30.343  28.767  1.00  0.00     0.064 A 
ATOM     74  C   UNL A   1      44.517  31.012  27.904  1.00  0.00     0.173 A 
ATOM     75  C   UNL A   1      46.749  30.730  28.732  1.00  0.00     0.173 A 
ATOM     76  F   UNL A   1      43.201  30.778  27.946  1.00  0.00    -0.203 F 
ATOM     77  C   UNL A   1      44.968  31.987  27.017  1.00  0.00     0.198 A 
ATOM     78  C   UNL A   1      47.190  31.732  27.874  1.00  0.00     0.198 A 
ATOM     79  F   UNL A   1      47.630  30.169  29.574  1.00  0.00    -0.203 F 
ATOM     80  F   UNL A   1      44.104  32.601  26.195  1.00  0.00    -0.200 F 
ATOM     81  C   UNL A   1      46.304  32.351  27.008  1.00  0.00     0.200 A 
ATOM     82  F   UNL A   1      48.474  32.117  27.907  1.00  0.00    -0.200 F 
ATOM     83  F   UNL A   1      46.733  33.318  26.184  1.00  0.00    -0.200 F 
ENDBRANCH  50  73
ENDBRANCH  24  25
ENDBRANCH  16  19
ENDBRANCH  14  15
ENDBRANCH  13  14
ENDBRANCH  12  13
ENDBRANCH  11  12
ENDBRANCH   9  11
ENDBRANCH   6   7
BRANCH   5  84
ATOM     84  N   UNL A   1      32.238  22.920  25.439  1.00  0.00    -0.305 N 
ATOM     85  C   UNL A   1      31.762  21.999  24.403  1.00  0.00     0.154 C 
BRANCH  84  86
ATOM     86  C   UNL A   1      31.347  23.808  26.056  1.00  0.00     0.230 C 
ATOM     87  O   UNL A   1      31.391  24.036  27.274  1.00  0.00    -0.274 OA
BRANCH  86  88
ATOM     88  C   UNL A   1      30.332  24.629  25.217  1.00  0.00     0.076 C 
ATOM     89  C   UNL A   1      29.575  25.604  26.128  1.00  0.00     0.018 C 
BRANCH  88  90
ATOM     90  C   UNL A   1      30.793  25.341  23.933  1.00  0.00     0.013 C 
BRANCH  90  91
ATOM     91  C   UNL A   1      30.119  26.686  23.651  1.00  0.00     0.007 C 
BRANCH  91  92
ATOM     92  C   UNL A   1      30.922  27.651  22.764  1.00  0.00     0.064 C 
BRANCH  92  93
ATOM     93  C   UNL A   1      30.440  29.118  22.741  1.00  0.00     0.177 C 
ATOM     94  C   UNL A   1      28.914  29.191  22.666  1.00  0.00     0.075 C 
BRANCH  93  95
ATOM     95  N   UNL A   1      30.979  29.889  21.619  1.00  0.00    -0.355 N 
ATOM     96  H   UNL A   1      31.976  30.048  21.765  1.00  0.00     0.344 HD
ATOM     97  H   UNL A   1      30.497  30.785  21.560  1.00  0.00     0.344 HD
ATOM     98  H   UNL A   1      30.840  29.370  20.753  1.00  0.00     0.344 HD
ENDBRANCH  93  95
ENDBRANCH  92  93
ENDBRANCH  91  92
ENDBRANCH  90  91
ENDBRANCH  88  90
ENDBRANCH  86  88
ENDBRANCH  84  86
ENDBRANCH   5  84
TORSDOF 19
ENDMDL
MODEL 2
REMARK VINA RESULT:     -11.3      3.046      8.220
REMARK SMILES Cc1nsc(N(C)C(=O)[C@@H](C)CCC[C@H](C)[NH3+])c1C(=O)NCCCCNC(=O)c1ccc(-c2c3nc(c(-c4c(F)c(F)c(F)c(F)c4F)c4ccc([nH]4)c(-c4c(F)c(F)c(F)c(F)c4F)c4nc(c(-c5c(F)c(F)c(F)c(F)c5F)c5ccc2[nH]5)C=C4)C=C3)cc1
REMARK SMILES IDX 1 1 2 2 3 3 4 4 5 5 18 6 19 7 20 8 21 9 22 11 23 12 24 13
REMARK SMILES IDX 25 14 26 15 27 16 28 18 29 19 30 20 91 21 31 22 90 23 32 24
REMARK SMILES IDX 33 25 34 26 84 27 35 28 89 29 83 30 85 31 36 32 88 33 82 34
REMARK SMILES IDX 81 35 37 37 69 38 49 39 68 40 50 41 53 42 67 43 86 44 51 45
REMARK SMILES IDX 52 46 66 48 87 49 54 50 38 51 39 52 47 53 40 54 41 55 45 56
REMARK SMILES IDX 48 57 42 58 43 59 46 60 44 61 70 62 71 63 79 64 72 65 73 66
REMARK SMILES IDX 77 67 80 68 74 69 75 70 78 71 76 72 55 73 56 74 64 75 57 76
REMARK SMILES IDX 58 77 62 78 65 79 59 80 60 81 63 82 61 83 6 84 7 85 8 86
REMARK SMILES IDX 9 87 10 88 11 89 12 90 13 91 14 92 15 93 16 94 17 95
REMARK H PARENT 21 10 26 17 85 36 53 47 17 96 17 97 17 98
REMARK Flexibility Score: inf
ROOT
ATOM      1  C   UNL A   1      34.243  19.844  24.598  1.00  0.00     0.069 C 
ATOM      2  C   UNL A   1      33.452  21.086  24.794  1.00  0.00     0.066 A 
ATOM      3  N   UNL A   1      32.562  20.952  25.777  1.00  0.00    -0.195 NA
ATOM      4  S   UNL A   1      31.685  22.311  25.912  1.00  0.00    -0.017 S 
ATOM      5  C   UNL A   1      32.345  23.109  24.546  1.00  0.00     0.131 A 
ATOM      6  C   UNL A   1      33.506  22.404  24.147  1.00  0.00     0.097 A 
ENDROOT
BRANCH   6   7
ATOM      7  C   UNL A   1      34.497  23.051  23.266  1.00  0.00     0.256 C 
ATOM      8  O   UNL A   1      34.166  23.462  22.146  1.00  0.00    -0.269 OA
ATOM      9  N   UNL A   1      35.824  23.274  23.541  1.00  0.00    -0.352 N 
ATOM     10  H   UNL A   1      36.428  23.069  22.792  1.00  0.00     0.163 HD
BRANCH   9  11
ATOM     11  C   UNL A   1      36.496  23.752  24.724  1.00  0.00     0.116 C 
BRANCH  11  12
ATOM     12  C   UNL A   1      36.728  22.657  25.765  1.00  0.00     0.023 C 
BRANCH  12  13
ATOM     13  C   UNL A   1      38.115  22.001  25.749  1.00  0.00     0.023 C 
BRANCH  13  14
ATOM     14  C   UNL A   1      39.235  22.846  26.346  1.00  0.00     0.116 C 
BRANCH  14  15
ATOM     15  N   UNL A   1      40.564  22.285  26.107  1.00  0.00    -0.352 N 
ATOM     16  C   UNL A   1      41.748  22.967  25.940  1.00  0.00     0.251 C 
ATOM     17  H   UNL A   1      40.618  21.303  26.060  1.00  0.00     0.163 HD
ATOM     18  O   UNL A   1      42.705  22.447  25.365  1.00  0.00    -0.269 OA
BRANCH  16  19
ATOM     19  C   UNL A   1      41.867  24.331  26.474  1.00  0.00     0.039 A 
ATOM     20  C   UNL A   1      41.345  25.426  25.782  1.00  0.00     0.014 A 
ATOM     21  C   UNL A   1      42.502  24.496  27.704  1.00  0.00     0.014 A 
ATOM     22  C   UNL A   1      41.388  26.682  26.380  1.00  0.00     0.010 A 
ATOM     23  C   UNL A   1      42.451  25.712  28.342  1.00  0.00     0.010 A 
ATOM     24  C   UNL A   1      41.922  26.812  27.671  1.00  0.00    -0.014 A 
BRANCH  24  25
ATOM     25  C   UNL A   1      41.779  28.062  28.411  1.00  0.00     0.031 A 
ATOM     26  C   UNL A   1      42.837  29.071  28.119  1.00  0.00     0.074 A 
ATOM     27  C   UNL A   1      40.666  28.365  29.114  1.00  0.00     0.049 A 
ATOM     28  N   UNL A   1      43.679  29.581  28.954  1.00  0.00    -0.248 NA
ATOM     29  C   UNL A   1      43.081  29.466  26.721  1.00  0.00     0.031 C 
ATOM     30  C   UNL A   1      39.443  27.569  29.258  1.00  0.00     0.029 A 
ATOM     31  N   UNL A   1      40.347  29.515  29.769  1.00  0.00    -0.354 N 
ATOM     32  C   UNL A   1      44.441  30.498  28.235  1.00  0.00     0.074 A 
ATOM     33  C   UNL A   1      44.144  30.264  26.847  1.00  0.00     0.031 C 
ATOM     34  C   UNL A   1      38.450  28.347  29.743  1.00  0.00     0.029 A 
ATOM     35  C   UNL A   1      38.997  29.649  30.078  1.00  0.00     0.049 A 
ATOM     36  H   UNL A   1      41.017  30.197  30.005  1.00  0.00     0.167 HD
ATOM     37  C   UNL A   1      45.074  31.524  28.871  1.00  0.00     0.037 A 
ATOM     38  C   UNL A   1      38.372  30.762  30.545  1.00  0.00     0.037 A 
ATOM     39  C   UNL A   1      45.161  31.266  30.288  1.00  0.00     0.049 A 
ATOM     40  C   UNL A   1      39.421  31.634  31.132  1.00  0.00     0.074 A 
ATOM     41  C   UNL A   1      45.734  30.270  31.055  1.00  0.00     0.029 A 
ATOM     42  N   UNL A   1      44.258  31.898  31.110  1.00  0.00    -0.354 N 
ATOM     43  N   UNL A   1      40.075  31.334  32.220  1.00  0.00    -0.248 NA
ATOM     44  C   UNL A   1      40.078  32.590  30.251  1.00  0.00     0.031 C 
ATOM     45  C   UNL A   1      44.801  30.035  32.108  1.00  0.00     0.029 A 
ATOM     46  C   UNL A   1      43.764  30.958  31.976  1.00  0.00     0.049 A 
ATOM     47  H   UNL A   1      44.013  32.850  31.082  1.00  0.00     0.167 HD
ATOM     48  C   UNL A   1      41.387  31.679  31.940  1.00  0.00     0.074 A 
ATOM     49  C   UNL A   1      41.315  32.529  30.751  1.00  0.00     0.031 C 
ATOM     50  C   UNL A   1      42.424  30.999  32.508  1.00  0.00     0.037 A 
BRANCH  37  51
ATOM     51  C   UNL A   1      45.258  32.916  28.309  1.00  0.00     0.064 A 
ATOM     52  C   UNL A   1      46.570  33.397  28.107  1.00  0.00     0.173 A 
ATOM     53  C   UNL A   1      44.245  33.896  28.271  1.00  0.00     0.173 A 
ATOM     54  F   UNL A   1      47.617  32.557  28.117  1.00  0.00    -0.203 F 
ATOM     55  C   UNL A   1      46.851  34.761  27.999  1.00  0.00     0.198 A 
ATOM     56  C   UNL A   1      44.524  35.252  28.111  1.00  0.00     0.198 A 
ATOM     57  F   UNL A   1      42.959  33.607  28.498  1.00  0.00    -0.203 F 
ATOM     58  F   UNL A   1      48.124  35.177  27.961  1.00  0.00    -0.200 F 
ATOM     59  C   UNL A   1      45.828  35.690  28.015  1.00  0.00     0.200 A 
ATOM     60  F   UNL A   1      43.519  36.139  28.141  1.00  0.00    -0.200 F 
ATOM     61  F   UNL A   1      46.097  37.001  27.988  1.00  0.00    -0.200 F 
ENDBRANCH  37  51
BRANCH  38  62
ATOM     62  C   UNL A   1      36.990  31.244  30.292  1.00  0.00     0.064 A 
ATOM     63  C   UNL A   1      36.222  31.823  31.318  1.00  0.00     0.173 A 
ATOM     64  C   UNL A   1      36.495  31.407  28.983  1.00  0.00     0.173 A 
ATOM     65  F   UNL A   1      36.633  31.750  32.593  1.00  0.00    -0.203 F 
ATOM     66  C   UNL A   1      35.057  32.553  31.048  1.00  0.00     0.198 A 
ATOM     67  C   UNL A   1      35.330  32.130  28.715  1.00  0.00     0.198 A 
ATOM     68  F   UNL A   1      37.180  30.954  27.924  1.00  0.00    -0.203 F 
ATOM     69  F   UNL A   1      34.394  33.149  32.049  1.00  0.00    -0.200 F 
ATOM     70  C   UNL A   1      34.621  32.717  29.745  1.00  0.00     0.200 A 
ATOM     71  F   UNL A   1      34.936  32.308  27.446  1.00  0.00    -0.200 F 
ATOM     72  F   UNL A   1      33.546  33.472  29.478  1.00  0.00    -0.200 F 
ENDBRANCH  38  62
BRANCH  50  73
ATOM     73  C   UNL A   1      42.113  30.047  33.629  1.00  0.00     0.064 A 
ATOM     74  C   UNL A   1      41.762  28.697  33.447  1.00  0.00     0.173 A 
ATOM     75  C   UNL A   1      42.324  30.484  34.943  1.00  0.00     0.173 A 
ATOM     76  F   UNL A   1      41.644  28.171  32.223  1.00  0.00    -0.203 F 
ATOM     77  C   UNL A   1      41.583  27.843  34.533  1.00  0.00     0.198 A 
ATOM     78  C   UNL A   1      42.184  29.618  36.023  1.00  0.00     0.198 A 
ATOM     79  F   UNL A   1      42.719  31.745  35.175  1.00  0.00    -0.203 F 
ATOM     80  F   UNL A   1      41.234  26.563  34.332  1.00  0.00    -0.200 F 
ATOM     81  C   UNL A   1      41.802  28.303  35.820  1.00  0.00     0.200 A 
ATOM     82  F   UNL A   1      42.448  30.056  37.262  1.00  0.00    -0.200 F 
ATOM     83  F   UNL A   1      41.670  27.472  36.864  1.00  0.00    -0.200 F 
ENDBRANCH  50  73
ENDBRANCH  24  25
ENDBRANCH  16  19
ENDBRANCH  14  15
ENDBRANCH  13  14
ENDBRANCH  12  13
ENDBRANCH  11  12
ENDBRANCH   9  11
ENDBRANCH   6   7
BRANCH   5  84
ATOM     84  N   UNL A   1      31.665  24.283  24.103  1.00  0.00    -0.305 N 
ATOM     85  C   UNL A   1      30.518  24.215  23.194  1.00  0.00     0.154 C 
BRANCH  84  86
ATOM     86  C   UNL A   1      32.257  25.517  24.400  1.00  0.00     0.230 C 
ATOM     87  O   UNL A   1      32.438  26.381  23.529  1.00  0.00    -0.274 OA
BRANCH  86  88
ATOM     88  C   UNL A   1      32.619  25.897  25.860  1.00  0.00     0.076 C 
ATOM     89  C   UNL A   1      34.088  26.332  25.935  1.00  0.00     0.018 C 
BRANCH  88  90
ATOM     90  C   UNL A   1      31.728  26.878  26.643  1.00  0.00     0.013 C 
BRANCH  90  91
ATOM     91  C   UNL A   1      32.466  28.030  27.329  1.00  0.00     0.007 C 
BRANCH  91  92
ATOM     92  C   UNL A   1      31.867  29.426  27.096  1.00  0.00     0.064 C 
BRANCH  92  93
ATOM     93  C   UNL A   1      32.167  30.078  25.729  1.00  0.00     0.177 C 
ATOM     94  C   UNL A   1      31.138  29.649  24.681  1.00  0.00     0.075 C 
BRANCH  93  95
ATOM     95  N   UNL A   1      33.496  29.752  25.209  1.00  0.00    -0.355 N 
ATOM     96  H   UNL A   1      34.196  30.324  25.683  1.00  0.00     0.344 HD
ATOM     97  H   UNL A   1      33.525  29.941  24.207  1.00  0.00     0.344 HD
ATOM     98  H   UNL A   1      33.693  28.766  25.375  1.00  0.00     0.344 HD
ENDBRANCH  93  95
ENDBRANCH  92  93
ENDBRANCH  91  92
ENDBRANCH  90  91
ENDBRANCH  88  90
ENDBRANCH  86  88
ENDBRANCH  84  86
ENDBRANCH   5  84
TORSDOF 19
ENDMDL
MODEL 3
REMARK VINA RESULT:     -11.0      1.998      3.709
REMARK SMILES Cc1nsc(N(C)C(=O)[C@@H](C)CCC[C@H](C)[NH3+])c1C(=O)NCCCCNC(=O)c1ccc(-c2c3nc(c(-c4c(F)c(F)c(F)c(F)c4F)c4ccc([nH]4)c(-c4c(F)c(F)c(F)c(F)c4F)c4nc(c(-c5c(F)c(F)c(F)c(F)c5F)c5ccc2[nH]5)C=C4)C=C3)cc1
REMARK SMILES IDX 1 1 2 2 3 3 4 4 5 5 18 6 19 7 20 8 21 9 22 11 23 12 24 13
REMARK SMILES IDX 25 14 26 15 27 16 28 18 29 19 30 20 91 21 31 22 90 23 32 24
REMARK SMILES IDX 33 25 34 26 84 27 35 28 89 29 83 30 85 31 36 32 88 33 82 34
REMARK SMILES IDX 81 35 37 37 69 38 49 39 68 40 50 41 53 42 67 43 86 44 51 45
REMARK SMILES IDX 52 46 66 48 87 49 54 50 38 51 39 52 47 53 40 54 41 55 45 56
REMARK SMILES IDX 48 57 42 58 43 59 46 60 44 61 70 62 71 63 79 64 72 65 73 66
REMARK SMILES IDX 77 67 80 68 74 69 75 70 78 71 76 72 55 73 56 74 64 75 57 76
REMARK SMILES IDX 58 77 62 78 65 79 59 80 60 81 63 82 61 83 6 84 7 85 8 86
REMARK SMILES IDX 9 87 10 88 11 89 12 90 13 91 14 92 15 93 16 94 17 95
REMARK H PARENT 21 10 26 17 85 36 53 47 17 96 17 97 17 98
REMARK Flexibility Score: inf
ROOT
ATOM      1  C   UNL A   1      31.050  27.854  27.591  1.00  0.00     0.069 C 
ATOM      2  C   UNL A   1      31.405  27.064  26.385  1.00  0.00     0.066 A 
ATOM      3  N   UNL A   1      30.596  26.015  26.228  1.00  0.00    -0.195 NA
ATOM      4  S   UNL A   1      31.060  25.153  24.934  1.00  0.00    -0.017 S 
ATOM      5  C   UNL A   1      32.479  26.051  24.595  1.00  0.00     0.131 A 
ATOM      6  C   UNL A   1      32.426  27.251  25.345  1.00  0.00     0.097 A 
ENDROOT
BRANCH   6   7
ATOM      7  C   UNL A   1      33.291  28.390  24.980  1.00  0.00     0.256 C 
ATOM      8  O   UNL A   1      33.111  28.996  23.915  1.00  0.00    -0.269 OA
ATOM      9  N   UNL A   1      34.335  28.899  25.711  1.00  0.00    -0.352 N 
ATOM     10  H   UNL A   1      35.134  29.111  25.175  1.00  0.00     0.163 HD
BRANCH   9  11
ATOM     11  C   UNL A   1      34.480  29.183  27.117  1.00  0.00     0.116 C 
BRANCH  11  12
ATOM     12  C   UNL A   1      34.473  30.679  27.430  1.00  0.00     0.023 C 
BRANCH  12  13
ATOM     13  C   UNL A   1      35.848  31.325  27.641  1.00  0.00     0.023 C 
BRANCH  13  14
ATOM     14  C   UNL A   1      35.814  32.798  28.037  1.00  0.00     0.116 C 
BRANCH  14  15
ATOM     15  N   UNL A   1      35.146  33.031  29.315  1.00  0.00    -0.352 N 
ATOM     16  C   UNL A   1      35.275  32.305  30.478  1.00  0.00     0.251 C 
ATOM     17  H   UNL A   1      34.530  33.799  29.350  1.00  0.00     0.163 HD
ATOM     18  O   UNL A   1      34.401  32.334  31.346  1.00  0.00    -0.269 OA
BRANCH  16  19
ATOM     19  C   UNL A   1      36.484  31.497  30.684  1.00  0.00     0.039 A 
ATOM     20  C   UNL A   1      36.425  30.102  30.719  1.00  0.00     0.014 A 
ATOM     21  C   UNL A   1      37.700  32.167  30.824  1.00  0.00     0.014 A 
ATOM     22  C   UNL A   1      37.611  29.380  30.808  1.00  0.00     0.010 A 
ATOM     23  C   UNL A   1      38.877  31.458  30.805  1.00  0.00     0.010 A 
ATOM     24  C   UNL A   1      38.836  30.066  30.827  1.00  0.00    -0.014 A 
BRANCH  24  25
ATOM     25  C   UNL A   1      40.095  29.341  30.693  1.00  0.00     0.031 A 
ATOM     26  C   UNL A   1      40.792  29.083  31.985  1.00  0.00     0.074 A 
ATOM     27  C   UNL A   1      40.475  28.755  29.538  1.00  0.00     0.049 A 
ATOM     28  N   UNL A   1      41.967  29.494  32.333  1.00  0.00    -0.248 NA
ATOM     29  C   UNL A   1      40.061  28.406  33.070  1.00  0.00     0.031 C 
ATOM     30  C   UNL A   1      39.747  28.707  28.266  1.00  0.00     0.029 A 
ATOM     31  N   UNL A   1      41.560  27.972  29.285  1.00  0.00    -0.354 N 
ATOM     32  C   UNL A   1      42.205  28.977  33.604  1.00  0.00     0.074 A 
ATOM     33  C   UNL A   1      40.944  28.463  34.070  1.00  0.00     0.031 C 
ATOM     34  C   UNL A   1      40.285  27.756  27.471  1.00  0.00     0.029 A 
ATOM     35  C   UNL A   1      41.476  27.229  28.111  1.00  0.00     0.049 A 
ATOM     36  H   UNL A   1      42.341  27.935  29.883  1.00  0.00     0.167 HD
ATOM     37  C   UNL A   1      43.479  28.815  34.059  1.00  0.00     0.037 A 
ATOM     38  C   UNL A   1      42.310  26.231  27.714  1.00  0.00     0.037 A 
ATOM     39  C   UNL A   1      44.404  29.584  33.262  1.00  0.00     0.049 A 
ATOM     40  C   UNL A   1      43.576  26.399  28.471  1.00  0.00     0.074 A 
ATOM     41  C   UNL A   1      44.544  30.928  32.973  1.00  0.00     0.029 A 
ATOM     42  N   UNL A   1      45.132  28.918  32.305  1.00  0.00    -0.354 N 
ATOM     43  N   UNL A   1      44.397  27.395  28.281  1.00  0.00    -0.248 NA
ATOM     44  C   UNL A   1      43.687  25.734  29.761  1.00  0.00     0.031 C 
ATOM     45  C   UNL A   1      44.914  30.970  31.596  1.00  0.00     0.029 A 
ATOM     46  C   UNL A   1      45.067  29.656  31.152  1.00  0.00     0.049 A 
ATOM     47  H   UNL A   1      45.611  28.067  32.425  1.00  0.00     0.167 HD
ATOM     48  C   UNL A   1      44.779  27.774  29.557  1.00  0.00     0.074 A 
ATOM     49  C   UNL A   1      44.384  26.662  30.423  1.00  0.00     0.031 C 
ATOM     50  C   UNL A   1      45.096  29.072  29.834  1.00  0.00     0.037 A 
BRANCH  37  51
ATOM     51  C   UNL A   1      43.951  27.683  34.943  1.00  0.00     0.064 A 
ATOM     52  C   UNL A   1      44.687  27.993  36.107  1.00  0.00     0.173 A 
ATOM     53  C   UNL A   1      43.999  26.331  34.542  1.00  0.00     0.173 A 
ATOM     54  F   UNL A   1      44.713  29.246  36.587  1.00  0.00    -0.203 F 
ATOM     55  C   UNL A   1      45.502  27.052  36.742  1.00  0.00     0.198 A 
ATOM     56  C   UNL A   1      44.773  25.382  35.209  1.00  0.00     0.198 A 
ATOM     57  F   UNL A   1      43.400  25.891  33.430  1.00  0.00    -0.203 F 
ATOM     58  F   UNL A   1      46.296  27.433  37.751  1.00  0.00    -0.200 F 
ATOM     59  C   UNL A   1      45.554  25.749  36.284  1.00  0.00     0.200 A 
ATOM     60  F   UNL A   1      44.820  24.126  34.742  1.00  0.00    -0.200 F 
ATOM     61  F   UNL A   1      46.389  24.864  36.842  1.00  0.00    -0.200 F 
ENDBRANCH  37  51
BRANCH  38  62
ATOM     62  C   UNL A   1      42.006  25.004  26.934  1.00  0.00     0.064 A 
ATOM     63  C   UNL A   1      42.861  24.567  25.906  1.00  0.00     0.173 A 
ATOM     64  C   UNL A   1      41.032  24.081  27.363  1.00  0.00     0.173 A 
ATOM     65  F   UNL A   1      43.842  25.363  25.458  1.00  0.00    -0.203 F 
ATOM     66  C   UNL A   1      42.771  23.275  25.370  1.00  0.00     0.198 A 
ATOM     67  C   UNL A   1      40.939  22.795  26.823  1.00  0.00     0.198 A 
ATOM     68  F   UNL A   1      40.210  24.368  28.381  1.00  0.00    -0.203 F 
ATOM     69  F   UNL A   1      43.650  22.874  24.441  1.00  0.00    -0.200 F 
ATOM     70  C   UNL A   1      41.820  22.387  25.840  1.00  0.00     0.200 A 
ATOM     71  F   UNL A   1      40.034  21.935  27.311  1.00  0.00    -0.200 F 
ATOM     72  F   UNL A   1      41.777  21.129  25.378  1.00  0.00    -0.200 F 
ENDBRANCH  38  62
BRANCH  50  73
ATOM     73  C   UNL A   1      45.268  30.018  28.679  1.00  0.00     0.064 A 
ATOM     74  C   UNL A   1      44.222  30.757  28.099  1.00  0.00     0.173 A 
ATOM     75  C   UNL A   1      46.569  30.295  28.241  1.00  0.00     0.173 A 
ATOM     76  F   UNL A   1      42.963  30.631  28.531  1.00  0.00    -0.203 F 
ATOM     77  C   UNL A   1      44.465  31.692  27.094  1.00  0.00     0.198 A 
ATOM     78  C   UNL A   1      46.814  31.257  27.267  1.00  0.00     0.198 A 
ATOM     79  F   UNL A   1      47.614  29.664  28.800  1.00  0.00    -0.203 F 
ATOM     80  F   UNL A   1      43.447  32.373  26.548  1.00  0.00    -0.200 F 
ATOM     81  C   UNL A   1      45.763  31.946  26.685  1.00  0.00     0.200 A 
ATOM     82  F   UNL A   1      48.076  31.536  26.912  1.00  0.00    -0.200 F 
ATOM     83  F   UNL A   1      46.004  32.874  25.748  1.00  0.00    -0.200 F 
ENDBRANCH  50  73
ENDBRANCH  24  25
ENDBRANCH  16  19
ENDBRANCH  14  15
ENDBRANCH  13  14
ENDBRANCH  12  13
ENDBRANCH  11  12
ENDBRANCH   9  11
ENDBRANCH   6   7
BRANCH   5  84
ATOM     84  N   UNL A   1      33.388  25.479  23.655  1.00  0.00    -0.305 N 
ATOM     85  C   UNL A   1      33.250  25.704  22.213  1.00  0.00     0.154 C 
BRANCH  84  86
ATOM     86  C   UNL A   1      34.295  24.527  24.137  1.00  0.00     0.230 C 
ATOM     87  O   UNL A   1      34.932  24.704  25.185  1.00  0.00    -0.274 OA
BRANCH  86  88
ATOM     88  C   UNL A   1      34.462  23.156  23.429  1.00  0.00     0.076 C 
ATOM     89  C   UNL A   1      35.798  22.522  23.834  1.00  0.00     0.018 C 
BRANCH  88  90
ATOM     90  C   UNL A   1      33.331  22.114  23.494  1.00  0.00     0.013 C 
BRANCH  90  91
ATOM     91  C   UNL A   1      33.554  20.964  24.480  1.00  0.00     0.007 C 
BRANCH  91  92
ATOM     92  C   UNL A   1      32.390  19.969  24.605  1.00  0.00     0.064 C 
BRANCH  92  93
ATOM     93  C   UNL A   1      32.723  18.490  24.313  1.00  0.00     0.177 C 
ATOM     94  C   UNL A   1      34.236  18.270  24.254  1.00  0.00     0.075 C 
BRANCH  93  95
ATOM     95  N   UNL A   1      32.152  18.003  23.055  1.00  0.00    -0.355 N 
ATOM     96  H   UNL A   1      32.352  18.672  22.311  1.00  0.00     0.344 HD
ATOM     97  H   UNL A   1      31.144  17.899  23.158  1.00  0.00     0.344 HD
ATOM     98  H   UNL A   1      32.565  17.100  22.822  1.00  0.00     0.344 HD
ENDBRANCH  93  95
ENDBRANCH  92  93
ENDBRANCH  91  92
ENDBRANCH  90  91
ENDBRANCH  88  90
ENDBRANCH  86  88
ENDBRANCH  84  86
ENDBRANCH   5  84
TORSDOF 19
ENDMDL
