MODEL 1
REMARK VINA RESULT:     -13.0      0.000      0.000
REMARK SMILES CC(C)c1cc2c(cc1Cl)C=C(C(=O)NCCCCNC(=O)c1ccc(-c3c4nc(c(-c5c(F)c(F)c(F)c(F)c5F)c5ccc([nH]5)c(-c5c(F)c(F)c(F)c(F)c5F)c5nc(c(-c6c(F)c(F)c(F)c(F)c6F)c6ccc3[nH]6)C=C5)C=C4)cc1)[C@@H](C(F)(F)F)O2
REMARK SMILES IDX 18 1 17 2 16 3 15 4 13 5 14 6 12 8 4 9 5 10 9 11 6 12 8 13
REMARK SMILES IDX 10 14 7 15 91 16 11 17 86 18 2 19 1 20 3 21 87 22 88 23
REMARK SMILES IDX 89 24 90 25 19 26 20 27 21 28 22 30 23 31 24 32 85 33 25 34
REMARK SMILES IDX 84 35 26 36 27 37 28 38 78 39 29 40 83 41 77 42 79 43 30 44
REMARK SMILES IDX 82 45 76 46 75 47 31 49 63 50 43 51 62 52 44 53 47 54 61 55
REMARK SMILES IDX 80 56 45 57 46 58 60 60 81 61 48 62 32 63 33 64 41 65 34 66
REMARK SMILES IDX 35 67 39 68 42 69 36 70 37 71 40 72 38 73 64 74 65 75 73 76
REMARK SMILES IDX 66 77 67 78 71 79 74 80 68 81 69 82 72 83 70 84 49 85 50 86
REMARK SMILES IDX 58 87 51 88 52 89 56 90 59 91 53 92 54 93 57 94 55 95
REMARK H PARENT 15 7 20 29 79 48 47 59
REMARK Flexibility Score: inf
ROOT
ATOM      1  C   UNL A   1      31.773  29.318  26.924  1.00  0.00     0.023 C 
ENDROOT
BRANCH   1   2
ATOM      2  C   UNL A   1      32.177  27.860  26.687  1.00  0.00     0.023 C 
BRANCH   2   3
ATOM      3  C   UNL A   1      31.371  27.153  25.600  1.00  0.00     0.116 C 
BRANCH   3   4
ATOM      4  N   UNL A   1      30.593  26.045  26.126  1.00  0.00    -0.352 N 
ATOM      5  C   UNL A   1      30.750  24.707  26.265  1.00  0.00     0.251 C 
ATOM      6  O   UNL A   1      29.795  24.119  26.783  1.00  0.00    -0.270 OA
ATOM      7  H   UNL A   1      29.722  26.346  26.473  1.00  0.00     0.163 HD
BRANCH   5   8
ATOM      8  C   UNL A   1      31.955  23.929  25.845  1.00  0.00     0.067 C 
ATOM      9  C   UNL A   1      36.721  22.226  25.306  1.00  0.00    -0.023 A 
ATOM     10  C   UNL A   1      35.430  21.764  24.960  1.00  0.00     0.052 A 
ATOM     11  C   UNL A   1      36.790  23.468  25.964  1.00  0.00     0.045 A 
ATOM     12  C   UNL A   1      34.274  22.477  25.275  1.00  0.00     0.128 A 
ATOM     13  C   UNL A   1      35.617  24.192  26.263  1.00  0.00     0.032 A 
ATOM     14  Cl  UNL A   1      38.251  24.215  26.498  1.00  0.00    -0.084 Cl
ATOM     15  C   UNL A   1      34.357  23.695  25.931  1.00  0.00     0.019 A 
ATOM     16  O   UNL A   1      33.091  21.880  24.960  1.00  0.00    -0.475 OA
ATOM     17  C   UNL A   1      33.134  24.392  26.302  1.00  0.00     0.025 C 
ATOM     18  C   UNL A   1      31.913  22.730  24.940  1.00  0.00     0.314 C 
BRANCH   9  19
ATOM     19  C   UNL A   1      37.864  21.281  24.929  1.00  0.00     0.014 C 
ATOM     20  C   UNL A   1      39.130  21.243  25.786  1.00  0.00     0.012 C 
ATOM     21  C   UNL A   1      37.337  19.844  24.773  1.00  0.00     0.012 C 
ENDBRANCH   9  19
BRANCH  18  22
ATOM     22  C   UNL A   1      31.602  23.098  23.478  1.00  0.00     0.429 C 
ATOM     23  F   UNL A   1      31.942  22.075  22.653  1.00  0.00    -0.167 F 
ATOM     24  F   UNL A   1      30.286  23.336  23.268  1.00  0.00    -0.167 F 
ATOM     25  F   UNL A   1      32.274  24.195  23.064  1.00  0.00    -0.167 F 
ENDBRANCH  18  22
ENDBRANCH   5   8
ENDBRANCH   3   4
ENDBRANCH   2   3
ENDBRANCH   1   2
BRANCH   1  26
ATOM     26  C   UNL A   1      32.708  30.366  26.322  1.00  0.00     0.116 C 
BRANCH  26  27
ATOM     27  N   UNL A   1      32.494  31.719  26.816  1.00  0.00    -0.352 N 
ATOM     28  C   UNL A   1      33.365  32.493  27.551  1.00  0.00     0.251 C 
ATOM     29  H   UNL A   1      31.625  32.128  26.601  1.00  0.00     0.163 HD
ATOM     30  O   UNL A   1      33.039  33.602  27.959  1.00  0.00    -0.269 OA
BRANCH  28  31
ATOM     31  C   UNL A   1      34.685  31.929  27.892  1.00  0.00     0.039 A 
ATOM     32  C   UNL A   1      34.796  30.589  28.264  1.00  0.00     0.014 A 
ATOM     33  C   UNL A   1      35.787  32.784  27.959  1.00  0.00     0.014 A 
ATOM     34  C   UNL A   1      35.966  30.147  28.870  1.00  0.00     0.010 A 
ATOM     35  C   UNL A   1      36.984  32.318  28.504  1.00  0.00     0.010 A 
ATOM     36  C   UNL A   1      37.061  31.015  29.021  1.00  0.00    -0.014 A 
BRANCH  36  37
ATOM     37  C   UNL A   1      38.254  30.552  29.771  1.00  0.00     0.031 A 
ATOM     38  C   UNL A   1      38.453  30.950  31.209  1.00  0.00     0.074 A 
ATOM     39  C   UNL A   1      39.114  29.703  29.179  1.00  0.00     0.049 A 
ATOM     40  N   UNL A   1      39.422  30.625  32.028  1.00  0.00    -0.248 NA
ATOM     41  C   UNL A   1      37.434  31.826  31.808  1.00  0.00     0.031 C 
ATOM     42  C   UNL A   1      39.007  29.224  27.801  1.00  0.00     0.029 A 
ATOM     43  N   UNL A   1      40.226  29.067  29.669  1.00  0.00    -0.354 N 
ATOM     44  C   UNL A   1      39.141  31.272  33.226  1.00  0.00     0.074 A 
ATOM     45  C   UNL A   1      37.921  32.023  33.025  1.00  0.00     0.031 C 
ATOM     46  C   UNL A   1      39.976  28.325  27.573  1.00  0.00     0.029 A 
ATOM     47  C   UNL A   1      40.804  28.208  28.770  1.00  0.00     0.049 A 
ATOM     48  H   UNL A   1      40.575  29.214  30.578  1.00  0.00     0.167 HD
ATOM     49  C   UNL A   1      39.835  31.232  34.387  1.00  0.00     0.037 A 
ATOM     50  C   UNL A   1      41.886  27.417  28.892  1.00  0.00     0.037 A 
ATOM     51  C   UNL A   1      41.030  30.458  34.596  1.00  0.00     0.049 A 
ATOM     52  C   UNL A   1      42.652  27.416  30.184  1.00  0.00     0.074 A 
ATOM     53  C   UNL A   1      41.799  30.350  35.742  1.00  0.00     0.029 A 
ATOM     54  N   UNL A   1      41.622  29.650  33.638  1.00  0.00    -0.354 N 
ATOM     55  N   UNL A   1      42.391  28.055  31.298  1.00  0.00    -0.248 NA
ATOM     56  C   UNL A   1      43.873  26.598  30.228  1.00  0.00     0.031 C 
ATOM     57  C   UNL A   1      42.873  29.496  35.469  1.00  0.00     0.029 A 
ATOM     58  C   UNL A   1      42.754  29.048  34.163  1.00  0.00     0.049 A 
ATOM     59  H   UNL A   1      41.288  29.522  32.721  1.00  0.00     0.167 HD
ATOM     60  C   UNL A   1      43.411  27.718  32.176  1.00  0.00     0.074 A 
ATOM     61  C   UNL A   1      44.284  26.799  31.473  1.00  0.00     0.031 C 
ATOM     62  C   UNL A   1      43.612  28.142  33.447  1.00  0.00     0.037 A 
BRANCH  49  63
ATOM     63  C   UNL A   1      39.328  32.053  35.535  1.00  0.00     0.064 A 
ATOM     64  C   UNL A   1      38.460  31.512  36.495  1.00  0.00     0.173 A 
ATOM     65  C   UNL A   1      39.775  33.370  35.718  1.00  0.00     0.173 A 
ATOM     66  F   UNL A   1      37.995  30.262  36.356  1.00  0.00    -0.203 F 
ATOM     67  C   UNL A   1      38.055  32.264  37.595  1.00  0.00     0.198 A 
ATOM     68  C   UNL A   1      39.383  34.112  36.829  1.00  0.00     0.198 A 
ATOM     69  F   UNL A   1      40.608  33.930  34.829  1.00  0.00    -0.203 F 
ATOM     70  F   UNL A   1      37.208  31.736  38.490  1.00  0.00    -0.200 F 
ATOM     71  C   UNL A   1      38.523  33.558  37.766  1.00  0.00     0.200 A 
ATOM     72  F   UNL A   1      39.843  35.360  36.997  1.00  0.00    -0.200 F 
ATOM     73  F   UNL A   1      38.142  34.275  38.833  1.00  0.00    -0.200 F 
ENDBRANCH  49  63
BRANCH  50  74
ATOM     74  C   UNL A   1      42.297  26.558  27.756  1.00  0.00     0.064 A 
ATOM     75  C   UNL A   1      43.248  27.003  26.828  1.00  0.00     0.173 A 
ATOM     76  C   UNL A   1      41.776  25.266  27.594  1.00  0.00     0.173 A 
ATOM     77  F   UNL A   1      43.758  28.238  26.934  1.00  0.00    -0.203 F 
ATOM     78  C   UNL A   1      43.661  26.187  25.778  1.00  0.00     0.198 A 
ATOM     79  C   UNL A   1      42.207  24.442  26.557  1.00  0.00     0.198 A 
ATOM     80  F   UNL A   1      40.866  24.796  28.459  1.00  0.00    -0.203 F 
ATOM     81  F   UNL A   1      44.554  26.643  24.889  1.00  0.00    -0.200 F 
ATOM     82  C   UNL A   1      43.148  24.904  25.649  1.00  0.00     0.200 A 
ATOM     83  F   UNL A   1      41.720  23.200  26.444  1.00  0.00    -0.200 F 
ATOM     84  F   UNL A   1      43.556  24.115  24.646  1.00  0.00    -0.200 F 
ENDBRANCH  50  74
BRANCH  62  85
ATOM     85  C   UNL A   1      44.819  27.619  34.160  1.00  0.00     0.064 A 
ATOM     86  C   UNL A   1      44.787  26.388  34.832  1.00  0.00     0.173 A 
ATOM     87  C   UNL A   1      46.032  28.322  34.124  1.00  0.00     0.173 A 
ATOM     88  F   UNL A   1      43.645  25.688  34.902  1.00  0.00    -0.203 F 
ATOM     89  C   UNL A   1      45.925  25.887  35.454  1.00  0.00     0.198 A 
ATOM     90  C   UNL A   1      47.173  27.808  34.731  1.00  0.00     0.198 A 
ATOM     91  F   UNL A   1      46.111  29.501  33.488  1.00  0.00    -0.203 F 
ATOM     92  F   UNL A   1      45.867  24.722  36.115  1.00  0.00    -0.200 F 
ATOM     93  C   UNL A   1      47.119  26.592  35.397  1.00  0.00     0.200 A 
ATOM     94  F   UNL A   1      48.328  28.486  34.668  1.00  0.00    -0.200 F 
ATOM     95  F   UNL A   1      48.216  26.102  35.990  1.00  0.00    -0.200 F 
ENDBRANCH  62  85
ENDBRANCH  36  37
ENDBRANCH  28  31
ENDBRANCH  26  27
ENDBRANCH   1  26
TORSDOF 13
ENDMDL
MODEL 2
REMARK VINA RESULT:     -13.0      1.276      2.258
REMARK SMILES CC(C)c1cc2c(cc1Cl)C=C(C(=O)NCCCCNC(=O)c1ccc(-c3c4nc(c(-c5c(F)c(F)c(F)c(F)c5F)c5ccc([nH]5)c(-c5c(F)c(F)c(F)c(F)c5F)c5nc(c(-c6c(F)c(F)c(F)c(F)c6F)c6ccc3[nH]6)C=C5)C=C4)cc1)[C@@H](C(F)(F)F)O2
REMARK SMILES IDX 18 1 17 2 16 3 15 4 13 5 14 6 12 8 4 9 5 10 9 11 6 12 8 13
REMARK SMILES IDX 10 14 7 15 91 16 11 17 86 18 2 19 1 20 3 21 87 22 88 23
REMARK SMILES IDX 89 24 90 25 19 26 20 27 21 28 22 30 23 31 24 32 85 33 25 34
REMARK SMILES IDX 84 35 26 36 27 37 28 38 78 39 29 40 83 41 77 42 79 43 30 44
REMARK SMILES IDX 82 45 76 46 75 47 31 49 63 50 43 51 62 52 44 53 47 54 61 55
REMARK SMILES IDX 80 56 45 57 46 58 60 60 81 61 48 62 32 63 33 64 41 65 34 66
REMARK SMILES IDX 35 67 39 68 42 69 36 70 37 71 40 72 38 73 64 74 65 75 73 76
REMARK SMILES IDX 66 77 67 78 71 79 74 80 68 81 69 82 72 83 70 84 49 85 50 86
REMARK SMILES IDX 58 87 51 88 52 89 56 90 59 91 53 92 54 93 57 94 55 95
REMARK H PARENT 15 7 20 29 79 48 47 59
REMARK Flexibility Score: inf
ROOT
ATOM      1  C   UNL A   1      32.484  29.589  25.268  1.00  0.00     0.023 C 
ENDROOT
BRANCH   1   2
ATOM      2  C   UNL A   1      31.102  29.560  24.611  1.00  0.00     0.023 C 
BRANCH   2   3
ATOM      3  C   UNL A   1      31.063  28.854  23.259  1.00  0.00     0.116 C 
BRANCH   3   4
ATOM      4  N   UNL A   1      30.162  27.715  23.260  1.00  0.00    -0.352 N 
ATOM      5  C   UNL A   1      30.201  26.426  23.674  1.00  0.00     0.251 C 
ATOM      6  O   UNL A   1      29.170  25.778  23.466  1.00  0.00    -0.270 OA
ATOM      7  H   UNL A   1      29.295  27.939  22.851  1.00  0.00     0.163 HD
BRANCH   5   8
ATOM      8  C   UNL A   1      31.365  25.766  24.338  1.00  0.00     0.067 C 
ATOM      9  C   UNL A   1      35.856  23.544  25.235  1.00  0.00    -0.023 A 
ATOM     10  C   UNL A   1      34.814  24.087  26.022  1.00  0.00     0.052 A 
ATOM     11  C   UNL A   1      35.679  23.585  23.840  1.00  0.00     0.045 A 
ATOM     12  C   UNL A   1      33.678  24.664  25.457  1.00  0.00     0.128 A 
ATOM     13  C   UNL A   1      34.518  24.154  23.276  1.00  0.00     0.032 A 
ATOM     14  Cl  UNL A   1      36.824  23.003  22.688  1.00  0.00    -0.084 Cl
ATOM     15  C   UNL A   1      33.520  24.706  24.081  1.00  0.00     0.019 A 
ATOM     16  O   UNL A   1      32.790  25.225  26.325  1.00  0.00    -0.475 OA
ATOM     17  C   UNL A   1      32.353  25.366  23.514  1.00  0.00     0.025 C 
ATOM     18  C   UNL A   1      31.458  25.501  25.815  1.00  0.00     0.314 C 
BRANCH   9  19
ATOM     19  C   UNL A   1      37.049  23.008  26.029  1.00  0.00     0.014 C 
ATOM     20  C   UNL A   1      37.758  21.735  25.566  1.00  0.00     0.012 C 
ATOM     21  C   UNL A   1      38.103  24.113  26.219  1.00  0.00     0.012 C 
ENDBRANCH   9  19
BRANCH  18  22
ATOM     22  C   UNL A   1      30.516  24.376  26.279  1.00  0.00     0.429 C 
ATOM     23  F   UNL A   1      30.326  23.479  25.278  1.00  0.00    -0.167 F 
ATOM     24  F   UNL A   1      31.013  23.678  27.327  1.00  0.00    -0.167 F 
ATOM     25  F   UNL A   1      29.300  24.835  26.649  1.00  0.00    -0.167 F 
ENDBRANCH  18  22
ENDBRANCH   5   8
ENDBRANCH   3   4
ENDBRANCH   2   3
ENDBRANCH   1   2
BRANCH   1  26
ATOM     26  C   UNL A   1      32.503  29.982  26.745  1.00  0.00     0.116 C 
BRANCH  26  27
ATOM     27  N   UNL A   1      32.357  31.411  26.990  1.00  0.00    -0.352 N 
ATOM     28  C   UNL A   1      33.300  32.277  27.497  1.00  0.00     0.251 C 
ATOM     29  H   UNL A   1      31.483  31.803  26.767  1.00  0.00     0.163 HD
ATOM     30  O   UNL A   1      33.031  33.453  27.712  1.00  0.00    -0.269 OA
BRANCH  28  31
ATOM     31  C   UNL A   1      34.632  31.741  27.839  1.00  0.00     0.039 A 
ATOM     32  C   UNL A   1      34.776  30.394  28.172  1.00  0.00     0.014 A 
ATOM     33  C   UNL A   1      35.708  32.624  27.944  1.00  0.00     0.014 A 
ATOM     34  C   UNL A   1      35.951  29.967  28.780  1.00  0.00     0.010 A 
ATOM     35  C   UNL A   1      36.912  32.176  28.491  1.00  0.00     0.010 A 
ATOM     36  C   UNL A   1      37.019  30.860  28.970  1.00  0.00    -0.014 A 
BRANCH  36  37
ATOM     37  C   UNL A   1      38.216  30.409  29.721  1.00  0.00     0.031 A 
ATOM     38  C   UNL A   1      38.433  30.847  31.144  1.00  0.00     0.074 A 
ATOM     39  C   UNL A   1      39.063  29.536  29.145  1.00  0.00     0.049 A 
ATOM     40  N   UNL A   1      39.408  30.538  31.963  1.00  0.00    -0.248 NA
ATOM     41  C   UNL A   1      37.428  31.750  31.728  1.00  0.00     0.031 C 
ATOM     42  C   UNL A   1      38.937  29.017  27.783  1.00  0.00     0.029 A 
ATOM     43  N   UNL A   1      40.174  28.905  29.643  1.00  0.00    -0.354 N 
ATOM     44  C   UNL A   1      39.145  31.221  33.144  1.00  0.00     0.074 A 
ATOM     45  C   UNL A   1      37.930  31.977  32.934  1.00  0.00     0.031 C 
ATOM     46  C   UNL A   1      39.896  28.104  27.572  1.00  0.00     0.029 A 
ATOM     47  C   UNL A   1      40.736  28.014  28.763  1.00  0.00     0.049 A 
ATOM     48  H   UNL A   1      40.533  29.075  30.543  1.00  0.00     0.167 HD
ATOM     49  C   UNL A   1      39.851  31.210  34.299  1.00  0.00     0.037 A 
ATOM     50  C   UNL A   1      41.812  27.217  28.898  1.00  0.00     0.037 A 
ATOM     51  C   UNL A   1      41.041  30.431  34.518  1.00  0.00     0.049 A 
ATOM     52  C   UNL A   1      42.591  27.248  30.181  1.00  0.00     0.074 A 
ATOM     53  C   UNL A   1      41.822  30.351  35.659  1.00  0.00     0.029 A 
ATOM     54  N   UNL A   1      41.617  29.591  33.578  1.00  0.00    -0.354 N 
ATOM     55  N   UNL A   1      42.347  27.921  31.278  1.00  0.00    -0.248 NA
ATOM     56  C   UNL A   1      43.805  26.421  30.237  1.00  0.00     0.031 C 
ATOM     57  C   UNL A   1      42.885  29.479  35.400  1.00  0.00     0.029 A 
ATOM     58  C   UNL A   1      42.748  28.995  34.110  1.00  0.00     0.049 A 
ATOM     59  H   UNL A   1      41.271  29.439  32.669  1.00  0.00     0.167 HD
ATOM     60  C   UNL A   1      43.374  27.601  32.155  1.00  0.00     0.074 A 
ATOM     61  C   UNL A   1      44.231  26.654  31.471  1.00  0.00     0.031 C 
ATOM     62  C   UNL A   1      43.591  28.061  33.411  1.00  0.00     0.037 A 
BRANCH  49  63
ATOM     63  C   UNL A   1      39.363  32.069  35.428  1.00  0.00     0.064 A 
ATOM     64  C   UNL A   1      38.516  31.559  36.422  1.00  0.00     0.173 A 
ATOM     65  C   UNL A   1      39.808  33.392  35.556  1.00  0.00     0.173 A 
ATOM     66  F   UNL A   1      38.052  30.303  36.335  1.00  0.00    -0.203 F 
ATOM     67  C   UNL A   1      38.128  32.347  37.503  1.00  0.00     0.198 A 
ATOM     68  C   UNL A   1      39.435  34.171  36.648  1.00  0.00     0.198 A 
ATOM     69  F   UNL A   1      40.622  33.924  34.632  1.00  0.00    -0.203 F 
ATOM     70  F   UNL A   1      37.301  31.848  38.431  1.00  0.00    -0.200 F 
ATOM     71  C   UNL A   1      38.595  33.648  37.620  1.00  0.00     0.200 A 
ATOM     72  F   UNL A   1      39.893  35.426  36.764  1.00  0.00    -0.200 F 
ATOM     73  F   UNL A   1      38.232  34.400  38.669  1.00  0.00    -0.200 F 
ENDBRANCH  49  63
BRANCH  50  74
ATOM     74  C   UNL A   1      42.204  26.322  27.783  1.00  0.00     0.064 A 
ATOM     75  C   UNL A   1      41.585  25.077  27.612  1.00  0.00     0.173 A 
ATOM     76  C   UNL A   1      43.178  26.706  26.849  1.00  0.00     0.173 A 
ATOM     77  F   UNL A   1      40.663  24.661  28.492  1.00  0.00    -0.203 F 
ATOM     78  C   UNL A   1      41.927  24.247  26.546  1.00  0.00     0.198 A 
ATOM     79  C   UNL A   1      43.501  25.886  25.771  1.00  0.00     0.198 A 
ATOM     80  F   UNL A   1      43.794  27.890  26.971  1.00  0.00    -0.203 F 
ATOM     81  F   UNL A   1      41.339  23.051  26.416  1.00  0.00    -0.200 F 
ATOM     82  C   UNL A   1      42.878  24.656  25.622  1.00  0.00     0.200 A 
ATOM     83  F   UNL A   1      44.409  26.290  24.874  1.00  0.00    -0.200 F 
ATOM     84  F   UNL A   1      43.196  23.863  24.590  1.00  0.00    -0.200 F 
ENDBRANCH  50  74
BRANCH  62  85
ATOM     85  C   UNL A   1      44.801  27.548  34.127  1.00  0.00     0.064 A 
ATOM     86  C   UNL A   1      46.022  28.235  34.070  1.00  0.00     0.173 A 
ATOM     87  C   UNL A   1      44.727  26.394  34.921  1.00  0.00     0.173 A 
ATOM     88  F   UNL A   1      46.142  29.336  33.313  1.00  0.00    -0.203 F 
ATOM     89  C   UNL A   1      47.131  27.777  34.775  1.00  0.00     0.198 A 
ATOM     90  C   UNL A   1      45.833  25.950  35.639  1.00  0.00     0.198 A 
ATOM     91  F   UNL A   1      43.578  25.708  35.010  1.00  0.00    -0.203 F 
ATOM     92  F   UNL A   1      48.296  28.433  34.685  1.00  0.00    -0.200 F 
ATOM     93  C   UNL A   1      47.034  26.640  35.565  1.00  0.00     0.200 A 
ATOM     94  F   UNL A   1      45.736  24.857  36.409  1.00  0.00    -0.200 F 
ATOM     95  F   UNL A   1      48.102  26.207  36.249  1.00  0.00    -0.200 F 
ENDBRANCH  62  85
ENDBRANCH  36  37
ENDBRANCH  28  31
ENDBRANCH  26  27
ENDBRANCH   1  26
TORSDOF 13
ENDMDL
MODEL 3
REMARK VINA RESULT:     -12.9      2.117      3.399
REMARK SMILES CC(C)c1cc2c(cc1Cl)C=C(C(=O)NCCCCNC(=O)c1ccc(-c3c4nc(c(-c5c(F)c(F)c(F)c(F)c5F)c5ccc([nH]5)c(-c5c(F)c(F)c(F)c(F)c5F)c5nc(c(-c6c(F)c(F)c(F)c(F)c6F)c6ccc3[nH]6)C=C5)C=C4)cc1)[C@@H](C(F)(F)F)O2
REMARK SMILES IDX 18 1 17 2 16 3 15 4 13 5 14 6 12 8 4 9 5 10 9 11 6 12 8 13
REMARK SMILES IDX 10 14 7 15 91 16 11 17 86 18 2 19 1 20 3 21 87 22 88 23
REMARK SMILES IDX 89 24 90 25 19 26 20 27 21 28 22 30 23 31 24 32 85 33 25 34
REMARK SMILES IDX 84 35 26 36 27 37 28 38 78 39 29 40 83 41 77 42 79 43 30 44
REMARK SMILES IDX 82 45 76 46 75 47 31 49 63 50 43 51 62 52 44 53 47 54 61 55
REMARK SMILES IDX 80 56 45 57 46 58 60 60 81 61 48 62 32 63 33 64 41 65 34 66
REMARK SMILES IDX 35 67 39 68 42 69 36 70 37 71 40 72 38 73 64 74 65 75 73 76
REMARK SMILES IDX 66 77 67 78 71 79 74 80 68 81 69 82 72 83 70 84 49 85 50 86
REMARK SMILES IDX 58 87 51 88 52 89 56 90 59 91 53 92 54 93 57 94 55 95
REMARK H PARENT 15 7 20 29 79 48 47 59
REMARK Flexibility Score: inf
ROOT
ATOM      1  C   UNL A   1      31.996  31.741  26.876  1.00  0.00     0.023 C 
ENDROOT
BRANCH   1   2
ATOM      2  C   UNL A   1      32.192  30.259  27.208  1.00  0.00     0.023 C 
BRANCH   2   3
ATOM      3  C   UNL A   1      33.470  29.650  26.637  1.00  0.00     0.116 C 
BRANCH   3   4
ATOM      4  N   UNL A   1      33.503  29.704  25.186  1.00  0.00    -0.352 N 
ATOM      5  C   UNL A   1      33.288  28.845  24.161  1.00  0.00     0.251 C 
ATOM      6  O   UNL A   1      33.438  29.328  23.033  1.00  0.00    -0.270 OA
ATOM      7  H   UNL A   1      33.747  30.601  24.863  1.00  0.00     0.163 HD
BRANCH   5   8
ATOM      8  C   UNL A   1      32.900  27.409  24.303  1.00  0.00     0.067 C 
ATOM      9  C   UNL A   1      33.027  22.341  24.758  1.00  0.00    -0.023 A 
ATOM     10  C   UNL A   1      32.047  23.351  24.895  1.00  0.00     0.052 A 
ATOM     11  C   UNL A   1      34.320  22.764  24.401  1.00  0.00     0.045 A 
ATOM     12  C   UNL A   1      32.339  24.702  24.718  1.00  0.00     0.128 A 
ATOM     13  C   UNL A   1      34.605  24.131  24.205  1.00  0.00     0.032 A 
ATOM     14  Cl  UNL A   1      35.675  21.713  24.200  1.00  0.00    -0.084 Cl
ATOM     15  C   UNL A   1      33.620  25.105  24.375  1.00  0.00     0.019 A 
ATOM     16  O   UNL A   1      31.325  25.578  24.962  1.00  0.00    -0.475 OA
ATOM     17  C   UNL A   1      33.915  26.526  24.253  1.00  0.00     0.025 C 
ATOM     18  C   UNL A   1      31.484  26.927  24.447  1.00  0.00     0.314 C 
BRANCH   9  19
ATOM     19  C   UNL A   1      32.533  20.922  25.048  1.00  0.00     0.014 C 
ATOM     20  C   UNL A   1      32.528  19.879  23.931  1.00  0.00     0.012 C 
ATOM     21  C   UNL A   1      33.278  20.335  26.260  1.00  0.00     0.012 C 
ENDBRANCH   9  19
BRANCH  18  22
ATOM     22  C   UNL A   1      30.676  27.049  23.142  1.00  0.00     0.429 C 
ATOM     23  F   UNL A   1      31.437  26.677  22.082  1.00  0.00    -0.167 F 
ATOM     24  F   UNL A   1      29.584  26.248  23.128  1.00  0.00    -0.167 F 
ATOM     25  F   UNL A   1      30.246  28.309  22.913  1.00  0.00    -0.167 F 
ENDBRANCH  18  22
ENDBRANCH   5   8
ENDBRANCH   3   4
ENDBRANCH   2   3
ENDBRANCH   1   2
BRANCH   1  26
ATOM     26  C   UNL A   1      33.026  32.693  27.482  1.00  0.00     0.116 C 
BRANCH  26  27
ATOM     27  N   UNL A   1      32.530  34.042  27.722  1.00  0.00    -0.352 N 
ATOM     28  C   UNL A   1      33.032  34.977  28.600  1.00  0.00     0.251 C 
ATOM     29  H   UNL A   1      31.745  34.316  27.197  1.00  0.00     0.163 HD
ATOM     30  O   UNL A   1      32.483  36.063  28.752  1.00  0.00    -0.269 OA
BRANCH  28  31
ATOM     31  C   UNL A   1      34.214  34.618  29.406  1.00  0.00     0.039 A 
ATOM     32  C   UNL A   1      35.496  34.810  28.888  1.00  0.00     0.014 A 
ATOM     33  C   UNL A   1      34.026  33.973  30.630  1.00  0.00     0.014 A 
ATOM     34  C   UNL A   1      36.578  34.198  29.509  1.00  0.00     0.010 A 
ATOM     35  C   UNL A   1      35.125  33.419  31.289  1.00  0.00     0.010 A 
ATOM     36  C   UNL A   1      36.399  33.474  30.701  1.00  0.00    -0.014 A 
BRANCH  36  37
ATOM     37  C   UNL A   1      37.548  32.739  31.282  1.00  0.00     0.031 A 
ATOM     38  C   UNL A   1      38.013  33.034  32.683  1.00  0.00     0.074 A 
ATOM     39  C   UNL A   1      38.119  31.747  30.575  1.00  0.00     0.049 A 
ATOM     40  N   UNL A   1      38.985  32.479  33.364  1.00  0.00    -0.248 NA
ATOM     41  C   UNL A   1      37.296  34.088  33.418  1.00  0.00     0.031 C 
ATOM     42  C   UNL A   1      37.732  31.350  29.220  1.00  0.00     0.029 A 
ATOM     43  N   UNL A   1      39.118  30.869  30.909  1.00  0.00    -0.354 N 
ATOM     44  C   UNL A   1      39.009  33.128  34.592  1.00  0.00     0.074 A 
ATOM     45  C   UNL A   1      37.967  34.132  34.561  1.00  0.00     0.031 C 
ATOM     46  C   UNL A   1      38.444  30.273  28.860  1.00  0.00     0.029 A 
ATOM     47  C   UNL A   1      39.374  29.937  29.935  1.00  0.00     0.049 A 
ATOM     48  H   UNL A   1      39.605  30.905  31.763  1.00  0.00     0.167 HD
ATOM     49  C   UNL A   1      39.821  32.899  35.650  1.00  0.00     0.037 A 
ATOM     50  C   UNL A   1      40.264  28.927  29.907  1.00  0.00     0.037 A 
ATOM     51  C   UNL A   1      40.835  31.879  35.693  1.00  0.00     0.049 A 
ATOM     52  C   UNL A   1      41.171  28.717  31.085  1.00  0.00     0.074 A 
ATOM     53  C   UNL A   1      41.703  31.568  36.725  1.00  0.00     0.029 A 
ATOM     54  N   UNL A   1      41.108  30.996  34.659  1.00  0.00    -0.354 N 
ATOM     55  N   UNL A   1      41.202  29.357  32.227  1.00  0.00    -0.248 NA
ATOM     56  C   UNL A   1      42.179  27.654  30.960  1.00  0.00     0.031 C 
ATOM     57  C   UNL A   1      42.520  30.512  36.306  1.00  0.00     0.029 A 
ATOM     58  C   UNL A   1      42.138  30.147  35.025  1.00  0.00     0.049 A 
ATOM     59  H   UNL A   1      40.638  30.977  33.794  1.00  0.00     0.167 HD
ATOM     60  C   UNL A   1      42.228  28.777  32.959  1.00  0.00     0.074 A 
ATOM     61  C   UNL A   1      42.781  27.717  32.140  1.00  0.00     0.031 C 
ATOM     62  C   UNL A   1      42.679  29.103  34.194  1.00  0.00     0.037 A 
BRANCH  49  63
ATOM     63  C   UNL A   1      39.658  33.769  36.861  1.00  0.00     0.064 A 
ATOM     64  C   UNL A   1      40.268  35.029  36.944  1.00  0.00     0.173 A 
ATOM     65  C   UNL A   1      38.821  33.371  37.914  1.00  0.00     0.173 A 
ATOM     66  F   UNL A   1      41.087  35.448  35.968  1.00  0.00    -0.203 F 
ATOM     67  C   UNL A   1      40.049  35.857  38.042  1.00  0.00     0.198 A 
ATOM     68  C   UNL A   1      38.590  34.210  39.001  1.00  0.00     0.198 A 
ATOM     69  F   UNL A   1      38.213  32.176  37.879  1.00  0.00    -0.203 F 
ATOM     70  F   UNL A   1      40.659  37.049  38.112  1.00  0.00    -0.200 F 
ATOM     71  C   UNL A   1      39.204  35.452  39.064  1.00  0.00     0.200 A 
ATOM     72  F   UNL A   1      37.766  33.820  39.984  1.00  0.00    -0.200 F 
ATOM     73  F   UNL A   1      38.985  36.256  40.113  1.00  0.00    -0.200 F 
ENDBRANCH  49  63
BRANCH  50  74
ATOM     74  C   UNL A   1      40.328  28.041  28.720  1.00  0.00     0.064 A 
ATOM     75  C   UNL A   1      41.095  28.393  27.602  1.00  0.00     0.173 A 
ATOM     76  C   UNL A   1      39.653  26.812  28.693  1.00  0.00     0.173 A 
ATOM     77  F   UNL A   1      41.740  29.568  27.577  1.00  0.00    -0.203 F 
ATOM     78  C   UNL A   1      41.184  27.548  26.499  1.00  0.00     0.198 A 
ATOM     79  C   UNL A   1      39.761  25.957  27.599  1.00  0.00     0.198 A 
ATOM     80  F   UNL A   1      38.909  26.431  29.741  1.00  0.00    -0.203 F 
ATOM     81  F   UNL A   1      41.904  27.917  25.431  1.00  0.00    -0.200 F 
ATOM     82  C   UNL A   1      40.525  26.327  26.502  1.00  0.00     0.200 A 
ATOM     83  F   UNL A   1      39.135  24.773  27.611  1.00  0.00    -0.200 F 
ATOM     84  F   UNL A   1      40.622  25.508  25.445  1.00  0.00    -0.200 F 
ENDBRANCH  50  74
BRANCH  62  85
ATOM     85  C   UNL A   1      43.824  28.307  34.736  1.00  0.00     0.064 A 
ATOM     86  C   UNL A   1      45.148  28.740  34.574  1.00  0.00     0.173 A 
ATOM     87  C   UNL A   1      43.596  27.135  35.472  1.00  0.00     0.173 A 
ATOM     88  F   UNL A   1      45.413  29.848  33.867  1.00  0.00    -0.203 F 
ATOM     89  C   UNL A   1      46.205  28.018  35.120  1.00  0.00     0.198 A 
ATOM     90  C   UNL A   1      44.654  26.427  36.032  1.00  0.00     0.198 A 
ATOM     91  F   UNL A   1      42.345  26.686  35.657  1.00  0.00    -0.203 F 
ATOM     92  F   UNL A   1      47.465  28.434  34.929  1.00  0.00    -0.200 F 
ATOM     93  C   UNL A   1      45.958  26.867  35.855  1.00  0.00     0.200 A 
ATOM     94  F   UNL A   1      44.414  25.320  36.749  1.00  0.00    -0.200 F 
ATOM     95  F   UNL A   1      46.977  26.179  36.386  1.00  0.00    -0.200 F 
ENDBRANCH  62  85
ENDBRANCH  36  37
ENDBRANCH  28  31
ENDBRANCH  26  27
ENDBRANCH   1  26
TORSDOF 13
ENDMDL
