MODEL 1
REMARK VINA RESULT:     -10.9      0.000      0.000
REMARK SMILES O=C(CCCCCn1cc(Cl)c(I)n1)NCCCCNC(=O)c1ccc(-c2c3nc(c(-c4c(F)c(F)c(F)c(F)c4F)c4ccc([nH]4)c(-c4c(F)c(F)c(F)c(F)c4F)c4nc(c(-c5c(F)c(F)c(F)c(F)c5F)c5ccc2[nH]5)C=C4)C=C3)cc1
REMARK SMILES IDX 16 1 15 2 1 3 2 4 3 6 4 7 5 8 6 9 7 10 8 11 9 12 14 13 10 14
REMARK SMILES IDX 12 15 11 16 13 17 17 18 18 19 19 20 20 21 21 22 22 24 23 25
REMARK SMILES IDX 24 26 85 27 25 28 84 29 26 30 27 31 28 32 78 33 29 34 83 35
REMARK SMILES IDX 77 36 79 37 30 38 82 39 76 40 75 41 31 43 63 44 43 45 62 46
REMARK SMILES IDX 44 47 47 48 61 49 80 50 45 51 46 52 60 54 81 55 48 56 32 57
REMARK SMILES IDX 33 58 41 59 34 60 35 61 39 62 42 63 36 64 37 65 40 66 38 67
REMARK SMILES IDX 64 68 65 69 73 70 66 71 67 72 71 73 74 74 68 75 69 76 72 77
REMARK SMILES IDX 70 78 49 79 50 80 58 81 51 82 52 83 56 84 59 85 53 86 54 87
REMARK SMILES IDX 57 88 55 89
REMARK H PARENT 15 5 20 23 79 42 47 53
REMARK Flexibility Score: inf
ROOT
ATOM      1  C   UNL A   1      42.047  20.681  26.501  1.00  0.00     0.116 C 
ENDROOT
BRANCH   1   2
ATOM      2  N   UNL A   1      40.791  20.826  25.800  1.00  0.00    -0.356 N 
ATOM      3  O   UNL A   1      39.701  22.016  27.427  1.00  0.00    -0.275 OA
ATOM      4  C   UNL A   1      39.722  21.527  26.303  1.00  0.00     0.219 C 
ATOM      5  H   UNL A   1      40.698  20.403  24.916  1.00  0.00     0.163 HD
BRANCH   4   6
ATOM      6  C   UNL A   1      38.536  21.618  25.360  1.00  0.00     0.100 C 
BRANCH   6   7
ATOM      7  C   UNL A   1      37.291  22.244  25.994  1.00  0.00     0.010 C 
BRANCH   7   8
ATOM      8  C   UNL A   1      36.543  23.276  25.141  1.00  0.00     0.002 C 
BRANCH   8   9
ATOM      9  C   UNL A   1      35.245  23.809  25.771  1.00  0.00     0.024 C 
BRANCH   9  10
ATOM     10  C   UNL A   1      34.146  24.093  24.743  1.00  0.00     0.144 C 
BRANCH  10  11
ATOM     11  N   UNL A   1      33.812  25.505  24.695  1.00  0.00    -0.270 N 
ATOM     12  C   UNL A   1      33.751  26.278  23.570  1.00  0.00     0.130 A 
ATOM     13  N   UNL A   1      33.730  26.210  25.837  1.00  0.00    -0.165 NA
ATOM     14  C   UNL A   1      33.673  27.578  24.010  1.00  0.00     0.092 A 
ATOM     15  C   UNL A   1      33.651  27.477  25.417  1.00  0.00     0.141 A 
ATOM     16  Cl  UNL A   1      33.659  28.967  23.039  1.00  0.00    -0.080 Cl
ATOM     17  I   UNL A   1      33.562  29.040  26.727  1.00  0.00    -0.018 I 
ENDBRANCH  10  11
ENDBRANCH   9  10
ENDBRANCH   8   9
ENDBRANCH   7   8
ENDBRANCH   6   7
ENDBRANCH   4   6
ENDBRANCH   1   2
BRANCH   1  18
ATOM     18  C   UNL A   1      42.193  19.272  27.083  1.00  0.00     0.023 C 
BRANCH  18  19
ATOM     19  C   UNL A   1      43.260  18.391  26.420  1.00  0.00     0.023 C 
BRANCH  19  20
ATOM     20  C   UNL A   1      43.819  18.982  25.141  1.00  0.00     0.116 C 
BRANCH  20  21
ATOM     21  N   UNL A   1      45.273  19.176  25.163  1.00  0.00    -0.352 N 
ATOM     22  C   UNL A   1      45.961  20.350  24.891  1.00  0.00     0.251 C 
ATOM     23  H   UNL A   1      45.819  18.390  25.395  1.00  0.00     0.163 HD
ATOM     24  O   UNL A   1      47.161  20.345  24.596  1.00  0.00    -0.269 OA
BRANCH  22  25
ATOM     25  C   UNL A   1      45.249  21.623  25.120  1.00  0.00     0.039 A 
ATOM     26  C   UNL A   1      44.467  22.376  24.240  1.00  0.00     0.014 A 
ATOM     27  C   UNL A   1      45.553  22.226  26.319  1.00  0.00     0.014 A 
ATOM     28  C   UNL A   1      44.156  23.722  24.638  1.00  0.00     0.010 A 
ATOM     29  C   UNL A   1      44.661  23.113  26.798  1.00  0.00     0.010 A 
ATOM     30  C   UNL A   1      44.526  24.168  25.945  1.00  0.00    -0.014 A 
BRANCH  30  31
ATOM     31  C   UNL A   1      44.107  25.366  26.755  1.00  0.00     0.031 A 
ATOM     32  C   UNL A   1      45.160  26.439  26.335  1.00  0.00     0.074 A 
ATOM     33  C   UNL A   1      42.927  25.506  27.523  1.00  0.00     0.049 A 
ATOM     34  N   UNL A   1      46.278  26.627  26.971  1.00  0.00    -0.248 NA
ATOM     35  C   UNL A   1      45.296  27.029  24.954  1.00  0.00     0.031 C 
ATOM     36  C   UNL A   1      41.805  24.561  27.890  1.00  0.00     0.029 A 
ATOM     37  N   UNL A   1      42.470  26.606  28.291  1.00  0.00    -0.354 N 
ATOM     38  C   UNL A   1      46.922  27.692  26.337  1.00  0.00     0.074 A 
ATOM     39  C   UNL A   1      46.481  27.654  24.988  1.00  0.00     0.031 C 
ATOM     40  C   UNL A   1      40.750  25.198  28.507  1.00  0.00     0.029 A 
ATOM     41  C   UNL A   1      41.077  26.594  28.744  1.00  0.00     0.049 A 
ATOM     42  H   UNL A   1      43.070  27.354  28.512  1.00  0.00     0.167 HD
ATOM     43  C   UNL A   1      47.349  28.739  27.101  1.00  0.00     0.037 A 
ATOM     44  C   UNL A   1      40.397  27.544  29.527  1.00  0.00     0.037 A 
ATOM     45  C   UNL A   1      47.324  28.304  28.478  1.00  0.00     0.049 A 
ATOM     46  C   UNL A   1      41.464  28.391  30.111  1.00  0.00     0.074 A 
ATOM     47  C   UNL A   1      48.013  27.360  29.208  1.00  0.00     0.029 A 
ATOM     48  N   UNL A   1      46.072  28.405  29.023  1.00  0.00    -0.354 N 
ATOM     49  N   UNL A   1      42.299  27.910  30.988  1.00  0.00    -0.248 NA
ATOM     50  C   UNL A   1      41.948  29.441  29.227  1.00  0.00     0.031 C 
ATOM     51  C   UNL A   1      47.045  26.742  30.054  1.00  0.00     0.029 A 
ATOM     52  C   UNL A   1      45.863  27.469  29.989  1.00  0.00     0.049 A 
ATOM     53  H   UNL A   1      45.403  29.073  28.749  1.00  0.00     0.167 HD
ATOM     54  C   UNL A   1      43.535  28.202  30.439  1.00  0.00     0.074 A 
ATOM     55  C   UNL A   1      43.252  29.171  29.357  1.00  0.00     0.031 C 
ATOM     56  C   UNL A   1      44.592  27.355  30.643  1.00  0.00     0.037 A 
BRANCH  43  57
ATOM     57  C   UNL A   1      47.216  30.218  26.773  1.00  0.00     0.064 A 
ATOM     58  C   UNL A   1      48.354  31.031  26.976  1.00  0.00     0.173 A 
ATOM     59  C   UNL A   1      46.008  30.922  26.574  1.00  0.00     0.173 A 
ATOM     60  F   UNL A   1      49.559  30.474  27.165  1.00  0.00    -0.203 F 
ATOM     61  C   UNL A   1      48.276  32.425  27.060  1.00  0.00     0.198 A 
ATOM     62  C   UNL A   1      45.942  32.320  26.608  1.00  0.00     0.198 A 
ATOM     63  F   UNL A   1      44.835  30.298  26.421  1.00  0.00    -0.203 F 
ATOM     64  F   UNL A   1      49.371  33.134  27.367  1.00  0.00    -0.200 F 
ATOM     65  C   UNL A   1      47.070  33.069  26.880  1.00  0.00     0.200 A 
ATOM     66  F   UNL A   1      44.764  32.937  26.430  1.00  0.00    -0.200 F 
ATOM     67  F   UNL A   1      46.986  34.402  26.989  1.00  0.00    -0.200 F 
ENDBRANCH  43  57
BRANCH  44  68
ATOM     68  C   UNL A   1      38.976  28.141  29.516  1.00  0.00     0.064 A 
ATOM     69  C   UNL A   1      38.163  28.494  30.645  1.00  0.00     0.173 A 
ATOM     70  C   UNL A   1      38.547  28.720  28.314  1.00  0.00     0.173 A 
ATOM     71  F   UNL A   1      38.492  28.094  31.885  1.00  0.00    -0.203 F 
ATOM     72  C   UNL A   1      37.010  29.324  30.539  1.00  0.00     0.198 A 
ATOM     73  C   UNL A   1      37.426  29.564  28.215  1.00  0.00     0.198 A 
ATOM     74  F   UNL A   1      39.289  28.557  27.213  1.00  0.00    -0.203 F 
ATOM     75  F   UNL A   1      36.276  29.641  31.622  1.00  0.00    -0.200 F 
ATOM     76  C   UNL A   1      36.653  29.867  29.319  1.00  0.00     0.200 A 
ATOM     77  F   UNL A   1      37.138  30.130  27.035  1.00  0.00    -0.200 F 
ATOM     78  F   UNL A   1      35.607  30.702  29.208  1.00  0.00    -0.200 F 
ENDBRANCH  44  68
BRANCH  56  79
ATOM     79  C   UNL A   1      44.457  26.252  31.660  1.00  0.00     0.064 A 
ATOM     80  C   UNL A   1      44.282  24.878  31.406  1.00  0.00     0.173 A 
ATOM     81  C   UNL A   1      44.680  26.627  32.985  1.00  0.00     0.173 A 
ATOM     82  F   UNL A   1      44.240  24.403  30.157  1.00  0.00    -0.203 F 
ATOM     83  C   UNL A   1      44.231  23.946  32.450  1.00  0.00     0.198 A 
ATOM     84  C   UNL A   1      44.684  25.697  34.015  1.00  0.00     0.198 A 
ATOM     85  F   UNL A   1      44.970  27.906  33.269  1.00  0.00    -0.203 F 
ATOM     86  F   UNL A   1      44.033  22.644  32.190  1.00  0.00    -0.200 F 
ATOM     87  C   UNL A   1      44.426  24.363  33.755  1.00  0.00     0.200 A 
ATOM     88  F   UNL A   1      44.974  26.099  35.258  1.00  0.00    -0.200 F 
ATOM     89  F   UNL A   1      44.400  23.477  34.761  1.00  0.00    -0.200 F 
ENDBRANCH  56  79
ENDBRANCH  30  31
ENDBRANCH  22  25
ENDBRANCH  20  21
ENDBRANCH  19  20
ENDBRANCH  18  19
ENDBRANCH   1  18
TORSDOF 16
ENDMDL
MODEL 2
REMARK VINA RESULT:     -10.3      2.885      7.233
REMARK SMILES O=C(CCCCCn1cc(Cl)c(I)n1)NCCCCNC(=O)c1ccc(-c2c3nc(c(-c4c(F)c(F)c(F)c(F)c4F)c4ccc([nH]4)c(-c4c(F)c(F)c(F)c(F)c4F)c4nc(c(-c5c(F)c(F)c(F)c(F)c5F)c5ccc2[nH]5)C=C4)C=C3)cc1
REMARK SMILES IDX 16 1 15 2 1 3 2 4 3 6 4 7 5 8 6 9 7 10 8 11 9 12 14 13 10 14
REMARK SMILES IDX 12 15 11 16 13 17 17 18 18 19 19 20 20 21 21 22 22 24 23 25
REMARK SMILES IDX 24 26 85 27 25 28 84 29 26 30 27 31 28 32 78 33 29 34 83 35
REMARK SMILES IDX 77 36 79 37 30 38 82 39 76 40 75 41 31 43 63 44 43 45 62 46
REMARK SMILES IDX 44 47 47 48 61 49 80 50 45 51 46 52 60 54 81 55 48 56 32 57
REMARK SMILES IDX 33 58 41 59 34 60 35 61 39 62 42 63 36 64 37 65 40 66 38 67
REMARK SMILES IDX 64 68 65 69 73 70 66 71 67 72 71 73 74 74 68 75 69 76 72 77
REMARK SMILES IDX 70 78 49 79 50 80 58 81 51 82 52 83 56 84 59 85 53 86 54 87
REMARK SMILES IDX 57 88 55 89
REMARK H PARENT 15 5 20 23 79 42 47 53
REMARK Flexibility Score: inf
ROOT
ATOM      1  C   UNL A   1      39.542  21.815  25.922  1.00  0.00     0.116 C 
ENDROOT
BRANCH   1   2
ATOM      2  N   UNL A   1      38.132  21.874  26.235  1.00  0.00    -0.356 N 
ATOM      3  O   UNL A   1      37.716  23.905  25.260  1.00  0.00    -0.275 OA
ATOM      4  C   UNL A   1      37.313  22.902  25.838  1.00  0.00     0.219 C 
ATOM      5  H   UNL A   1      37.739  21.139  26.759  1.00  0.00     0.163 HD
BRANCH   4   6
ATOM      6  C   UNL A   1      35.853  22.715  26.208  1.00  0.00     0.100 C 
BRANCH   6   7
ATOM      7  C   UNL A   1      34.907  23.685  25.494  1.00  0.00     0.010 C 
BRANCH   7   8
ATOM      8  C   UNL A   1      33.484  23.782  26.058  1.00  0.00     0.002 C 
BRANCH   8   9
ATOM      9  C   UNL A   1      32.857  22.435  26.451  1.00  0.00     0.024 C 
BRANCH   9  10
ATOM     10  C   UNL A   1      31.832  21.925  25.434  1.00  0.00     0.144 C 
BRANCH  10  11
ATOM     11  N   UNL A   1      32.253  20.672  24.833  1.00  0.00    -0.270 N 
ATOM     12  C   UNL A   1      32.255  20.381  23.499  1.00  0.00     0.130 A 
ATOM     13  N   UNL A   1      32.495  19.606  25.617  1.00  0.00    -0.165 NA
ATOM     14  C   UNL A   1      32.462  19.025  23.408  1.00  0.00     0.092 A 
ATOM     15  C   UNL A   1      32.618  18.600  24.744  1.00  0.00     0.141 A 
ATOM     16  Cl  UNL A   1      32.473  18.105  21.986  1.00  0.00    -0.080 Cl
ATOM     17  I   UNL A   1      32.940  16.680  25.358  1.00  0.00    -0.018 I 
ENDBRANCH  10  11
ENDBRANCH   9  10
ENDBRANCH   8   9
ENDBRANCH   7   8
ENDBRANCH   6   7
ENDBRANCH   4   6
ENDBRANCH   1   2
BRANCH   1  18
ATOM     18  C   UNL A   1      40.270  20.826  26.839  1.00  0.00     0.023 C 
BRANCH  18  19
ATOM     19  C   UNL A   1      40.985  19.671  26.127  1.00  0.00     0.023 C 
BRANCH  19  20
ATOM     20  C   UNL A   1      42.293  19.277  26.782  1.00  0.00     0.116 C 
BRANCH  20  21
ATOM     21  N   UNL A   1      43.460  19.410  25.903  1.00  0.00    -0.352 N 
ATOM     22  C   UNL A   1      43.866  20.549  25.222  1.00  0.00     0.251 C 
ATOM     23  H   UNL A   1      44.014  18.605  25.781  1.00  0.00     0.163 HD
ATOM     24  O   UNL A   1      44.633  20.489  24.256  1.00  0.00    -0.269 OA
BRANCH  22  25
ATOM     25  C   UNL A   1      43.474  21.854  25.791  1.00  0.00     0.039 A 
ATOM     26  C   UNL A   1      42.989  22.996  25.148  1.00  0.00     0.014 A 
ATOM     27  C   UNL A   1      43.806  22.009  27.118  1.00  0.00     0.014 A 
ATOM     28  C   UNL A   1      42.987  24.217  25.908  1.00  0.00     0.010 A 
ATOM     29  C   UNL A   1      43.122  22.936  27.813  1.00  0.00     0.010 A 
ATOM     30  C   UNL A   1      43.334  24.179  27.294  1.00  0.00    -0.014 A 
BRANCH  30  31
ATOM     31  C   UNL A   1      43.153  25.180  28.404  1.00  0.00     0.031 A 
ATOM     32  C   UNL A   1      41.718  25.730  28.128  1.00  0.00     0.074 A 
ATOM     33  C   UNL A   1      44.004  25.385  29.516  1.00  0.00     0.049 A 
ATOM     34  N   UNL A   1      41.485  26.774  27.391  1.00  0.00    -0.248 NA
ATOM     35  C   UNL A   1      40.447  24.925  28.225  1.00  0.00     0.031 C 
ATOM     36  C   UNL A   1      45.348  24.821  29.916  1.00  0.00     0.029 A 
ATOM     37  N   UNL A   1      43.882  26.295  30.595  1.00  0.00    -0.354 N 
ATOM     38  C   UNL A   1      40.103  26.982  27.422  1.00  0.00     0.074 A 
ATOM     39  C   UNL A   1      39.531  25.700  27.627  1.00  0.00     0.031 C 
ATOM     40  C   UNL A   1      45.714  25.168  31.198  1.00  0.00     0.029 A 
ATOM     41  C   UNL A   1      44.744  26.094  31.761  1.00  0.00     0.049 A 
ATOM     42  H   UNL A   1      43.238  27.039  30.561  1.00  0.00     0.167 HD
ATOM     43  C   UNL A   1      39.642  28.223  27.752  1.00  0.00     0.037 A 
ATOM     44  C   UNL A   1      44.831  26.862  32.936  1.00  0.00     0.037 A 
ATOM     45  C   UNL A   1      40.757  29.136  27.655  1.00  0.00     0.049 A 
ATOM     46  C   UNL A   1      44.132  28.129  32.616  1.00  0.00     0.074 A 
ATOM     47  C   UNL A   1      41.545  29.595  26.622  1.00  0.00     0.029 A 
ATOM     48  N   UNL A   1      41.536  29.115  28.782  1.00  0.00    -0.354 N 
ATOM     49  N   UNL A   1      44.623  28.966  31.746  1.00  0.00    -0.248 NA
ATOM     50  C   UNL A   1      42.684  28.065  32.744  1.00  0.00     0.031 C 
ATOM     51  C   UNL A   1      42.877  29.621  27.132  1.00  0.00     0.029 A 
ATOM     52  C   UNL A   1      42.835  29.406  28.504  1.00  0.00     0.049 A 
ATOM     53  H   UNL A   1      41.196  28.913  29.683  1.00  0.00     0.167 HD
ATOM     54  C   UNL A   1      43.577  29.147  30.859  1.00  0.00     0.074 A 
ATOM     55  C   UNL A   1      42.394  28.578  31.543  1.00  0.00     0.031 C 
ATOM     56  C   UNL A   1      43.835  29.372  29.532  1.00  0.00     0.037 A 
BRANCH  43  57
ATOM     57  C   UNL A   1      38.482  28.544  28.682  1.00  0.00     0.064 A 
ATOM     58  C   UNL A   1      37.551  29.513  28.245  1.00  0.00     0.173 A 
ATOM     59  C   UNL A   1      38.392  28.205  30.051  1.00  0.00     0.173 A 
ATOM     60  F   UNL A   1      37.535  29.907  26.963  1.00  0.00    -0.203 F 
ATOM     61  C   UNL A   1      36.666  30.153  29.119  1.00  0.00     0.198 A 
ATOM     62  C   UNL A   1      37.469  28.810  30.912  1.00  0.00     0.198 A 
ATOM     63  F   UNL A   1      39.236  27.344  30.629  1.00  0.00    -0.203 F 
ATOM     64  F   UNL A   1      35.886  31.144  28.667  1.00  0.00    -0.200 F 
ATOM     65  C   UNL A   1      36.628  29.803  30.453  1.00  0.00     0.200 A 
ATOM     66  F   UNL A   1      37.440  28.463  32.208  1.00  0.00    -0.200 F 
ATOM     67  F   UNL A   1      35.802  30.435  31.299  1.00  0.00    -0.200 F 
ENDBRANCH  43  57
BRANCH  44  68
ATOM     68  C   UNL A   1      45.013  26.538  34.432  1.00  0.00     0.064 A 
ATOM     69  C   UNL A   1      45.756  27.284  35.408  1.00  0.00     0.173 A 
ATOM     70  C   UNL A   1      44.105  25.631  34.994  1.00  0.00     0.173 A 
ATOM     71  F   UNL A   1      46.603  28.258  35.034  1.00  0.00    -0.203 F 
ATOM     72  C   UNL A   1      45.605  27.087  36.811  1.00  0.00     0.198 A 
ATOM     73  C   UNL A   1      43.935  25.458  36.380  1.00  0.00     0.198 A 
ATOM     74  F   UNL A   1      43.275  24.960  34.187  1.00  0.00    -0.203 F 
ATOM     75  F   UNL A   1      46.314  27.811  37.698  1.00  0.00    -0.200 F 
ATOM     76  C   UNL A   1      44.682  26.178  37.292  1.00  0.00     0.200 A 
ATOM     77  F   UNL A   1      42.988  24.619  36.822  1.00  0.00    -0.200 F 
ATOM     78  F   UNL A   1      44.480  26.022  38.610  1.00  0.00    -0.200 F 
ENDBRANCH  44  68
BRANCH  56  79
ATOM     79  C   UNL A   1      45.249  29.661  29.104  1.00  0.00     0.064 A 
ATOM     80  C   UNL A   1      46.149  28.774  28.482  1.00  0.00     0.173 A 
ATOM     81  C   UNL A   1      45.646  30.995  29.204  1.00  0.00     0.173 A 
ATOM     82  F   UNL A   1      45.790  27.522  28.180  1.00  0.00    -0.203 F 
ATOM     83  C   UNL A   1      47.422  29.192  28.078  1.00  0.00     0.198 A 
ATOM     84  C   UNL A   1      46.887  31.422  28.755  1.00  0.00     0.198 A 
ATOM     85  F   UNL A   1      44.783  31.906  29.679  1.00  0.00    -0.203 F 
ATOM     86  F   UNL A   1      48.277  28.323  27.514  1.00  0.00    -0.200 F 
ATOM     87  C   UNL A   1      47.790  30.518  28.224  1.00  0.00     0.200 A 
ATOM     88  F   UNL A   1      47.189  32.725  28.809  1.00  0.00    -0.200 F 
ATOM     89  F   UNL A   1      48.999  30.936  27.823  1.00  0.00    -0.200 F 
ENDBRANCH  56  79
ENDBRANCH  30  31
ENDBRANCH  22  25
ENDBRANCH  20  21
ENDBRANCH  19  20
ENDBRANCH  18  19
ENDBRANCH   1  18
TORSDOF 16
ENDMDL
MODEL 3
REMARK VINA RESULT:     -10.3      4.921     10.799
REMARK SMILES O=C(CCCCCn1cc(Cl)c(I)n1)NCCCCNC(=O)c1ccc(-c2c3nc(c(-c4c(F)c(F)c(F)c(F)c4F)c4ccc([nH]4)c(-c4c(F)c(F)c(F)c(F)c4F)c4nc(c(-c5c(F)c(F)c(F)c(F)c5F)c5ccc2[nH]5)C=C4)C=C3)cc1
REMARK SMILES IDX 16 1 15 2 1 3 2 4 3 6 4 7 5 8 6 9 7 10 8 11 9 12 14 13 10 14
REMARK SMILES IDX 12 15 11 16 13 17 17 18 18 19 19 20 20 21 21 22 22 24 23 25
REMARK SMILES IDX 24 26 85 27 25 28 84 29 26 30 27 31 28 32 78 33 29 34 83 35
REMARK SMILES IDX 77 36 79 37 30 38 82 39 76 40 75 41 31 43 63 44 43 45 62 46
REMARK SMILES IDX 44 47 47 48 61 49 80 50 45 51 46 52 60 54 81 55 48 56 32 57
REMARK SMILES IDX 33 58 41 59 34 60 35 61 39 62 42 63 36 64 37 65 40 66 38 67
REMARK SMILES IDX 64 68 65 69 73 70 66 71 67 72 71 73 74 74 68 75 69 76 72 77
REMARK SMILES IDX 70 78 49 79 50 80 58 81 51 82 52 83 56 84 59 85 53 86 54 87
REMARK SMILES IDX 57 88 55 89
REMARK H PARENT 15 5 20 23 79 42 47 53
REMARK Flexibility Score: inf
ROOT
ATOM      1  C   UNL A   1      34.268  33.635  28.894  1.00  0.00     0.116 C 
ENDROOT
BRANCH   1   2
ATOM      2  N   UNL A   1      33.349  32.865  28.086  1.00  0.00    -0.356 N 
ATOM      3  O   UNL A   1      34.655  30.993  27.887  1.00  0.00    -0.275 OA
ATOM      4  C   UNL A   1      33.598  31.577  27.679  1.00  0.00     0.219 C 
ATOM      5  H   UNL A   1      32.502  33.286  27.814  1.00  0.00     0.163 HD
BRANCH   4   6
ATOM      6  C   UNL A   1      32.458  30.935  26.909  1.00  0.00     0.100 C 
BRANCH   6   7
ATOM      7  C   UNL A   1      32.919  29.932  25.848  1.00  0.00     0.010 C 
BRANCH   7   8
ATOM      8  C   UNL A   1      32.005  28.723  25.616  1.00  0.00     0.002 C 
BRANCH   8   9
ATOM      9  C   UNL A   1      32.690  27.518  24.951  1.00  0.00     0.024 C 
BRANCH   9  10
ATOM     10  C   UNL A   1      33.485  26.655  25.935  1.00  0.00     0.144 C 
BRANCH  10  11
ATOM     11  N   UNL A   1      33.769  25.341  25.385  1.00  0.00    -0.270 N 
ATOM     12  C   UNL A   1      35.009  24.805  25.186  1.00  0.00     0.130 A 
ATOM     13  N   UNL A   1      32.776  24.621  24.833  1.00  0.00    -0.165 NA
ATOM     14  C   UNL A   1      34.817  23.687  24.410  1.00  0.00     0.092 A 
ATOM     15  C   UNL A   1      33.419  23.614  24.233  1.00  0.00     0.141 A 
ATOM     16  Cl  UNL A   1      36.026  22.677  23.787  1.00  0.00    -0.080 Cl
ATOM     17  I   UNL A   1      32.422  22.195  23.155  1.00  0.00    -0.018 I 
ENDBRANCH  10  11
ENDBRANCH   9  10
ENDBRANCH   8   9
ENDBRANCH   7   8
ENDBRANCH   6   7
ENDBRANCH   4   6
ENDBRANCH   1   2
BRANCH   1  18
ATOM     18  C   UNL A   1      34.320  35.094  28.432  1.00  0.00     0.023 C 
BRANCH  18  19
ATOM     19  C   UNL A   1      33.331  36.041  29.125  1.00  0.00     0.023 C 
BRANCH  19  20
ATOM     20  C   UNL A   1      32.947  35.595  30.521  1.00  0.00     0.116 C 
BRANCH  20  21
ATOM     21  N   UNL A   1      33.501  36.438  31.586  1.00  0.00    -0.352 N 
ATOM     22  C   UNL A   1      34.224  36.016  32.693  1.00  0.00     0.251 C 
ATOM     23  H   UNL A   1      33.342  37.407  31.508  1.00  0.00     0.163 HD
ATOM     24  O   UNL A   1      34.349  36.726  33.695  1.00  0.00    -0.269 OA
BRANCH  22  25
ATOM     25  C   UNL A   1      34.973  34.749  32.570  1.00  0.00     0.039 A 
ATOM     26  C   UNL A   1      34.621  33.463  32.987  1.00  0.00     0.014 A 
ATOM     27  C   UNL A   1      36.271  34.906  32.141  1.00  0.00     0.014 A 
ATOM     28  C   UNL A   1      35.671  32.481  33.019  1.00  0.00     0.010 A 
ATOM     29  C   UNL A   1      36.865  33.831  31.591  1.00  0.00     0.010 A 
ATOM     30  C   UNL A   1      36.959  32.817  32.497  1.00  0.00    -0.014 A 
BRANCH  30  31
ATOM     31  C   UNL A   1      38.143  31.967  32.120  1.00  0.00     0.031 A 
ATOM     32  C   UNL A   1      38.795  31.667  33.506  1.00  0.00     0.074 A 
ATOM     33  C   UNL A   1      38.433  31.426  30.845  1.00  0.00     0.049 A 
ATOM     34  N   UNL A   1      39.723  32.409  34.033  1.00  0.00    -0.248 NA
ATOM     35  C   UNL A   1      38.162  30.848  34.603  1.00  0.00     0.031 C 
ATOM     36  C   UNL A   1      37.798  31.575  29.481  1.00  0.00     0.029 A 
ATOM     37  N   UNL A   1      39.517  30.611  30.431  1.00  0.00    -0.354 N 
ATOM     38  C   UNL A   1      40.084  31.797  35.236  1.00  0.00     0.074 A 
ATOM     39  C   UNL A   1      38.925  31.107  35.675  1.00  0.00     0.031 C 
ATOM     40  C   UNL A   1      38.310  30.693  28.554  1.00  0.00     0.029 A 
ATOM     41  C   UNL A   1      39.417  29.947  29.130  1.00  0.00     0.049 A 
ATOM     42  H   UNL A   1      40.311  30.496  31.001  1.00  0.00     0.167 HD
ATOM     43  C   UNL A   1      41.406  31.546  35.464  1.00  0.00     0.037 A 
ATOM     44  C   UNL A   1      40.354  29.116  28.490  1.00  0.00     0.037 A 
ATOM     45  C   UNL A   1      42.162  32.316  34.503  1.00  0.00     0.049 A 
ATOM     46  C   UNL A   1      41.620  29.329  29.231  1.00  0.00     0.074 A 
ATOM     47  C   UNL A   1      42.354  33.661  34.277  1.00  0.00     0.029 A 
ATOM     48  N   UNL A   1      42.241  31.683  33.291  1.00  0.00    -0.354 N 
ATOM     49  N   UNL A   1      42.243  30.473  29.183  1.00  0.00    -0.248 NA
ATOM     50  C   UNL A   1      41.738  28.549  30.454  1.00  0.00     0.031 C 
ATOM     51  C   UNL A   1      42.317  33.824  32.860  1.00  0.00     0.029 A 
ATOM     52  C   UNL A   1      42.336  32.570  32.263  1.00  0.00     0.049 A 
ATOM     53  H   UNL A   1      42.229  30.706  33.176  1.00  0.00     0.167 HD
ATOM     54  C   UNL A   1      42.390  30.806  30.517  1.00  0.00     0.074 A 
ATOM     55  C   UNL A   1      42.075  29.564  31.258  1.00  0.00     0.031 C 
ATOM     56  C   UNL A   1      42.363  32.121  30.902  1.00  0.00     0.037 A 
BRANCH  43  57
ATOM     57  C   UNL A   1      42.002  30.275  36.052  1.00  0.00     0.064 A 
ATOM     58  C   UNL A   1      43.077  30.424  36.956  1.00  0.00     0.173 A 
ATOM     59  C   UNL A   1      41.800  28.962  35.572  1.00  0.00     0.173 A 
ATOM     60  F   UNL A   1      43.358  31.623  37.485  1.00  0.00    -0.203 F 
ATOM     61  C   UNL A   1      43.933  29.367  37.284  1.00  0.00     0.198 A 
ATOM     62  C   UNL A   1      42.628  27.895  35.944  1.00  0.00     0.198 A 
ATOM     63  F   UNL A   1      40.858  28.668  34.671  1.00  0.00    -0.203 F 
ATOM     64  F   UNL A   1      45.003  29.594  38.058  1.00  0.00    -0.200 F 
ATOM     65  C   UNL A   1      43.710  28.104  36.776  1.00  0.00     0.200 A 
ATOM     66  F   UNL A   1      42.402  26.671  35.445  1.00  0.00    -0.200 F 
ATOM     67  F   UNL A   1      44.545  27.096  37.065  1.00  0.00    -0.200 F 
ENDBRANCH  43  57
BRANCH  44  68
ATOM     68  C   UNL A   1      40.263  27.833  27.640  1.00  0.00     0.064 A 
ATOM     69  C   UNL A   1      41.059  27.477  26.499  1.00  0.00     0.173 A 
ATOM     70  C   UNL A   1      39.586  26.748  28.212  1.00  0.00     0.173 A 
ATOM     71  F   UNL A   1      41.840  28.387  25.892  1.00  0.00    -0.203 F 
ATOM     72  C   UNL A   1      41.120  26.151  25.982  1.00  0.00     0.198 A 
ATOM     73  C   UNL A   1      39.670  25.433  27.718  1.00  0.00     0.198 A 
ATOM     74  F   UNL A   1      38.902  26.933  29.347  1.00  0.00    -0.203 F 
ATOM     75  F   UNL A   1      41.884  25.853  24.915  1.00  0.00    -0.200 F 
ATOM     76  C   UNL A   1      40.430  25.129  26.606  1.00  0.00     0.200 A 
ATOM     77  F   UNL A   1      39.045  24.447  28.378  1.00  0.00    -0.200 F 
ATOM     78  F   UNL A   1      40.523  23.861  26.171  1.00  0.00    -0.200 F 
ENDBRANCH  44  68
BRANCH  56  79
ATOM     79  C   UNL A   1      42.419  33.191  29.843  1.00  0.00     0.064 A 
ATOM     80  C   UNL A   1      41.386  34.069  29.464  1.00  0.00     0.173 A 
ATOM     81  C   UNL A   1      43.680  33.424  29.292  1.00  0.00     0.173 A 
ATOM     82  F   UNL A   1      40.194  34.039  30.069  1.00  0.00    -0.203 F 
ATOM     83  C   UNL A   1      41.592  35.064  28.501  1.00  0.00     0.198 A 
ATOM     84  C   UNL A   1      43.899  34.444  28.378  1.00  0.00     0.198 A 
ATOM     85  F   UNL A   1      44.726  32.693  29.707  1.00  0.00    -0.203 F 
ATOM     86  F   UNL A   1      40.586  35.872  28.131  1.00  0.00    -0.200 F 
ATOM     87  C   UNL A   1      42.851  35.243  27.954  1.00  0.00     0.200 A 
ATOM     88  F   UNL A   1      45.142  34.670  27.935  1.00  0.00    -0.200 F 
ATOM     89  F   UNL A   1      43.067  36.205  27.046  1.00  0.00    -0.200 F 
ENDBRANCH  56  79
ENDBRANCH  30  31
ENDBRANCH  22  25
ENDBRANCH  20  21
ENDBRANCH  19  20
ENDBRANCH  18  19
ENDBRANCH   1  18
TORSDOF 16
ENDMDL
