MODEL 1
REMARK VINA RESULT:     -13.0      0.000      0.000
REMARK SMILES Cc1ccc(Br)cc1S(=O)(=O)N[C@H]1C=C[C@H](C(=O)NCCCCNC(=O)c2ccc(-c3c4nc(c(-c5c(F)c(F)c(F)c(F)c5F)c5ccc([nH]5)c(-c5c(F)c(F)c(F)c(F)c5F)c5nc(c(-c6c(F)c(F)c(F)c(F)c6F)c6ccc3[nH]6)C=C5)C=C4)cc2)C1
REMARK SMILES IDX 21 1 20 2 19 3 17 4 18 5 16 7 13 8 14 9 90 10 15 11 12 12
REMARK SMILES IDX 9 14 10 15 11 16 8 17 1 18 2 19 3 20 4 21 7 22 5 23 6 24
REMARK SMILES IDX 22 25 23 26 24 27 25 28 26 30 27 31 28 32 89 33 29 34 88 35
REMARK SMILES IDX 30 36 31 37 32 38 82 39 33 40 87 41 81 42 83 43 34 44 86 45
REMARK SMILES IDX 80 46 79 47 35 49 67 50 47 51 66 52 48 53 51 54 65 55 84 56
REMARK SMILES IDX 49 57 50 58 64 60 85 61 52 62 36 63 37 64 45 65 38 66 39 67
REMARK SMILES IDX 43 68 46 69 40 70 41 71 44 72 42 73 68 74 69 75 77 76 70 77
REMARK SMILES IDX 71 78 75 79 78 80 72 81 73 82 76 83 74 84 53 85 54 86 62 87
REMARK SMILES IDX 55 88 56 89 60 90 63 91 57 92 58 93 61 94 59 95
REMARK H PARENT 19 6 12 13 24 29 83 48 51 59
REMARK Flexibility Score: inf
ROOT
ATOM      1  C   UNL A   1      32.088  30.309  26.958  1.00  0.00     0.023 C 
ENDROOT
BRANCH   1   2
ATOM      2  C   UNL A   1      33.347  29.804  26.259  1.00  0.00     0.116 C 
BRANCH   2   3
ATOM      3  N   UNL A   1      33.140  29.649  24.833  1.00  0.00    -0.356 N 
ATOM      4  C   UNL A   1      32.226  28.999  24.073  1.00  0.00     0.226 C 
ATOM      5  O   UNL A   1      32.467  28.976  22.858  1.00  0.00    -0.274 OA
ATOM      6  H   UNL A   1      33.816  30.123  24.296  1.00  0.00     0.163 HD
BRANCH   4   7
ATOM      7  C   UNL A   1      30.972  28.282  24.589  1.00  0.00     0.103 C 
ATOM      8  C   UNL A   1      30.920  25.850  24.683  1.00  0.00     0.093 C 
ATOM      9  C   UNL A   1      30.057  26.363  23.577  1.00  0.00    -0.011 C 
ATOM     10  C   UNL A   1      31.087  27.107  25.547  1.00  0.00     0.042 C 
ATOM     11  C   UNL A   1      30.130  27.698  23.491  1.00  0.00    -0.016 C 
BRANCH   8  12
ATOM     12  N   UNL A   1      30.266  24.799  25.427  1.00  0.00    -0.204 NA
ATOM     13  H   UNL A   1      29.739  25.250  26.174  1.00  0.00     0.142 HD
BRANCH  12  14
ATOM     14  S   UNL A   1      31.182  23.589  26.141  1.00  0.00     0.241 S 
ATOM     15  O   UNL A   1      30.396  22.371  26.048  1.00  0.00    -0.207 OA
ATOM     16  O   UNL A   1      31.644  24.096  27.405  1.00  0.00    -0.207 OA
BRANCH  14  17
ATOM     17  C   UNL A   1      32.609  23.395  25.084  1.00  0.00     0.086 A 
ATOM     18  C   UNL A   1      31.250  22.777  22.973  1.00  0.00     0.046 C 
ATOM     19  C   UNL A   1      32.526  22.975  23.743  1.00  0.00    -0.031 A 
ATOM     20  C   UNL A   1      33.727  22.746  23.043  1.00  0.00     0.006 A 
ATOM     21  C   UNL A   1      34.970  22.983  23.632  1.00  0.00     0.016 A 
ATOM     22  C   UNL A   1      33.862  23.657  25.668  1.00  0.00     0.037 A 
ATOM     23  C   UNL A   1      35.030  23.460  24.936  1.00  0.00     0.019 A 
ATOM     24  Br  UNL A   1      36.708  23.844  25.717  1.00  0.00    -0.051 Br
ENDBRANCH  14  17
ENDBRANCH  12  14
ENDBRANCH   8  12
ENDBRANCH   4   7
ENDBRANCH   2   3
ENDBRANCH   1   2
BRANCH   1  25
ATOM     25  C   UNL A   1      31.851  31.812  26.799  1.00  0.00     0.023 C 
BRANCH  25  26
ATOM     26  C   UNL A   1      32.923  32.702  27.421  1.00  0.00     0.116 C 
BRANCH  26  27
ATOM     27  N   UNL A   1      32.483  34.066  27.673  1.00  0.00    -0.352 N 
ATOM     28  C   UNL A   1      32.996  34.962  28.580  1.00  0.00     0.251 C 
ATOM     29  H   UNL A   1      31.727  34.385  27.129  1.00  0.00     0.163 HD
ATOM     30  O   UNL A   1      32.483  36.062  28.747  1.00  0.00    -0.269 OA
BRANCH  28  31
ATOM     31  C   UNL A   1      34.155  34.550  29.393  1.00  0.00     0.039 A 
ATOM     32  C   UNL A   1      33.928  33.996  30.653  1.00  0.00     0.014 A 
ATOM     33  C   UNL A   1      35.446  34.626  28.864  1.00  0.00     0.014 A 
ATOM     34  C   UNL A   1      34.996  33.443  31.359  1.00  0.00     0.010 A 
ATOM     35  C   UNL A   1      36.495  34.014  29.538  1.00  0.00     0.010 A 
ATOM     36  C   UNL A   1      36.278  33.410  30.786  1.00  0.00    -0.014 A 
BRANCH  36  37
ATOM     37  C   UNL A   1      37.406  32.739  31.475  1.00  0.00     0.031 A 
ATOM     38  C   UNL A   1      38.097  31.577  30.824  1.00  0.00     0.074 A 
ATOM     39  C   UNL A   1      37.755  33.131  32.716  1.00  0.00     0.049 A 
ATOM     40  N   UNL A   1      39.051  30.814  31.291  1.00  0.00    -0.248 NA
ATOM     41  C   UNL A   1      37.628  31.201  29.481  1.00  0.00     0.031 C 
ATOM     42  C   UNL A   1      37.115  34.206  33.477  1.00  0.00     0.029 A 
ATOM     43  N   UNL A   1      38.727  32.660  33.561  1.00  0.00    -0.354 N 
ATOM     44  C   UNL A   1      39.282  29.858  30.312  1.00  0.00     0.074 A 
ATOM     45  C   UNL A   1      38.335  30.105  29.247  1.00  0.00     0.031 C 
ATOM     46  C   UNL A   1      37.728  34.328  34.665  1.00  0.00     0.029 A 
ATOM     47  C   UNL A   1      38.782  33.324  34.762  1.00  0.00     0.049 A 
ATOM     48  H   UNL A   1      39.329  31.917  33.328  1.00  0.00     0.167 HD
ATOM     49  C   UNL A   1      40.216  28.879  30.293  1.00  0.00     0.037 A 
ATOM     50  C   UNL A   1      39.594  33.140  35.820  1.00  0.00     0.037 A 
ATOM     51  C   UNL A   1      41.183  28.664  31.335  1.00  0.00     0.049 A 
ATOM     52  C   UNL A   1      40.647  32.068  35.758  1.00  0.00     0.074 A 
ATOM     53  C   UNL A   1      42.218  27.748  31.379  1.00  0.00     0.029 A 
ATOM     54  N   UNL A   1      41.233  29.382  32.522  1.00  0.00    -0.354 N 
ATOM     55  N   UNL A   1      40.903  31.216  34.796  1.00  0.00    -0.248 NA
ATOM     56  C   UNL A   1      41.526  31.936  36.929  1.00  0.00     0.031 C 
ATOM     57  C   UNL A   1      42.878  27.890  32.604  1.00  0.00     0.029 A 
ATOM     58  C   UNL A   1      42.274  28.921  33.309  1.00  0.00     0.049 A 
ATOM     59  H   UNL A   1      40.620  30.112  32.766  1.00  0.00     0.167 HD
ATOM     60  C   UNL A   1      41.985  30.463  35.232  1.00  0.00     0.074 A 
ATOM     61  C   UNL A   1      42.347  30.970  36.539  1.00  0.00     0.031 C 
ATOM     62  C   UNL A   1      42.621  29.444  34.605  1.00  0.00     0.037 A 
BRANCH  49  63
ATOM     63  C   UNL A   1      40.242  27.976  29.096  1.00  0.00     0.064 A 
ATOM     64  C   UNL A   1      40.969  28.309  27.943  1.00  0.00     0.173 A 
ATOM     65  C   UNL A   1      39.551  26.756  29.109  1.00  0.00     0.173 A 
ATOM     66  F   UNL A   1      41.635  29.472  27.876  1.00  0.00    -0.203 F 
ATOM     67  C   UNL A   1      40.976  27.466  26.834  1.00  0.00     0.198 A 
ATOM     68  C   UNL A   1      39.584  25.903  28.009  1.00  0.00     0.198 A 
ATOM     69  F   UNL A   1      38.843  26.390  30.189  1.00  0.00    -0.203 F 
ATOM     70  F   UNL A   1      41.636  27.828  25.725  1.00  0.00    -0.200 F 
ATOM     71  C   UNL A   1      40.290  26.262  26.870  1.00  0.00     0.200 A 
ATOM     72  F   UNL A   1      38.927  24.736  28.048  1.00  0.00    -0.200 F 
ATOM     73  F   UNL A   1      40.300  25.452  25.804  1.00  0.00    -0.200 F 
ENDBRANCH  49  63
BRANCH  50  74
ATOM     74  C   UNL A   1      39.471  34.019  37.011  1.00  0.00     0.064 A 
ATOM     75  C   UNL A   1      40.110  35.266  37.050  1.00  0.00     0.173 A 
ATOM     76  C   UNL A   1      38.717  33.634  38.130  1.00  0.00     0.173 A 
ATOM     77  F   UNL A   1      40.858  35.666  36.011  1.00  0.00    -0.203 F 
ATOM     78  C   UNL A   1      40.016  36.087  38.170  1.00  0.00     0.198 A 
ATOM     79  C   UNL A   1      38.605  34.467  39.240  1.00  0.00     0.198 A 
ATOM     80  F   UNL A   1      38.083  32.453  38.137  1.00  0.00    -0.203 F 
ATOM     81  F   UNL A   1      40.669  37.257  38.198  1.00  0.00    -0.200 F 
ATOM     82  C   UNL A   1      39.259  35.690  39.263  1.00  0.00     0.200 A 
ATOM     83  F   UNL A   1      37.864  34.085  40.290  1.00  0.00    -0.200 F 
ATOM     84  F   UNL A   1      39.168  36.482  40.340  1.00  0.00    -0.200 F 
ENDBRANCH  50  74
BRANCH  62  85
ATOM     85  C   UNL A   1      43.787  28.826  35.317  1.00  0.00     0.064 A 
ATOM     86  C   UNL A   1      43.613  27.789  36.244  1.00  0.00     0.173 A 
ATOM     87  C   UNL A   1      45.094  29.247  35.036  1.00  0.00     0.173 A 
ATOM     88  F   UNL A   1      42.379  27.363  36.556  1.00  0.00    -0.203 F 
ATOM     89  C   UNL A   1      44.706  27.211  36.881  1.00  0.00     0.198 A 
ATOM     90  C   UNL A   1      46.188  28.649  35.656  1.00  0.00     0.198 A 
ATOM     91  F   UNL A   1      45.312  30.234  34.151  1.00  0.00    -0.203 F 
ATOM     92  F   UNL A   1      44.514  26.249  37.794  1.00  0.00    -0.200 F 
ATOM     93  C   UNL A   1      45.992  27.636  36.582  1.00  0.00     0.200 A 
ATOM     94  F   UNL A   1      47.429  29.054  35.359  1.00  0.00    -0.200 F 
ATOM     95  F   UNL A   1      47.044  27.073  37.192  1.00  0.00    -0.200 F 
ENDBRANCH  62  85
ENDBRANCH  36  37
ENDBRANCH  28  31
ENDBRANCH  26  27
ENDBRANCH  25  26
ENDBRANCH   1  25
TORSDOF 14
ENDMDL
MODEL 2
REMARK VINA RESULT:     -12.9      3.783      8.793
REMARK SMILES Cc1ccc(Br)cc1S(=O)(=O)N[C@H]1C=C[C@H](C(=O)NCCCCNC(=O)c2ccc(-c3c4nc(c(-c5c(F)c(F)c(F)c(F)c5F)c5ccc([nH]5)c(-c5c(F)c(F)c(F)c(F)c5F)c5nc(c(-c6c(F)c(F)c(F)c(F)c6F)c6ccc3[nH]6)C=C5)C=C4)cc2)C1
REMARK SMILES IDX 21 1 20 2 19 3 17 4 18 5 16 7 13 8 14 9 90 10 15 11 12 12
REMARK SMILES IDX 9 14 10 15 11 16 8 17 1 18 2 19 3 20 4 21 7 22 5 23 6 24
REMARK SMILES IDX 22 25 23 26 24 27 25 28 26 30 27 31 28 32 89 33 29 34 88 35
REMARK SMILES IDX 30 36 31 37 32 38 82 39 33 40 87 41 81 42 83 43 34 44 86 45
REMARK SMILES IDX 80 46 79 47 35 49 67 50 47 51 66 52 48 53 51 54 65 55 84 56
REMARK SMILES IDX 49 57 50 58 64 60 85 61 52 62 36 63 37 64 45 65 38 66 39 67
REMARK SMILES IDX 43 68 46 69 40 70 41 71 44 72 42 73 68 74 69 75 77 76 70 77
REMARK SMILES IDX 71 78 75 79 78 80 72 81 73 82 76 83 74 84 53 85 54 86 62 87
REMARK SMILES IDX 55 88 56 89 60 90 63 91 57 92 58 93 61 94 59 95
REMARK H PARENT 19 6 12 13 24 29 83 48 51 59
REMARK Flexibility Score: inf
ROOT
ATOM      1  C   UNL A   1      32.833  29.455  25.030  1.00  0.00     0.023 C 
ENDROOT
BRANCH   1   2
ATOM      2  C   UNL A   1      31.308  29.381  25.035  1.00  0.00     0.116 C 
BRANCH   2   3
ATOM      3  N   UNL A   1      30.751  29.783  23.759  1.00  0.00    -0.356 N 
ATOM      4  C   UNL A   1      30.266  29.116  22.684  1.00  0.00     0.226 C 
ATOM      5  O   UNL A   1      30.006  29.818  21.697  1.00  0.00    -0.274 OA
ATOM      6  H   UNL A   1      30.718  30.761  23.649  1.00  0.00     0.163 HD
BRANCH   4   7
ATOM      7  C   UNL A   1      30.053  27.599  22.587  1.00  0.00     0.103 C 
ATOM      8  C   UNL A   1      30.490  26.189  24.522  1.00  0.00     0.093 C 
ATOM      9  C   UNL A   1      31.545  26.012  23.479  1.00  0.00    -0.011 C 
ATOM     10  C   UNL A   1      29.364  26.837  23.708  1.00  0.00     0.042 C 
ATOM     11  C   UNL A   1      31.333  26.829  22.439  1.00  0.00    -0.016 C 
BRANCH   8  12
ATOM     12  N   UNL A   1      30.064  24.922  25.070  1.00  0.00    -0.204 NA
ATOM     13  H   UNL A   1      29.087  25.031  25.339  1.00  0.00     0.142 HD
BRANCH  12  14
ATOM     14  S   UNL A   1      30.864  24.276  26.394  1.00  0.00     0.241 S 
ATOM     15  O   UNL A   1      29.839  23.723  27.262  1.00  0.00    -0.207 OA
ATOM     16  O   UNL A   1      31.790  25.273  26.860  1.00  0.00    -0.207 OA
BRANCH  14  17
ATOM     17  C   UNL A   1      31.820  22.913  25.747  1.00  0.00     0.086 A 
ATOM     18  C   UNL A   1      33.057  22.425  27.964  1.00  0.00     0.046 C 
ATOM     19  C   UNL A   1      32.791  22.224  26.498  1.00  0.00    -0.031 A 
ATOM     20  C   UNL A   1      33.563  21.243  25.846  1.00  0.00     0.006 A 
ATOM     21  C   UNL A   1      33.341  20.912  24.508  1.00  0.00     0.016 A 
ATOM     22  C   UNL A   1      31.581  22.561  24.405  1.00  0.00     0.037 A 
ATOM     23  C   UNL A   1      32.334  21.558  23.800  1.00  0.00     0.019 A 
ATOM     24  Br  UNL A   1      31.986  21.069  22.009  1.00  0.00    -0.051 Br
ENDBRANCH  14  17
ENDBRANCH  12  14
ENDBRANCH   8  12
ENDBRANCH   4   7
ENDBRANCH   2   3
ENDBRANCH   1   2
BRANCH   1  25
ATOM     25  C   UNL A   1      33.512  28.296  25.762  1.00  0.00     0.023 C 
BRANCH  25  26
ATOM     26  C   UNL A   1      33.742  28.522  27.252  1.00  0.00     0.116 C 
BRANCH  26  27
ATOM     27  N   UNL A   1      33.680  29.919  27.654  1.00  0.00    -0.352 N 
ATOM     28  C   UNL A   1      34.677  30.677  28.221  1.00  0.00     0.251 C 
ATOM     29  H   UNL A   1      32.821  30.375  27.504  1.00  0.00     0.163 HD
ATOM     30  O   UNL A   1      34.471  31.829  28.584  1.00  0.00    -0.269 OA
BRANCH  28  31
ATOM     31  C   UNL A   1      35.997  30.054  28.431  1.00  0.00     0.039 A 
ATOM     32  C   UNL A   1      36.954  30.154  27.420  1.00  0.00     0.014 A 
ATOM     33  C   UNL A   1      36.308  29.465  29.658  1.00  0.00     0.014 A 
ATOM     34  C   UNL A   1      38.258  29.727  27.669  1.00  0.00     0.010 A 
ATOM     35  C   UNL A   1      37.622  29.103  29.927  1.00  0.00     0.010 A 
ATOM     36  C   UNL A   1      38.609  29.238  28.938  1.00  0.00    -0.014 A 
BRANCH  36  37
ATOM     37  C   UNL A   1      40.010  28.871  29.255  1.00  0.00     0.031 A 
ATOM     38  C   UNL A   1      40.870  29.812  30.046  1.00  0.00     0.074 A 
ATOM     39  C   UNL A   1      40.524  27.726  28.766  1.00  0.00     0.049 A 
ATOM     40  N   UNL A   1      42.135  29.709  30.364  1.00  0.00    -0.248 NA
ATOM     41  C   UNL A   1      40.232  31.053  30.512  1.00  0.00     0.031 C 
ATOM     42  C   UNL A   1      39.804  26.762  27.931  1.00  0.00     0.029 A 
ATOM     43  N   UNL A   1      41.778  27.185  28.890  1.00  0.00    -0.354 N 
ATOM     44  C   UNL A   1      42.448  30.875  31.046  1.00  0.00     0.074 A 
ATOM     45  C   UNL A   1      41.257  31.696  31.054  1.00  0.00     0.031 C 
ATOM     46  C   UNL A   1      40.621  25.737  27.640  1.00  0.00     0.029 A 
ATOM     47  C   UNL A   1      41.928  25.985  28.241  1.00  0.00     0.049 A 
ATOM     48  H   UNL A   1      42.503  27.617  29.398  1.00  0.00     0.167 HD
ATOM     49  C   UNL A   1      43.617  31.220  31.635  1.00  0.00     0.037 A 
ATOM     50  C   UNL A   1      43.000  25.177  28.145  1.00  0.00     0.037 A 
ATOM     51  C   UNL A   1      44.787  30.384  31.661  1.00  0.00     0.049 A 
ATOM     52  C   UNL A   1      44.276  25.566  28.838  1.00  0.00     0.074 A 
ATOM     53  C   UNL A   1      45.996  30.608  32.294  1.00  0.00     0.029 A 
ATOM     54  N   UNL A   1      44.889  29.155  31.024  1.00  0.00    -0.354 N 
ATOM     55  N   UNL A   1      44.540  26.639  29.543  1.00  0.00    -0.248 NA
ATOM     56  C   UNL A   1      45.403  24.629  28.726  1.00  0.00     0.031 C 
ATOM     57  C   UNL A   1      46.841  29.528  32.016  1.00  0.00     0.029 A 
ATOM     58  C   UNL A   1      46.145  28.615  31.239  1.00  0.00     0.049 A 
ATOM     59  H   UNL A   1      44.173  28.730  30.499  1.00  0.00     0.167 HD
ATOM     60  C   UNL A   1      45.850  26.498  29.978  1.00  0.00     0.074 A 
ATOM     61  C   UNL A   1      46.324  25.227  29.470  1.00  0.00     0.031 C 
ATOM     62  C   UNL A   1      46.593  27.345  30.730  1.00  0.00     0.037 A 
BRANCH  49  63
ATOM     63  C   UNL A   1      43.679  32.557  32.312  1.00  0.00     0.064 A 
ATOM     64  C   UNL A   1      43.405  32.699  33.681  1.00  0.00     0.173 A 
ATOM     65  C   UNL A   1      44.036  33.705  31.590  1.00  0.00     0.173 A 
ATOM     66  F   UNL A   1      43.044  31.633  34.412  1.00  0.00    -0.203 F 
ATOM     67  C   UNL A   1      43.456  33.947  34.295  1.00  0.00     0.198 A 
ATOM     68  C   UNL A   1      44.114  34.947  32.214  1.00  0.00     0.198 A 
ATOM     69  F   UNL A   1      44.311  33.622  30.279  1.00  0.00    -0.203 F 
ATOM     70  F   UNL A   1      43.140  34.067  35.592  1.00  0.00    -0.200 F 
ATOM     71  C   UNL A   1      43.816  35.069  33.563  1.00  0.00     0.200 A 
ATOM     72  F   UNL A   1      44.470  36.029  31.508  1.00  0.00    -0.200 F 
ATOM     73  F   UNL A   1      43.867  36.269  34.157  1.00  0.00    -0.200 F 
ENDBRANCH  49  63
BRANCH  50  74
ATOM     74  C   UNL A   1      42.900  23.898  27.395  1.00  0.00     0.064 A 
ATOM     75  C   UNL A   1      42.470  22.726  28.033  1.00  0.00     0.173 A 
ATOM     76  C   UNL A   1      43.232  23.820  26.035  1.00  0.00     0.173 A 
ATOM     77  F   UNL A   1      42.163  22.750  29.338  1.00  0.00    -0.203 F 
ATOM     78  C   UNL A   1      42.392  21.519  27.343  1.00  0.00     0.198 A 
ATOM     79  C   UNL A   1      43.131  22.616  25.340  1.00  0.00     0.198 A 
ATOM     80  F   UNL A   1      43.643  24.915  25.380  1.00  0.00    -0.203 F 
ATOM     81  F   UNL A   1      42.017  20.405  27.986  1.00  0.00    -0.200 F 
ATOM     82  C   UNL A   1      42.718  21.465  25.995  1.00  0.00     0.200 A 
ATOM     83  F   UNL A   1      43.436  22.570  24.036  1.00  0.00    -0.200 F 
ATOM     84  F   UNL A   1      42.642  20.304  25.332  1.00  0.00    -0.200 F 
ENDBRANCH  50  74
BRANCH  62  85
ATOM     85  C   UNL A   1      47.989  26.912  31.067  1.00  0.00     0.064 A 
ATOM     86  C   UNL A   1      48.254  26.090  32.171  1.00  0.00     0.173 A 
ATOM     87  C   UNL A   1      49.066  27.291  30.253  1.00  0.00     0.173 A 
ATOM     88  F   UNL A   1      47.257  25.715  32.987  1.00  0.00    -0.203 F 
ATOM     89  C   UNL A   1      49.551  25.679  32.459  1.00  0.00     0.198 A 
ATOM     90  C   UNL A   1      50.359  26.858  30.530  1.00  0.00     0.198 A 
ATOM     91  F   UNL A   1      48.862  28.074  29.182  1.00  0.00    -0.203 F 
ATOM     92  F   UNL A   1      49.788  24.925  33.543  1.00  0.00    -0.200 F 
ATOM     93  C   UNL A   1      50.601  26.057  31.636  1.00  0.00     0.200 A 
ATOM     94  F   UNL A   1      51.371  27.215  29.728  1.00  0.00    -0.200 F 
ATOM     95  F   UNL A   1      51.849  25.655  31.912  1.00  0.00    -0.200 F 
ENDBRANCH  62  85
ENDBRANCH  36  37
ENDBRANCH  28  31
ENDBRANCH  26  27
ENDBRANCH  25  26
ENDBRANCH   1  25
TORSDOF 14
ENDMDL
MODEL 3
REMARK VINA RESULT:     -12.8      0.562      7.371
REMARK SMILES Cc1ccc(Br)cc1S(=O)(=O)N[C@H]1C=C[C@H](C(=O)NCCCCNC(=O)c2ccc(-c3c4nc(c(-c5c(F)c(F)c(F)c(F)c5F)c5ccc([nH]5)c(-c5c(F)c(F)c(F)c(F)c5F)c5nc(c(-c6c(F)c(F)c(F)c(F)c6F)c6ccc3[nH]6)C=C5)C=C4)cc2)C1
REMARK SMILES IDX 21 1 20 2 19 3 17 4 18 5 16 7 13 8 14 9 90 10 15 11 12 12
REMARK SMILES IDX 9 14 10 15 11 16 8 17 1 18 2 19 3 20 4 21 7 22 5 23 6 24
REMARK SMILES IDX 22 25 23 26 24 27 25 28 26 30 27 31 28 32 89 33 29 34 88 35
REMARK SMILES IDX 30 36 31 37 32 38 82 39 33 40 87 41 81 42 83 43 34 44 86 45
REMARK SMILES IDX 80 46 79 47 35 49 67 50 47 51 66 52 48 53 51 54 65 55 84 56
REMARK SMILES IDX 49 57 50 58 64 60 85 61 52 62 36 63 37 64 45 65 38 66 39 67
REMARK SMILES IDX 43 68 46 69 40 70 41 71 44 72 42 73 68 74 69 75 77 76 70 77
REMARK SMILES IDX 71 78 75 79 78 80 72 81 73 82 76 83 74 84 53 85 54 86 62 87
REMARK SMILES IDX 55 88 56 89 60 90 63 91 57 92 58 93 61 94 59 95
REMARK H PARENT 19 6 12 13 24 29 83 48 51 59
REMARK Flexibility Score: inf
ROOT
ATOM      1  C   UNL A   1      31.906  30.493  26.828  1.00  0.00     0.023 C 
ENDROOT
BRANCH   1   2
ATOM      2  C   UNL A   1      33.197  29.966  26.208  1.00  0.00     0.116 C 
BRANCH   2   3
ATOM      3  N   UNL A   1      33.050  29.731  24.786  1.00  0.00    -0.356 N 
ATOM      4  C   UNL A   1      32.190  29.006  24.029  1.00  0.00     0.226 C 
ATOM      5  O   UNL A   1      32.476  28.932  22.827  1.00  0.00    -0.274 OA
ATOM      6  H   UNL A   1      33.726  30.203  24.249  1.00  0.00     0.163 HD
BRANCH   4   7
ATOM      7  C   UNL A   1      30.946  28.267  24.538  1.00  0.00     0.103 C 
ATOM      8  C   UNL A   1      30.901  25.833  24.540  1.00  0.00     0.093 C 
ATOM      9  C   UNL A   1      30.019  26.385  23.468  1.00  0.00    -0.011 C 
ATOM     10  C   UNL A   1      31.079  27.056  25.448  1.00  0.00     0.042 C 
ATOM     11  C   UNL A   1      30.087  27.723  23.433  1.00  0.00    -0.016 C 
BRANCH   8  12
ATOM     12  N   UNL A   1      30.261  24.752  25.254  1.00  0.00    -0.204 NA
ATOM     13  H   UNL A   1      29.632  25.179  25.934  1.00  0.00     0.142 HD
BRANCH  12  14
ATOM     14  S   UNL A   1      31.196  23.638  26.089  1.00  0.00     0.241 S 
ATOM     15  O   UNL A   1      30.447  22.392  26.085  1.00  0.00    -0.207 OA
ATOM     16  O   UNL A   1      31.612  24.265  27.315  1.00  0.00    -0.207 OA
BRANCH  14  17
ATOM     17  C   UNL A   1      32.652  23.399  25.084  1.00  0.00     0.086 A 
ATOM     18  C   UNL A   1      31.354  22.714  22.956  1.00  0.00     0.046 C 
ATOM     19  C   UNL A   1      32.607  22.931  23.757  1.00  0.00    -0.031 A 
ATOM     20  C   UNL A   1      33.827  22.672  23.102  1.00  0.00     0.006 A 
ATOM     21  C   UNL A   1      35.053  22.923  23.721  1.00  0.00     0.016 A 
ATOM     22  C   UNL A   1      33.889  23.673  25.697  1.00  0.00     0.037 A 
ATOM     23  C   UNL A   1      35.077  23.444  25.008  1.00  0.00     0.019 A 
ATOM     24  Br  UNL A   1      36.733  23.847  25.826  1.00  0.00    -0.051 Br
ENDBRANCH  14  17
ENDBRANCH  12  14
ENDBRANCH   8  12
ENDBRANCH   4   7
ENDBRANCH   2   3
ENDBRANCH   1   2
BRANCH   1  25
ATOM     25  C   UNL A   1      31.746  32.010  26.731  1.00  0.00     0.023 C 
BRANCH  25  26
ATOM     26  C   UNL A   1      32.872  32.819  27.365  1.00  0.00     0.116 C 
BRANCH  26  27
ATOM     27  N   UNL A   1      32.499  34.183  27.709  1.00  0.00    -0.352 N 
ATOM     28  C   UNL A   1      33.069  34.999  28.656  1.00  0.00     0.251 C 
ATOM     29  H   UNL A   1      31.746  34.566  27.203  1.00  0.00     0.163 HD
ATOM     30  O   UNL A   1      32.609  36.108  28.901  1.00  0.00    -0.269 OA
BRANCH  28  31
ATOM     31  C   UNL A   1      34.227  34.489  29.415  1.00  0.00     0.039 A 
ATOM     32  C   UNL A   1      33.994  33.760  30.582  1.00  0.00     0.014 A 
ATOM     33  C   UNL A   1      35.521  34.652  28.916  1.00  0.00     0.014 A 
ATOM     34  C   UNL A   1      35.062  33.124  31.214  1.00  0.00     0.010 A 
ATOM     35  C   UNL A   1      36.571  33.963  29.508  1.00  0.00     0.010 A 
ATOM     36  C   UNL A   1      36.350  33.186  30.656  1.00  0.00    -0.014 A 
BRANCH  36  37
ATOM     37  C   UNL A   1      37.480  32.437  31.255  1.00  0.00     0.031 A 
ATOM     38  C   UNL A   1      37.975  32.797  32.625  1.00  0.00     0.074 A 
ATOM     39  C   UNL A   1      38.105  31.486  30.534  1.00  0.00     0.049 A 
ATOM     40  N   UNL A   1      38.992  32.314  33.292  1.00  0.00    -0.248 NA
ATOM     41  C   UNL A   1      37.252  33.870  33.326  1.00  0.00     0.031 C 
ATOM     42  C   UNL A   1      37.755  31.093  29.167  1.00  0.00     0.029 A 
ATOM     43  N   UNL A   1      39.174  30.686  30.845  1.00  0.00    -0.354 N 
ATOM     44  C   UNL A   1      39.042  33.034  34.476  1.00  0.00     0.074 A 
ATOM     45  C   UNL A   1      37.986  34.021  34.418  1.00  0.00     0.031 C 
ATOM     46  C   UNL A   1      38.578  30.109  28.769  1.00  0.00     0.029 A 
ATOM     47  C   UNL A   1      39.529  29.824  29.838  1.00  0.00     0.049 A 
ATOM     48  H   UNL A   1      39.642  30.725  31.711  1.00  0.00     0.167 HD
ATOM     49  C   UNL A   1      39.877  32.869  35.529  1.00  0.00     0.037 A 
ATOM     50  C   UNL A   1      40.513  28.906  29.786  1.00  0.00     0.037 A 
ATOM     51  C   UNL A   1      40.898  31.859  35.600  1.00  0.00     0.049 A 
ATOM     52  C   UNL A   1      41.405  28.720  30.982  1.00  0.00     0.074 A 
ATOM     53  C   UNL A   1      41.748  31.561  36.650  1.00  0.00     0.029 A 
ATOM     54  N   UNL A   1      41.204  30.977  34.573  1.00  0.00    -0.354 N 
ATOM     55  N   UNL A   1      41.397  29.358  32.126  1.00  0.00    -0.248 NA
ATOM     56  C   UNL A   1      42.440  27.681  30.880  1.00  0.00     0.031 C 
ATOM     57  C   UNL A   1      42.589  30.518  36.249  1.00  0.00     0.029 A 
ATOM     58  C   UNL A   1      42.239  30.142  34.961  1.00  0.00     0.049 A 
ATOM     59  H   UNL A   1      40.752  30.948  33.699  1.00  0.00     0.167 HD
ATOM     60  C   UNL A   1      42.405  28.786  32.890  1.00  0.00     0.074 A 
ATOM     61  C   UNL A   1      42.995  27.737  32.084  1.00  0.00     0.031 C 
ATOM     62  C   UNL A   1      42.806  29.101  34.145  1.00  0.00     0.037 A 
BRANCH  49  63
ATOM     63  C   UNL A   1      39.708  33.798  36.694  1.00  0.00     0.064 A 
ATOM     64  C   UNL A   1      38.895  33.462  37.787  1.00  0.00     0.173 A 
ATOM     65  C   UNL A   1      40.381  35.028  36.728  1.00  0.00     0.173 A 
ATOM     66  F   UNL A   1      38.219  32.304  37.795  1.00  0.00    -0.203 F 
ATOM     67  C   UNL A   1      38.738  34.338  38.857  1.00  0.00     0.198 A 
ATOM     68  C   UNL A   1      40.244  35.889  37.814  1.00  0.00     0.198 A 
ATOM     69  F   UNL A   1      41.173  35.395  35.709  1.00  0.00    -0.203 F 
ATOM     70  F   UNL A   1      37.916  34.019  39.867  1.00  0.00    -0.200 F 
ATOM     71  C   UNL A   1      39.417  35.547  38.873  1.00  0.00     0.200 A 
ATOM     72  F   UNL A   1      40.907  37.053  37.831  1.00  0.00    -0.200 F 
ATOM     73  F   UNL A   1      39.267  36.388  39.906  1.00  0.00    -0.200 F 
ENDBRANCH  49  63
BRANCH  50  74
ATOM     74  C   UNL A   1      40.681  28.066  28.573  1.00  0.00     0.064 A 
ATOM     75  C   UNL A   1      41.467  28.507  27.499  1.00  0.00     0.173 A 
ATOM     76  C   UNL A   1      40.061  26.812  28.460  1.00  0.00     0.173 A 
ATOM     77  F   UNL A   1      42.061  29.707  27.555  1.00  0.00    -0.203 F 
ATOM     78  C   UNL A   1      41.613  27.734  26.351  1.00  0.00     0.198 A 
ATOM     79  C   UNL A   1      40.228  26.030  27.319  1.00  0.00     0.198 A 
ATOM     80  F   UNL A   1      39.304  26.345  29.463  1.00  0.00    -0.203 F 
ATOM     81  F   UNL A   1      42.338  28.196  25.322  1.00  0.00    -0.200 F 
ATOM     82  C   UNL A   1      40.997  26.494  26.262  1.00  0.00     0.200 A 
ATOM     83  F   UNL A   1      39.641  24.828  27.242  1.00  0.00    -0.200 F 
ATOM     84  F   UNL A   1      41.140  25.750  25.157  1.00  0.00    -0.200 F 
ENDBRANCH  50  74
BRANCH  62  85
ATOM     85  C   UNL A   1      43.921  28.286  34.731  1.00  0.00     0.064 A 
ATOM     86  C   UNL A   1      45.256  28.705  34.648  1.00  0.00     0.173 A 
ATOM     87  C   UNL A   1      43.644  27.095  35.418  1.00  0.00     0.173 A 
ATOM     88  F   UNL A   1      45.570  29.830  33.987  1.00  0.00    -0.203 F 
ATOM     89  C   UNL A   1      46.277  27.950  35.215  1.00  0.00     0.198 A 
ATOM     90  C   UNL A   1      44.666  26.355  36.005  1.00  0.00     0.198 A 
ATOM     91  F   UNL A   1      42.381  26.655  35.528  1.00  0.00    -0.203 F 
ATOM     92  F   UNL A   1      47.551  28.348  35.089  1.00  0.00    -0.200 F 
ATOM     93  C   UNL A   1      45.982  26.780  35.898  1.00  0.00     0.200 A 
ATOM     94  F   UNL A   1      44.377  25.230  36.673  1.00  0.00    -0.200 F 
ATOM     95  F   UNL A   1      46.966  26.056  36.448  1.00  0.00    -0.200 F 
ENDBRANCH  62  85
ENDBRANCH  36  37
ENDBRANCH  28  31
ENDBRANCH  26  27
ENDBRANCH  25  26
ENDBRANCH   1  25
TORSDOF 14
ENDMDL
