MODEL 1
REMARK VINA RESULT:     -11.7      0.000      0.000
REMARK SMILES C[C@@H]1[C@H](C(=O)NCCCCNC(=O)c2ccc(-c3c4nc(c(-c5c(F)c(F)c(F)c(F)c5F)c5ccc([nH]5)c(-c5c(F)c(F)c(F)c(F)c5F)c5nc(c(-c6c(F)c(F)c(F)c(F)c6F)c6ccc3[nH]6)C=C5)C=C4)cc2)CCN1C(=O)C1CC1
REMARK SMILES IDX 8 1 7 2 6 3 4 4 5 5 3 7 1 8 2 9 79 10 77 11 78 12 80 13
REMARK SMILES IDX 81 14 82 15 83 16 84 17 9 18 10 19 11 20 12 21 13 23 14 24
REMARK SMILES IDX 15 25 76 26 16 27 75 28 17 29 18 30 19 31 69 32 20 33 74 34
REMARK SMILES IDX 68 35 70 36 21 37 73 38 67 39 66 40 22 42 54 43 34 44 53 45
REMARK SMILES IDX 35 46 38 47 52 48 71 49 36 50 37 51 51 53 72 54 39 55 23 56
REMARK SMILES IDX 24 57 32 58 25 59 26 60 30 61 33 62 27 63 28 64 31 65 29 66
REMARK SMILES IDX 55 67 56 68 64 69 57 70 58 71 62 72 65 73 59 74 60 75 63 76
REMARK SMILES IDX 61 77 40 78 41 79 49 80 42 81 43 82 47 83 50 84 44 85 45 86
REMARK SMILES IDX 48 87 46 88
REMARK H PARENT 6 6 11 22 70 41 38 52
REMARK Flexibility Score: inf
ROOT
ATOM      1  C   UNL A   1      32.826  27.132  26.417  1.00  0.00     0.023 C 
ENDROOT
BRANCH   1   2
ATOM      2  C   UNL A   1      31.838  25.976  26.611  1.00  0.00     0.116 C 
BRANCH   2   3
ATOM      3  N   UNL A   1      31.503  25.303  25.366  1.00  0.00    -0.356 N 
ATOM      4  C   UNL A   1      30.660  25.616  24.342  1.00  0.00     0.225 C 
ATOM      5  O   UNL A   1      30.577  24.784  23.432  1.00  0.00    -0.275 OA
ATOM      6  H   UNL A   1      31.981  24.451  25.236  1.00  0.00     0.163 HD
BRANCH   4   7
ATOM      7  C   UNL A   1      29.824  26.893  24.265  1.00  0.00     0.102 C 
ATOM      8  C   UNL A   1      31.526  27.810  22.572  1.00  0.00     0.032 C 
ATOM      9  C   UNL A   1      30.423  28.137  23.560  1.00  0.00     0.094 C 
ATOM     10  N   UNL A   1      29.272  28.796  22.923  1.00  0.00    -0.339 N 
ATOM     11  C   UNL A   1      28.418  26.698  23.712  1.00  0.00     0.037 C 
ATOM     12  C   UNL A   1      28.044  28.044  23.130  1.00  0.00     0.120 C 
BRANCH  10  13
ATOM     13  C   UNL A   1      29.135  30.026  22.290  1.00  0.00     0.225 C 
ATOM     14  O   UNL A   1      29.069  30.077  21.061  1.00  0.00    -0.275 OA
BRANCH  13  15
ATOM     15  C   UNL A   1      29.014  31.341  22.981  1.00  0.00     0.079 C 
ATOM     16  C   UNL A   1      28.414  32.654  22.588  1.00  0.00     0.014 C 
ATOM     17  C   UNL A   1      27.659  31.746  23.521  1.00  0.00     0.014 C 
ENDBRANCH  13  15
ENDBRANCH  10  13
ENDBRANCH   4   7
ENDBRANCH   2   3
ENDBRANCH   1   2
BRANCH   1  18
ATOM     18  C   UNL A   1      32.246  28.529  26.522  1.00  0.00     0.023 C 
BRANCH  18  19
ATOM     19  C   UNL A   1      33.091  29.607  25.877  1.00  0.00     0.116 C 
BRANCH  19  20
ATOM     20  N   UNL A   1      32.774  30.950  26.345  1.00  0.00    -0.352 N 
ATOM     21  C   UNL A   1      33.444  31.725  27.263  1.00  0.00     0.251 C 
ATOM     22  H   UNL A   1      31.969  31.359  25.951  1.00  0.00     0.163 HD
ATOM     23  O   UNL A   1      32.987  32.796  27.636  1.00  0.00    -0.269 OA
BRANCH  21  24
ATOM     24  C   UNL A   1      34.713  31.217  27.818  1.00  0.00     0.039 A 
ATOM     25  C   UNL A   1      35.781  32.098  27.995  1.00  0.00     0.014 A 
ATOM     26  C   UNL A   1      34.806  29.888  28.236  1.00  0.00     0.014 A 
ATOM     27  C   UNL A   1      36.922  31.660  28.665  1.00  0.00     0.010 A 
ATOM     28  C   UNL A   1      35.892  29.489  28.998  1.00  0.00     0.010 A 
ATOM     29  C   UNL A   1      36.969  30.364  29.205  1.00  0.00    -0.014 A 
BRANCH  29  30
ATOM     30  C   UNL A   1      38.150  29.870  29.947  1.00  0.00     0.031 A 
ATOM     31  C   UNL A   1      38.378  30.343  31.356  1.00  0.00     0.074 A 
ATOM     32  C   UNL A   1      39.051  29.080  29.336  1.00  0.00     0.049 A 
ATOM     33  N   UNL A   1      39.402  30.143  32.144  1.00  0.00    -0.248 NA
ATOM     34  C   UNL A   1      37.331  31.200  31.940  1.00  0.00     0.031 C 
ATOM     35  C   UNL A   1      38.969  28.608  27.952  1.00  0.00     0.029 A 
ATOM     36  N   UNL A   1      40.225  28.543  29.800  1.00  0.00    -0.354 N 
ATOM     37  C   UNL A   1      39.138  30.876  33.293  1.00  0.00     0.074 A 
ATOM     38  C   UNL A   1      37.893  31.577  33.077  1.00  0.00     0.031 C 
ATOM     39  C   UNL A   1      40.030  27.828  27.689  1.00  0.00     0.029 A 
ATOM     40  C   UNL A   1      40.882  27.771  28.874  1.00  0.00     0.049 A 
ATOM     41  H   UNL A   1      40.563  28.695  30.711  1.00  0.00     0.167 HD
ATOM     42  C   UNL A   1      39.854  30.934  34.439  1.00  0.00     0.037 A 
ATOM     43  C   UNL A   1      42.041  27.094  28.976  1.00  0.00     0.037 A 
ATOM     44  C   UNL A   1      41.059  30.187  34.668  1.00  0.00     0.049 A 
ATOM     45  C   UNL A   1      42.792  27.131  30.280  1.00  0.00     0.074 A 
ATOM     46  C   UNL A   1      41.829  30.116  35.815  1.00  0.00     0.029 A 
ATOM     47  N   UNL A   1      41.662  29.366  33.726  1.00  0.00    -0.354 N 
ATOM     48  N   UNL A   1      42.504  27.779  31.382  1.00  0.00    -0.248 NA
ATOM     49  C   UNL A   1      44.023  26.333  30.357  1.00  0.00     0.031 C 
ATOM     50  C   UNL A   1      42.914  29.271  35.557  1.00  0.00     0.029 A 
ATOM     51  C   UNL A   1      42.798  28.785  34.265  1.00  0.00     0.049 A 
ATOM     52  H   UNL A   1      41.331  29.218  32.811  1.00  0.00     0.167 HD
ATOM     53  C   UNL A   1      43.497  27.444  32.293  1.00  0.00     0.074 A 
ATOM     54  C   UNL A   1      44.390  26.527  31.615  1.00  0.00     0.031 C 
ATOM     55  C   UNL A   1      43.657  27.858  33.573  1.00  0.00     0.037 A 
BRANCH  42  56
ATOM     56  C   UNL A   1      39.335  31.823  35.531  1.00  0.00     0.064 A 
ATOM     57  C   UNL A   1      38.455  31.343  36.514  1.00  0.00     0.173 A 
ATOM     58  C   UNL A   1      39.719  33.170  35.597  1.00  0.00     0.173 A 
ATOM     59  F   UNL A   1      38.041  30.067  36.485  1.00  0.00    -0.203 F 
ATOM     60  C   UNL A   1      37.950  32.188  37.499  1.00  0.00     0.198 A 
ATOM     61  C   UNL A   1      39.238  34.004  36.604  1.00  0.00     0.198 A 
ATOM     62  F   UNL A   1      40.559  33.680  34.684  1.00  0.00    -0.203 F 
ATOM     63  F   UNL A   1      37.061  31.722  38.389  1.00  0.00    -0.200 F 
ATOM     64  C   UNL A   1      38.346  33.515  37.547  1.00  0.00     0.200 A 
ATOM     65  F   UNL A   1      39.629  35.285  36.655  1.00  0.00    -0.200 F 
ATOM     66  F   UNL A   1      37.859  34.327  38.496  1.00  0.00    -0.200 F 
ENDBRANCH  42  56
BRANCH  43  67
ATOM     67  C   UNL A   1      42.531  26.282  27.834  1.00  0.00     0.064 A 
ATOM     68  C   UNL A   1      43.474  26.805  26.937  1.00  0.00     0.173 A 
ATOM     69  C   UNL A   1      42.078  24.973  27.613  1.00  0.00     0.173 A 
ATOM     70  F   UNL A   1      43.923  28.059  27.097  1.00  0.00    -0.203 F 
ATOM     71  C   UNL A   1      43.930  26.059  25.853  1.00  0.00     0.198 A 
ATOM     72  C   UNL A   1      42.553  24.218  26.543  1.00  0.00     0.198 A 
ATOM     73  F   UNL A   1      41.182  24.424  28.447  1.00  0.00    -0.203 F 
ATOM     74  F   UNL A   1      44.801  26.599  24.990  1.00  0.00    -0.200 F 
ATOM     75  C   UNL A   1      43.473  24.764  25.660  1.00  0.00     0.200 A 
ATOM     76  F   UNL A   1      42.120  22.964  26.366  1.00  0.00    -0.200 F 
ATOM     77  F   UNL A   1      43.914  24.045  24.619  1.00  0.00    -0.200 F 
ENDBRANCH  43  67
BRANCH  55  78
ATOM     78  C   UNL A   1      44.811  27.285  34.339  1.00  0.00     0.064 A 
ATOM     79  C   UNL A   1      46.051  27.935  34.394  1.00  0.00     0.173 A 
ATOM     80  C   UNL A   1      44.654  26.096  35.068  1.00  0.00     0.173 A 
ATOM     81  F   UNL A   1      46.251  29.068  33.703  1.00  0.00    -0.203 F 
ATOM     82  C   UNL A   1      47.103  27.402  35.133  1.00  0.00     0.198 A 
ATOM     83  C   UNL A   1      45.699  25.581  35.826  1.00  0.00     0.198 A 
ATOM     84  F   UNL A   1      43.482  25.443  35.052  1.00  0.00    -0.203 F 
ATOM     85  F   UNL A   1      48.294  28.017  35.139  1.00  0.00    -0.200 F 
ATOM     86  C   UNL A   1      46.924  26.231  35.855  1.00  0.00     0.200 A 
ATOM     87  F   UNL A   1      45.522  24.455  36.533  1.00  0.00    -0.200 F 
ATOM     88  F   UNL A   1      47.936  25.724  36.571  1.00  0.00    -0.200 F 
ENDBRANCH  55  78
ENDBRANCH  29  30
ENDBRANCH  21  24
ENDBRANCH  19  20
ENDBRANCH  18  19
ENDBRANCH   1  18
TORSDOF 13
ENDMDL
MODEL 2
REMARK VINA RESULT:     -11.6      2.353      8.553
REMARK SMILES C[C@@H]1[C@H](C(=O)NCCCCNC(=O)c2ccc(-c3c4nc(c(-c5c(F)c(F)c(F)c(F)c5F)c5ccc([nH]5)c(-c5c(F)c(F)c(F)c(F)c5F)c5nc(c(-c6c(F)c(F)c(F)c(F)c6F)c6ccc3[nH]6)C=C5)C=C4)cc2)CCN1C(=O)C1CC1
REMARK SMILES IDX 8 1 7 2 6 3 4 4 5 5 3 7 1 8 2 9 79 10 77 11 78 12 80 13
REMARK SMILES IDX 81 14 82 15 83 16 84 17 9 18 10 19 11 20 12 21 13 23 14 24
REMARK SMILES IDX 15 25 76 26 16 27 75 28 17 29 18 30 19 31 69 32 20 33 74 34
REMARK SMILES IDX 68 35 70 36 21 37 73 38 67 39 66 40 22 42 54 43 34 44 53 45
REMARK SMILES IDX 35 46 38 47 52 48 71 49 36 50 37 51 51 53 72 54 39 55 23 56
REMARK SMILES IDX 24 57 32 58 25 59 26 60 30 61 33 62 27 63 28 64 31 65 29 66
REMARK SMILES IDX 55 67 56 68 64 69 57 70 58 71 62 72 65 73 59 74 60 75 63 76
REMARK SMILES IDX 61 77 40 78 41 79 49 80 42 81 43 82 47 83 50 84 44 85 45 86
REMARK SMILES IDX 48 87 46 88
REMARK H PARENT 6 6 11 22 70 41 38 52
REMARK Flexibility Score: inf
ROOT
ATOM      1  C   UNL A   1      32.094  30.500  26.536  1.00  0.00     0.023 C 
ENDROOT
BRANCH   1   2
ATOM      2  C   UNL A   1      31.482  29.949  25.243  1.00  0.00     0.116 C 
BRANCH   2   3
ATOM      3  N   UNL A   1      32.475  29.389  24.341  1.00  0.00    -0.356 N 
ATOM      4  C   UNL A   1      33.168  28.216  24.340  1.00  0.00     0.225 C 
ATOM      5  O   UNL A   1      33.988  28.069  23.426  1.00  0.00    -0.275 OA
ATOM      6  H   UNL A   1      32.690  29.973  23.577  1.00  0.00     0.163 HD
BRANCH   4   7
ATOM      7  C   UNL A   1      33.007  27.110  25.383  1.00  0.00     0.102 C 
ATOM      8  C   UNL A   1      30.983  26.257  24.048  1.00  0.00     0.032 C 
ATOM      9  C   UNL A   1      31.707  26.266  25.380  1.00  0.00     0.094 C 
ATOM     10  N   UNL A   1      32.134  24.922  25.799  1.00  0.00    -0.339 N 
ATOM     11  C   UNL A   1      34.174  26.136  25.461  1.00  0.00     0.037 C 
ATOM     12  C   UNL A   1      33.573  24.858  26.003  1.00  0.00     0.120 C 
BRANCH  10  13
ATOM     13  C   UNL A   1      31.418  23.779  26.141  1.00  0.00     0.225 C 
ATOM     14  O   UNL A   1      30.870  23.708  27.242  1.00  0.00    -0.275 OA
BRANCH  13  15
ATOM     15  C   UNL A   1      31.207  22.599  25.255  1.00  0.00     0.079 C 
ATOM     16  C   UNL A   1      31.927  22.079  24.052  1.00  0.00     0.014 C 
ATOM     17  C   UNL A   1      32.151  21.424  25.388  1.00  0.00     0.014 C 
ENDBRANCH  13  15
ENDBRANCH  10  13
ENDBRANCH   4   7
ENDBRANCH   2   3
ENDBRANCH   1   2
BRANCH   1  18
ATOM     18  C   UNL A   1      31.719  31.925  26.897  1.00  0.00     0.023 C 
BRANCH  18  19
ATOM     19  C   UNL A   1      32.867  32.761  27.420  1.00  0.00     0.116 C 
BRANCH  19  20
ATOM     20  N   UNL A   1      32.498  34.141  27.705  1.00  0.00    -0.352 N 
ATOM     21  C   UNL A   1      33.019  34.997  28.647  1.00  0.00     0.251 C 
ATOM     22  H   UNL A   1      31.776  34.513  27.147  1.00  0.00     0.163 HD
ATOM     23  O   UNL A   1      32.523  36.097  28.841  1.00  0.00    -0.269 OA
BRANCH  21  24
ATOM     24  C   UNL A   1      34.170  34.542  29.450  1.00  0.00     0.039 A 
ATOM     25  C   UNL A   1      33.944  33.950  30.693  1.00  0.00     0.014 A 
ATOM     26  C   UNL A   1      35.461  34.632  28.925  1.00  0.00     0.014 A 
ATOM     27  C   UNL A   1      35.013  33.376  31.380  1.00  0.00     0.010 A 
ATOM     28  C   UNL A   1      36.499  33.964  29.554  1.00  0.00     0.010 A 
ATOM     29  C   UNL A   1      36.290  33.345  30.796  1.00  0.00    -0.014 A 
BRANCH  29  30
ATOM     30  C   UNL A   1      37.446  32.721  31.479  1.00  0.00     0.031 A 
ATOM     31  C   UNL A   1      38.174  31.595  30.800  1.00  0.00     0.074 A 
ATOM     32  C   UNL A   1      37.778  33.098  32.727  1.00  0.00     0.049 A 
ATOM     33  N   UNL A   1      39.125  30.824  31.259  1.00  0.00    -0.248 NA
ATOM     34  C   UNL A   1      37.740  31.260  29.432  1.00  0.00     0.031 C 
ATOM     35  C   UNL A   1      37.103  34.135  33.511  1.00  0.00     0.029 A 
ATOM     36  N   UNL A   1      38.766  32.641  33.562  1.00  0.00    -0.354 N 
ATOM     37  C   UNL A   1      39.371  29.897  30.256  1.00  0.00     0.074 A 
ATOM     38  C   UNL A   1      38.430  30.158  29.191  1.00  0.00     0.031 C 
ATOM     39  C   UNL A   1      37.715  34.254  34.700  1.00  0.00     0.029 A 
ATOM     40  C   UNL A   1      38.803  33.283  34.775  1.00  0.00     0.049 A 
ATOM     41  H   UNL A   1      39.389  31.921  33.315  1.00  0.00     0.167 HD
ATOM     42  C   UNL A   1      40.320  28.933  30.212  1.00  0.00     0.037 A 
ATOM     43  C   UNL A   1      39.627  33.105  35.825  1.00  0.00     0.037 A 
ATOM     44  C   UNL A   1      41.291  28.720  31.249  1.00  0.00     0.049 A 
ATOM     45  C   UNL A   1      40.709  32.063  35.731  1.00  0.00     0.074 A 
ATOM     46  C   UNL A   1      42.340  27.819  31.281  1.00  0.00     0.029 A 
ATOM     47  N   UNL A   1      41.336  29.433  32.439  1.00  0.00    -0.354 N 
ATOM     48  N   UNL A   1      40.973  31.230  34.753  1.00  0.00    -0.248 NA
ATOM     49  C   UNL A   1      41.614  31.945  36.882  1.00  0.00     0.031 C 
ATOM     50  C   UNL A   1      43.005  27.970  32.503  1.00  0.00     0.029 A 
ATOM     51  C   UNL A   1      42.395  28.991  33.214  1.00  0.00     0.049 A 
ATOM     52  H   UNL A   1      40.709  30.148  32.693  1.00  0.00     0.167 HD
ATOM     53  C   UNL A   1      42.091  30.512  35.155  1.00  0.00     0.074 A 
ATOM     54  C   UNL A   1      42.460  31.015  36.462  1.00  0.00     0.031 C 
ATOM     55  C   UNL A   1      42.752  29.525  34.503  1.00  0.00     0.037 A 
BRANCH  42  56
ATOM     56  C   UNL A   1      40.357  28.057  28.995  1.00  0.00     0.064 A 
ATOM     57  C   UNL A   1      41.096  28.411  27.856  1.00  0.00     0.173 A 
ATOM     58  C   UNL A   1      39.644  26.849  28.964  1.00  0.00     0.173 A 
ATOM     59  F   UNL A   1      41.780  29.566  27.827  1.00  0.00    -0.203 F 
ATOM     60  C   UNL A   1      41.091  27.608  26.718  1.00  0.00     0.198 A 
ATOM     61  C   UNL A   1      39.668  26.032  27.836  1.00  0.00     0.198 A 
ATOM     62  F   UNL A   1      38.922  26.462  30.026  1.00  0.00    -0.203 F 
ATOM     63  F   UNL A   1      41.753  28.000  25.620  1.00  0.00    -0.200 F 
ATOM     64  C   UNL A   1      40.382  26.417  26.711  1.00  0.00     0.200 A 
ATOM     65  F   UNL A   1      38.990  24.876  27.834  1.00  0.00    -0.200 F 
ATOM     66  F   UNL A   1      40.377  25.646  25.616  1.00  0.00    -0.200 F 
ENDBRANCH  42  56
BRANCH  43  67
ATOM     67  C   UNL A   1      39.496  33.966  37.026  1.00  0.00     0.064 A 
ATOM     68  C   UNL A   1      38.794  33.517  38.155  1.00  0.00     0.173 A 
ATOM     69  C   UNL A   1      40.067  35.246  37.080  1.00  0.00     0.173 A 
ATOM     70  F   UNL A   1      38.216  32.308  38.144  1.00  0.00    -0.203 F 
ATOM     71  C   UNL A   1      38.652  34.321  39.283  1.00  0.00     0.198 A 
ATOM     72  C   UNL A   1      39.946  36.041  38.219  1.00  0.00     0.198 A 
ATOM     73  F   UNL A   1      40.755  35.718  36.031  1.00  0.00    -0.203 F 
ATOM     74  F   UNL A   1      37.943  33.883  40.332  1.00  0.00    -0.200 F 
ATOM     75  C   UNL A   1      39.232  35.581  39.316  1.00  0.00     0.200 A 
ATOM     76  F   UNL A   1      40.518  37.251  38.253  1.00  0.00    -0.200 F 
ATOM     77  F   UNL A   1      39.099  36.354  40.402  1.00  0.00    -0.200 F 
ENDBRANCH  43  67
BRANCH  55  78
ATOM     78  C   UNL A   1      43.969  28.959  35.170  1.00  0.00     0.064 A 
ATOM     79  C   UNL A   1      43.885  27.873  36.053  1.00  0.00     0.173 A 
ATOM     80  C   UNL A   1      45.239  29.480  34.882  1.00  0.00     0.173 A 
ATOM     81  F   UNL A   1      42.690  27.351  36.368  1.00  0.00    -0.203 F 
ATOM     82  C   UNL A   1      45.030  27.343  36.641  1.00  0.00     0.198 A 
ATOM     83  C   UNL A   1      46.383  28.931  35.452  1.00  0.00     0.198 A 
ATOM     84  F   UNL A   1      45.369  30.515  34.037  1.00  0.00    -0.203 F 
ATOM     85  F   UNL A   1      44.925  26.332  37.515  1.00  0.00    -0.200 F 
ATOM     86  C   UNL A   1      46.277  27.867  36.334  1.00  0.00     0.200 A 
ATOM     87  F   UNL A   1      47.589  29.431  35.145  1.00  0.00    -0.200 F 
ATOM     88  F   UNL A   1      47.378  27.351  36.897  1.00  0.00    -0.200 F 
ENDBRANCH  55  78
ENDBRANCH  29  30
ENDBRANCH  21  24
ENDBRANCH  19  20
ENDBRANCH  18  19
ENDBRANCH   1  18
TORSDOF 13
ENDMDL
MODEL 3
REMARK VINA RESULT:     -11.6      2.133      3.400
REMARK SMILES C[C@@H]1[C@H](C(=O)NCCCCNC(=O)c2ccc(-c3c4nc(c(-c5c(F)c(F)c(F)c(F)c5F)c5ccc([nH]5)c(-c5c(F)c(F)c(F)c(F)c5F)c5nc(c(-c6c(F)c(F)c(F)c(F)c6F)c6ccc3[nH]6)C=C5)C=C4)cc2)CCN1C(=O)C1CC1
REMARK SMILES IDX 8 1 7 2 6 3 4 4 5 5 3 7 1 8 2 9 79 10 77 11 78 12 80 13
REMARK SMILES IDX 81 14 82 15 83 16 84 17 9 18 10 19 11 20 12 21 13 23 14 24
REMARK SMILES IDX 15 25 76 26 16 27 75 28 17 29 18 30 19 31 69 32 20 33 74 34
REMARK SMILES IDX 68 35 70 36 21 37 73 38 67 39 66 40 22 42 54 43 34 44 53 45
REMARK SMILES IDX 35 46 38 47 52 48 71 49 36 50 37 51 51 53 72 54 39 55 23 56
REMARK SMILES IDX 24 57 32 58 25 59 26 60 30 61 33 62 27 63 28 64 31 65 29 66
REMARK SMILES IDX 55 67 56 68 64 69 57 70 58 71 62 72 65 73 59 74 60 75 63 76
REMARK SMILES IDX 61 77 40 78 41 79 49 80 42 81 43 82 47 83 50 84 44 85 45 86
REMARK SMILES IDX 48 87 46 88
REMARK H PARENT 6 6 11 22 70 41 38 52
REMARK Flexibility Score: inf
ROOT
ATOM      1  C   UNL A   1      33.280  26.378  26.104  1.00  0.00     0.023 C 
ENDROOT
BRANCH   1   2
ATOM      2  C   UNL A   1      32.174  25.345  26.348  1.00  0.00     0.116 C 
BRANCH   2   3
ATOM      3  N   UNL A   1      31.654  24.771  25.117  1.00  0.00    -0.356 N 
ATOM      4  C   UNL A   1      30.727  25.200  24.215  1.00  0.00     0.225 C 
ATOM      5  O   UNL A   1      30.483  24.431  23.279  1.00  0.00    -0.275 OA
ATOM      6  H   UNL A   1      32.052  23.899  24.888  1.00  0.00     0.163 HD
BRANCH   4   7
ATOM      7  C   UNL A   1      29.982  26.532  24.301  1.00  0.00     0.102 C 
ATOM      8  C   UNL A   1      31.593  27.457  22.526  1.00  0.00     0.032 C 
ATOM      9  C   UNL A   1      30.606  27.782  23.631  1.00  0.00     0.094 C 
ATOM     10  N   UNL A   1      29.456  28.561  23.148  1.00  0.00    -0.339 N 
ATOM     11  C   UNL A   1      28.523  26.472  23.868  1.00  0.00     0.037 C 
ATOM     12  C   UNL A   1      28.199  27.878  23.415  1.00  0.00     0.120 C 
BRANCH  10  13
ATOM     13  C   UNL A   1      29.353  29.841  22.615  1.00  0.00     0.225 C 
ATOM     14  O   UNL A   1      29.446  30.006  21.398  1.00  0.00    -0.275 OA
BRANCH  13  15
ATOM     15  C   UNL A   1      29.092  31.081  23.399  1.00  0.00     0.079 C 
ATOM     16  C   UNL A   1      28.724  32.479  23.013  1.00  0.00     0.014 C 
ATOM     17  C   UNL A   1      27.660  31.554  23.538  1.00  0.00     0.014 C 
ENDBRANCH  13  15
ENDBRANCH  10  13
ENDBRANCH   4   7
ENDBRANCH   2   3
ENDBRANCH   1   2
BRANCH   1  18
ATOM     18  C   UNL A   1      32.952  27.809  26.490  1.00  0.00     0.023 C 
BRANCH  18  19
ATOM     19  C   UNL A   1      33.993  28.824  26.068  1.00  0.00     0.116 C 
BRANCH  19  20
ATOM     20  N   UNL A   1      33.820  30.127  26.697  1.00  0.00    -0.352 N 
ATOM     21  C   UNL A   1      34.616  30.745  27.634  1.00  0.00     0.251 C 
ATOM     22  H   UNL A   1      33.025  30.634  26.414  1.00  0.00     0.163 HD
ATOM     23  O   UNL A   1      34.276  31.798  28.152  1.00  0.00    -0.269 OA
BRANCH  21  24
ATOM     24  C   UNL A   1      35.876  30.088  28.029  1.00  0.00     0.039 A 
ATOM     25  C   UNL A   1      37.005  30.237  27.221  1.00  0.00     0.014 A 
ATOM     26  C   UNL A   1      35.950  29.398  29.241  1.00  0.00     0.014 A 
ATOM     27  C   UNL A   1      38.233  29.754  27.671  1.00  0.00     0.010 A 
ATOM     28  C   UNL A   1      37.188  29.021  29.734  1.00  0.00     0.010 A 
ATOM     29  C   UNL A   1      38.339  29.178  28.947  1.00  0.00    -0.014 A 
BRANCH  29  30
ATOM     30  C   UNL A   1      39.630  28.679  29.474  1.00  0.00     0.031 A 
ATOM     31  C   UNL A   1      40.335  29.466  30.544  1.00  0.00     0.074 A 
ATOM     32  C   UNL A   1      40.202  27.587  28.937  1.00  0.00     0.049 A 
ATOM     33  N   UNL A   1      41.524  29.288  31.058  1.00  0.00    -0.248 NA
ATOM     34  C   UNL A   1      39.624  30.643  31.072  1.00  0.00     0.031 C 
ATOM     35  C   UNL A   1      39.642  26.779  27.851  1.00  0.00     0.029 A 
ATOM     36  N   UNL A   1      41.394  26.973  29.226  1.00  0.00    -0.354 N 
ATOM     37  C   UNL A   1      41.713  30.346  31.936  1.00  0.00     0.074 A 
ATOM     38  C   UNL A   1      40.549  31.197  31.838  1.00  0.00     0.031 C 
ATOM     39  C   UNL A   1      40.475  25.760  27.587  1.00  0.00     0.029 A 
ATOM     40  C   UNL A   1      41.641  25.860  28.460  1.00  0.00     0.049 A 
ATOM     41  H   UNL A   1      42.014  27.298  29.918  1.00  0.00     0.167 HD
ATOM     42  C   UNL A   1      42.752  30.572  32.773  1.00  0.00     0.037 A 
ATOM     43  C   UNL A   1      42.691  25.017  28.469  1.00  0.00     0.037 A 
ATOM     44  C   UNL A   1      43.877  29.689  32.907  1.00  0.00     0.049 A 
ATOM     45  C   UNL A   1      43.809  25.260  29.448  1.00  0.00     0.074 A 
ATOM     46  C   UNL A   1      44.952  29.783  33.772  1.00  0.00     0.029 A 
ATOM     47  N   UNL A   1      44.062  28.537  32.157  1.00  0.00    -0.354 N 
ATOM     48  N   UNL A   1      43.952  26.230  30.317  1.00  0.00    -0.248 NA
ATOM     49  C   UNL A   1      44.905  24.282  29.453  1.00  0.00     0.031 C 
ATOM     50  C   UNL A   1      45.802  28.698  33.528  1.00  0.00     0.029 A 
ATOM     51  C   UNL A   1      45.236  27.909  32.538  1.00  0.00     0.049 A 
ATOM     52  H   UNL A   1      43.449  28.212  31.459  1.00  0.00     0.167 HD
ATOM     53  C   UNL A   1      45.134  25.966  30.994  1.00  0.00     0.074 A 
ATOM     54  C   UNL A   1      45.664  24.737  30.440  1.00  0.00     0.031 C 
ATOM     55  C   UNL A   1      45.729  26.675  31.984  1.00  0.00     0.037 A 
BRANCH  42  56
ATOM     56  C   UNL A   1      42.700  31.812  33.616  1.00  0.00     0.064 A 
ATOM     57  C   UNL A   1      43.309  33.008  33.203  1.00  0.00     0.173 A 
ATOM     58  C   UNL A   1      42.035  31.809  34.851  1.00  0.00     0.173 A 
ATOM     59  F   UNL A   1      43.974  33.060  32.039  1.00  0.00    -0.203 F 
ATOM     60  C   UNL A   1      43.287  34.141  34.012  1.00  0.00     0.198 A 
ATOM     61  C   UNL A   1      41.986  32.954  35.642  1.00  0.00     0.198 A 
ATOM     62  F   UNL A   1      41.435  30.693  35.293  1.00  0.00    -0.203 F 
ATOM     63  F   UNL A   1      43.930  35.252  33.624  1.00  0.00    -0.200 F 
ATOM     64  C   UNL A   1      42.621  34.115  35.227  1.00  0.00     0.200 A 
ATOM     65  F   UNL A   1      41.334  32.930  36.813  1.00  0.00    -0.200 F 
ATOM     66  F   UNL A   1      42.600  35.206  36.004  1.00  0.00    -0.200 F 
ENDBRANCH  42  56
BRANCH  43  67
ATOM     67  C   UNL A   1      42.708  23.841  27.564  1.00  0.00     0.064 A 
ATOM     68  C   UNL A   1      42.290  22.582  28.019  1.00  0.00     0.173 A 
ATOM     69  C   UNL A   1      43.133  23.945  26.231  1.00  0.00     0.173 A 
ATOM     70  F   UNL A   1      41.892  22.430  29.291  1.00  0.00    -0.203 F 
ATOM     71  C   UNL A   1      42.315  21.468  27.184  1.00  0.00     0.198 A 
ATOM     72  C   UNL A   1      43.134  22.835  25.388  1.00  0.00     0.198 A 
ATOM     73  F   UNL A   1      43.534  25.128  25.745  1.00  0.00    -0.203 F 
ATOM     74  F   UNL A   1      41.948  20.270  27.657  1.00  0.00    -0.200 F 
ATOM     75  C   UNL A   1      42.732  21.596  25.867  1.00  0.00     0.200 A 
ATOM     76  F   UNL A   1      43.525  22.964  24.114  1.00  0.00    -0.200 F 
ATOM     77  F   UNL A   1      42.753  20.526  25.062  1.00  0.00    -0.200 F 
ENDBRANCH  43  67
BRANCH  55  78
ATOM     78  C   UNL A   1      46.992  26.114  32.564  1.00  0.00     0.064 A 
ATOM     79  C   UNL A   1      46.970  25.209  33.634  1.00  0.00     0.173 A 
ATOM     80  C   UNL A   1      48.235  26.452  32.008  1.00  0.00     0.173 A 
ATOM     81  F   UNL A   1      45.806  24.868  34.206  1.00  0.00    -0.203 F 
ATOM     82  C   UNL A   1      48.152  24.678  34.142  1.00  0.00     0.198 A 
ATOM     83  C   UNL A   1      49.412  25.898  32.501  1.00  0.00     0.198 A 
ATOM     84  F   UNL A   1      48.305  27.308  30.977  1.00  0.00    -0.203 F 
ATOM     85  F   UNL A   1      48.114  23.846  35.192  1.00  0.00    -0.200 F 
ATOM     86  C   UNL A   1      49.370  25.016  33.571  1.00  0.00     0.200 A 
ATOM     87  F   UNL A   1      50.587  26.217  31.941  1.00  0.00    -0.200 F 
ATOM     88  F   UNL A   1      50.506  24.498  34.057  1.00  0.00    -0.200 F 
ENDBRANCH  55  78
ENDBRANCH  29  30
ENDBRANCH  21  24
ENDBRANCH  19  20
ENDBRANCH  18  19
ENDBRANCH   1  18
TORSDOF 13
ENDMDL
