MODEL 1
REMARK VINA RESULT:     -11.4      0.000      0.000
REMARK SMILES O=C(Cc1ccc(S(=O)(=O)C[C@H]2CCCO2)cc1)NCCCCNC(=O)c1ccc(-c2c3nc(c(-c4c(F)c(F)c(F)c(F)c4F)c4ccc([nH]4)c(-c4c(F)c(F)c(F)c(F)c4F)c4nc(c(-c5c(F)c(F)c(F)c(F)c5F)c5ccc2[nH]5)C=C4)C=C3)cc1
REMARK SMILES IDX 20 1 19 2 1 3 2 4 3 6 4 7 5 8 18 9 6 10 17 11 7 12 8 13 9 14
REMARK SMILES IDX 10 15 11 16 12 17 13 18 16 19 14 20 15 21 21 22 22 23 23 24
REMARK SMILES IDX 24 25 25 26 26 28 27 29 28 30 89 31 29 32 88 33 30 34 31 35
REMARK SMILES IDX 32 36 82 37 33 38 87 39 81 40 83 41 34 42 86 43 80 44 79 45
REMARK SMILES IDX 35 47 67 48 47 49 66 50 48 51 51 52 65 53 84 54 49 55 50 56
REMARK SMILES IDX 64 58 85 59 52 60 36 61 37 62 45 63 38 64 39 65 43 66 46 67
REMARK SMILES IDX 40 68 41 69 44 70 42 71 68 72 69 73 77 74 70 75 71 76 75 77
REMARK SMILES IDX 78 78 72 79 73 80 76 81 74 82 53 83 54 84 62 85 55 86 56 87
REMARK SMILES IDX 60 88 63 89 57 90 58 91 61 92 59 93
REMARK H PARENT 19 5 24 27 83 46 51 57
REMARK Flexibility Score: inf
ROOT
ATOM      1  C   UNL A   1      40.278  22.192  27.227  1.00  0.00     0.116 C 
ENDROOT
BRANCH   1   2
ATOM      2  N   UNL A   1      39.421  22.547  26.112  1.00  0.00    -0.356 N 
ATOM      3  O   UNL A   1      38.172  24.095  27.260  1.00  0.00    -0.275 OA
ATOM      4  C   UNL A   1      38.425  23.496  26.219  1.00  0.00     0.224 C 
ATOM      5  H   UNL A   1      39.555  22.094  25.249  1.00  0.00     0.163 HD
BRANCH   4   6
ATOM      6  C   UNL A   1      37.606  23.703  24.955  1.00  0.00     0.135 C 
BRANCH   6   7
ATOM      7  C   UNL A   1      36.339  22.878  24.865  1.00  0.00    -0.039 A 
ATOM      8  C   UNL A   1      36.142  21.760  25.685  1.00  0.00     0.005 A 
ATOM      9  C   UNL A   1      35.375  23.182  23.889  1.00  0.00     0.005 A 
ATOM     10  C   UNL A   1      34.972  21.005  25.578  1.00  0.00     0.020 A 
ATOM     11  C   UNL A   1      34.217  22.410  23.757  1.00  0.00     0.020 A 
ATOM     12  C   UNL A   1      34.004  21.340  24.624  1.00  0.00     0.067 A 
BRANCH  12  13
ATOM     13  S   UNL A   1      32.535  20.336  24.580  1.00  0.00     0.180 S 
ATOM     14  O   UNL A   1      31.561  21.064  25.378  1.00  0.00    -0.224 OA
ATOM     15  O   UNL A   1      32.271  20.062  23.182  1.00  0.00    -0.224 OA
BRANCH  13  16
ATOM     16  C   UNL A   1      32.828  18.803  25.420  1.00  0.00     0.174 C 
BRANCH  16  17
ATOM     17  C   UNL A   1      32.838  17.562  24.539  1.00  0.00     0.133 C 
ATOM     18  C   UNL A   1      34.249  17.257  24.029  1.00  0.00     0.035 C 
ATOM     19  O   UNL A   1      32.432  16.407  25.291  1.00  0.00    -0.377 OA
ATOM     20  C   UNL A   1      34.752  16.221  25.004  1.00  0.00     0.031 C 
ATOM     21  C   UNL A   1      33.492  15.443  25.292  1.00  0.00     0.160 C 
ENDBRANCH  16  17
ENDBRANCH  13  16
ENDBRANCH  12  13
ENDBRANCH   6   7
ENDBRANCH   4   6
ENDBRANCH   1   2
BRANCH   1  22
ATOM     22  C   UNL A   1      41.606  21.593  26.769  1.00  0.00     0.023 C 
BRANCH  22  23
ATOM     23  C   UNL A   1      41.502  20.218  26.104  1.00  0.00     0.023 C 
BRANCH  23  24
ATOM     24  C   UNL A   1      42.586  19.215  26.490  1.00  0.00     0.116 C 
BRANCH  24  25
ATOM     25  N   UNL A   1      43.391  18.782  25.360  1.00  0.00    -0.352 N 
ATOM     26  C   UNL A   1      44.277  19.496  24.588  1.00  0.00     0.251 C 
ATOM     27  H   UNL A   1      43.286  17.835  25.109  1.00  0.00     0.163 HD
ATOM     28  O   UNL A   1      44.767  18.984  23.585  1.00  0.00    -0.269 OA
BRANCH  26  29
ATOM     29  C   UNL A   1      44.618  20.895  24.935  1.00  0.00     0.039 A 
ATOM     30  C   UNL A   1      44.272  21.912  24.042  1.00  0.00     0.014 A 
ATOM     31  C   UNL A   1      45.278  21.209  26.126  1.00  0.00     0.014 A 
ATOM     32  C   UNL A   1      44.519  23.247  24.374  1.00  0.00     0.010 A 
ATOM     33  C   UNL A   1      45.455  22.544  26.491  1.00  0.00     0.010 A 
ATOM     34  C   UNL A   1      45.073  23.578  25.621  1.00  0.00    -0.014 A 
BRANCH  34  35
ATOM     35  C   UNL A   1      45.247  24.995  26.035  1.00  0.00     0.031 A 
ATOM     36  C   UNL A   1      46.598  25.652  25.954  1.00  0.00     0.074 A 
ATOM     37  C   UNL A   1      44.201  25.675  26.545  1.00  0.00     0.049 A 
ATOM     38  N   UNL A   1      46.961  26.850  26.337  1.00  0.00    -0.248 NA
ATOM     39  C   UNL A   1      47.692  24.845  25.393  1.00  0.00     0.031 C 
ATOM     40  C   UNL A   1      42.850  25.140  26.717  1.00  0.00     0.029 A 
ATOM     41  N   UNL A   1      44.113  26.960  27.023  1.00  0.00    -0.354 N 
ATOM     42  C   UNL A   1      48.322  26.938  26.072  1.00  0.00     0.074 A 
ATOM     43  C   UNL A   1      48.732  25.651  25.550  1.00  0.00     0.031 C 
ATOM     44  C   UNL A   1      42.063  26.093  27.243  1.00  0.00     0.029 A 
ATOM     45  C   UNL A   1      42.862  27.291  27.485  1.00  0.00     0.049 A 
ATOM     46  H   UNL A   1      44.874  27.583  27.035  1.00  0.00     0.167 HD
ATOM     47  C   UNL A   1      49.148  27.999  26.224  1.00  0.00     0.037 A 
ATOM     48  C   UNL A   1      42.410  28.427  28.050  1.00  0.00     0.037 A 
ATOM     49  C   UNL A   1      48.735  29.284  26.728  1.00  0.00     0.049 A 
ATOM     50  C   UNL A   1      43.355  29.586  28.229  1.00  0.00     0.074 A 
ATOM     51  C   UNL A   1      49.488  30.437  26.873  1.00  0.00     0.029 A 
ATOM     52  N   UNL A   1      47.455  29.585  27.172  1.00  0.00    -0.354 N 
ATOM     53  N   UNL A   1      44.624  29.676  27.916  1.00  0.00    -0.248 NA
ATOM     54  C   UNL A   1      42.800  30.805  28.835  1.00  0.00     0.031 C 
ATOM     55  C   UNL A   1      48.679  31.418  27.455  1.00  0.00     0.029 A 
ATOM     56  C   UNL A   1      47.406  30.897  27.618  1.00  0.00     0.049 A 
ATOM     57  H   UNL A   1      46.696  28.960  27.171  1.00  0.00     0.167 HD
ATOM     58  C   UNL A   1      45.012  30.965  28.256  1.00  0.00     0.074 A 
ATOM     59  C   UNL A   1      43.838  31.627  28.787  1.00  0.00     0.031 C 
ATOM     60  C   UNL A   1      46.230  31.548  28.138  1.00  0.00     0.037 A 
BRANCH  47  61
ATOM     61  C   UNL A   1      50.590  27.819  25.841  1.00  0.00     0.064 A 
ATOM     62  C   UNL A   1      51.021  27.951  24.512  1.00  0.00     0.173 A 
ATOM     63  C   UNL A   1      51.559  27.550  26.820  1.00  0.00     0.173 A 
ATOM     64  F   UNL A   1      50.134  28.198  23.536  1.00  0.00    -0.203 F 
ATOM     65  C   UNL A   1      52.362  27.788  24.173  1.00  0.00     0.198 A 
ATOM     66  C   UNL A   1      52.905  27.422  26.481  1.00  0.00     0.198 A 
ATOM     67  F   UNL A   1      51.205  27.423  28.107  1.00  0.00    -0.203 F 
ATOM     68  F   UNL A   1      52.741  27.867  22.890  1.00  0.00    -0.200 F 
ATOM     69  C   UNL A   1      53.303  27.532  25.158  1.00  0.00     0.200 A 
ATOM     70  F   UNL A   1      53.815  27.191  27.437  1.00  0.00    -0.200 F 
ATOM     71  F   UNL A   1      54.595  27.386  24.831  1.00  0.00    -0.200 F 
ENDBRANCH  47  61
BRANCH  48  72
ATOM     72  C   UNL A   1      40.990  28.531  28.478  1.00  0.00     0.064 A 
ATOM     73  C   UNL A   1      39.999  28.978  27.592  1.00  0.00     0.173 A 
ATOM     74  C   UNL A   1      40.595  28.199  29.783  1.00  0.00     0.173 A 
ATOM     75  F   UNL A   1      40.331  29.328  26.340  1.00  0.00    -0.203 F 
ATOM     76  C   UNL A   1      38.674  29.110  28.000  1.00  0.00     0.198 A 
ATOM     77  C   UNL A   1      39.264  28.302  30.181  1.00  0.00     0.198 A 
ATOM     78  F   UNL A   1      41.502  27.764  30.669  1.00  0.00    -0.203 F 
ATOM     79  F   UNL A   1      37.757  29.588  27.147  1.00  0.00    -0.200 F 
ATOM     80  C   UNL A   1      38.305  28.766  29.292  1.00  0.00     0.200 A 
ATOM     81  F   UNL A   1      38.910  27.954  31.425  1.00  0.00    -0.200 F 
ATOM     82  F   UNL A   1      37.030  28.891  29.684  1.00  0.00    -0.200 F 
ENDBRANCH  48  72
BRANCH  60  83
ATOM     83  C   UNL A   1      46.352  32.987  28.555  1.00  0.00     0.064 A 
ATOM     84  C   UNL A   1      46.719  33.349  29.860  1.00  0.00     0.173 A 
ATOM     85  C   UNL A   1      46.133  34.014  27.626  1.00  0.00     0.173 A 
ATOM     86  F   UNL A   1      46.925  32.405  30.791  1.00  0.00    -0.203 F 
ATOM     87  C   UNL A   1      46.838  34.687  30.224  1.00  0.00     0.198 A 
ATOM     88  C   UNL A   1      46.285  35.351  27.986  1.00  0.00     0.198 A 
ATOM     89  F   UNL A   1      45.787  33.723  26.363  1.00  0.00    -0.203 F 
ATOM     90  F   UNL A   1      47.140  35.011  31.489  1.00  0.00    -0.200 F 
ATOM     91  C   UNL A   1      46.629  35.687  29.285  1.00  0.00     0.200 A 
ATOM     92  F   UNL A   1      46.098  36.315  27.072  1.00  0.00    -0.200 F 
ATOM     93  F   UNL A   1      46.751  36.974  29.637  1.00  0.00    -0.200 F 
ENDBRANCH  60  83
ENDBRANCH  34  35
ENDBRANCH  26  29
ENDBRANCH  24  25
ENDBRANCH  23  24
ENDBRANCH  22  23
ENDBRANCH   1  22
TORSDOF 15
ENDMDL
MODEL 2
REMARK VINA RESULT:     -11.4      3.277      8.672
REMARK SMILES O=C(Cc1ccc(S(=O)(=O)C[C@H]2CCCO2)cc1)NCCCCNC(=O)c1ccc(-c2c3nc(c(-c4c(F)c(F)c(F)c(F)c4F)c4ccc([nH]4)c(-c4c(F)c(F)c(F)c(F)c4F)c4nc(c(-c5c(F)c(F)c(F)c(F)c5F)c5ccc2[nH]5)C=C4)C=C3)cc1
REMARK SMILES IDX 20 1 19 2 1 3 2 4 3 6 4 7 5 8 18 9 6 10 17 11 7 12 8 13 9 14
REMARK SMILES IDX 10 15 11 16 12 17 13 18 16 19 14 20 15 21 21 22 22 23 23 24
REMARK SMILES IDX 24 25 25 26 26 28 27 29 28 30 89 31 29 32 88 33 30 34 31 35
REMARK SMILES IDX 32 36 82 37 33 38 87 39 81 40 83 41 34 42 86 43 80 44 79 45
REMARK SMILES IDX 35 47 67 48 47 49 66 50 48 51 51 52 65 53 84 54 49 55 50 56
REMARK SMILES IDX 64 58 85 59 52 60 36 61 37 62 45 63 38 64 39 65 43 66 46 67
REMARK SMILES IDX 40 68 41 69 44 70 42 71 68 72 69 73 77 74 70 75 71 76 75 77
REMARK SMILES IDX 78 78 72 79 73 80 76 81 74 82 53 83 54 84 62 85 55 86 56 87
REMARK SMILES IDX 60 88 63 89 57 90 58 91 61 92 59 93
REMARK H PARENT 19 5 24 27 83 46 51 57
REMARK Flexibility Score: inf
ROOT
ATOM      1  C   UNL A   1      35.505  20.369  25.240  1.00  0.00     0.116 C 
ENDROOT
BRANCH   1   2
ATOM      2  N   UNL A   1      34.742  21.374  25.956  1.00  0.00    -0.356 N 
ATOM      3  O   UNL A   1      33.228  21.763  24.272  1.00  0.00    -0.275 OA
ATOM      4  C   UNL A   1      33.638  21.993  25.407  1.00  0.00     0.224 C 
ATOM      5  H   UNL A   1      35.023  21.623  26.865  1.00  0.00     0.163 HD
BRANCH   4   6
ATOM      6  C   UNL A   1      32.994  23.047  26.294  1.00  0.00     0.135 C 
BRANCH   6   7
ATOM      7  C   UNL A   1      32.820  24.409  25.654  1.00  0.00    -0.039 A 
ATOM      8  C   UNL A   1      33.840  25.367  25.696  1.00  0.00     0.005 A 
ATOM      9  C   UNL A   1      31.586  24.758  25.079  1.00  0.00     0.005 A 
ATOM     10  C   UNL A   1      33.655  26.620  25.111  1.00  0.00     0.020 A 
ATOM     11  C   UNL A   1      31.385  26.023  24.520  1.00  0.00     0.020 A 
ATOM     12  C   UNL A   1      32.433  26.943  24.511  1.00  0.00     0.067 A 
BRANCH  12  13
ATOM     13  S   UNL A   1      32.299  28.555  23.769  1.00  0.00     0.180 S 
ATOM     14  O   UNL A   1      33.076  29.429  24.632  1.00  0.00    -0.224 OA
ATOM     15  O   UNL A   1      32.666  28.394  22.376  1.00  0.00    -0.224 OA
BRANCH  13  16
ATOM     16  C   UNL A   1      30.621  29.120  23.858  1.00  0.00     0.174 C 
BRANCH  16  17
ATOM     17  C   UNL A   1      29.733  28.734  22.684  1.00  0.00     0.133 C 
ATOM     18  C   UNL A   1      28.278  28.559  23.126  1.00  0.00     0.035 C 
ATOM     19  O   UNL A   1      29.724  29.776  21.695  1.00  0.00    -0.377 OA
ATOM     20  C   UNL A   1      27.654  29.891  22.791  1.00  0.00     0.031 C 
ATOM     21  C   UNL A   1      28.384  30.255  21.523  1.00  0.00     0.160 C 
ENDBRANCH  16  17
ENDBRANCH  13  16
ENDBRANCH  12  13
ENDBRANCH   6   7
ENDBRANCH   4   6
ENDBRANCH   1   2
BRANCH   1  22
ATOM     22  C   UNL A   1      36.874  20.885  24.802  1.00  0.00     0.023 C 
BRANCH  22  23
ATOM     23  C   UNL A   1      38.008  19.860  24.879  1.00  0.00     0.023 C 
BRANCH  23  24
ATOM     24  C   UNL A   1      39.157  20.218  25.817  1.00  0.00     0.116 C 
BRANCH  24  25
ATOM     25  N   UNL A   1      40.164  19.173  25.910  1.00  0.00    -0.352 N 
ATOM     26  C   UNL A   1      41.518  19.276  26.126  1.00  0.00     0.251 C 
ATOM     27  H   UNL A   1      39.826  18.255  25.802  1.00  0.00     0.163 HD
ATOM     28  O   UNL A   1      42.230  18.279  26.039  1.00  0.00    -0.269 OA
BRANCH  26  29
ATOM     29  C   UNL A   1      42.134  20.589  26.427  1.00  0.00     0.039 A 
ATOM     30  C   UNL A   1      42.569  21.385  25.364  1.00  0.00     0.014 A 
ATOM     31  C   UNL A   1      42.289  21.037  27.741  1.00  0.00     0.014 A 
ATOM     32  C   UNL A   1      43.090  22.658  25.613  1.00  0.00     0.010 A 
ATOM     33  C   UNL A   1      42.738  22.335  27.984  1.00  0.00     0.010 A 
ATOM     34  C   UNL A   1      43.138  23.162  26.923  1.00  0.00    -0.014 A 
BRANCH  34  35
ATOM     35  C   UNL A   1      43.592  24.551  27.198  1.00  0.00     0.031 A 
ATOM     36  C   UNL A   1      42.618  25.587  27.689  1.00  0.00     0.074 A 
ATOM     37  C   UNL A   1      44.868  24.899  26.942  1.00  0.00     0.049 A 
ATOM     38  N   UNL A   1      42.808  26.863  27.912  1.00  0.00    -0.248 NA
ATOM     39  C   UNL A   1      41.242  25.134  27.938  1.00  0.00     0.031 C 
ATOM     40  C   UNL A   1      45.901  24.002  26.422  1.00  0.00     0.029 A 
ATOM     41  N   UNL A   1      45.514  26.105  27.074  1.00  0.00    -0.354 N 
ATOM     42  C   UNL A   1      41.579  27.365  28.318  1.00  0.00     0.074 A 
ATOM     43  C   UNL A   1      40.635  26.269  28.255  1.00  0.00     0.031 C 
ATOM     44  C   UNL A   1      47.052  24.680  26.299  1.00  0.00     0.029 A 
ATOM     45  C   UNL A   1      46.832  26.070  26.689  1.00  0.00     0.049 A 
ATOM     46  H   UNL A   1      45.073  26.917  27.413  1.00  0.00     0.167 HD
ATOM     47  C   UNL A   1      41.269  28.617  28.731  1.00  0.00     0.037 A 
ATOM     48  C   UNL A   1      47.757  27.048  26.643  1.00  0.00     0.037 A 
ATOM     49  C   UNL A   1      42.212  29.703  28.809  1.00  0.00     0.049 A 
ATOM     50  C   UNL A   1      47.381  28.437  27.086  1.00  0.00     0.074 A 
ATOM     51  C   UNL A   1      42.005  30.995  29.261  1.00  0.00     0.029 A 
ATOM     52  N   UNL A   1      43.542  29.624  28.423  1.00  0.00    -0.354 N 
ATOM     53  N   UNL A   1      46.230  28.883  27.527  1.00  0.00    -0.248 NA
ATOM     54  C   UNL A   1      48.437  29.458  27.031  1.00  0.00     0.031 C 
ATOM     55  C   UNL A   1      43.194  31.712  29.098  1.00  0.00     0.029 A 
ATOM     56  C   UNL A   1      44.160  30.853  28.600  1.00  0.00     0.049 A 
ATOM     57  H   UNL A   1      43.982  28.816  28.074  1.00  0.00     0.167 HD
ATOM     58  C   UNL A   1      46.431  30.223  27.831  1.00  0.00     0.074 A 
ATOM     59  C   UNL A   1      47.818  30.515  27.537  1.00  0.00     0.031 C 
ATOM     60  C   UNL A   1      45.544  31.129  28.310  1.00  0.00     0.037 A 
BRANCH  47  61
ATOM     61  C   UNL A   1      39.845  28.885  29.131  1.00  0.00     0.064 A 
ATOM     62  C   UNL A   1      38.890  29.326  28.203  1.00  0.00     0.173 A 
ATOM     63  C   UNL A   1      39.422  28.662  30.450  1.00  0.00     0.173 A 
ATOM     64  F   UNL A   1      39.244  29.565  26.931  1.00  0.00    -0.203 F 
ATOM     65  C   UNL A   1      37.573  29.564  28.587  1.00  0.00     0.198 A 
ATOM     66  C   UNL A   1      38.095  28.868  30.822  1.00  0.00     0.198 A 
ATOM     67  F   UNL A   1      40.291  28.233  31.377  1.00  0.00    -0.203 F 
ATOM     68  F   UNL A   1      36.690  30.034  27.694  1.00  0.00    -0.200 F 
ATOM     69  C   UNL A   1      37.175  29.327  29.893  1.00  0.00     0.200 A 
ATOM     70  F   UNL A   1      37.710  28.622  32.082  1.00  0.00    -0.200 F 
ATOM     71  F   UNL A   1      35.904  29.546  30.259  1.00  0.00    -0.200 F 
ENDBRANCH  47  61
BRANCH  48  72
ATOM     72  C   UNL A   1      49.135  26.747  26.170  1.00  0.00     0.064 A 
ATOM     73  C   UNL A   1      50.107  26.250  27.049  1.00  0.00     0.173 A 
ATOM     74  C   UNL A   1      49.511  26.962  24.836  1.00  0.00     0.173 A 
ATOM     75  F   UNL A   1      49.802  26.049  28.340  1.00  0.00    -0.203 F 
ATOM     76  C   UNL A   1      51.408  26.000  26.618  1.00  0.00     0.198 A 
ATOM     77  C   UNL A   1      50.804  26.682  24.399  1.00  0.00     0.198 A 
ATOM     78  F   UNL A   1      48.619  27.433  23.954  1.00  0.00    -0.203 F 
ATOM     79  F   UNL A   1      52.331  25.574  27.492  1.00  0.00    -0.200 F 
ATOM     80  C   UNL A   1      51.755  26.210  25.291  1.00  0.00     0.200 A 
ATOM     81  F   UNL A   1      51.130  26.873  23.113  1.00  0.00    -0.200 F 
ATOM     82  F   UNL A   1      53.005  25.968  24.877  1.00  0.00    -0.200 F 
ENDBRANCH  48  72
BRANCH  60  83
ATOM     83  C   UNL A   1      46.054  32.516  28.585  1.00  0.00     0.064 A 
ATOM     84  C   UNL A   1      45.993  33.531  27.618  1.00  0.00     0.173 A 
ATOM     85  C   UNL A   1      46.576  32.842  29.846  1.00  0.00     0.173 A 
ATOM     86  F   UNL A   1      45.517  33.268  26.392  1.00  0.00    -0.203 F 
ATOM     87  C   UNL A   1      46.461  34.813  27.896  1.00  0.00     0.198 A 
ATOM     88  C   UNL A   1      47.012  34.134  30.130  1.00  0.00     0.198 A 
ATOM     89  F   UNL A   1      46.650  31.911  30.809  1.00  0.00    -0.203 F 
ATOM     90  F   UNL A   1      46.439  35.753  26.941  1.00  0.00    -0.200 F 
ATOM     91  C   UNL A   1      46.961  35.115  29.153  1.00  0.00     0.200 A 
ATOM     92  F   UNL A   1      47.481  34.428  31.351  1.00  0.00    -0.200 F 
ATOM     93  F   UNL A   1      47.403  36.353  29.420  1.00  0.00    -0.200 F 
ENDBRANCH  60  83
ENDBRANCH  34  35
ENDBRANCH  26  29
ENDBRANCH  24  25
ENDBRANCH  23  24
ENDBRANCH  22  23
ENDBRANCH   1  22
TORSDOF 15
ENDMDL
MODEL 3
REMARK VINA RESULT:     -11.3      0.666      1.849
REMARK SMILES O=C(Cc1ccc(S(=O)(=O)C[C@H]2CCCO2)cc1)NCCCCNC(=O)c1ccc(-c2c3nc(c(-c4c(F)c(F)c(F)c(F)c4F)c4ccc([nH]4)c(-c4c(F)c(F)c(F)c(F)c4F)c4nc(c(-c5c(F)c(F)c(F)c(F)c5F)c5ccc2[nH]5)C=C4)C=C3)cc1
REMARK SMILES IDX 20 1 19 2 1 3 2 4 3 6 4 7 5 8 18 9 6 10 17 11 7 12 8 13 9 14
REMARK SMILES IDX 10 15 11 16 12 17 13 18 16 19 14 20 15 21 21 22 22 23 23 24
REMARK SMILES IDX 24 25 25 26 26 28 27 29 28 30 89 31 29 32 88 33 30 34 31 35
REMARK SMILES IDX 32 36 82 37 33 38 87 39 81 40 83 41 34 42 86 43 80 44 79 45
REMARK SMILES IDX 35 47 67 48 47 49 66 50 48 51 51 52 65 53 84 54 49 55 50 56
REMARK SMILES IDX 64 58 85 59 52 60 36 61 37 62 45 63 38 64 39 65 43 66 46 67
REMARK SMILES IDX 40 68 41 69 44 70 42 71 68 72 69 73 77 74 70 75 71 76 75 77
REMARK SMILES IDX 78 78 72 79 73 80 76 81 74 82 53 83 54 84 62 85 55 86 56 87
REMARK SMILES IDX 60 88 63 89 57 90 58 91 61 92 59 93
REMARK H PARENT 19 5 24 27 83 46 51 57
REMARK Flexibility Score: inf
ROOT
ATOM      1  C   UNL A   1      41.601  21.590  26.589  1.00  0.00     0.116 C 
ENDROOT
BRANCH   1   2
ATOM      2  N   UNL A   1      40.560  22.433  26.034  1.00  0.00    -0.356 N 
ATOM      3  O   UNL A   1      39.969  23.418  28.023  1.00  0.00    -0.275 OA
ATOM      4  C   UNL A   1      39.821  23.303  26.809  1.00  0.00     0.224 C 
ATOM      5  H   UNL A   1      40.372  22.381  25.069  1.00  0.00     0.163 HD
BRANCH   4   6
ATOM      6  C   UNL A   1      38.748  24.073  26.056  1.00  0.00     0.135 C 
BRANCH   6   7
ATOM      7  C   UNL A   1      37.477  23.300  25.776  1.00  0.00    -0.039 A 
ATOM      8  C   UNL A   1      37.515  21.954  25.391  1.00  0.00     0.005 A 
ATOM      9  C   UNL A   1      36.236  23.957  25.820  1.00  0.00     0.005 A 
ATOM     10  C   UNL A   1      36.332  21.262  25.126  1.00  0.00     0.020 A 
ATOM     11  C   UNL A   1      35.050  23.277  25.525  1.00  0.00     0.020 A 
ATOM     12  C   UNL A   1      35.100  21.921  25.207  1.00  0.00     0.067 A 
BRANCH  12  13
ATOM     13  S   UNL A   1      33.644  20.951  24.877  1.00  0.00     0.180 S 
ATOM     14  O   UNL A   1      32.874  21.001  26.110  1.00  0.00    -0.224 OA
ATOM     15  O   UNL A   1      33.080  21.468  23.646  1.00  0.00    -0.224 OA
BRANCH  13  16
ATOM     16  C   UNL A   1      34.094  19.254  24.633  1.00  0.00     0.174 C 
BRANCH  16  17
ATOM     17  C   UNL A   1      32.949  18.311  24.293  1.00  0.00     0.133 C 
ATOM     18  C   UNL A   1      33.446  17.105  23.493  1.00  0.00     0.035 C 
ATOM     19  O   UNL A   1      32.362  17.777  25.490  1.00  0.00    -0.377 OA
ATOM     20  C   UNL A   1      33.629  16.043  24.549  1.00  0.00     0.031 C 
ATOM     21  C   UNL A   1      32.486  16.350  25.484  1.00  0.00     0.160 C 
ENDBRANCH  16  17
ENDBRANCH  13  16
ENDBRANCH  12  13
ENDBRANCH   6   7
ENDBRANCH   4   6
ENDBRANCH   1   2
BRANCH   1  22
ATOM     22  C   UNL A   1      41.163  20.131  26.708  1.00  0.00     0.023 C 
BRANCH  22  23
ATOM     23  C   UNL A   1      41.836  19.171  25.725  1.00  0.00     0.023 C 
BRANCH  23  24
ATOM     24  C   UNL A   1      43.231  18.693  26.120  1.00  0.00     0.116 C 
BRANCH  24  25
ATOM     25  N   UNL A   1      44.124  18.536  24.984  1.00  0.00    -0.352 N 
ATOM     26  C   UNL A   1      44.839  19.484  24.292  1.00  0.00     0.251 C 
ATOM     27  H   UNL A   1      44.232  17.612  24.660  1.00  0.00     0.163 HD
ATOM     28  O   UNL A   1      45.440  19.172  23.268  1.00  0.00    -0.269 OA
BRANCH  26  29
ATOM     29  C   UNL A   1      44.862  20.892  24.752  1.00  0.00     0.039 A 
ATOM     30  C   UNL A   1      45.273  21.164  26.060  1.00  0.00     0.014 A 
ATOM     31  C   UNL A   1      44.479  21.940  23.911  1.00  0.00     0.014 A 
ATOM     32  C   UNL A   1      45.371  22.487  26.500  1.00  0.00     0.010 A 
ATOM     33  C   UNL A   1      44.649  23.261  24.325  1.00  0.00     0.010 A 
ATOM     34  C   UNL A   1      45.102  23.550  25.621  1.00  0.00    -0.014 A 
BRANCH  34  35
ATOM     35  C   UNL A   1      45.300  24.963  26.039  1.00  0.00     0.031 A 
ATOM     36  C   UNL A   1      46.660  25.600  25.947  1.00  0.00     0.074 A 
ATOM     37  C   UNL A   1      44.270  25.655  26.562  1.00  0.00     0.049 A 
ATOM     38  N   UNL A   1      47.044  26.791  26.332  1.00  0.00    -0.248 NA
ATOM     39  C   UNL A   1      47.736  24.779  25.372  1.00  0.00     0.031 C 
ATOM     40  C   UNL A   1      42.912  25.140  26.746  1.00  0.00     0.029 A 
ATOM     41  N   UNL A   1      44.205  26.939  27.047  1.00  0.00    -0.354 N 
ATOM     42  C   UNL A   1      48.403  26.860  26.053  1.00  0.00     0.074 A 
ATOM     43  C   UNL A   1      48.789  25.570  25.521  1.00  0.00     0.031 C 
ATOM     44  C   UNL A   1      42.145  26.101  27.284  1.00  0.00     0.029 A 
ATOM     45  C   UNL A   1      42.964  27.287  27.523  1.00  0.00     0.049 A 
ATOM     46  H   UNL A   1      44.975  27.551  27.054  1.00  0.00     0.167 HD
ATOM     47  C   UNL A   1      49.247  27.909  26.201  1.00  0.00     0.037 A 
ATOM     48  C   UNL A   1      42.534  28.426  28.098  1.00  0.00     0.037 A 
ATOM     49  C   UNL A   1      48.857  29.198  26.715  1.00  0.00     0.049 A 
ATOM     50  C   UNL A   1      43.497  29.571  28.272  1.00  0.00     0.074 A 
ATOM     51  C   UNL A   1      49.629  30.339  26.858  1.00  0.00     0.029 A 
ATOM     52  N   UNL A   1      47.587  29.515  27.173  1.00  0.00    -0.354 N 
ATOM     53  N   UNL A   1      44.765  29.643  27.946  1.00  0.00    -0.248 NA
ATOM     54  C   UNL A   1      42.967  30.795  28.889  1.00  0.00     0.031 C 
ATOM     55  C   UNL A   1      48.840  31.329  27.452  1.00  0.00     0.029 A 
ATOM     56  C   UNL A   1      47.561  30.826  27.625  1.00  0.00     0.049 A 
ATOM     57  H   UNL A   1      46.818  28.900  27.177  1.00  0.00     0.167 HD
ATOM     58  C   UNL A   1      45.174  30.926  28.288  1.00  0.00     0.074 A 
ATOM     59  C   UNL A   1      44.016  31.602  28.834  1.00  0.00     0.031 C 
ATOM     60  C   UNL A   1      46.400  31.491  28.160  1.00  0.00     0.037 A 
BRANCH  47  61
ATOM     61  C   UNL A   1      50.682  27.710  25.803  1.00  0.00     0.064 A 
ATOM     62  C   UNL A   1      51.661  27.341  26.739  1.00  0.00     0.173 A 
ATOM     63  C   UNL A   1      51.076  27.851  24.464  1.00  0.00     0.173 A 
ATOM     64  F   UNL A   1      51.339  27.201  28.034  1.00  0.00    -0.203 F 
ATOM     65  C   UNL A   1      52.986  27.153  26.353  1.00  0.00     0.198 A 
ATOM     66  C   UNL A   1      52.396  27.629  24.077  1.00  0.00     0.198 A 
ATOM     67  F   UNL A   1      50.181  28.194  23.527  1.00  0.00    -0.203 F 
ATOM     68  F   UNL A   1      53.913  26.850  27.274  1.00  0.00    -0.200 F 
ATOM     69  C   UNL A   1      53.350  27.289  25.023  1.00  0.00     0.200 A 
ATOM     70  F   UNL A   1      52.742  27.744  22.788  1.00  0.00    -0.200 F 
ATOM     71  F   UNL A   1      54.624  27.096  24.653  1.00  0.00    -0.200 F 
ENDBRANCH  47  61
BRANCH  48  72
ATOM     72  C   UNL A   1      41.120  28.549  28.541  1.00  0.00     0.064 A 
ATOM     73  C   UNL A   1      40.738  28.198  29.844  1.00  0.00     0.173 A 
ATOM     74  C   UNL A   1      40.120  29.008  27.670  1.00  0.00     0.173 A 
ATOM     75  F   UNL A   1      41.654  27.734  30.707  1.00  0.00    -0.203 F 
ATOM     76  C   UNL A   1      39.408  28.279  30.251  1.00  0.00     0.198 A 
ATOM     77  C   UNL A   1      38.796  29.118  28.089  1.00  0.00     0.198 A 
ATOM     78  F   UNL A   1      40.432  29.359  26.415  1.00  0.00    -0.203 F 
ATOM     79  F   UNL A   1      39.064  27.888  31.486  1.00  0.00    -0.200 F 
ATOM     80  C   UNL A   1      38.439  28.745  29.376  1.00  0.00     0.200 A 
ATOM     81  F   UNL A   1      37.865  29.583  27.244  1.00  0.00    -0.200 F 
ATOM     82  F   UNL A   1      37.160  28.824  29.769  1.00  0.00    -0.200 F 
ENDBRANCH  48  72
BRANCH  60  83
ATOM     83  C   UNL A   1      46.547  32.926  28.582  1.00  0.00     0.064 A 
ATOM     84  C   UNL A   1      46.952  33.277  29.879  1.00  0.00     0.173 A 
ATOM     85  C   UNL A   1      46.314  33.961  27.665  1.00  0.00     0.173 A 
ATOM     86  F   UNL A   1      47.172  32.325  30.799  1.00  0.00    -0.203 F 
ATOM     87  C   UNL A   1      47.093  34.612  30.248  1.00  0.00     0.198 A 
ATOM     88  C   UNL A   1      46.489  35.294  28.028  1.00  0.00     0.198 A 
ATOM     89  F   UNL A   1      45.932  33.681  26.410  1.00  0.00    -0.203 F 
ATOM     90  F   UNL A   1      47.431  34.924  31.506  1.00  0.00    -0.200 F 
ATOM     91  C   UNL A   1      46.870  35.618  29.321  1.00  0.00     0.200 A 
ATOM     92  F   UNL A   1      46.288  36.265  27.126  1.00  0.00    -0.200 F 
ATOM     93  F   UNL A   1      47.014  36.903  29.676  1.00  0.00    -0.200 F 
ENDBRANCH  60  83
ENDBRANCH  34  35
ENDBRANCH  26  29
ENDBRANCH  24  25
ENDBRANCH  23  24
ENDBRANCH  22  23
ENDBRANCH   1  22
TORSDOF 15
ENDMDL
