MODEL 1
REMARK VINA RESULT:     -14.3      0.000      0.000
REMARK SMILES O=C(NCCCCNC(=O)[C@@H]1CCCC[C@H]1C(=O)Nc1sc2c(c1C(=O)NC1CCCC1)CCC2)c1ccc(-c2c3nc(c(-c4c(F)c(F)c(F)c(F)c4F)c4ccc([nH]4)c(-c4c(F)c(F)c(F)c(F)c4F)c4nc(c(-c5c(F)c(F)c(F)c(F)c5F)c5ccc2[nH]5)C=C4)C=C3)cc1
REMARK SMILES IDX 6 1 5 2 4 3 3 4 1 5 2 6 36 8 37 9 98 10 38 11 97 12 39 13
REMARK SMILES IDX 40 14 41 15 91 16 42 17 96 18 90 19 92 20 43 21 95 22 89 23
REMARK SMILES IDX 88 24 44 26 76 27 56 28 75 29 57 30 60 31 74 32 93 33 58 34
REMARK SMILES IDX 59 35 73 37 94 38 61 39 45 40 46 41 54 42 47 43 48 44 52 45
REMARK SMILES IDX 55 46 49 47 50 48 53 49 51 50 77 51 78 52 86 53 79 54 80 55
REMARK SMILES IDX 84 56 87 57 81 58 82 59 85 60 83 61 62 62 63 63 71 64 64 65
REMARK SMILES IDX 65 66 69 67 72 68 66 69 67 70 70 71 68 72 7 73 8 74 9 75
REMARK SMILES IDX 10 77 11 78 12 79 16 80 13 81 15 82 14 83 17 84 18 85 19 86
REMARK SMILES IDX 20 88 21 89 24 90 22 91 23 92 35 93 33 94 34 95 25 96 26 97
REMARK SMILES IDX 27 98 28 100 29 101 32 102 30 103 31 104
REMARK H PARENT 3 7 92 25 60 36 8 76 19 87 27 99
REMARK Flexibility Score: inf
ROOT
ATOM      1  C   UNL A   1      36.574  23.718  25.955  1.00  0.00     0.023 C 
ENDROOT
BRANCH   1   2
ATOM      2  C   UNL A   1      37.445  22.720  25.191  1.00  0.00     0.023 C 
BRANCH   2   3
ATOM      3  C   UNL A   1      38.334  21.838  26.075  1.00  0.00     0.116 C 
BRANCH   3   4
ATOM      4  N   UNL A   1      39.720  21.749  25.658  1.00  0.00    -0.352 N 
ATOM      5  O   UNL A   1      41.908  22.093  25.476  1.00  0.00    -0.269 OA
ATOM      6  C   UNL A   1      40.843  22.458  25.971  1.00  0.00     0.251 C 
ATOM      7  H   UNL A   1      39.885  21.025  25.013  1.00  0.00     0.163 HD
BRANCH   6   8
ATOM      8  C   UNL A   1      40.806  23.695  26.778  1.00  0.00     0.039 A 
ATOM      9  C   UNL A   1      40.040  24.820  26.466  1.00  0.00     0.014 A 
ATOM     10  C   UNL A   1      41.659  23.724  27.889  1.00  0.00     0.014 A 
ATOM     11  C   UNL A   1      40.271  26.021  27.108  1.00  0.00     0.010 A 
ATOM     12  C   UNL A   1      41.837  24.900  28.589  1.00  0.00     0.010 A 
ATOM     13  C   UNL A   1      41.198  26.058  28.143  1.00  0.00    -0.014 A 
BRANCH  13  14
ATOM     14  C   UNL A   1      41.366  27.311  28.857  1.00  0.00     0.031 A 
ATOM     15  C   UNL A   1      42.547  28.119  28.415  1.00  0.00     0.074 A 
ATOM     16  C   UNL A   1      40.393  27.734  29.686  1.00  0.00     0.049 A 
ATOM     17  N   UNL A   1      43.445  28.717  29.132  1.00  0.00    -0.248 NA
ATOM     18  C   UNL A   1      42.819  28.176  26.963  1.00  0.00     0.031 C 
ATOM     19  C   UNL A   1      39.104  27.091  29.968  1.00  0.00     0.029 A 
ATOM     20  N   UNL A   1      40.287  28.914  30.348  1.00  0.00    -0.354 N 
ATOM     21  C   UNL A   1      44.287  29.366  28.227  1.00  0.00     0.074 A 
ATOM     22  C   UNL A   1      43.940  28.892  26.916  1.00  0.00     0.031 C 
ATOM     23  C   UNL A   1      38.263  27.994  30.516  1.00  0.00     0.029 A 
ATOM     24  C   UNL A   1      38.991  29.229  30.734  1.00  0.00     0.049 A 
ATOM     25  H   UNL A   1      41.059  29.495  30.537  1.00  0.00     0.167 HD
ATOM     26  C   UNL A   1      45.064  30.422  28.591  1.00  0.00     0.037 A 
ATOM     27  C   UNL A   1      38.550  30.466  31.071  1.00  0.00     0.037 A 
ATOM     28  C   UNL A   1      45.328  30.428  30.001  1.00  0.00     0.049 A 
ATOM     29  C   UNL A   1      39.750  31.283  31.398  1.00  0.00     0.074 A 
ATOM     30  C   UNL A   1      45.997  29.579  30.861  1.00  0.00     0.029 A 
ATOM     31  N   UNL A   1      44.576  31.246  30.806  1.00  0.00    -0.354 N 
ATOM     32  N   UNL A   1      40.525  31.043  32.422  1.00  0.00    -0.248 NA
ATOM     33  C   UNL A   1      40.360  32.040  30.314  1.00  0.00     0.031 C 
ATOM     34  C   UNL A   1      45.226  29.590  32.059  1.00  0.00     0.029 A 
ATOM     35  C   UNL A   1      44.173  30.486  31.874  1.00  0.00     0.049 A 
ATOM     36  H   UNL A   1      44.366  32.194  30.646  1.00  0.00     0.167 HD
ATOM     37  C   UNL A   1      41.813  31.260  31.953  1.00  0.00     0.074 A 
ATOM     38  C   UNL A   1      41.645  31.920  30.660  1.00  0.00     0.031 C 
ATOM     39  C   UNL A   1      42.888  30.630  32.511  1.00  0.00     0.037 A 
BRANCH  26  40
ATOM     40  C   UNL A   1      45.271  31.635  27.720  1.00  0.00     0.064 A 
ATOM     41  C   UNL A   1      46.518  31.842  27.100  1.00  0.00     0.173 A 
ATOM     42  C   UNL A   1      44.402  32.749  27.729  1.00  0.00     0.173 A 
ATOM     43  F   UNL A   1      47.427  30.856  27.051  1.00  0.00    -0.203 F 
ATOM     44  C   UNL A   1      46.893  33.092  26.601  1.00  0.00     0.198 A 
ATOM     45  C   UNL A   1      44.759  33.979  27.184  1.00  0.00     0.198 A 
ATOM     46  F   UNL A   1      43.223  32.727  28.363  1.00  0.00    -0.203 F 
ATOM     47  F   UNL A   1      48.136  33.277  26.133  1.00  0.00    -0.200 F 
ATOM     48  C   UNL A   1      46.017  34.162  26.651  1.00  0.00     0.200 A 
ATOM     49  F   UNL A   1      43.903  35.007  27.261  1.00  0.00    -0.200 F 
ATOM     50  F   UNL A   1      46.399  35.376  26.236  1.00  0.00    -0.200 F 
ENDBRANCH  26  40
BRANCH  27  51
ATOM     51  C   UNL A   1      37.242  31.056  30.695  1.00  0.00     0.064 A 
ATOM     52  C   UNL A   1      36.312  31.449  31.668  1.00  0.00     0.173 A 
ATOM     53  C   UNL A   1      36.978  31.472  29.373  1.00  0.00     0.173 A 
ATOM     54  F   UNL A   1      36.520  31.147  32.957  1.00  0.00    -0.203 F 
ATOM     55  C   UNL A   1      35.182  32.208  31.336  1.00  0.00     0.198 A 
ATOM     56  C   UNL A   1      35.848  32.220  29.042  1.00  0.00     0.198 A 
ATOM     57  F   UNL A   1      37.857  31.239  28.388  1.00  0.00    -0.203 F 
ATOM     58  F   UNL A   1      34.336  32.605  32.298  1.00  0.00    -0.200 F 
ATOM     59  C   UNL A   1      34.954  32.595  30.025  1.00  0.00     0.200 A 
ATOM     60  F   UNL A   1      35.663  32.620  27.776  1.00  0.00    -0.200 F 
ATOM     61  F   UNL A   1      33.898  33.361  29.715  1.00  0.00    -0.200 F 
ENDBRANCH  27  51
BRANCH  39  62
ATOM     62  C   UNL A   1      42.655  29.814  33.752  1.00  0.00     0.064 A 
ATOM     63  C   UNL A   1      42.265  28.463  33.727  1.00  0.00     0.173 A 
ATOM     64  C   UNL A   1      43.002  30.358  34.993  1.00  0.00     0.173 A 
ATOM     65  F   UNL A   1      42.030  27.839  32.568  1.00  0.00    -0.203 F 
ATOM     66  C   UNL A   1      42.182  27.707  34.895  1.00  0.00     0.198 A 
ATOM     67  C   UNL A   1      42.953  29.591  36.155  1.00  0.00     0.198 A 
ATOM     68  F   UNL A   1      43.447  31.621  35.070  1.00  0.00    -0.203 F 
ATOM     69  F   UNL A   1      41.803  26.421  34.838  1.00  0.00    -0.200 F 
ATOM     70  C   UNL A   1      42.534  28.270  36.108  1.00  0.00     0.200 A 
ATOM     71  F   UNL A   1      43.346  30.124  37.320  1.00  0.00    -0.200 F 
ATOM     72  F   UNL A   1      42.500  27.533  37.227  1.00  0.00    -0.200 F 
ENDBRANCH  39  62
ENDBRANCH  13  14
ENDBRANCH   6   8
ENDBRANCH   3   4
ENDBRANCH   2   3
ENDBRANCH   1   2
BRANCH   1  73
ATOM     73  C   UNL A   1      35.088  23.530  25.721  1.00  0.00     0.116 C 
BRANCH  73  74
ATOM     74  N   UNL A   1      34.394  23.249  26.961  1.00  0.00    -0.356 N 
ATOM     75  C   UNL A   1      33.198  22.661  27.173  1.00  0.00     0.223 C 
ATOM     76  H   UNL A   1      34.870  23.529  27.776  1.00  0.00     0.163 HD
ATOM     77  O   UNL A   1      32.886  22.402  28.335  1.00  0.00    -0.275 OA
BRANCH  75  78
ATOM     78  C   UNL A   1      32.315  22.277  26.007  1.00  0.00     0.091 C 
ATOM     79  C   UNL A   1      33.011  21.250  25.115  1.00  0.00     0.014 C 
ATOM     80  C   UNL A   1      31.644  23.470  25.323  1.00  0.00     0.091 C 
ATOM     81  C   UNL A   1      32.179  20.931  23.886  1.00  0.00     0.001 C 
ATOM     82  C   UNL A   1      31.042  23.160  23.944  1.00  0.00     0.014 C 
ATOM     83  C   UNL A   1      31.893  22.206  23.111  1.00  0.00     0.001 C 
BRANCH  80  84
ATOM     84  C   UNL A   1      30.653  24.195  26.250  1.00  0.00     0.228 C 
ATOM     85  O   UNL A   1      30.108  23.530  27.144  1.00  0.00    -0.274 OA
ATOM     86  N   UNL A   1      30.388  25.534  26.234  1.00  0.00    -0.317 N 
ATOM     87  H   UNL A   1      29.678  25.831  26.848  1.00  0.00     0.170 HD
BRANCH  86  88
ATOM     88  C   UNL A   1      30.973  26.526  25.483  1.00  0.00     0.108 A 
ATOM     89  S   UNL A   1      32.270  27.267  26.329  1.00  0.00    -0.122 S 
ATOM     90  C   UNL A   1      30.659  27.172  24.273  1.00  0.00     0.078 A 
ATOM     91  C   UNL A   1      32.682  28.101  24.949  1.00  0.00     0.011 A 
ATOM     92  C   UNL A   1      31.825  27.923  23.890  1.00  0.00    -0.019 A 
ATOM     93  C   UNL A   1      33.781  29.065  24.714  1.00  0.00     0.047 C 
ATOM     94  C   UNL A   1      32.327  28.728  22.738  1.00  0.00     0.038 C 
ATOM     95  C   UNL A   1      33.748  29.173  23.175  1.00  0.00     0.010 C 
BRANCH  90  96
ATOM     96  C   UNL A   1      29.293  27.058  23.709  1.00  0.00     0.254 C 
ATOM     97  O   UNL A   1      28.662  26.017  23.839  1.00  0.00    -0.269 OA
ATOM     98  N   UNL A   1      28.711  28.036  22.920  1.00  0.00    -0.349 N 
ATOM     99  H   UNL A   1      28.165  27.706  22.170  1.00  0.00     0.164 HD
BRANCH  98 100
ATOM    100  C   UNL A   1      28.792  29.456  23.043  1.00  0.00     0.082 C 
ATOM    101  C   UNL A   1      29.215  30.265  21.827  1.00  0.00     0.025 C 
ATOM    102  C   UNL A   1      27.473  30.124  23.406  1.00  0.00     0.025 C 
ATOM    103  C   UNL A   1      28.963  31.701  22.289  1.00  0.00     0.002 C 
ATOM    104  C   UNL A   1      27.844  31.604  23.334  1.00  0.00     0.002 C 
ENDBRANCH  98 100
ENDBRANCH  90  96
ENDBRANCH  86  88
ENDBRANCH  80  84
ENDBRANCH  75  78
ENDBRANCH  73  74
ENDBRANCH   1  73
TORSDOF 15
ENDMDL
MODEL 2
REMARK VINA RESULT:     -14.2      3.201      8.708
REMARK SMILES O=C(NCCCCNC(=O)[C@@H]1CCCC[C@H]1C(=O)Nc1sc2c(c1C(=O)NC1CCCC1)CCC2)c1ccc(-c2c3nc(c(-c4c(F)c(F)c(F)c(F)c4F)c4ccc([nH]4)c(-c4c(F)c(F)c(F)c(F)c4F)c4nc(c(-c5c(F)c(F)c(F)c(F)c5F)c5ccc2[nH]5)C=C4)C=C3)cc1
REMARK SMILES IDX 6 1 5 2 4 3 3 4 1 5 2 6 36 8 37 9 98 10 38 11 97 12 39 13
REMARK SMILES IDX 40 14 41 15 91 16 42 17 96 18 90 19 92 20 43 21 95 22 89 23
REMARK SMILES IDX 88 24 44 26 76 27 56 28 75 29 57 30 60 31 74 32 93 33 58 34
REMARK SMILES IDX 59 35 73 37 94 38 61 39 45 40 46 41 54 42 47 43 48 44 52 45
REMARK SMILES IDX 55 46 49 47 50 48 53 49 51 50 77 51 78 52 86 53 79 54 80 55
REMARK SMILES IDX 84 56 87 57 81 58 82 59 85 60 83 61 62 62 63 63 71 64 64 65
REMARK SMILES IDX 65 66 69 67 72 68 66 69 67 70 70 71 68 72 7 73 8 74 9 75
REMARK SMILES IDX 10 77 11 78 12 79 16 80 13 81 15 82 14 83 17 84 18 85 19 86
REMARK SMILES IDX 20 88 21 89 24 90 22 91 23 92 35 93 33 94 34 95 25 96 26 97
REMARK SMILES IDX 27 98 28 100 29 101 32 102 30 103 31 104
REMARK H PARENT 3 7 92 25 60 36 8 76 19 87 27 99
REMARK Flexibility Score: inf
ROOT
ATOM      1  C   UNL A   1      34.151  28.182  26.473  1.00  0.00     0.023 C 
ENDROOT
BRANCH   1   2
ATOM      2  C   UNL A   1      33.217  29.196  27.134  1.00  0.00     0.023 C 
BRANCH   2   3
ATOM      3  C   UNL A   1      33.650  30.659  26.981  1.00  0.00     0.116 C 
BRANCH   3   4
ATOM      4  N   UNL A   1      33.668  31.426  28.212  1.00  0.00    -0.352 N 
ATOM      5  O   UNL A   1      34.348  32.471  30.052  1.00  0.00    -0.269 OA
ATOM      6  C   UNL A   1      34.647  31.738  29.110  1.00  0.00     0.251 C 
ATOM      7  H   UNL A   1      32.789  31.799  28.450  1.00  0.00     0.163 HD
BRANCH   6   8
ATOM      8  C   UNL A   1      35.998  31.145  29.055  1.00  0.00     0.039 A 
ATOM      9  C   UNL A   1      36.264  29.775  29.120  1.00  0.00     0.014 A 
ATOM     10  C   UNL A   1      37.062  32.055  28.996  1.00  0.00     0.014 A 
ATOM     11  C   UNL A   1      37.551  29.325  29.340  1.00  0.00     0.010 A 
ATOM     12  C   UNL A   1      38.360  31.606  29.134  1.00  0.00     0.010 A 
ATOM     13  C   UNL A   1      38.585  30.251  29.382  1.00  0.00    -0.014 A 
BRANCH  13  14
ATOM     14  C   UNL A   1      39.939  29.748  29.534  1.00  0.00     0.031 A 
ATOM     15  C   UNL A   1      40.433  29.723  30.947  1.00  0.00     0.074 A 
ATOM     16  C   UNL A   1      40.556  29.184  28.478  1.00  0.00     0.049 A 
ATOM     17  N   UNL A   1      41.571  30.120  31.425  1.00  0.00    -0.248 NA
ATOM     18  C   UNL A   1      39.477  29.290  31.988  1.00  0.00     0.031 C 
ATOM     19  C   UNL A   1      40.020  28.968  27.129  1.00  0.00     0.029 A 
ATOM     20  N   UNL A   1      41.753  28.548  28.428  1.00  0.00    -0.354 N 
ATOM     21  C   UNL A   1      41.536  29.825  32.789  1.00  0.00     0.074 A 
ATOM     22  C   UNL A   1      40.186  29.446  33.103  1.00  0.00     0.031 C 
ATOM     23  C   UNL A   1      40.767  28.039  26.494  1.00  0.00     0.029 A 
ATOM     24  C   UNL A   1      41.893  27.695  27.341  1.00  0.00     0.049 A 
ATOM     25  H   UNL A   1      42.460  28.678  29.101  1.00  0.00     0.167 HD
ATOM     26  C   UNL A   1      42.670  29.693  33.530  1.00  0.00     0.037 A 
ATOM     27  C   UNL A   1      42.800  26.693  27.240  1.00  0.00     0.037 A 
ATOM     28  C   UNL A   1      43.776  30.388  32.938  1.00  0.00     0.049 A 
ATOM     29  C   UNL A   1      43.868  26.968  28.238  1.00  0.00     0.074 A 
ATOM     30  C   UNL A   1      44.050  31.715  32.671  1.00  0.00     0.029 A 
ATOM     31  N   UNL A   1      44.681  29.671  32.197  1.00  0.00    -0.354 N 
ATOM     32  N   UNL A   1      44.672  27.995  28.165  1.00  0.00    -0.248 NA
ATOM     33  C   UNL A   1      43.709  26.389  29.565  1.00  0.00     0.031 C 
ATOM     34  C   UNL A   1      44.732  31.703  31.419  1.00  0.00     0.029 A 
ATOM     35  C   UNL A   1      44.881  30.371  31.035  1.00  0.00     0.049 A 
ATOM     36  H   UNL A   1      45.104  28.819  32.451  1.00  0.00     0.167 HD
ATOM     37  C   UNL A   1      44.803  28.439  29.474  1.00  0.00     0.074 A 
ATOM     38  C   UNL A   1      44.226  27.379  30.298  1.00  0.00     0.031 C 
ATOM     39  C   UNL A   1      45.101  29.741  29.757  1.00  0.00     0.037 A 
BRANCH  26  40
ATOM     40  C   UNL A   1      42.847  28.633  34.588  1.00  0.00     0.064 A 
ATOM     41  C   UNL A   1      43.401  28.981  35.835  1.00  0.00     0.173 A 
ATOM     42  C   UNL A   1      42.788  27.249  34.311  1.00  0.00     0.173 A 
ATOM     43  F   UNL A   1      43.521  30.269  36.192  1.00  0.00    -0.203 F 
ATOM     44  C   UNL A   1      43.926  28.018  36.700  1.00  0.00     0.198 A 
ATOM     45  C   UNL A   1      43.266  26.289  35.199  1.00  0.00     0.198 A 
ATOM     46  F   UNL A   1      42.372  26.776  33.129  1.00  0.00    -0.203 F 
ATOM     47  F   UNL A   1      44.557  28.403  37.820  1.00  0.00    -0.200 F 
ATOM     48  C   UNL A   1      43.867  26.674  36.378  1.00  0.00     0.200 A 
ATOM     49  F   UNL A   1      43.216  24.994  34.858  1.00  0.00    -0.200 F 
ATOM     50  F   UNL A   1      44.430  25.756  37.174  1.00  0.00    -0.200 F 
ENDBRANCH  26  40
BRANCH  27  51
ATOM     51  C   UNL A   1      42.550  25.348  26.665  1.00  0.00     0.064 A 
ATOM     52  C   UNL A   1      43.271  24.882  25.557  1.00  0.00     0.173 A 
ATOM     53  C   UNL A   1      41.765  24.394  27.346  1.00  0.00     0.173 A 
ATOM     54  F   UNL A   1      44.089  25.710  24.891  1.00  0.00    -0.203 F 
ATOM     55  C   UNL A   1      43.205  23.543  25.150  1.00  0.00     0.198 A 
ATOM     56  C   UNL A   1      41.693  23.063  26.936  1.00  0.00     0.198 A 
ATOM     57  F   UNL A   1      41.120  24.712  28.478  1.00  0.00    -0.203 F 
ATOM     58  F   UNL A   1      43.943  23.121  24.113  1.00  0.00    -0.200 F 
ATOM     59  C   UNL A   1      42.419  22.635  25.843  1.00  0.00     0.200 A 
ATOM     60  F   UNL A   1      40.960  22.189  27.640  1.00  0.00    -0.200 F 
ATOM     61  F   UNL A   1      42.393  21.344  25.482  1.00  0.00    -0.200 F 
ENDBRANCH  27  51
BRANCH  39  62
ATOM     62  C   UNL A   1      45.437  30.648  28.606  1.00  0.00     0.064 A 
ATOM     63  C   UNL A   1      44.471  31.379  27.890  1.00  0.00     0.173 A 
ATOM     64  C   UNL A   1      46.780  30.921  28.332  1.00  0.00     0.173 A 
ATOM     65  F   UNL A   1      43.171  31.259  28.176  1.00  0.00    -0.203 F 
ATOM     66  C   UNL A   1      44.834  32.304  26.914  1.00  0.00     0.198 A 
ATOM     67  C   UNL A   1      47.143  31.872  27.380  1.00  0.00     0.198 A 
ATOM     68  F   UNL A   1      47.746  30.306  29.030  1.00  0.00    -0.203 F 
ATOM     69  F   UNL A   1      43.889  32.983  26.245  1.00  0.00    -0.200 F 
ATOM     70  C   UNL A   1      46.171  32.556  26.665  1.00  0.00     0.200 A 
ATOM     71  F   UNL A   1      48.438  32.153  27.181  1.00  0.00    -0.200 F 
ATOM     72  F   UNL A   1      46.525  33.479  25.760  1.00  0.00    -0.200 F 
ENDBRANCH  39  62
ENDBRANCH  13  14
ENDBRANCH   6   8
ENDBRANCH   3   4
ENDBRANCH   2   3
ENDBRANCH   1   2
BRANCH   1  73
ATOM     73  C   UNL A   1      33.492  27.380  25.367  1.00  0.00     0.116 C 
BRANCH  73  74
ATOM     74  N   UNL A   1      34.047  27.718  24.073  1.00  0.00    -0.356 N 
ATOM     75  C   UNL A   1      33.489  27.656  22.846  1.00  0.00     0.223 C 
ATOM     76  H   UNL A   1      34.976  28.043  24.092  1.00  0.00     0.163 HD
ATOM     77  O   UNL A   1      34.120  28.139  21.906  1.00  0.00    -0.275 OA
BRANCH  75  78
ATOM     78  C   UNL A   1      32.105  27.075  22.662  1.00  0.00     0.091 C 
ATOM     79  C   UNL A   1      31.055  27.942  23.356  1.00  0.00     0.014 C 
ATOM     80  C   UNL A   1      32.036  25.563  22.885  1.00  0.00     0.091 C 
ATOM     81  C   UNL A   1      29.676  27.318  23.267  1.00  0.00     0.001 C 
ATOM     82  C   UNL A   1      30.615  25.007  23.058  1.00  0.00     0.014 C 
ATOM     83  C   UNL A   1      29.699  25.922  23.867  1.00  0.00     0.001 C 
BRANCH  80  84
ATOM     84  C   UNL A   1      32.854  24.780  21.844  1.00  0.00     0.228 C 
ATOM     85  O   UNL A   1      33.009  25.294  20.727  1.00  0.00    -0.274 OA
ATOM     86  N   UNL A   1      33.507  23.603  22.073  1.00  0.00    -0.317 N 
ATOM     87  H   UNL A   1      33.931  23.196  21.284  1.00  0.00     0.170 HD
BRANCH  86  88
ATOM     88  C   UNL A   1      33.658  22.907  23.250  1.00  0.00     0.108 A 
ATOM     89  S   UNL A   1      34.998  23.489  24.152  1.00  0.00    -0.122 S 
ATOM     90  C   UNL A   1      33.081  21.749  23.799  1.00  0.00     0.078 A 
ATOM     91  C   UNL A   1      34.540  22.532  25.433  1.00  0.00     0.011 A 
ATOM     92  C   UNL A   1      33.467  21.711  25.185  1.00  0.00    -0.019 A 
ATOM     93  C   UNL A   1      35.159  22.372  26.768  1.00  0.00     0.047 C 
ATOM     94  C   UNL A   1      33.181  20.924  26.420  1.00  0.00     0.038 C 
ATOM     95  C   UNL A   1      34.048  21.603  27.514  1.00  0.00     0.010 C 
BRANCH  90  96
ATOM     96  C   UNL A   1      32.333  20.811  22.927  1.00  0.00     0.254 C 
ATOM     97  O   UNL A   1      31.775  21.228  21.920  1.00  0.00    -0.269 OA
ATOM     98  N   UNL A   1      32.118  19.481  23.245  1.00  0.00    -0.349 N 
ATOM     99  H   UNL A   1      31.232  19.126  23.003  1.00  0.00     0.164 HD
BRANCH  98 100
ATOM    100  C   UNL A   1      33.001  18.553  23.875  1.00  0.00     0.082 C 
ATOM    101  C   UNL A   1      32.476  17.732  25.042  1.00  0.00     0.025 C 
ATOM    102  C   UNL A   1      33.520  17.464  22.948  1.00  0.00     0.025 C 
ATOM    103  C   UNL A   1      33.614  16.737  25.276  1.00  0.00     0.002 C 
ATOM    104  C   UNL A   1      34.307  16.581  23.916  1.00  0.00     0.002 C 
ENDBRANCH  98 100
ENDBRANCH  90  96
ENDBRANCH  86  88
ENDBRANCH  80  84
ENDBRANCH  75  78
ENDBRANCH  73  74
ENDBRANCH   1  73
TORSDOF 15
ENDMDL
MODEL 3
REMARK VINA RESULT:     -13.8      1.108      2.510
REMARK SMILES O=C(NCCCCNC(=O)[C@@H]1CCCC[C@H]1C(=O)Nc1sc2c(c1C(=O)NC1CCCC1)CCC2)c1ccc(-c2c3nc(c(-c4c(F)c(F)c(F)c(F)c4F)c4ccc([nH]4)c(-c4c(F)c(F)c(F)c(F)c4F)c4nc(c(-c5c(F)c(F)c(F)c(F)c5F)c5ccc2[nH]5)C=C4)C=C3)cc1
REMARK SMILES IDX 6 1 5 2 4 3 3 4 1 5 2 6 36 8 37 9 98 10 38 11 97 12 39 13
REMARK SMILES IDX 40 14 41 15 91 16 42 17 96 18 90 19 92 20 43 21 95 22 89 23
REMARK SMILES IDX 88 24 44 26 76 27 56 28 75 29 57 30 60 31 74 32 93 33 58 34
REMARK SMILES IDX 59 35 73 37 94 38 61 39 45 40 46 41 54 42 47 43 48 44 52 45
REMARK SMILES IDX 55 46 49 47 50 48 53 49 51 50 77 51 78 52 86 53 79 54 80 55
REMARK SMILES IDX 84 56 87 57 81 58 82 59 85 60 83 61 62 62 63 63 71 64 64 65
REMARK SMILES IDX 65 66 69 67 72 68 66 69 67 70 70 71 68 72 7 73 8 74 9 75
REMARK SMILES IDX 10 77 11 78 12 79 16 80 13 81 15 82 14 83 17 84 18 85 19 86
REMARK SMILES IDX 20 88 21 89 24 90 22 91 23 92 35 93 33 94 34 95 25 96 26 97
REMARK SMILES IDX 27 98 28 100 29 101 32 102 30 103 31 104
REMARK H PARENT 3 7 92 25 60 36 8 76 19 87 27 99
REMARK Flexibility Score: inf
ROOT
ATOM      1  C   UNL A   1      36.434  24.093  25.641  1.00  0.00     0.023 C 
ENDROOT
BRANCH   1   2
ATOM      2  C   UNL A   1      37.096  22.865  25.012  1.00  0.00     0.023 C 
BRANCH   2   3
ATOM      3  C   UNL A   1      37.809  21.942  26.007  1.00  0.00     0.116 C 
BRANCH   3   4
ATOM      4  N   UNL A   1      39.188  21.636  25.680  1.00  0.00    -0.352 N 
ATOM      5  O   UNL A   1      41.410  21.643  25.634  1.00  0.00    -0.269 OA
ATOM      6  C   UNL A   1      40.384  22.177  26.054  1.00  0.00     0.251 C 
ATOM      7  H   UNL A   1      39.281  20.879  25.058  1.00  0.00     0.163 HD
BRANCH   6   8
ATOM      8  C   UNL A   1      40.486  23.425  26.837  1.00  0.00     0.039 A 
ATOM      9  C   UNL A   1      39.766  24.591  26.564  1.00  0.00     0.014 A 
ATOM     10  C   UNL A   1      41.424  23.418  27.877  1.00  0.00     0.014 A 
ATOM     11  C   UNL A   1      40.119  25.784  27.163  1.00  0.00     0.010 A 
ATOM     12  C   UNL A   1      41.727  24.591  28.538  1.00  0.00     0.010 A 
ATOM     13  C   UNL A   1      41.124  25.780  28.120  1.00  0.00    -0.014 A 
BRANCH  13  14
ATOM     14  C   UNL A   1      41.423  27.030  28.795  1.00  0.00     0.031 A 
ATOM     15  C   UNL A   1      42.679  27.699  28.326  1.00  0.00     0.074 A 
ATOM     16  C   UNL A   1      40.502  27.576  29.612  1.00  0.00     0.049 A 
ATOM     17  N   UNL A   1      43.637  28.223  29.023  1.00  0.00    -0.248 NA
ATOM     18  C   UNL A   1      42.948  27.683  26.873  1.00  0.00     0.031 C 
ATOM     19  C   UNL A   1      39.156  27.077  29.916  1.00  0.00     0.029 A 
ATOM     20  N   UNL A   1      40.521  28.781  30.236  1.00  0.00    -0.354 N 
ATOM     21  C   UNL A   1      44.537  28.754  28.097  1.00  0.00     0.074 A 
ATOM     22  C   UNL A   1      44.137  28.278  26.802  1.00  0.00     0.031 C 
ATOM     23  C   UNL A   1      38.415  28.078  30.436  1.00  0.00     0.029 A 
ATOM     24  C   UNL A   1      39.266  29.239  30.614  1.00  0.00     0.049 A 
ATOM     25  H   UNL A   1      41.349  29.285  30.406  1.00  0.00     0.167 HD
ATOM     26  C   UNL A   1      45.420  29.735  28.427  1.00  0.00     0.037 A 
ATOM     27  C   UNL A   1      38.956  30.524  30.913  1.00  0.00     0.037 A 
ATOM     28  C   UNL A   1      45.690  29.758  29.835  1.00  0.00     0.049 A 
ATOM     29  C   UNL A   1      40.235  31.223  31.213  1.00  0.00     0.074 A 
ATOM     30  C   UNL A   1      46.272  28.873  30.720  1.00  0.00     0.029 A 
ATOM     31  N   UNL A   1      45.028  30.673  30.615  1.00  0.00    -0.354 N 
ATOM     32  N   UNL A   1      40.986  30.937  32.243  1.00  0.00    -0.248 NA
ATOM     33  C   UNL A   1      40.914  31.880  30.105  1.00  0.00     0.031 C 
ATOM     34  C   UNL A   1      45.512  28.999  31.919  1.00  0.00     0.029 A 
ATOM     35  C   UNL A   1      44.555  29.993  31.707  1.00  0.00     0.049 A 
ATOM     36  H   UNL A   1      44.916  31.633  30.426  1.00  0.00     0.167 HD
ATOM     37  C   UNL A   1      42.287  31.006  31.766  1.00  0.00     0.074 A 
ATOM     38  C   UNL A   1      42.182  31.640  30.453  1.00  0.00     0.031 C 
ATOM     39  C   UNL A   1      43.294  30.287  32.341  1.00  0.00     0.037 A 
BRANCH  26  40
ATOM     40  C   UNL A   1      45.745  30.894  27.517  1.00  0.00     0.064 A 
ATOM     41  C   UNL A   1      47.091  31.230  27.275  1.00  0.00     0.173 A 
ATOM     42  C   UNL A   1      44.794  31.867  27.136  1.00  0.00     0.173 A 
ATOM     43  F   UNL A   1      48.077  30.387  27.615  1.00  0.00    -0.203 F 
ATOM     44  C   UNL A   1      47.456  32.479  26.764  1.00  0.00     0.198 A 
ATOM     45  C   UNL A   1      45.160  33.089  26.579  1.00  0.00     0.198 A 
ATOM     46  F   UNL A   1      43.488  31.723  27.390  1.00  0.00    -0.203 F 
ATOM     47  F   UNL A   1      48.753  32.805  26.666  1.00  0.00    -0.200 F 
ATOM     48  C   UNL A   1      46.491  33.410  26.425  1.00  0.00     0.200 A 
ATOM     49  F   UNL A   1      44.209  33.985  26.276  1.00  0.00    -0.200 F 
ATOM     50  F   UNL A   1      46.841  34.631  25.999  1.00  0.00    -0.200 F 
ENDBRANCH  26  40
BRANCH  27  51
ATOM     51  C   UNL A   1      37.714  31.233  30.521  1.00  0.00     0.064 A 
ATOM     52  C   UNL A   1      37.347  31.375  29.175  1.00  0.00     0.173 A 
ATOM     53  C   UNL A   1      36.732  31.576  31.475  1.00  0.00     0.173 A 
ATOM     54  F   UNL A   1      38.200  31.015  28.205  1.00  0.00    -0.203 F 
ATOM     55  C   UNL A   1      36.078  31.839  28.806  1.00  0.00     0.198 A 
ATOM     56  C   UNL A   1      35.471  32.044  31.108  1.00  0.00     0.198 A 
ATOM     57  F   UNL A   1      36.944  31.377  32.784  1.00  0.00    -0.203 F 
ATOM     58  F   UNL A   1      35.745  31.919  27.510  1.00  0.00    -0.200 F 
ATOM     59  C   UNL A   1      35.140  32.168  29.773  1.00  0.00     0.200 A 
ATOM     60  F   UNL A   1      34.563  32.321  32.054  1.00  0.00    -0.200 F 
ATOM     61  F   UNL A   1      33.910  32.566  29.420  1.00  0.00    -0.200 F 
ENDBRANCH  27  51
BRANCH  39  62
ATOM     62  C   UNL A   1      42.985  29.538  33.608  1.00  0.00     0.064 A 
ATOM     63  C   UNL A   1      42.994  30.136  34.882  1.00  0.00     0.173 A 
ATOM     64  C   UNL A   1      42.499  28.231  33.517  1.00  0.00     0.173 A 
ATOM     65  F   UNL A   1      43.334  31.420  35.033  1.00  0.00    -0.203 F 
ATOM     66  C   UNL A   1      42.579  29.441  36.015  1.00  0.00     0.198 A 
ATOM     67  C   UNL A   1      42.051  27.548  34.646  1.00  0.00     0.198 A 
ATOM     68  F   UNL A   1      42.403  27.633  32.320  1.00  0.00    -0.203 F 
ATOM     69  F   UNL A   1      42.603  30.037  37.217  1.00  0.00    -0.200 F 
ATOM     70  C   UNL A   1      42.101  28.148  35.896  1.00  0.00     0.200 A 
ATOM     71  F   UNL A   1      41.538  26.317  34.519  1.00  0.00    -0.200 F 
ATOM     72  F   UNL A   1      41.657  27.492  36.977  1.00  0.00    -0.200 F 
ENDBRANCH  39  62
ENDBRANCH  13  14
ENDBRANCH   6   8
ENDBRANCH   3   4
ENDBRANCH   2   3
ENDBRANCH   1   2
BRANCH   1  73
ATOM     73  C   UNL A   1      34.922  24.093  25.526  1.00  0.00     0.116 C 
BRANCH  73  74
ATOM     74  N   UNL A   1      34.304  23.642  26.755  1.00  0.00    -0.356 N 
ATOM     75  C   UNL A   1      33.229  22.848  26.946  1.00  0.00     0.223 C 
ATOM     76  H   UNL A   1      34.734  23.964  27.579  1.00  0.00     0.163 HD
ATOM     77  O   UNL A   1      32.981  22.488  28.096  1.00  0.00    -0.275 OA
BRANCH  75  78
ATOM     78  C   UNL A   1      32.410  22.370  25.768  1.00  0.00     0.091 C 
ATOM     79  C   UNL A   1      33.285  21.608  24.773  1.00  0.00     0.014 C 
ATOM     80  C   UNL A   1      31.458  23.429  25.208  1.00  0.00     0.091 C 
ATOM     81  C   UNL A   1      32.499  21.211  23.537  1.00  0.00     0.001 C 
ATOM     82  C   UNL A   1      30.887  23.105  23.819  1.00  0.00     0.014 C 
ATOM     83  C   UNL A   1      31.899  22.445  22.886  1.00  0.00     0.001 C 
BRANCH  80  84
ATOM     84  C   UNL A   1      30.367  23.827  26.216  1.00  0.00     0.228 C 
ATOM     85  O   UNL A   1      30.123  23.039  27.142  1.00  0.00    -0.274 OA
ATOM     86  N   UNL A   1      29.703  25.020  26.236  1.00  0.00    -0.317 N 
ATOM     87  H   UNL A   1      28.986  25.092  26.906  1.00  0.00     0.170 HD
BRANCH  86  88
ATOM     88  C   UNL A   1      29.896  26.134  25.453  1.00  0.00     0.108 A 
ATOM     89  S   UNL A   1      28.820  26.152  24.116  1.00  0.00    -0.122 S 
ATOM     90  C   UNL A   1      30.858  27.158  25.404  1.00  0.00     0.078 A 
ATOM     91  C   UNL A   1      29.315  27.698  23.749  1.00  0.00     0.011 A 
ATOM     92  C   UNL A   1      30.334  28.179  24.536  1.00  0.00    -0.019 A 
ATOM     93  C   UNL A   1      28.882  28.600  22.659  1.00  0.00     0.047 C 
ATOM     94  C   UNL A   1      30.661  29.564  24.087  1.00  0.00     0.038 C 
ATOM     95  C   UNL A   1      29.503  29.935  23.122  1.00  0.00     0.010 C 
BRANCH  90  96
ATOM     96  C   UNL A   1      32.155  26.987  26.104  1.00  0.00     0.254 C 
ATOM     97  O   UNL A   1      32.177  26.573  27.256  1.00  0.00    -0.269 OA
ATOM     98  N   UNL A   1      33.367  27.388  25.570  1.00  0.00    -0.349 N 
ATOM     99  H   UNL A   1      34.004  27.780  26.210  1.00  0.00     0.164 HD
BRANCH  98 100
ATOM    100  C   UNL A   1      33.824  27.311  24.219  1.00  0.00     0.082 C 
ATOM    101  C   UNL A   1      33.093  26.385  23.260  1.00  0.00     0.025 C 
ATOM    102  C   UNL A   1      33.763  28.633  23.467  1.00  0.00     0.025 C 
ATOM    103  C   UNL A   1      33.720  26.751  21.914  1.00  0.00     0.002 C 
ATOM    104  C   UNL A   1      34.177  28.209  22.059  1.00  0.00     0.002 C 
ENDBRANCH  98 100
ENDBRANCH  90  96
ENDBRANCH  86  88
ENDBRANCH  80  84
ENDBRANCH  75  78
ENDBRANCH  73  74
ENDBRANCH   1  73
TORSDOF 15
ENDMDL
