MODEL 1
REMARK VINA RESULT:     -11.6      0.000      0.000
REMARK SMILES C#CC[N@H+](CC(=O)NCCCCNC(=O)c1ccc(-c2c3nc(c(-c4c(F)c(F)c(F)c(F)c4F)c4ccc([nH]4)c(-c4c(F)c(F)c(F)c(F)c4F)c4nc(c(-c5c(F)c(F)c(F)c(F)c5F)c5ccc2[nH]5)C=C4)C=C3)cc1)[C@H](C)c1cc(C)ccc1C
REMARK SMILES IDX 10 1 9 2 8 3 6 4 7 5 5 7 4 8 3 10 2 11 1 12 79 13 80 14
REMARK SMILES IDX 81 15 82 16 87 17 83 18 86 19 88 20 84 21 85 22 11 23 12 24
REMARK SMILES IDX 13 25 14 26 15 28 16 29 17 30 78 31 18 32 77 33 19 34 20 35
REMARK SMILES IDX 21 36 71 37 22 38 76 39 70 40 72 41 23 42 75 43 69 44 68 45
REMARK SMILES IDX 24 47 56 48 36 49 55 50 37 51 40 52 54 53 73 54 38 55 39 56
REMARK SMILES IDX 53 58 74 59 41 60 25 61 26 62 34 63 27 64 28 65 32 66 35 67
REMARK SMILES IDX 29 68 30 69 33 70 31 71 57 72 58 73 66 74 59 75 60 76 64 77
REMARK SMILES IDX 67 78 61 79 62 80 65 81 63 82 42 83 43 84 51 85 44 86 45 87
REMARK SMILES IDX 49 88 52 89 46 90 47 91 50 92 48 93
REMARK H PARENT 8 6 4 9 13 27 72 46 40 57
REMARK Flexibility Score: inf
ROOT
ATOM      1  C   UNL A   1      32.175  27.833  26.928  1.00  0.00     0.023 C 
ENDROOT
BRANCH   1   2
ATOM      2  C   UNL A   1      31.459  26.906  25.927  1.00  0.00     0.116 C 
BRANCH   2   3
ATOM      3  N   UNL A   1      30.902  25.735  26.586  1.00  0.00    -0.351 N 
ATOM      4  C   UNL A   1      31.331  24.430  26.647  1.00  0.00     0.275 C 
ATOM      5  O   UNL A   1      30.577  23.620  27.194  1.00  0.00    -0.269 OA
ATOM      6  H   UNL A   1      30.066  25.907  27.077  1.00  0.00     0.163 HD
BRANCH   4   7
ATOM      7  C   UNL A   1      32.732  24.011  26.140  1.00  0.00     0.364 C 
BRANCH   7   8
ATOM      8  N   UNL A   1      32.869  22.587  25.671  1.00  0.00    -0.311 N 
ATOM      9  H   UNL A   1      31.987  22.096  25.817  1.00  0.00     0.349 HD
BRANCH   8  10
ATOM     10  C   UNL A   1      33.145  22.578  24.239  1.00  0.00     0.354 C 
BRANCH  10  11
ATOM     11  C   UNL A   1      32.459  21.738  23.258  1.00  0.00    -0.047 C 
ATOM     12  C   UNL A   1      32.013  21.106  22.334  1.00  0.00     0.010 C 
ENDBRANCH  10  11
ENDBRANCH   8  10
BRANCH   8  13
ATOM     13  C   UNL A   1      33.852  21.809  26.492  1.00  0.00     0.213 C 
ATOM     14  C   UNL A   1      33.826  22.272  27.965  1.00  0.00     0.081 C 
BRANCH  13  15
ATOM     15  C   UNL A   1      35.254  21.776  25.817  1.00  0.00     0.012 A 
ATOM     16  C   UNL A   1      36.070  22.930  25.994  1.00  0.00     0.013 A 
ATOM     17  C   UNL A   1      35.839  20.673  25.155  1.00  0.00    -0.042 A 
ATOM     18  C   UNL A   1      37.456  22.908  25.781  1.00  0.00    -0.051 A 
ATOM     19  C   UNL A   1      37.231  20.668  24.928  1.00  0.00     0.004 A 
ATOM     20  C   UNL A   1      35.108  19.442  24.695  1.00  0.00     0.045 C 
ATOM     21  C   UNL A   1      38.310  24.039  26.275  1.00  0.00     0.044 C 
ATOM     22  C   UNL A   1      38.035  21.753  25.270  1.00  0.00     0.004 A 
ENDBRANCH  13  15
ENDBRANCH   8  13
ENDBRANCH   7   8
ENDBRANCH   4   7
ENDBRANCH   2   3
ENDBRANCH   1   2
BRANCH   1  23
ATOM     23  C   UNL A   1      31.776  29.286  26.866  1.00  0.00     0.023 C 
BRANCH  23  24
ATOM     24  C   UNL A   1      32.911  30.173  26.435  1.00  0.00     0.116 C 
BRANCH  24  25
ATOM     25  N   UNL A   1      32.740  31.567  26.840  1.00  0.00    -0.352 N 
ATOM     26  C   UNL A   1      33.607  32.327  27.590  1.00  0.00     0.251 C 
ATOM     27  H   UNL A   1      31.912  32.010  26.544  1.00  0.00     0.163 HD
ATOM     28  O   UNL A   1      33.320  33.453  27.973  1.00  0.00    -0.269 OA
BRANCH  26  29
ATOM     29  C   UNL A   1      34.888  31.701  27.953  1.00  0.00     0.039 A 
ATOM     30  C   UNL A   1      36.029  32.495  28.069  1.00  0.00     0.014 A 
ATOM     31  C   UNL A   1      34.876  30.376  28.396  1.00  0.00     0.014 A 
ATOM     32  C   UNL A   1      37.151  31.972  28.711  1.00  0.00     0.010 A 
ATOM     33  C   UNL A   1      35.933  29.920  29.160  1.00  0.00     0.010 A 
ATOM     34  C   UNL A   1      37.093  30.700  29.302  1.00  0.00    -0.014 A 
BRANCH  34  35
ATOM     35  C   UNL A   1      38.245  30.099  30.014  1.00  0.00     0.031 A 
ATOM     36  C   UNL A   1      38.543  30.574  31.411  1.00  0.00     0.074 A 
ATOM     37  C   UNL A   1      39.058  29.218  29.400  1.00  0.00     0.049 A 
ATOM     38  N   UNL A   1      39.590  30.349  32.160  1.00  0.00    -0.248 NA
ATOM     39  C   UNL A   1      37.547  31.472  32.026  1.00  0.00     0.031 C 
ATOM     40  C   UNL A   1      38.890  28.702  28.041  1.00  0.00     0.029 A 
ATOM     41  N   UNL A   1      40.208  28.612  29.843  1.00  0.00    -0.354 N 
ATOM     42  C   UNL A   1      39.386  31.097  33.313  1.00  0.00     0.074 A 
ATOM     43  C   UNL A   1      38.168  31.849  33.130  1.00  0.00     0.031 C 
ATOM     44  C   UNL A   1      39.883  27.837  27.771  1.00  0.00     0.029 A 
ATOM     45  C   UNL A   1      40.787  27.780  28.916  1.00  0.00     0.049 A 
ATOM     46  H   UNL A   1      40.582  28.760  30.741  1.00  0.00     0.167 HD
ATOM     47  C   UNL A   1      40.127  31.121  34.443  1.00  0.00     0.037 A 
ATOM     48  C   UNL A   1      41.928  27.067  28.985  1.00  0.00     0.037 A 
ATOM     49  C   UNL A   1      41.316  30.338  34.633  1.00  0.00     0.049 A 
ATOM     50  C   UNL A   1      42.758  27.141  30.243  1.00  0.00     0.074 A 
ATOM     51  C   UNL A   1      42.128  30.262  35.749  1.00  0.00     0.029 A 
ATOM     52  N   UNL A   1      41.855  29.487  33.680  1.00  0.00    -0.354 N 
ATOM     53  N   UNL A   1      42.538  27.818  31.345  1.00  0.00    -0.248 NA
ATOM     54  C   UNL A   1      43.996  26.349  30.270  1.00  0.00     0.031 C 
ATOM     55  C   UNL A   1      43.187  29.400  35.454  1.00  0.00     0.029 A 
ATOM     56  C   UNL A   1      42.997  28.889  34.179  1.00  0.00     0.049 A 
ATOM     57  H   UNL A   1      41.480  29.333  32.782  1.00  0.00     0.167 HD
ATOM     58  C   UNL A   1      43.575  27.493  32.209  1.00  0.00     0.074 A 
ATOM     59  C   UNL A   1      44.426  26.557  31.506  1.00  0.00     0.031 C 
ATOM     60  C   UNL A   1      43.801  27.924  33.474  1.00  0.00     0.037 A 
BRANCH  47  61
ATOM     61  C   UNL A   1      39.659  32.008  35.560  1.00  0.00     0.064 A 
ATOM     62  C   UNL A   1      38.717  31.566  36.503  1.00  0.00     0.173 A 
ATOM     63  C   UNL A   1      40.174  33.304  35.705  1.00  0.00     0.173 A 
ATOM     64  F   UNL A   1      38.178  30.341  36.399  1.00  0.00    -0.203 F 
ATOM     65  C   UNL A   1      38.285  32.401  37.530  1.00  0.00     0.198 A 
ATOM     66  C   UNL A   1      39.768  34.122  36.756  1.00  0.00     0.198 A 
ATOM     67  F   UNL A   1      41.076  33.776  34.831  1.00  0.00    -0.203 F 
ATOM     68  F   UNL A   1      37.340  31.978  38.380  1.00  0.00    -0.200 F 
ATOM     69  C   UNL A   1      38.818  33.674  37.661  1.00  0.00     0.200 A 
ATOM     70  F   UNL A   1      40.294  35.347  36.890  1.00  0.00    -0.200 F 
ATOM     71  F   UNL A   1      38.410  34.472  38.656  1.00  0.00    -0.200 F 
ENDBRANCH  47  61
BRANCH  48  72
ATOM     72  C   UNL A   1      42.356  26.205  27.849  1.00  0.00     0.064 A 
ATOM     73  C   UNL A   1      43.295  26.665  26.913  1.00  0.00     0.173 A 
ATOM     74  C   UNL A   1      41.810  24.929  27.645  1.00  0.00     0.173 A 
ATOM     75  F   UNL A   1      43.833  27.885  27.051  1.00  0.00    -0.203 F 
ATOM     76  C   UNL A   1      43.638  25.902  25.799  1.00  0.00     0.198 A 
ATOM     77  C   UNL A   1      42.182  24.152  26.549  1.00  0.00     0.198 A 
ATOM     78  F   UNL A   1      40.913  24.435  28.512  1.00  0.00    -0.203 F 
ATOM     79  F   UNL A   1      44.485  26.398  24.885  1.00  0.00    -0.200 F 
ATOM     80  C   UNL A   1      43.083  24.644  25.619  1.00  0.00     0.200 A 
ATOM     81  F   UNL A   1      41.654  22.930  26.388  1.00  0.00    -0.200 F 
ATOM     82  F   UNL A   1      43.408  23.914  24.544  1.00  0.00    -0.200 F 
ENDBRANCH  48  72
BRANCH  60  83
ATOM     83  C   UNL A   1      44.959  27.329  34.220  1.00  0.00     0.064 A 
ATOM     84  C   UNL A   1      46.229  27.925  34.223  1.00  0.00     0.173 A 
ATOM     85  C   UNL A   1      44.768  26.184  35.010  1.00  0.00     0.173 A 
ATOM     86  F   UNL A   1      46.465  29.014  33.477  1.00  0.00    -0.203 F 
ATOM     87  C   UNL A   1      47.267  27.385  34.977  1.00  0.00     0.198 A 
ATOM     88  C   UNL A   1      45.798  25.668  35.788  1.00  0.00     0.198 A 
ATOM     89  F   UNL A   1      43.569  25.582  35.047  1.00  0.00    -0.203 F 
ATOM     90  F   UNL A   1      48.483  27.947  34.935  1.00  0.00    -0.200 F 
ATOM     91  C   UNL A   1      47.049  26.266  35.767  1.00  0.00     0.200 A 
ATOM     92  F   UNL A   1      45.577  24.600  36.566  1.00  0.00    -0.200 F 
ATOM     93  F   UNL A   1      48.045  25.761  36.508  1.00  0.00    -0.200 F 
ENDBRANCH  60  83
ENDBRANCH  34  35
ENDBRANCH  26  29
ENDBRANCH  24  25
ENDBRANCH  23  24
ENDBRANCH   1  23
TORSDOF 16
ENDMDL
MODEL 2
REMARK VINA RESULT:     -11.6      1.175      7.448
REMARK SMILES C#CC[N@H+](CC(=O)NCCCCNC(=O)c1ccc(-c2c3nc(c(-c4c(F)c(F)c(F)c(F)c4F)c4ccc([nH]4)c(-c4c(F)c(F)c(F)c(F)c4F)c4nc(c(-c5c(F)c(F)c(F)c(F)c5F)c5ccc2[nH]5)C=C4)C=C3)cc1)[C@H](C)c1cc(C)ccc1C
REMARK SMILES IDX 10 1 9 2 8 3 6 4 7 5 5 7 4 8 3 10 2 11 1 12 79 13 80 14
REMARK SMILES IDX 81 15 82 16 87 17 83 18 86 19 88 20 84 21 85 22 11 23 12 24
REMARK SMILES IDX 13 25 14 26 15 28 16 29 17 30 78 31 18 32 77 33 19 34 20 35
REMARK SMILES IDX 21 36 71 37 22 38 76 39 70 40 72 41 23 42 75 43 69 44 68 45
REMARK SMILES IDX 24 47 56 48 36 49 55 50 37 51 40 52 54 53 73 54 38 55 39 56
REMARK SMILES IDX 53 58 74 59 41 60 25 61 26 62 34 63 27 64 28 65 32 66 35 67
REMARK SMILES IDX 29 68 30 69 33 70 31 71 57 72 58 73 66 74 59 75 60 76 64 77
REMARK SMILES IDX 67 78 61 79 62 80 65 81 63 82 42 83 43 84 51 85 44 86 45 87
REMARK SMILES IDX 49 88 52 89 46 90 47 91 50 92 48 93
REMARK H PARENT 8 6 4 9 13 27 72 46 40 57
REMARK Flexibility Score: inf
ROOT
ATOM      1  C   UNL A   1      32.997  27.345  23.683  1.00  0.00     0.023 C 
ENDROOT
BRANCH   1   2
ATOM      2  C   UNL A   1      33.933  26.236  24.199  1.00  0.00     0.116 C 
BRANCH   2   3
ATOM      3  N   UNL A   1      34.048  25.145  23.244  1.00  0.00    -0.351 N 
ATOM      4  C   UNL A   1      33.587  23.850  23.276  1.00  0.00     0.275 C 
ATOM      5  O   UNL A   1      33.944  23.108  22.357  1.00  0.00    -0.269 OA
ATOM      6  H   UNL A   1      34.548  25.374  22.427  1.00  0.00     0.163 HD
BRANCH   4   7
ATOM      7  C   UNL A   1      32.591  23.370  24.358  1.00  0.00     0.364 C 
BRANCH   7   8
ATOM      8  N   UNL A   1      33.005  23.594  25.788  1.00  0.00    -0.311 N 
ATOM      9  H   UNL A   1      33.721  24.320  25.823  1.00  0.00     0.349 HD
BRANCH   8  10
ATOM     10  C   UNL A   1      31.859  24.074  26.551  1.00  0.00     0.354 C 
BRANCH  10  11
ATOM     11  C   UNL A   1      30.896  25.070  26.082  1.00  0.00    -0.047 C 
ATOM     12  C   UNL A   1      30.244  25.984  25.644  1.00  0.00     0.010 C 
ENDBRANCH  10  11
ENDBRANCH   8  10
BRANCH   8  13
ATOM     13  C   UNL A   1      33.682  22.396  26.380  1.00  0.00     0.213 C 
ATOM     14  C   UNL A   1      33.595  22.423  27.922  1.00  0.00     0.081 C 
BRANCH  13  15
ATOM     15  C   UNL A   1      35.106  22.198  25.785  1.00  0.00     0.012 A 
ATOM     16  C   UNL A   1      36.029  23.264  25.981  1.00  0.00     0.013 A 
ATOM     17  C   UNL A   1      35.605  21.021  25.182  1.00  0.00    -0.042 A 
ATOM     18  C   UNL A   1      37.415  23.091  25.846  1.00  0.00    -0.051 A 
ATOM     19  C   UNL A   1      36.999  20.864  25.033  1.00  0.00     0.004 A 
ATOM     20  C   UNL A   1      34.773  19.861  24.711  1.00  0.00     0.045 C 
ATOM     21  C   UNL A   1      38.356  24.140  26.361  1.00  0.00     0.044 C 
ATOM     22  C   UNL A   1      37.895  21.868  25.395  1.00  0.00     0.004 A 
ENDBRANCH  13  15
ENDBRANCH   8  13
ENDBRANCH   7   8
ENDBRANCH   4   7
ENDBRANCH   2   3
ENDBRANCH   1   2
BRANCH   1  23
ATOM     23  C   UNL A   1      33.341  28.745  24.128  1.00  0.00     0.023 C 
BRANCH  23  24
ATOM     24  C   UNL A   1      33.328  28.889  25.625  1.00  0.00     0.116 C 
BRANCH  24  25
ATOM     25  N   UNL A   1      32.692  30.124  26.079  1.00  0.00    -0.352 N 
ATOM     26  C   UNL A   1      33.195  31.037  26.976  1.00  0.00     0.251 C 
ATOM     27  H   UNL A   1      31.805  30.323  25.701  1.00  0.00     0.163 HD
ATOM     28  O   UNL A   1      32.535  31.985  27.378  1.00  0.00    -0.269 OA
BRANCH  26  29
ATOM     29  C   UNL A   1      34.560  30.793  27.470  1.00  0.00     0.039 A 
ATOM     30  C   UNL A   1      35.423  31.873  27.656  1.00  0.00     0.014 A 
ATOM     31  C   UNL A   1      34.870  29.521  27.956  1.00  0.00     0.014 A 
ATOM     32  C   UNL A   1      36.581  31.687  28.410  1.00  0.00     0.010 A 
ATOM     33  C   UNL A   1      35.937  29.383  28.824  1.00  0.00     0.010 A 
ATOM     34  C   UNL A   1      36.819  30.455  29.039  1.00  0.00    -0.014 A 
BRANCH  34  35
ATOM     35  C   UNL A   1      38.021  30.203  29.868  1.00  0.00     0.031 A 
ATOM     36  C   UNL A   1      39.076  29.276  29.325  1.00  0.00     0.074 A 
ATOM     37  C   UNL A   1      38.128  30.713  31.110  1.00  0.00     0.049 A 
ATOM     38  N   UNL A   1      40.111  28.751  29.926  1.00  0.00    -0.248 NA
ATOM     39  C   UNL A   1      38.910  28.839  27.926  1.00  0.00     0.031 C 
ATOM     40  C   UNL A   1      37.160  31.599  31.757  1.00  0.00     0.029 A 
ATOM     41  N   UNL A   1      39.104  30.540  32.061  1.00  0.00    -0.354 N 
ATOM     42  C   UNL A   1      40.694  27.908  28.989  1.00  0.00     0.074 A 
ATOM     43  C   UNL A   1      39.853  27.920  27.815  1.00  0.00     0.031 C 
ATOM     44  C   UNL A   1      37.603  31.915  32.985  1.00  0.00     0.029 A 
ATOM     45  C   UNL A   1      38.858  31.210  33.234  1.00  0.00     0.049 A 
ATOM     46  H   UNL A   1      39.905  29.988  31.914  1.00  0.00     0.167 HD
ATOM     47  C   UNL A   1      41.852  27.217  29.082  1.00  0.00     0.037 A 
ATOM     48  C   UNL A   1      39.562  31.234  34.383  1.00  0.00     0.037 A 
ATOM     49  C   UNL A   1      42.703  27.243  30.238  1.00  0.00     0.049 A 
ATOM     50  C   UNL A   1      40.831  30.424  34.474  1.00  0.00     0.074 A 
ATOM     51  C   UNL A   1      43.915  26.606  30.430  1.00  0.00     0.029 A 
ATOM     52  N   UNL A   1      42.432  27.955  31.397  1.00  0.00    -0.354 N 
ATOM     53  N   UNL A   1      41.398  29.661  33.570  1.00  0.00    -0.248 NA
ATOM     54  C   UNL A   1      41.563  30.478  35.749  1.00  0.00     0.031 C 
ATOM     55  C   UNL A   1      44.354  26.894  31.724  1.00  0.00     0.029 A 
ATOM     56  C   UNL A   1      43.450  27.764  32.313  1.00  0.00     0.049 A 
ATOM     57  H   UNL A   1      41.633  28.512  31.545  1.00  0.00     0.167 HD
ATOM     58  C   UNL A   1      42.572  29.193  34.144  1.00  0.00     0.074 A 
ATOM     59  C   UNL A   1      42.639  29.755  35.476  1.00  0.00     0.031 C 
ATOM     60  C   UNL A   1      43.515  28.374  33.616  1.00  0.00     0.037 A 
BRANCH  47  61
ATOM     61  C   UNL A   1      42.267  26.396  27.897  1.00  0.00     0.064 A 
ATOM     62  C   UNL A   1      41.768  25.099  27.690  1.00  0.00     0.173 A 
ATOM     63  C   UNL A   1      43.155  26.917  26.944  1.00  0.00     0.173 A 
ATOM     64  F   UNL A   1      40.931  24.547  28.581  1.00  0.00    -0.203 F 
ATOM     65  C   UNL A   1      42.167  24.345  26.591  1.00  0.00     0.198 A 
ATOM     66  C   UNL A   1      43.522  26.172  25.826  1.00  0.00     0.198 A 
ATOM     67  F   UNL A   1      43.663  28.149  27.094  1.00  0.00    -0.203 F 
ATOM     68  F   UNL A   1      41.724  23.088  26.448  1.00  0.00    -0.200 F 
ATOM     69  C   UNL A   1      43.035  24.885  25.655  1.00  0.00     0.200 A 
ATOM     70  F   UNL A   1      44.351  26.701  24.915  1.00  0.00    -0.200 F 
ATOM     71  F   UNL A   1      43.410  24.162  24.592  1.00  0.00    -0.200 F 
ENDBRANCH  47  61
BRANCH  48  72
ATOM     72  C   UNL A   1      39.108  32.060  35.536  1.00  0.00     0.064 A 
ATOM     73  C   UNL A   1      39.473  33.411  35.639  1.00  0.00     0.173 A 
ATOM     74  C   UNL A   1      38.344  31.514  36.578  1.00  0.00     0.173 A 
ATOM     75  F   UNL A   1      40.219  33.976  34.678  1.00  0.00    -0.203 F 
ATOM     76  C   UNL A   1      39.127  34.170  36.754  1.00  0.00     0.198 A 
ATOM     77  C   UNL A   1      37.968  32.284  37.677  1.00  0.00     0.198 A 
ATOM     78  F   UNL A   1      37.961  30.229  36.529  1.00  0.00    -0.203 F 
ATOM     79  F   UNL A   1      39.549  35.438  36.856  1.00  0.00    -0.200 F 
ATOM     80  C   UNL A   1      38.373  33.607  37.772  1.00  0.00     0.200 A 
ATOM     81  F   UNL A   1      37.226  31.740  38.651  1.00  0.00    -0.200 F 
ATOM     82  F   UNL A   1      38.047  34.335  38.848  1.00  0.00    -0.200 F 
ENDBRANCH  48  72
BRANCH  60  83
ATOM     83  C   UNL A   1      44.744  28.104  34.433  1.00  0.00     0.064 A 
ATOM     84  C   UNL A   1      45.858  28.956  34.407  1.00  0.00     0.173 A 
ATOM     85  C   UNL A   1      44.770  27.013  35.317  1.00  0.00     0.173 A 
ATOM     86  F   UNL A   1      45.886  30.005  33.573  1.00  0.00    -0.203 F 
ATOM     87  C   UNL A   1      46.958  28.714  35.225  1.00  0.00     0.198 A 
ATOM     88  C   UNL A   1      45.857  26.796  36.157  1.00  0.00     0.198 A 
ATOM     89  F   UNL A   1      43.725  26.174  35.385  1.00  0.00    -0.203 F 
ATOM     90  F   UNL A   1      48.029  29.518  35.156  1.00  0.00    -0.200 F 
ATOM     91  C   UNL A   1      46.953  27.643  36.106  1.00  0.00     0.200 A 
ATOM     92  F   UNL A   1      45.838  25.772  37.021  1.00  0.00    -0.200 F 
ATOM     93  F   UNL A   1      48.005  27.425  36.907  1.00  0.00    -0.200 F 
ENDBRANCH  60  83
ENDBRANCH  34  35
ENDBRANCH  26  29
ENDBRANCH  24  25
ENDBRANCH  23  24
ENDBRANCH   1  23
TORSDOF 16
ENDMDL
MODEL 3
REMARK VINA RESULT:     -11.4      2.026      3.247
REMARK SMILES C#CC[N@H+](CC(=O)NCCCCNC(=O)c1ccc(-c2c3nc(c(-c4c(F)c(F)c(F)c(F)c4F)c4ccc([nH]4)c(-c4c(F)c(F)c(F)c(F)c4F)c4nc(c(-c5c(F)c(F)c(F)c(F)c5F)c5ccc2[nH]5)C=C4)C=C3)cc1)[C@H](C)c1cc(C)ccc1C
REMARK SMILES IDX 10 1 9 2 8 3 6 4 7 5 5 7 4 8 3 10 2 11 1 12 79 13 80 14
REMARK SMILES IDX 81 15 82 16 87 17 83 18 86 19 88 20 84 21 85 22 11 23 12 24
REMARK SMILES IDX 13 25 14 26 15 28 16 29 17 30 78 31 18 32 77 33 19 34 20 35
REMARK SMILES IDX 21 36 71 37 22 38 76 39 70 40 72 41 23 42 75 43 69 44 68 45
REMARK SMILES IDX 24 47 56 48 36 49 55 50 37 51 40 52 54 53 73 54 38 55 39 56
REMARK SMILES IDX 53 58 74 59 41 60 25 61 26 62 34 63 27 64 28 65 32 66 35 67
REMARK SMILES IDX 29 68 30 69 33 70 31 71 57 72 58 73 66 74 59 75 60 76 64 77
REMARK SMILES IDX 67 78 61 79 62 80 65 81 63 82 42 83 43 84 51 85 44 86 45 87
REMARK SMILES IDX 49 88 52 89 46 90 47 91 50 92 48 93
REMARK H PARENT 8 6 4 9 13 27 72 46 40 57
REMARK Flexibility Score: inf
ROOT
ATOM      1  C   UNL A   1      31.765  30.862  26.059  1.00  0.00     0.023 C 
ENDROOT
BRANCH   1   2
ATOM      2  C   UNL A   1      32.963  29.894  26.044  1.00  0.00     0.116 C 
BRANCH   2   3
ATOM      3  N   UNL A   1      33.470  29.691  24.696  1.00  0.00    -0.351 N 
ATOM      4  C   UNL A   1      33.816  28.549  24.012  1.00  0.00     0.275 C 
ATOM      5  O   UNL A   1      34.334  28.699  22.902  1.00  0.00    -0.269 OA
ATOM      6  H   UNL A   1      33.588  30.520  24.180  1.00  0.00     0.163 HD
BRANCH   4   7
ATOM      7  C   UNL A   1      33.486  27.141  24.564  1.00  0.00     0.364 C 
BRANCH   7   8
ATOM      8  N   UNL A   1      32.544  26.308  23.737  1.00  0.00    -0.311 N 
ATOM      9  H   UNL A   1      32.132  25.581  24.321  1.00  0.00     0.349 HD
BRANCH   8  10
ATOM     10  C   UNL A   1      31.455  27.151  23.255  1.00  0.00     0.354 C 
BRANCH  10  11
ATOM     11  C   UNL A   1      30.034  26.910  23.502  1.00  0.00    -0.047 C 
ATOM     12  C   UNL A   1      28.906  26.711  23.878  1.00  0.00     0.010 C 
ENDBRANCH  10  11
ENDBRANCH   8  10
BRANCH   8  13
ATOM     13  C   UNL A   1      33.252  25.544  22.660  1.00  0.00     0.213 C 
ATOM     14  C   UNL A   1      32.558  25.746  21.296  1.00  0.00     0.081 C 
BRANCH  13  15
ATOM     15  C   UNL A   1      33.498  24.067  23.084  1.00  0.00     0.012 A 
ATOM     16  C   UNL A   1      34.855  23.638  23.131  1.00  0.00     0.013 A 
ATOM     17  C   UNL A   1      32.522  23.153  23.542  1.00  0.00    -0.042 A 
ATOM     18  C   UNL A   1      35.256  22.493  23.835  1.00  0.00    -0.051 A 
ATOM     19  C   UNL A   1      32.936  21.995  24.233  1.00  0.00     0.004 A 
ATOM     20  C   UNL A   1      31.034  23.322  23.402  1.00  0.00     0.045 C 
ATOM     21  C   UNL A   1      36.712  22.257  24.118  1.00  0.00     0.044 C 
ATOM     22  C   UNL A   1      34.282  21.687  24.411  1.00  0.00     0.004 A 
ENDBRANCH  13  15
ENDBRANCH   8  13
ENDBRANCH   7   8
ENDBRANCH   4   7
ENDBRANCH   2   3
ENDBRANCH   1   2
BRANCH   1  23
ATOM     23  C   UNL A   1      31.703  31.800  27.240  1.00  0.00     0.023 C 
BRANCH  23  24
ATOM     24  C   UNL A   1      32.886  32.727  27.298  1.00  0.00     0.116 C 
BRANCH  24  25
ATOM     25  N   UNL A   1      32.517  34.116  27.560  1.00  0.00    -0.352 N 
ATOM     26  C   UNL A   1      33.005  34.933  28.553  1.00  0.00     0.251 C 
ATOM     27  H   UNL A   1      31.844  34.511  26.959  1.00  0.00     0.163 HD
ATOM     28  O   UNL A   1      32.549  36.049  28.761  1.00  0.00    -0.269 OA
BRANCH  26  29
ATOM     29  C   UNL A   1      34.080  34.379  29.394  1.00  0.00     0.039 A 
ATOM     30  C   UNL A   1      33.758  33.480  30.410  1.00  0.00     0.014 A 
ATOM     31  C   UNL A   1      35.403  34.590  29.000  1.00  0.00     0.014 A 
ATOM     32  C   UNL A   1      34.777  32.724  30.987  1.00  0.00     0.010 A 
ATOM     33  C   UNL A   1      36.381  33.733  29.468  1.00  0.00     0.010 A 
ATOM     34  C   UNL A   1      36.086  32.811  30.486  1.00  0.00    -0.014 A 
BRANCH  34  35
ATOM     35  C   UNL A   1      37.207  32.019  31.044  1.00  0.00     0.031 A 
ATOM     36  C   UNL A   1      37.704  32.364  32.422  1.00  0.00     0.074 A 
ATOM     37  C   UNL A   1      37.827  31.077  30.307  1.00  0.00     0.049 A 
ATOM     38  N   UNL A   1      38.777  31.957  33.046  1.00  0.00    -0.248 NA
ATOM     39  C   UNL A   1      36.907  33.348  33.180  1.00  0.00     0.031 C 
ATOM     40  C   UNL A   1      37.457  30.672  28.951  1.00  0.00     0.029 A 
ATOM     41  N   UNL A   1      38.919  30.297  30.598  1.00  0.00    -0.354 N 
ATOM     42  C   UNL A   1      38.793  32.654  34.248  1.00  0.00     0.074 A 
ATOM     43  C   UNL A   1      37.679  33.572  34.229  1.00  0.00     0.031 C 
ATOM     44  C   UNL A   1      38.289  29.700  28.538  1.00  0.00     0.029 A 
ATOM     45  C   UNL A   1      39.284  29.453  29.578  1.00  0.00     0.049 A 
ATOM     46  H   UNL A   1      39.396  30.339  31.458  1.00  0.00     0.167 HD
ATOM     47  C   UNL A   1      39.637  32.510  35.294  1.00  0.00     0.037 A 
ATOM     48  C   UNL A   1      40.317  28.591  29.493  1.00  0.00     0.037 A 
ATOM     49  C   UNL A   1      40.718  31.566  35.321  1.00  0.00     0.049 A 
ATOM     50  C   UNL A   1      41.267  28.478  30.660  1.00  0.00     0.074 A 
ATOM     51  C   UNL A   1      41.616  31.315  36.341  1.00  0.00     0.029 A 
ATOM     52  N   UNL A   1      41.038  30.710  34.278  1.00  0.00    -0.354 N 
ATOM     53  N   UNL A   1      41.252  29.110  31.809  1.00  0.00    -0.248 NA
ATOM     54  C   UNL A   1      42.380  27.527  30.519  1.00  0.00     0.031 C 
ATOM     55  C   UNL A   1      42.512  30.338  35.896  1.00  0.00     0.029 A 
ATOM     56  C   UNL A   1      42.129  29.935  34.626  1.00  0.00     0.049 A 
ATOM     57  H   UNL A   1      40.560  30.662  33.418  1.00  0.00     0.167 HD
ATOM     58  C   UNL A   1      42.313  28.597  32.543  1.00  0.00     0.074 A 
ATOM     59  C   UNL A   1      42.953  27.601  31.711  1.00  0.00     0.031 C 
ATOM     60  C   UNL A   1      42.719  28.916  33.796  1.00  0.00     0.037 A 
BRANCH  47  61
ATOM     61  C   UNL A   1      39.408  33.382  36.495  1.00  0.00     0.064 A 
ATOM     62  C   UNL A   1      38.592  32.966  37.560  1.00  0.00     0.173 A 
ATOM     63  C   UNL A   1      40.027  34.636  36.593  1.00  0.00     0.173 A 
ATOM     64  F   UNL A   1      37.961  31.783  37.507  1.00  0.00    -0.203 F 
ATOM     65  C   UNL A   1      38.382  33.787  38.663  1.00  0.00     0.198 A 
ATOM     66  C   UNL A   1      39.843  35.438  37.717  1.00  0.00     0.198 A 
ATOM     67  F   UNL A   1      40.814  35.082  35.603  1.00  0.00    -0.203 F 
ATOM     68  F   UNL A   1      37.551  33.393  39.639  1.00  0.00    -0.200 F 
ATOM     69  C   UNL A   1      39.015  35.017  38.746  1.00  0.00     0.200 A 
ATOM     70  F   UNL A   1      40.467  36.622  37.801  1.00  0.00    -0.200 F 
ATOM     71  F   UNL A   1      38.820  35.802  39.814  1.00  0.00    -0.200 F 
ENDBRANCH  47  61
BRANCH  48  72
ATOM     72  C   UNL A   1      40.508  27.750  28.280  1.00  0.00     0.064 A 
ATOM     73  C   UNL A   1      39.952  26.464  28.202  1.00  0.00     0.173 A 
ATOM     74  C   UNL A   1      41.281  28.188  27.194  1.00  0.00     0.173 A 
ATOM     75  F   UNL A   1      39.220  25.991  29.221  1.00  0.00    -0.203 F 
ATOM     76  C   UNL A   1      40.196  25.636  27.109  1.00  0.00     0.198 A 
ATOM     77  C   UNL A   1      41.494  27.371  26.084  1.00  0.00     0.198 A 
ATOM     78  F   UNL A   1      41.831  29.411  27.210  1.00  0.00    -0.203 F 
ATOM     79  F   UNL A   1      39.709  24.387  27.096  1.00  0.00    -0.200 F 
ATOM     80  C   UNL A   1      40.965  26.091  26.049  1.00  0.00     0.200 A 
ATOM     81  F   UNL A   1      42.226  27.821  25.056  1.00  0.00    -0.200 F 
ATOM     82  F   UNL A   1      41.205  25.291  25.001  1.00  0.00    -0.200 F 
ENDBRANCH  48  72
BRANCH  60  83
ATOM     83  C   UNL A   1      43.851  28.128  34.388  1.00  0.00     0.064 A 
ATOM     84  C   UNL A   1      45.179  28.574  34.329  1.00  0.00     0.173 A 
ATOM     85  C   UNL A   1      43.583  26.945  35.095  1.00  0.00     0.173 A 
ATOM     86  F   UNL A   1      45.487  29.692  33.656  1.00  0.00    -0.203 F 
ATOM     87  C   UNL A   1      46.199  27.853  34.943  1.00  0.00     0.198 A 
ATOM     88  C   UNL A   1      44.601  26.247  35.737  1.00  0.00     0.198 A 
ATOM     89  F   UNL A   1      42.327  26.483  35.187  1.00  0.00    -0.203 F 
ATOM     90  F   UNL A   1      47.468  28.275  34.842  1.00  0.00    -0.200 F 
ATOM     91  C   UNL A   1      45.909  26.699  35.656  1.00  0.00     0.200 A 
ATOM     92  F   UNL A   1      44.313  25.145  36.441  1.00  0.00    -0.200 F 
ATOM     93  F   UNL A   1      46.891  26.019  36.264  1.00  0.00    -0.200 F 
ENDBRANCH  60  83
ENDBRANCH  34  35
ENDBRANCH  26  29
ENDBRANCH  24  25
ENDBRANCH  23  24
ENDBRANCH   1  23
TORSDOF 16
ENDMDL
