MODEL 1
REMARK VINA RESULT:     -13.8      0.000      0.000
REMARK SMILES O=C(NCCCCNC(=O)c1ccc(-n2cc(CSc3nc4ccccc4c(=O)n3-c3ccccc3)nn2)cc1)c1ccc(-c2c3nc(c(-c4c(F)c(F)c(F)c(F)c4F)c4ccc([nH]4)c(-c4c(F)c(F)c(F)c(F)c4F)c4nc(c(-c5c(F)c(F)c(F)c(F)c5F)c5ccc2[nH]5)C=C4)C=C3)cc1
REMARK SMILES IDX 7 1 6 2 5 3 4 4 3 5 1 6 2 7 41 9 42 10 103 11 43 12 102 13
REMARK SMILES IDX 44 14 45 15 46 16 96 17 47 18 101 19 95 20 97 21 48 22
REMARK SMILES IDX 100 23 94 24 93 25 49 27 81 28 61 29 80 30 62 31 65 32 79 33
REMARK SMILES IDX 98 34 63 35 64 36 78 38 99 39 66 40 50 41 51 42 59 43 52 44
REMARK SMILES IDX 53 45 57 46 60 47 54 48 55 49 58 50 56 51 82 52 83 53 91 54
REMARK SMILES IDX 84 55 85 56 89 57 92 58 86 59 87 60 90 61 88 62 67 63 68 64
REMARK SMILES IDX 76 65 69 66 70 67 74 68 77 69 71 70 72 71 75 72 73 73 8 74
REMARK SMILES IDX 9 75 10 77 11 78 12 79 40 80 13 81 39 82 14 83 15 84 16 85
REMARK SMILES IDX 38 86 17 87 37 88 18 89 19 90 20 91 21 92 30 93 22 94 28 95
REMARK SMILES IDX 23 96 27 97 29 98 24 99 26 100 25 101 31 102 32 103 36 104
REMARK SMILES IDX 33 105 35 106 34 107
REMARK H PARENT 3 8 97 26 65 37 8 76
REMARK Flexibility Score: inf
ROOT
ATOM      1  C   UNL A   1      34.411  30.855  27.591  1.00  0.00     0.116 C 
ENDROOT
BRANCH   1   2
ATOM      2  C   UNL A   1      35.658  31.702  27.841  1.00  0.00     0.023 C 
BRANCH   2   3
ATOM      3  C   UNL A   1      35.450  33.220  27.850  1.00  0.00     0.023 C 
BRANCH   3   4
ATOM      4  C   UNL A   1      35.578  33.900  29.212  1.00  0.00     0.116 C 
BRANCH   4   5
ATOM      5  N   UNL A   1      35.016  33.160  30.322  1.00  0.00    -0.352 N 
ATOM      6  O   UNL A   1      34.750  31.949  32.149  1.00  0.00    -0.269 OA
ATOM      7  C   UNL A   1      35.487  32.220  31.196  1.00  0.00     0.251 C 
ATOM      8  H   UNL A   1      34.072  33.387  30.486  1.00  0.00     0.163 HD
BRANCH   7   9
ATOM      9  C   UNL A   1      36.765  31.467  31.053  1.00  0.00     0.039 A 
ATOM     10  C   UNL A   1      38.043  32.024  31.017  1.00  0.00     0.014 A 
ATOM     11  C   UNL A   1      36.641  30.068  30.936  1.00  0.00     0.014 A 
ATOM     12  C   UNL A   1      39.158  31.214  30.797  1.00  0.00     0.010 A 
ATOM     13  C   UNL A   1      37.750  29.253  30.725  1.00  0.00     0.010 A 
ATOM     14  C   UNL A   1      39.010  29.832  30.630  1.00  0.00    -0.014 A 
BRANCH  14  15
ATOM     15  C   UNL A   1      40.217  29.014  30.534  1.00  0.00     0.031 A 
ATOM     16  C   UNL A   1      40.926  28.793  31.826  1.00  0.00     0.074 A 
ATOM     17  C   UNL A   1      40.624  28.369  29.421  1.00  0.00     0.049 A 
ATOM     18  N   UNL A   1      42.126  29.154  32.150  1.00  0.00    -0.248 NA
ATOM     19  C   UNL A   1      40.176  28.165  32.925  1.00  0.00     0.031 C 
ATOM     20  C   UNL A   1      39.905  28.209  28.158  1.00  0.00     0.029 A 
ATOM     21  N   UNL A   1      41.758  27.630  29.227  1.00  0.00    -0.354 N 
ATOM     22  C   UNL A   1      42.344  28.671  33.439  1.00  0.00     0.074 A 
ATOM     23  C   UNL A   1      41.076  28.177  33.909  1.00  0.00     0.031 C 
ATOM     24  C   UNL A   1      40.520  27.263  27.410  1.00  0.00     0.029 A 
ATOM     25  C   UNL A   1      41.741  26.847  28.081  1.00  0.00     0.049 A 
ATOM     26  H   UNL A   1      42.522  27.653  29.847  1.00  0.00     0.167 HD
ATOM     27  C   UNL A   1      43.600  28.539  33.949  1.00  0.00     0.037 A 
ATOM     28  C   UNL A   1      42.639  25.889  27.737  1.00  0.00     0.037 A 
ATOM     29  C   UNL A   1      44.557  29.305  33.198  1.00  0.00     0.049 A 
ATOM     30  C   UNL A   1      43.881  26.131  28.508  1.00  0.00     0.074 A 
ATOM     31  C   UNL A   1      44.740  30.646  32.925  1.00  0.00     0.029 A 
ATOM     32  N   UNL A   1      45.362  28.634  32.314  1.00  0.00    -0.354 N 
ATOM     33  N   UNL A   1      44.690  27.130  28.302  1.00  0.00    -0.248 NA
ATOM     34  C   UNL A   1      44.034  25.456  29.786  1.00  0.00     0.031 C 
ATOM     35  C   UNL A   1      45.257  30.686  31.597  1.00  0.00     0.029 A 
ATOM     36  C   UNL A   1      45.401  29.369  31.161  1.00  0.00     0.049 A 
ATOM     37  H   UNL A   1      45.826  27.781  32.478  1.00  0.00     0.167 HD
ATOM     38  C   UNL A   1      45.127  27.488  29.565  1.00  0.00     0.074 A 
ATOM     39  C   UNL A   1      44.790  26.355  30.421  1.00  0.00     0.031 C 
ATOM     40  C   UNL A   1      45.462  28.780  29.846  1.00  0.00     0.037 A 
BRANCH  27  41
ATOM     41  C   UNL A   1      44.036  27.447  34.898  1.00  0.00     0.064 A 
ATOM     42  C   UNL A   1      43.880  26.098  34.513  1.00  0.00     0.173 A 
ATOM     43  C   UNL A   1      44.288  27.662  36.269  1.00  0.00     0.173 A 
ATOM     44  F   UNL A   1      43.622  25.777  33.236  1.00  0.00    -0.203 F 
ATOM     45  C   UNL A   1      43.882  25.058  35.445  1.00  0.00     0.198 A 
ATOM     46  C   UNL A   1      44.344  26.615  37.188  1.00  0.00     0.198 A 
ATOM     47  F   UNL A   1      44.373  28.891  36.791  1.00  0.00    -0.203 F 
ATOM     48  F   UNL A   1      43.590  23.810  35.052  1.00  0.00    -0.200 F 
ATOM     49  C   UNL A   1      44.105  25.319  36.784  1.00  0.00     0.200 A 
ATOM     50  F   UNL A   1      44.542  26.889  38.485  1.00  0.00    -0.200 F 
ATOM     51  F   UNL A   1      44.038  24.335  37.690  1.00  0.00    -0.200 F 
ENDBRANCH  27  41
BRANCH  28  52
ATOM     52  C   UNL A   1      42.430  24.627  26.986  1.00  0.00     0.064 A 
ATOM     53  C   UNL A   1      43.026  24.420  25.729  1.00  0.00     0.173 A 
ATOM     54  C   UNL A   1      41.890  23.489  27.614  1.00  0.00     0.173 A 
ATOM     55  F   UNL A   1      43.603  25.442  25.079  1.00  0.00    -0.203 F 
ATOM     56  C   UNL A   1      43.107  23.148  25.153  1.00  0.00     0.198 A 
ATOM     57  C   UNL A   1      41.965  22.221  27.036  1.00  0.00     0.198 A 
ATOM     58  F   UNL A   1      41.371  23.567  28.848  1.00  0.00    -0.203 F 
ATOM     59  F   UNL A   1      43.746  22.981  23.987  1.00  0.00    -0.200 F 
ATOM     60  C   UNL A   1      42.588  22.047  25.813  1.00  0.00     0.200 A 
ATOM     61  F   UNL A   1      41.490  21.158  27.701  1.00  0.00    -0.200 F 
ATOM     62  F   UNL A   1      42.724  20.819  25.296  1.00  0.00    -0.200 F 
ENDBRANCH  28  52
BRANCH  40  63
ATOM     63  C   UNL A   1      45.666  29.717  28.691  1.00  0.00     0.064 A 
ATOM     64  C   UNL A   1      44.630  30.404  28.035  1.00  0.00     0.173 A 
ATOM     65  C   UNL A   1      46.982  30.024  28.320  1.00  0.00     0.173 A 
ATOM     66  F   UNL A   1      43.351  30.243  28.401  1.00  0.00    -0.203 F 
ATOM     67  C   UNL A   1      44.903  31.319  27.019  1.00  0.00     0.198 A 
ATOM     68  C   UNL A   1      47.253  30.968  27.335  1.00  0.00     0.198 A 
ATOM     69  F   UNL A   1      48.013  29.438  28.949  1.00  0.00    -0.203 F 
ATOM     70  F   UNL A   1      43.898  31.950  26.395  1.00  0.00    -0.200 F 
ATOM     71  C   UNL A   1      46.214  31.606  26.677  1.00  0.00     0.200 A 
ATOM     72  F   UNL A   1      48.524  31.280  27.043  1.00  0.00    -0.200 F 
ATOM     73  F   UNL A   1      46.479  32.518  25.730  1.00  0.00    -0.200 F 
ENDBRANCH  40  63
ENDBRANCH  14  15
ENDBRANCH   7   9
ENDBRANCH   4   5
ENDBRANCH   3   4
ENDBRANCH   2   3
ENDBRANCH   1   2
BRANCH   1  74
ATOM     74  N   UNL A   1      33.216  31.656  27.396  1.00  0.00    -0.352 N 
ATOM     75  C   UNL A   1      32.000  31.307  26.857  1.00  0.00     0.251 C 
ATOM     76  H   UNL A   1      33.287  32.591  27.696  1.00  0.00     0.163 HD
ATOM     77  O   UNL A   1      31.143  32.155  26.677  1.00  0.00    -0.269 OA
BRANCH  75  78
ATOM     78  C   UNL A   1      31.730  29.900  26.482  1.00  0.00     0.039 A 
ATOM     79  C   UNL A   1      31.717  28.928  27.487  1.00  0.00     0.016 A 
ATOM     80  C   UNL A   1      31.562  29.535  25.144  1.00  0.00     0.016 A 
ATOM     81  C   UNL A   1      31.486  27.588  27.163  1.00  0.00     0.029 A 
ATOM     82  C   UNL A   1      31.351  28.196  24.815  1.00  0.00     0.029 A 
ATOM     83  C   UNL A   1      31.325  27.217  25.823  1.00  0.00     0.066 A 
BRANCH  83  84
ATOM     84  N   UNL A   1      31.228  25.846  25.484  1.00  0.00    -0.220 N 
ATOM     85  C   UNL A   1      31.716  24.783  26.196  1.00  0.00     0.141 A 
ATOM     86  N   UNL A   1      30.581  25.383  24.388  1.00  0.00    -0.062 NA
ATOM     87  C   UNL A   1      31.235  23.659  25.565  1.00  0.00     0.093 A 
ATOM     88  N   UNL A   1      30.600  24.051  24.419  1.00  0.00    -0.134 NA
BRANCH  87  89
ATOM     89  C   UNL A   1      31.506  22.243  25.888  1.00  0.00     0.138 C 
BRANCH  89  90
ATOM     90  S   UNL A   1      32.376  21.148  24.762  1.00  0.00    -0.081 SA
BRANCH  90  91
ATOM     91  C   UNL A   1      34.086  21.488  24.684  1.00  0.00     0.176 A 
ATOM     92  N   UNL A   1      34.799  20.430  24.944  1.00  0.00    -0.223 NA
ATOM     93  N   UNL A   1      34.673  22.706  24.364  1.00  0.00    -0.255 N 
ATOM     94  C   UNL A   1      36.190  20.555  25.001  1.00  0.00     0.079 A 
ATOM     95  C   UNL A   1      35.877  22.955  25.040  1.00  0.00     0.266 A 
ATOM     96  C   UNL A   1      37.018  19.432  24.950  1.00  0.00     0.029 A 
ATOM     97  C   UNL A   1      36.768  21.798  25.209  1.00  0.00     0.066 A 
ATOM     98  O   UNL A   1      36.240  24.036  25.502  1.00  0.00    -0.268 OA
ATOM     99  C   UNL A   1      38.395  19.559  25.167  1.00  0.00     0.002 A 
ATOM    100  C   UNL A   1      38.133  21.937  25.480  1.00  0.00     0.016 A 
ATOM    101  C   UNL A   1      38.947  20.806  25.467  1.00  0.00     0.001 A 
BRANCH  93 102
ATOM    102  C   UNL A   1      34.174  23.718  23.448  1.00  0.00     0.051 A 
ATOM    103  C   UNL A   1      34.334  25.088  23.748  1.00  0.00     0.027 A 
ATOM    104  C   UNL A   1      33.554  23.444  22.222  1.00  0.00     0.027 A 
ATOM    105  C   UNL A   1      33.731  26.100  22.993  1.00  0.00     0.002 A 
ATOM    106  C   UNL A   1      32.897  24.445  21.488  1.00  0.00     0.002 A 
ATOM    107  C   UNL A   1      32.958  25.771  21.893  1.00  0.00     0.000 A 
ENDBRANCH  93 102
ENDBRANCH  90  91
ENDBRANCH  89  90
ENDBRANCH  87  89
ENDBRANCH  83  84
ENDBRANCH  75  78
ENDBRANCH   1  74
TORSDOF 16
ENDMDL
MODEL 2
REMARK VINA RESULT:     -13.2      5.037      9.956
REMARK SMILES O=C(NCCCCNC(=O)c1ccc(-n2cc(CSc3nc4ccccc4c(=O)n3-c3ccccc3)nn2)cc1)c1ccc(-c2c3nc(c(-c4c(F)c(F)c(F)c(F)c4F)c4ccc([nH]4)c(-c4c(F)c(F)c(F)c(F)c4F)c4nc(c(-c5c(F)c(F)c(F)c(F)c5F)c5ccc2[nH]5)C=C4)C=C3)cc1
REMARK SMILES IDX 7 1 6 2 5 3 4 4 3 5 1 6 2 7 41 9 42 10 103 11 43 12 102 13
REMARK SMILES IDX 44 14 45 15 46 16 96 17 47 18 101 19 95 20 97 21 48 22
REMARK SMILES IDX 100 23 94 24 93 25 49 27 81 28 61 29 80 30 62 31 65 32 79 33
REMARK SMILES IDX 98 34 63 35 64 36 78 38 99 39 66 40 50 41 51 42 59 43 52 44
REMARK SMILES IDX 53 45 57 46 60 47 54 48 55 49 58 50 56 51 82 52 83 53 91 54
REMARK SMILES IDX 84 55 85 56 89 57 92 58 86 59 87 60 90 61 88 62 67 63 68 64
REMARK SMILES IDX 76 65 69 66 70 67 74 68 77 69 71 70 72 71 75 72 73 73 8 74
REMARK SMILES IDX 9 75 10 77 11 78 12 79 40 80 13 81 39 82 14 83 15 84 16 85
REMARK SMILES IDX 38 86 17 87 37 88 18 89 19 90 20 91 21 92 30 93 22 94 28 95
REMARK SMILES IDX 23 96 27 97 29 98 24 99 26 100 25 101 31 102 32 103 36 104
REMARK SMILES IDX 33 105 35 106 34 107
REMARK H PARENT 3 8 97 26 65 37 8 76
REMARK Flexibility Score: inf
ROOT
ATOM      1  C   UNL A   1      35.566  31.898  31.882  1.00  0.00     0.116 C 
ENDROOT
BRANCH   1   2
ATOM      2  C   UNL A   1      34.409  32.800  31.458  1.00  0.00     0.023 C 
BRANCH   2   3
ATOM      3  C   UNL A   1      34.796  34.159  30.866  1.00  0.00     0.023 C 
BRANCH   3   4
ATOM      4  C   UNL A   1      35.176  34.153  29.386  1.00  0.00     0.116 C 
BRANCH   4   5
ATOM      5  N   UNL A   1      34.469  33.184  28.575  1.00  0.00    -0.352 N 
ATOM      6  O   UNL A   1      33.728  31.313  27.667  1.00  0.00    -0.269 OA
ATOM      7  C   UNL A   1      34.665  31.871  28.246  1.00  0.00     0.251 C 
ATOM      8  H   UNL A   1      33.656  33.557  28.165  1.00  0.00     0.163 HD
BRANCH   7   9
ATOM      9  C   UNL A   1      35.919  31.100  28.470  1.00  0.00     0.039 A 
ATOM     10  C   UNL A   1      36.028  29.710  28.516  1.00  0.00     0.014 A 
ATOM     11  C   UNL A   1      37.085  31.868  28.659  1.00  0.00     0.014 A 
ATOM     12  C   UNL A   1      37.251  29.109  28.816  1.00  0.00     0.010 A 
ATOM     13  C   UNL A   1      38.310  31.275  28.950  1.00  0.00     0.010 A 
ATOM     14  C   UNL A   1      38.388  29.891  29.053  1.00  0.00    -0.014 A 
BRANCH  14  15
ATOM     15  C   UNL A   1      39.670  29.212  29.232  1.00  0.00     0.031 A 
ATOM     16  C   UNL A   1      40.052  28.965  30.651  1.00  0.00     0.074 A 
ATOM     17  C   UNL A   1      40.418  28.704  28.232  1.00  0.00     0.049 A 
ATOM     18  N   UNL A   1      41.078  29.421  31.292  1.00  0.00    -0.248 NA
ATOM     19  C   UNL A   1      39.130  28.177  31.484  1.00  0.00     0.031 C 
ATOM     20  C   UNL A   1      40.065  28.571  26.818  1.00  0.00     0.029 A 
ATOM     21  N   UNL A   1      41.646  28.105  28.301  1.00  0.00    -0.354 N 
ATOM     22  C   UNL A   1      41.022  28.862  32.568  1.00  0.00     0.074 A 
ATOM     23  C   UNL A   1      39.745  28.204  32.667  1.00  0.00     0.031 C 
ATOM     24  C   UNL A   1      40.959  27.757  26.209  1.00  0.00     0.029 A 
ATOM     25  C   UNL A   1      42.013  27.418  27.152  1.00  0.00     0.049 A 
ATOM     26  H   UNL A   1      42.220  28.157  29.098  1.00  0.00     0.167 HD
ATOM     27  C   UNL A   1      42.115  28.822  33.379  1.00  0.00     0.037 A 
ATOM     28  C   UNL A   1      43.077  26.588  27.005  1.00  0.00     0.037 A 
ATOM     29  C   UNL A   1      43.130  29.741  32.941  1.00  0.00     0.049 A 
ATOM     30  C   UNL A   1      44.047  26.897  28.083  1.00  0.00     0.074 A 
ATOM     31  C   UNL A   1      43.213  31.111  32.792  1.00  0.00     0.029 A 
ATOM     32  N   UNL A   1      44.207  29.229  32.264  1.00  0.00    -0.354 N 
ATOM     33  N   UNL A   1      44.754  27.988  28.144  1.00  0.00    -0.248 NA
ATOM     34  C   UNL A   1      43.953  26.142  29.322  1.00  0.00     0.031 C 
ATOM     35  C   UNL A   1      44.039  31.310  31.648  1.00  0.00     0.029 A 
ATOM     36  C   UNL A   1      44.447  30.054  31.199  1.00  0.00     0.049 A 
ATOM     37  H   UNL A   1      44.714  28.419  32.499  1.00  0.00     0.167 HD
ATOM     38  C   UNL A   1      44.812  28.287  29.494  1.00  0.00     0.074 A 
ATOM     39  C   UNL A   1      44.410  27.061  30.175  1.00  0.00     0.031 C 
ATOM     40  C   UNL A   1      44.907  29.581  29.916  1.00  0.00     0.037 A 
BRANCH  27  41
ATOM     41  C   UNL A   1      42.427  27.710  34.352  1.00  0.00     0.064 A 
ATOM     42  C   UNL A   1      42.995  26.512  33.869  1.00  0.00     0.173 A 
ATOM     43  C   UNL A   1      41.898  27.647  35.658  1.00  0.00     0.173 A 
ATOM     44  F   UNL A   1      43.515  26.451  32.633  1.00  0.00    -0.203 F 
ATOM     45  C   UNL A   1      42.950  25.323  34.601  1.00  0.00     0.198 A 
ATOM     46  C   UNL A   1      41.904  26.471  36.408  1.00  0.00     0.198 A 
ATOM     47  F   UNL A   1      41.254  28.680  36.213  1.00  0.00    -0.203 F 
ATOM     48  F   UNL A   1      43.376  24.181  34.044  1.00  0.00    -0.200 F 
ATOM     49  C   UNL A   1      42.395  25.303  35.867  1.00  0.00     0.200 A 
ATOM     50  F   UNL A   1      41.345  26.466  37.626  1.00  0.00    -0.200 F 
ATOM     51  F   UNL A   1      42.287  24.152  36.544  1.00  0.00    -0.200 F 
ENDBRANCH  27  41
BRANCH  28  52
ATOM     52  C   UNL A   1      43.219  25.375  26.163  1.00  0.00     0.064 A 
ATOM     53  C   UNL A   1      44.370  25.159  25.386  1.00  0.00     0.173 A 
ATOM     54  C   UNL A   1      42.365  24.270  26.335  1.00  0.00     0.173 A 
ATOM     55  F   UNL A   1      45.260  26.146  25.206  1.00  0.00    -0.203 F 
ATOM     56  C   UNL A   1      44.666  23.904  24.843  1.00  0.00     0.198 A 
ATOM     57  C   UNL A   1      42.657  23.020  25.786  1.00  0.00     0.198 A 
ATOM     58  F   UNL A   1      41.284  24.352  27.123  1.00  0.00    -0.203 F 
ATOM     59  F   UNL A   1      45.809  23.720  24.167  1.00  0.00    -0.200 F 
ATOM     60  C   UNL A   1      43.815  22.832  25.055  1.00  0.00     0.200 A 
ATOM     61  F   UNL A   1      41.844  21.982  26.029  1.00  0.00    -0.200 F 
ATOM     62  F   UNL A   1      44.130  21.614  24.593  1.00  0.00    -0.200 F 
ENDBRANCH  28  52
BRANCH  40  63
ATOM     63  C   UNL A   1      45.281  30.622  28.903  1.00  0.00     0.064 A 
ATOM     64  C   UNL A   1      44.357  31.314  28.099  1.00  0.00     0.173 A 
ATOM     65  C   UNL A   1      46.623  31.023  28.836  1.00  0.00     0.173 A 
ATOM     66  F   UNL A   1      43.044  31.063  28.180  1.00  0.00    -0.203 F 
ATOM     67  C   UNL A   1      44.772  32.326  27.234  1.00  0.00     0.198 A 
ATOM     68  C   UNL A   1      47.027  32.060  28.003  1.00  0.00     0.198 A 
ATOM     69  F   UNL A   1      47.539  30.433  29.620  1.00  0.00    -0.203 F 
ATOM     70  F   UNL A   1      43.876  32.961  26.464  1.00  0.00    -0.200 F 
ATOM     71  C   UNL A   1      46.104  32.703  27.194  1.00  0.00     0.200 A 
ATOM     72  F   UNL A   1      48.308  32.455  28.004  1.00  0.00    -0.200 F 
ATOM     73  F   UNL A   1      46.496  33.705  26.393  1.00  0.00    -0.200 F 
ENDBRANCH  40  63
ENDBRANCH  14  15
ENDBRANCH   7   9
ENDBRANCH   4   5
ENDBRANCH   3   4
ENDBRANCH   2   3
ENDBRANCH   1   2
BRANCH   1  74
ATOM     74  N   UNL A   1      36.080  32.224  33.201  1.00  0.00    -0.352 N 
ATOM     75  C   UNL A   1      37.294  32.759  33.565  1.00  0.00     0.251 C 
ATOM     76  H   UNL A   1      35.467  32.033  33.947  1.00  0.00     0.163 HD
ATOM     77  O   UNL A   1      37.588  32.863  34.744  1.00  0.00    -0.269 OA
BRANCH  75  78
ATOM     78  C   UNL A   1      38.252  33.200  32.527  1.00  0.00     0.039 A 
ATOM     79  C   UNL A   1      39.443  32.485  32.365  1.00  0.00     0.016 A 
ATOM     80  C   UNL A   1      38.010  34.349  31.770  1.00  0.00     0.016 A 
ATOM     81  C   UNL A   1      40.378  32.888  31.407  1.00  0.00     0.029 A 
ATOM     82  C   UNL A   1      38.949  34.766  30.826  1.00  0.00     0.029 A 
ATOM     83  C   UNL A   1      40.143  34.043  30.652  1.00  0.00     0.066 A 
BRANCH  83  84
ATOM     84  N   UNL A   1      41.148  34.527  29.781  1.00  0.00    -0.220 N 
ATOM     85  C   UNL A   1      40.980  35.373  28.717  1.00  0.00     0.141 A 
ATOM     86  N   UNL A   1      42.465  34.239  29.913  1.00  0.00    -0.062 NA
ATOM     87  C   UNL A   1      42.249  35.688  28.287  1.00  0.00     0.093 A 
ATOM     88  N   UNL A   1      43.140  34.926  28.992  1.00  0.00    -0.134 NA
BRANCH  87  89
ATOM     89  C   UNL A   1      42.642  36.521  27.132  1.00  0.00     0.138 C 
BRANCH  89  90
ATOM     90  S   UNL A   1      43.890  37.806  27.251  1.00  0.00    -0.081 SA
BRANCH  90  91
ATOM     91  C   UNL A   1      43.378  39.146  28.246  1.00  0.00     0.176 A 
ATOM     92  N   UNL A   1      43.801  39.025  29.471  1.00  0.00    -0.223 NA
ATOM     93  N   UNL A   1      42.635  40.245  27.833  1.00  0.00    -0.255 N 
ATOM     94  C   UNL A   1      43.408  39.978  30.415  1.00  0.00     0.079 A 
ATOM     95  C   UNL A   1      41.765  40.746  28.812  1.00  0.00     0.266 A 
ATOM     96  C   UNL A   1      44.069  40.096  31.638  1.00  0.00     0.029 A 
ATOM     97  C   UNL A   1      42.285  40.759  30.186  1.00  0.00     0.066 A 
ATOM     98  O   UNL A   1      40.621  41.160  28.624  1.00  0.00    -0.268 OA
ATOM     99  C   UNL A   1      43.566  40.943  32.634  1.00  0.00     0.002 A 
ATOM    100  C   UNL A   1      41.739  41.570  31.187  1.00  0.00     0.016 A 
ATOM    101  C   UNL A   1      42.382  41.653  32.420  1.00  0.00     0.001 A 
BRANCH  93 102
ATOM    102  C   UNL A   1      42.656  40.892  26.531  1.00  0.00     0.051 A 
ATOM    103  C   UNL A   1      43.773  41.660  26.138  1.00  0.00     0.027 A 
ATOM    104  C   UNL A   1      41.639  40.786  25.574  1.00  0.00     0.027 A 
ATOM    105  C   UNL A   1      43.781  42.438  24.976  1.00  0.00     0.002 A 
ATOM    106  C   UNL A   1      41.610  41.605  24.434  1.00  0.00     0.002 A 
ATOM    107  C   UNL A   1      42.669  42.458  24.153  1.00  0.00     0.000 A 
ENDBRANCH  93 102
ENDBRANCH  90  91
ENDBRANCH  89  90
ENDBRANCH  87  89
ENDBRANCH  83  84
ENDBRANCH  75  78
ENDBRANCH   1  74
TORSDOF 16
ENDMDL
MODEL 3
REMARK VINA RESULT:     -12.9      4.856     10.086
REMARK SMILES O=C(NCCCCNC(=O)c1ccc(-n2cc(CSc3nc4ccccc4c(=O)n3-c3ccccc3)nn2)cc1)c1ccc(-c2c3nc(c(-c4c(F)c(F)c(F)c(F)c4F)c4ccc([nH]4)c(-c4c(F)c(F)c(F)c(F)c4F)c4nc(c(-c5c(F)c(F)c(F)c(F)c5F)c5ccc2[nH]5)C=C4)C=C3)cc1
REMARK SMILES IDX 7 1 6 2 5 3 4 4 3 5 1 6 2 7 41 9 42 10 103 11 43 12 102 13
REMARK SMILES IDX 44 14 45 15 46 16 96 17 47 18 101 19 95 20 97 21 48 22
REMARK SMILES IDX 100 23 94 24 93 25 49 27 81 28 61 29 80 30 62 31 65 32 79 33
REMARK SMILES IDX 98 34 63 35 64 36 78 38 99 39 66 40 50 41 51 42 59 43 52 44
REMARK SMILES IDX 53 45 57 46 60 47 54 48 55 49 58 50 56 51 82 52 83 53 91 54
REMARK SMILES IDX 84 55 85 56 89 57 92 58 86 59 87 60 90 61 88 62 67 63 68 64
REMARK SMILES IDX 76 65 69 66 70 67 74 68 77 69 71 70 72 71 75 72 73 73 8 74
REMARK SMILES IDX 9 75 10 77 11 78 12 79 40 80 13 81 39 82 14 83 15 84 16 85
REMARK SMILES IDX 38 86 17 87 37 88 18 89 19 90 20 91 21 92 30 93 22 94 28 95
REMARK SMILES IDX 23 96 27 97 29 98 24 99 26 100 25 101 31 102 32 103 36 104
REMARK SMILES IDX 33 105 35 106 34 107
REMARK H PARENT 3 8 97 26 65 37 8 76
REMARK Flexibility Score: inf
ROOT
ATOM      1  C   UNL A   1      47.005  33.080  27.958  1.00  0.00     0.116 C 
ENDROOT
BRANCH   1   2
ATOM      2  C   UNL A   1      47.963  34.213  28.322  1.00  0.00     0.023 C 
BRANCH   2   3
ATOM      3  C   UNL A   1      47.487  35.172  29.418  1.00  0.00     0.023 C 
BRANCH   3   4
ATOM      4  C   UNL A   1      47.621  36.660  29.102  1.00  0.00     0.116 C 
BRANCH   4   5
ATOM      5  N   UNL A   1      46.740  37.148  28.062  1.00  0.00    -0.352 N 
ATOM      6  O   UNL A   1      44.991  37.888  26.936  1.00  0.00    -0.269 OA
ATOM      7  C   UNL A   1      45.384  37.224  27.900  1.00  0.00     0.251 C 
ATOM      8  H   UNL A   1      47.232  37.510  27.290  1.00  0.00     0.163 HD
BRANCH   7   9
ATOM      9  C   UNL A   1      44.370  36.529  28.740  1.00  0.00     0.039 A 
ATOM     10  C   UNL A   1      43.808  37.019  29.918  1.00  0.00     0.014 A 
ATOM     11  C   UNL A   1      43.967  35.256  28.286  1.00  0.00     0.014 A 
ATOM     12  C   UNL A   1      42.926  36.231  30.659  1.00  0.00     0.010 A 
ATOM     13  C   UNL A   1      43.081  34.469  29.016  1.00  0.00     0.010 A 
ATOM     14  C   UNL A   1      42.578  34.949  30.219  1.00  0.00    -0.014 A 
BRANCH  14  15
ATOM     15  C   UNL A   1      41.551  34.218  30.959  1.00  0.00     0.031 A 
ATOM     16  C   UNL A   1      41.959  33.781  32.325  1.00  0.00     0.074 A 
ATOM     17  C   UNL A   1      40.278  34.048  30.547  1.00  0.00     0.049 A 
ATOM     18  N   UNL A   1      42.054  32.574  32.780  1.00  0.00    -0.248 NA
ATOM     19  C   UNL A   1      42.394  34.814  33.277  1.00  0.00     0.031 C 
ATOM     20  C   UNL A   1      39.612  34.663  29.399  1.00  0.00     0.029 A 
ATOM     21  N   UNL A   1      39.273  33.340  31.145  1.00  0.00    -0.354 N 
ATOM     22  C   UNL A   1      42.417  32.691  34.121  1.00  0.00     0.074 A 
ATOM     23  C   UNL A   1      42.727  34.080  34.339  1.00  0.00     0.031 C 
ATOM     24  C   UNL A   1      38.276  34.467  29.500  1.00  0.00     0.029 A 
ATOM     25  C   UNL A   1      38.007  33.607  30.641  1.00  0.00     0.049 A 
ATOM     26  H   UNL A   1      39.434  32.695  31.870  1.00  0.00     0.167 HD
ATOM     27  C   UNL A   1      42.248  31.664  34.999  1.00  0.00     0.037 A 
ATOM     28  C   UNL A   1      36.822  33.195  31.159  1.00  0.00     0.037 A 
ATOM     29  C   UNL A   1      42.062  30.412  34.316  1.00  0.00     0.049 A 
ATOM     30  C   UNL A   1      37.090  32.037  32.043  1.00  0.00     0.074 A 
ATOM     31  C   UNL A   1      42.824  29.641  33.461  1.00  0.00     0.029 A 
ATOM     32  N   UNL A   1      40.787  29.915  34.227  1.00  0.00    -0.354 N 
ATOM     33  N   UNL A   1      37.451  30.859  31.622  1.00  0.00    -0.248 NA
ATOM     34  C   UNL A   1      37.325  32.295  33.455  1.00  0.00     0.031 C 
ATOM     35  C   UNL A   1      41.889  29.055  32.558  1.00  0.00     0.029 A 
ATOM     36  C   UNL A   1      40.614  29.467  32.946  1.00  0.00     0.049 A 
ATOM     37  H   UNL A   1      40.120  29.885  34.951  1.00  0.00     0.167 HD
ATOM     38  C   UNL A   1      38.348  30.411  32.575  1.00  0.00     0.074 A 
ATOM     39  C   UNL A   1      38.140  31.275  33.732  1.00  0.00     0.031 C 
ATOM     40  C   UNL A   1      39.364  29.568  32.233  1.00  0.00     0.037 A 
BRANCH  27  41
ATOM     41  C   UNL A   1      41.891  31.825  36.458  1.00  0.00     0.064 A 
ATOM     42  C   UNL A   1      40.734  32.554  36.807  1.00  0.00     0.173 A 
ATOM     43  C   UNL A   1      42.796  31.580  37.512  1.00  0.00     0.173 A 
ATOM     44  F   UNL A   1      39.812  32.858  35.880  1.00  0.00    -0.203 F 
ATOM     45  C   UNL A   1      40.548  33.077  38.089  1.00  0.00     0.198 A 
ATOM     46  C   UNL A   1      42.579  32.057  38.804  1.00  0.00     0.198 A 
ATOM     47  F   UNL A   1      43.972  30.975  37.312  1.00  0.00    -0.203 F 
ATOM     48  F   UNL A   1      39.504  33.881  38.335  1.00  0.00    -0.200 F 
ATOM     49  C   UNL A   1      41.476  32.835  39.084  1.00  0.00     0.200 A 
ATOM     50  F   UNL A   1      43.499  31.829  39.752  1.00  0.00    -0.200 F 
ATOM     51  F   UNL A   1      41.337  33.392  40.294  1.00  0.00    -0.200 F 
ENDBRANCH  27  41
BRANCH  28  52
ATOM     52  C   UNL A   1      35.503  33.875  31.154  1.00  0.00     0.064 A 
ATOM     53  C   UNL A   1      35.186  34.854  32.112  1.00  0.00     0.173 A 
ATOM     54  C   UNL A   1      34.649  33.794  30.039  1.00  0.00     0.173 A 
ATOM     55  F   UNL A   1      35.971  35.029  33.186  1.00  0.00    -0.203 F 
ATOM     56  C   UNL A   1      34.100  35.721  31.947  1.00  0.00     0.198 A 
ATOM     57  C   UNL A   1      33.561  34.654  29.878  1.00  0.00     0.198 A 
ATOM     58  F   UNL A   1      34.911  32.947  29.033  1.00  0.00    -0.203 F 
ATOM     59  F   UNL A   1      33.872  36.687  32.847  1.00  0.00    -0.200 F 
ATOM     60  C   UNL A   1      33.297  35.628  30.823  1.00  0.00     0.200 A 
ATOM     61  F   UNL A   1      32.813  34.578  28.769  1.00  0.00    -0.200 F 
ATOM     62  F   UNL A   1      32.298  36.500  30.629  1.00  0.00    -0.200 F 
ENDBRANCH  28  52
BRANCH  40  63
ATOM     63  C   UNL A   1      39.287  28.884  30.899  1.00  0.00     0.064 A 
ATOM     64  C   UNL A   1      39.704  29.462  29.687  1.00  0.00     0.173 A 
ATOM     65  C   UNL A   1      38.891  27.540  30.871  1.00  0.00     0.173 A 
ATOM     66  F   UNL A   1      40.194  30.709  29.646  1.00  0.00    -0.203 F 
ATOM     67  C   UNL A   1      39.675  28.738  28.496  1.00  0.00     0.198 A 
ATOM     68  C   UNL A   1      38.903  26.807  29.689  1.00  0.00     0.198 A 
ATOM     69  F   UNL A   1      38.534  26.921  32.008  1.00  0.00    -0.203 F 
ATOM     70  F   UNL A   1      40.061  29.315  27.348  1.00  0.00    -0.200 F 
ATOM     71  C   UNL A   1      39.283  27.409  28.501  1.00  0.00     0.200 A 
ATOM     72  F   UNL A   1      38.571  25.508  29.707  1.00  0.00    -0.200 F 
ATOM     73  F   UNL A   1      39.296  26.699  27.363  1.00  0.00    -0.200 F 
ENDBRANCH  40  63
ENDBRANCH  14  15
ENDBRANCH   7   9
ENDBRANCH   4   5
ENDBRANCH   3   4
ENDBRANCH   2   3
ENDBRANCH   1   2
BRANCH   1  74
ATOM     74  N   UNL A   1      46.241  33.353  26.754  1.00  0.00    -0.352 N 
ATOM     75  C   UNL A   1      45.363  32.548  26.065  1.00  0.00     0.251 C 
ATOM     76  H   UNL A   1      46.370  34.252  26.373  1.00  0.00     0.163 HD
ATOM     77  O   UNL A   1      44.894  32.921  25.004  1.00  0.00    -0.269 OA
BRANCH  75  78
ATOM     78  C   UNL A   1      44.994  31.221  26.606  1.00  0.00     0.039 A 
ATOM     79  C   UNL A   1      45.811  30.125  26.312  1.00  0.00     0.016 A 
ATOM     80  C   UNL A   1      43.815  31.047  27.336  1.00  0.00     0.016 A 
ATOM     81  C   UNL A   1      45.479  28.854  26.791  1.00  0.00     0.029 A 
ATOM     82  C   UNL A   1      43.470  29.778  27.798  1.00  0.00     0.029 A 
ATOM     83  C   UNL A   1      44.295  28.674  27.515  1.00  0.00     0.066 A 
BRANCH  83  84
ATOM     84  N   UNL A   1      43.890  27.369  27.882  1.00  0.00    -0.220 N 
ATOM     85  C   UNL A   1      44.491  26.189  27.530  1.00  0.00     0.141 A 
ATOM     86  N   UNL A   1      42.836  27.103  28.691  1.00  0.00    -0.062 NA
ATOM     87  C   UNL A   1      43.847  25.212  28.254  1.00  0.00     0.093 A 
ATOM     88  N   UNL A   1      42.791  25.789  28.905  1.00  0.00    -0.134 NA
BRANCH  87  89
ATOM     89  C   UNL A   1      44.063  23.751  28.211  1.00  0.00     0.138 C 
BRANCH  89  90
ATOM     90  S   UNL A   1      42.812  22.577  28.742  1.00  0.00    -0.081 SA
BRANCH  90  91
ATOM     91  C   UNL A   1      41.620  22.264  27.505  1.00  0.00     0.176 A 
ATOM     92  N   UNL A   1      40.621  23.096  27.580  1.00  0.00    -0.223 NA
ATOM     93  N   UNL A   1      41.687  21.286  26.521  1.00  0.00    -0.255 N 
ATOM     94  C   UNL A   1      39.541  22.928  26.709  1.00  0.00     0.079 A 
ATOM     95  C   UNL A   1      40.441  20.747  26.167  1.00  0.00     0.266 A 
ATOM     96  C   UNL A   1      38.608  23.947  26.512  1.00  0.00     0.029 A 
ATOM     97  C   UNL A   1      39.326  21.702  26.097  1.00  0.00     0.066 A 
ATOM     98  O   UNL A   1      40.205  19.565  25.922  1.00  0.00    -0.268 OA
ATOM     99  C   UNL A   1      37.449  23.709  25.762  1.00  0.00     0.002 A 
ATOM    100  C   UNL A   1      38.150  21.431  25.390  1.00  0.00     0.016 A 
ATOM    101  C   UNL A   1      37.204  22.441  25.231  1.00  0.00     0.001 A 
BRANCH  93 102
ATOM    102  C   UNL A   1      42.875  20.772  25.860  1.00  0.00     0.051 A 
ATOM    103  C   UNL A   1      43.091  19.380  25.771  1.00  0.00     0.027 A 
ATOM    104  C   UNL A   1      43.849  21.568  25.243  1.00  0.00     0.027 A 
ATOM    105  C   UNL A   1      44.289  18.833  25.299  1.00  0.00     0.002 A 
ATOM    106  C   UNL A   1      45.077  21.035  24.820  1.00  0.00     0.002 A 
ATOM    107  C   UNL A   1      45.310  19.668  24.880  1.00  0.00     0.000 A 
ENDBRANCH  93 102
ENDBRANCH  90  91
ENDBRANCH  89  90
ENDBRANCH  87  89
ENDBRANCH  83  84
ENDBRANCH  75  78
ENDBRANCH   1  74
TORSDOF 16
ENDMDL
