MODEL 1
REMARK VINA RESULT:     -10.8      0.000      0.000
REMARK SMILES COc1ccccc1C(=O)N/C(=C/c1ccc2c(c1)OCO2)C(=O)Nc1ccc(C(=O)NCCCCNC(=O)c2ccc(-c3c4nc(c(-c5c(F)c(F)c(F)c(F)c5F)c5ccc([nH]5)c(-c5c(F)c(F)c(F)c(F)c5F)c5nc(c(-c6c(F)c(F)c(F)c(F)c6F)c6ccc3[nH]6)C=C5)C=C4)cc2)cc1
REMARK SMILES IDX 33 1 32 2 30 3 31 4 29 6 26 7 27 8 104 9 28 10 103 11 25 12
REMARK SMILES IDX 23 13 24 14 12 16 13 17 11 18 9 19 10 20 8 22 3 23 4 24 5 25
REMARK SMILES IDX 7 26 6 27 2 28 1 29 14 30 15 31 19 32 16 33 18 34 17 35
REMARK SMILES IDX 20 36 22 37 21 38 34 39 35 40 36 41 37 42 38 43 39 45 40 46
REMARK SMILES IDX 41 47 102 48 42 49 101 50 43 51 44 52 45 53 95 54 46 55
REMARK SMILES IDX 100 56 94 57 96 58 47 59 99 60 93 61 92 62 48 64 80 65 60 66
REMARK SMILES IDX 79 67 61 68 64 69 78 70 97 71 62 72 63 73 77 75 98 76 65 77
REMARK SMILES IDX 49 78 50 79 58 80 51 81 52 82 56 83 59 84 53 85 54 86 57 87
REMARK SMILES IDX 55 88 81 89 82 90 90 91 83 92 84 93 88 94 91 95 85 96 86 97
REMARK SMILES IDX 89 98 87 99 66 100 67 101 75 102 68 103 69 104 73 105 76 106
REMARK SMILES IDX 70 107 71 108 74 109 72 110
REMARK H PARENT 32 5 25 15 11 21 37 44 96 63 64 74
REMARK Flexibility Score: inf
ROOT
ATOM      1  C   UNL A   1      38.298  34.406  30.230  1.00  0.00     0.116 C 
ENDROOT
BRANCH   1   2
ATOM      2  N   UNL A   1      37.383  34.888  31.245  1.00  0.00    -0.352 N 
ATOM      3  C   UNL A   1      37.204  34.454  32.531  1.00  0.00     0.251 C 
ATOM      4  O   UNL A   1      36.447  35.057  33.284  1.00  0.00    -0.269 OA
ATOM      5  H   UNL A   1      36.807  35.637  30.970  1.00  0.00     0.163 HD
BRANCH   3   6
ATOM      6  C   UNL A   1      37.976  33.319  33.050  1.00  0.00     0.039 A 
ATOM      7  C   UNL A   1      40.155  30.489  34.106  1.00  0.00     0.041 A 
ATOM      8  C   UNL A   1      40.642  32.136  34.532  1.00  0.00     0.027 A 
ATOM      9  C   UNL A   1      38.621  30.254  33.285  1.00  0.00     0.027 A 
ATOM     10  C   UNL A   1      39.507  33.694  33.920  1.00  0.00     0.016 A 
ATOM     11  C   UNL A   1      37.573  31.613  32.786  1.00  0.00     0.016 A 
BRANCH   7  12
ATOM     12  N   UNL A   1      41.259  29.691  33.756  1.00  0.00    -0.321 N 
ATOM     13  C   UNL A   1      41.456  28.439  34.328  1.00  0.00     0.272 C 
ATOM     14  O   UNL A   1      41.483  27.424  33.631  1.00  0.00    -0.267 OA
ATOM     15  H   UNL A   1      41.906  30.026  33.092  1.00  0.00     0.170 HD
BRANCH  13  16
ATOM     16  C   UNL A   1      41.866  28.344  35.817  1.00  0.00     0.108 C 
ATOM     17  C   UNL A   1      42.845  29.057  36.448  1.00  0.00     0.040 C 
BRANCH  16  18
ATOM     18  N   UNL A   1      41.147  27.478  36.636  1.00  0.00    -0.317 N 
ATOM     19  C   UNL A   1      41.256  26.161  37.025  1.00  0.00     0.259 C 
ATOM     20  O   UNL A   1      40.405  25.729  37.807  1.00  0.00    -0.269 OA
ATOM     21  H   UNL A   1      40.364  27.918  37.039  1.00  0.00     0.170 HD
BRANCH  19  22
ATOM     22  C   UNL A   1      42.280  25.211  36.556  1.00  0.00     0.082 A 
ATOM     23  C   UNL A   1      43.581  25.081  37.055  1.00  0.00     0.131 A 
ATOM     24  C   UNL A   1      44.468  24.205  36.409  1.00  0.00     0.047 A 
ATOM     25  C   UNL A   1      44.042  23.384  35.364  1.00  0.00     0.004 A 
ATOM     26  C   UNL A   1      41.841  24.338  35.541  1.00  0.00     0.018 A 
ATOM     27  C   UNL A   1      42.716  23.424  34.953  1.00  0.00     0.001 A 
BRANCH  23  28
ATOM     28  O   UNL A   1      44.170  25.751  38.093  1.00  0.00    -0.496 OA
ATOM     29  C   UNL A   1      45.381  26.443  37.827  1.00  0.00     0.278 C 
ENDBRANCH  23  28
ENDBRANCH  19  22
ENDBRANCH  16  18
BRANCH  17  30
ATOM     30  C   UNL A   1      43.883  29.877  35.786  1.00  0.00    -0.019 A 
ATOM     31  C   UNL A   1      44.377  31.201  36.897  1.00  0.00     0.012 A 
ATOM     32  C   UNL A   1      45.121  29.160  34.734  1.00  0.00     0.058 A 
ATOM     33  C   UNL A   1      46.339  31.694  36.992  1.00  0.00     0.051 A 
ATOM     34  C   UNL A   1      46.822  29.657  34.812  1.00  0.00     0.166 A 
ATOM     35  C   UNL A   1      47.450  30.855  35.878  1.00  0.00     0.165 A 
ATOM     36  O   UNL A   1      47.897  28.882  34.449  1.00  0.00    -0.454 OA
ATOM     37  O   UNL A   1      48.786  30.661  36.007  1.00  0.00    -0.454 OA
ATOM     38  C   UNL A   1      48.918  29.329  35.409  1.00  0.00     0.468 C 
ENDBRANCH  17  30
ENDBRANCH  13  16
ENDBRANCH   7  12
ENDBRANCH   3   6
ENDBRANCH   1   2
BRANCH   1  39
ATOM     39  C   UNL A   1      37.590  33.476  29.249  1.00  0.00     0.023 C 
BRANCH  39  40
ATOM     40  C   UNL A   1      36.071  33.615  29.221  1.00  0.00     0.023 C 
BRANCH  40  41
ATOM     41  C   UNL A   1      35.320  32.474  29.882  1.00  0.00     0.116 C 
BRANCH  41  42
ATOM     42  N   UNL A   1      34.367  31.817  28.999  1.00  0.00    -0.352 N 
ATOM     43  C   UNL A   1      34.587  30.688  28.244  1.00  0.00     0.251 C 
ATOM     44  H   UNL A   1      33.472  32.222  28.936  1.00  0.00     0.163 HD
ATOM     45  O   UNL A   1      33.743  30.249  27.474  1.00  0.00    -0.269 OA
BRANCH  43  46
ATOM     46  C   UNL A   1      35.906  30.047  28.368  1.00  0.00     0.039 A 
ATOM     47  C   UNL A   1      36.828  30.185  27.330  1.00  0.00     0.014 A 
ATOM     48  C   UNL A   1      36.269  29.480  29.593  1.00  0.00     0.014 A 
ATOM     49  C   UNL A   1      38.154  29.815  27.548  1.00  0.00     0.010 A 
ATOM     50  C   UNL A   1      37.603  29.187  29.830  1.00  0.00     0.010 A 
ATOM     51  C   UNL A   1      38.557  29.355  28.812  1.00  0.00    -0.014 A 
BRANCH  51  52
ATOM     52  C   UNL A   1      39.967  29.007  29.107  1.00  0.00     0.031 A 
ATOM     53  C   UNL A   1      40.837  30.025  29.784  1.00  0.00     0.074 A 
ATOM     54  C   UNL A   1      40.485  27.842  28.674  1.00  0.00     0.049 A 
ATOM     55  N   UNL A   1      42.131  30.019  29.973  1.00  0.00    -0.248 NA
ATOM     56  C   UNL A   1      40.160  31.236  30.279  1.00  0.00     0.031 C 
ATOM     57  C   UNL A   1      39.747  26.792  27.971  1.00  0.00     0.029 A 
ATOM     58  N   UNL A   1      41.767  27.357  28.741  1.00  0.00    -0.354 N 
ATOM     59  C   UNL A   1      42.425  31.236  30.572  1.00  0.00     0.074 A 
ATOM     60  C   UNL A   1      41.186  31.975  30.672  1.00  0.00     0.031 C 
ATOM     61  C   UNL A   1      40.585  25.782  27.682  1.00  0.00     0.029 A 
ATOM     62  C   UNL A   1      41.928  26.133  28.137  1.00  0.00     0.049 A 
ATOM     63  H   UNL A   1      42.504  27.841  29.180  1.00  0.00     0.167 HD
ATOM     64  C   UNL A   1      43.619  31.685  31.020  1.00  0.00     0.037 A 
ATOM     65  C   UNL A   1      43.037  25.391  27.959  1.00  0.00     0.037 A 
ATOM     66  C   UNL A   1      44.836  30.923  30.959  1.00  0.00     0.049 A 
ATOM     67  C   UNL A   1      44.355  25.910  28.472  1.00  0.00     0.074 A 
ATOM     68  C   UNL A   1      46.087  31.257  31.444  1.00  0.00     0.029 A 
ATOM     69  N   UNL A   1      44.948  29.667  30.380  1.00  0.00    -0.354 N 
ATOM     70  N   UNL A   1      44.615  27.038  29.086  1.00  0.00    -0.248 NA
ATOM     71  C   UNL A   1      45.532  25.054  28.267  1.00  0.00     0.031 C 
ATOM     72  C   UNL A   1      46.967  30.218  31.126  1.00  0.00     0.029 A 
ATOM     73  C   UNL A   1      46.253  29.217  30.484  1.00  0.00     0.049 A 
ATOM     74  H   UNL A   1      44.210  29.172  29.958  1.00  0.00     0.167 HD
ATOM     75  C   UNL A   1      45.973  27.014  29.372  1.00  0.00     0.074 A 
ATOM     76  C   UNL A   1      46.484  25.757  28.868  1.00  0.00     0.031 C 
ATOM     77  C   UNL A   1      46.730  27.948  29.998  1.00  0.00     0.037 A 
BRANCH  64  78
ATOM     78  C   UNL A   1      43.661  33.060  31.618  1.00  0.00     0.064 A 
ATOM     79  C   UNL A   1      43.683  34.212  30.817  1.00  0.00     0.173 A 
ATOM     80  C   UNL A   1      43.660  33.230  33.011  1.00  0.00     0.173 A 
ATOM     81  F   UNL A   1      43.701  34.102  29.480  1.00  0.00    -0.203 F 
ATOM     82  C   UNL A   1      43.736  35.480  31.386  1.00  0.00     0.198 A 
ATOM     83  C   UNL A   1      43.681  34.501  33.578  1.00  0.00     0.198 A 
ATOM     84  F   UNL A   1      43.637  32.162  33.823  1.00  0.00    -0.203 F 
ATOM     85  F   UNL A   1      43.814  36.562  30.600  1.00  0.00    -0.200 F 
ATOM     86  C   UNL A   1      43.728  35.624  32.766  1.00  0.00     0.200 A 
ATOM     87  F   UNL A   1      43.662  34.640  34.910  1.00  0.00    -0.200 F 
ATOM     88  F   UNL A   1      43.775  36.847  33.312  1.00  0.00    -0.200 F 
ENDBRANCH  64  78
BRANCH  65  89
ATOM     89  C   UNL A   1      42.952  24.071  27.280  1.00  0.00     0.064 A 
ATOM     90  C   UNL A   1      42.552  22.928  27.986  1.00  0.00     0.173 A 
ATOM     91  C   UNL A   1      43.270  23.921  25.922  1.00  0.00     0.173 A 
ATOM     92  F   UNL A   1      42.256  23.017  29.291  1.00  0.00    -0.203 F 
ATOM     93  C   UNL A   1      42.493  21.681  27.366  1.00  0.00     0.198 A 
ATOM     94  C   UNL A   1      43.184  22.678  25.297  1.00  0.00     0.198 A 
ATOM     95  F   UNL A   1      43.652  24.984  25.200  1.00  0.00    -0.203 F 
ATOM     96  F   UNL A   1      42.149  20.597  28.076  1.00  0.00    -0.200 F 
ATOM     97  C   UNL A   1      42.804  21.558  26.021  1.00  0.00     0.200 A 
ATOM     98  F   UNL A   1      43.472  22.565  23.993  1.00  0.00    -0.200 F 
ATOM     99  F   UNL A   1      42.743  20.360  25.424  1.00  0.00    -0.200 F 
ENDBRANCH  65  89
BRANCH  77 100
ATOM    100  C   UNL A   1      48.178  27.631  30.224  1.00  0.00     0.064 A 
ATOM    101  C   UNL A   1      48.610  26.937  31.363  1.00  0.00     0.173 A 
ATOM    102  C   UNL A   1      49.130  27.953  29.245  1.00  0.00     0.173 A 
ATOM    103  F   UNL A   1      47.738  26.621  32.332  1.00  0.00    -0.203 F 
ATOM    104  C   UNL A   1      49.947  26.584  31.517  1.00  0.00     0.198 A 
ATOM    105  C   UNL A   1      50.461  27.575  29.390  1.00  0.00     0.198 A 
ATOM    106  F   UNL A   1      48.762  28.610  28.135  1.00  0.00    -0.203 F 
ATOM    107  F   UNL A   1      50.346  25.944  32.625  1.00  0.00    -0.200 F 
ATOM    108  C   UNL A   1      50.869  26.893  30.526  1.00  0.00     0.200 A 
ATOM    109  F   UNL A   1      51.346  27.861  28.425  1.00  0.00    -0.200 F 
ATOM    110  F   UNL A   1      52.152  26.533  30.668  1.00  0.00    -0.200 F 
ENDBRANCH  77 100
ENDBRANCH  51  52
ENDBRANCH  43  46
ENDBRANCH  41  42
ENDBRANCH  40  41
ENDBRANCH  39  40
ENDBRANCH   1  39
TORSDOF 17
ENDMDL
MODEL 2
REMARK VINA RESULT:     -10.2      3.981     10.288
REMARK SMILES COc1ccccc1C(=O)N/C(=C/c1ccc2c(c1)OCO2)C(=O)Nc1ccc(C(=O)NCCCCNC(=O)c2ccc(-c3c4nc(c(-c5c(F)c(F)c(F)c(F)c5F)c5ccc([nH]5)c(-c5c(F)c(F)c(F)c(F)c5F)c5nc(c(-c6c(F)c(F)c(F)c(F)c6F)c6ccc3[nH]6)C=C5)C=C4)cc2)cc1
REMARK SMILES IDX 33 1 32 2 30 3 31 4 29 6 26 7 27 8 104 9 28 10 103 11 25 12
REMARK SMILES IDX 23 13 24 14 12 16 13 17 11 18 9 19 10 20 8 22 3 23 4 24 5 25
REMARK SMILES IDX 7 26 6 27 2 28 1 29 14 30 15 31 19 32 16 33 18 34 17 35
REMARK SMILES IDX 20 36 22 37 21 38 34 39 35 40 36 41 37 42 38 43 39 45 40 46
REMARK SMILES IDX 41 47 102 48 42 49 101 50 43 51 44 52 45 53 95 54 46 55
REMARK SMILES IDX 100 56 94 57 96 58 47 59 99 60 93 61 92 62 48 64 80 65 60 66
REMARK SMILES IDX 79 67 61 68 64 69 78 70 97 71 62 72 63 73 77 75 98 76 65 77
REMARK SMILES IDX 49 78 50 79 58 80 51 81 52 82 56 83 59 84 53 85 54 86 57 87
REMARK SMILES IDX 55 88 81 89 82 90 90 91 83 92 84 93 88 94 91 95 85 96 86 97
REMARK SMILES IDX 89 98 87 99 66 100 67 101 75 102 68 103 69 104 73 105 76 106
REMARK SMILES IDX 70 107 71 108 74 109 72 110
REMARK H PARENT 32 5 25 15 11 21 37 44 96 63 64 74
REMARK Flexibility Score: inf
ROOT
ATOM      1  C   UNL A   1      44.428  23.294  28.844  1.00  0.00     0.116 C 
ENDROOT
BRANCH   1   2
ATOM      2  N   UNL A   1      45.160  22.838  27.680  1.00  0.00    -0.352 N 
ATOM      3  C   UNL A   1      45.718  23.566  26.663  1.00  0.00     0.251 C 
ATOM      4  O   UNL A   1      46.395  23.008  25.806  1.00  0.00    -0.269 OA
ATOM      5  H   UNL A   1      45.272  21.862  27.609  1.00  0.00     0.163 HD
BRANCH   3   6
ATOM      6  C   UNL A   1      45.587  25.027  26.633  1.00  0.00     0.039 A 
ATOM      7  C   UNL A   1      45.157  28.718  26.885  1.00  0.00     0.041 A 
ATOM      8  C   UNL A   1      46.643  27.994  27.518  1.00  0.00     0.027 A 
ATOM      9  C   UNL A   1      43.992  27.677  26.084  1.00  0.00     0.027 A 
ATOM     10  C   UNL A   1      46.875  25.987  27.446  1.00  0.00     0.016 A 
ATOM     11  C   UNL A   1      44.203  25.907  25.957  1.00  0.00     0.016 A 
BRANCH   7  12
ATOM     12  N   UNL A   1      44.702  29.773  27.697  1.00  0.00    -0.321 N 
ATOM     13  C   UNL A   1      44.329  30.996  27.151  1.00  0.00     0.272 C 
ATOM     14  O   UNL A   1      43.182  31.424  27.287  1.00  0.00    -0.267 OA
ATOM     15  H   UNL A   1      44.648  29.644  28.672  1.00  0.00     0.170 HD
BRANCH  13  16
ATOM     16  C   UNL A   1      45.417  31.925  26.561  1.00  0.00     0.108 C 
ATOM     17  C   UNL A   1      46.678  32.125  27.045  1.00  0.00     0.040 C 
BRANCH  16  18
ATOM     18  N   UNL A   1      45.122  32.610  25.385  1.00  0.00    -0.317 N 
ATOM     19  C   UNL A   1      44.653  33.863  25.059  1.00  0.00     0.259 C 
ATOM     20  O   UNL A   1      44.528  34.126  23.860  1.00  0.00    -0.269 OA
ATOM     21  H   UNL A   1      45.291  32.060  24.587  1.00  0.00     0.170 HD
BRANCH  19  22
ATOM     22  C   UNL A   1      44.248  34.903  26.020  1.00  0.00     0.082 A 
ATOM     23  C   UNL A   1      45.102  35.658  26.833  1.00  0.00     0.131 A 
ATOM     24  C   UNL A   1      44.538  36.525  27.783  1.00  0.00     0.047 A 
ATOM     25  C   UNL A   1      43.159  36.732  27.846  1.00  0.00     0.004 A 
ATOM     26  C   UNL A   1      42.864  35.161  26.048  1.00  0.00     0.018 A 
ATOM     27  C   UNL A   1      42.322  36.077  26.952  1.00  0.00     0.001 A 
BRANCH  23  28
ATOM     28  O   UNL A   1      46.469  35.639  26.888  1.00  0.00    -0.496 OA
ATOM     29  C   UNL A   1      47.078  35.717  28.168  1.00  0.00     0.278 C 
ENDBRANCH  23  28
ENDBRANCH  19  22
ENDBRANCH  16  18
BRANCH  17  30
ATOM     30  C   UNL A   1      47.176  31.696  28.370  1.00  0.00    -0.019 A 
ATOM     31  C   UNL A   1      48.923  31.296  28.236  1.00  0.00     0.012 A 
ATOM     32  C   UNL A   1      46.599  32.437  29.878  1.00  0.00     0.058 A 
ATOM     33  C   UNL A   1      50.155  31.847  29.746  1.00  0.00     0.051 A 
ATOM     34  C   UNL A   1      47.704  32.857  31.200  1.00  0.00     0.166 A 
ATOM     35  C   UNL A   1      49.407  32.602  31.179  1.00  0.00     0.165 A 
ATOM     36  O   UNL A   1      47.486  33.833  32.142  1.00  0.00    -0.454 OA
ATOM     37  O   UNL A   1      49.979  33.425  32.093  1.00  0.00    -0.454 OA
ATOM     38  C   UNL A   1      48.854  34.319  32.383  1.00  0.00     0.468 C 
ENDBRANCH  17  30
ENDBRANCH  13  16
ENDBRANCH   7  12
ENDBRANCH   3   6
ENDBRANCH   1   2
BRANCH   1  39
ATOM     39  C   UNL A   1      42.922  23.228  28.607  1.00  0.00     0.023 C 
BRANCH  39  40
ATOM     40  C   UNL A   1      42.486  22.214  27.553  1.00  0.00     0.023 C 
BRANCH  40  41
ATOM     41  C   UNL A   1      42.012  22.824  26.247  1.00  0.00     0.116 C 
BRANCH  41  42
ATOM     42  N   UNL A   1      40.687  22.375  25.842  1.00  0.00    -0.352 N 
ATOM     43  C   UNL A   1      39.493  23.021  26.067  1.00  0.00     0.251 C 
ATOM     44  H   UNL A   1      40.641  21.520  25.356  1.00  0.00     0.163 HD
ATOM     45  O   UNL A   1      38.419  22.528  25.750  1.00  0.00    -0.269 OA
BRANCH  43  46
ATOM     46  C   UNL A   1      39.557  24.324  26.750  1.00  0.00     0.039 A 
ATOM     47  C   UNL A   1      39.120  24.418  28.072  1.00  0.00     0.014 A 
ATOM     48  C   UNL A   1      40.223  25.382  26.127  1.00  0.00     0.014 A 
ATOM     49  C   UNL A   1      39.420  25.566  28.804  1.00  0.00     0.010 A 
ATOM     50  C   UNL A   1      40.586  26.487  26.881  1.00  0.00     0.010 A 
ATOM     51  C   UNL A   1      40.191  26.587  28.226  1.00  0.00    -0.014 A 
BRANCH  51  52
ATOM     52  C   UNL A   1      40.585  27.797  28.985  1.00  0.00     0.031 A 
ATOM     53  C   UNL A   1      41.937  27.836  29.635  1.00  0.00     0.074 A 
ATOM     54  C   UNL A   1      39.702  28.795  29.180  1.00  0.00     0.049 A 
ATOM     55  N   UNL A   1      42.423  28.695  30.492  1.00  0.00    -0.248 NA
ATOM     56  C   UNL A   1      42.852  26.730  29.304  1.00  0.00     0.031 C 
ATOM     57  C   UNL A   1      38.347  28.851  28.631  1.00  0.00     0.029 A 
ATOM     58  N   UNL A   1      39.808  29.947  29.920  1.00  0.00    -0.354 N 
ATOM     59  C   UNL A   1      43.680  28.214  30.830  1.00  0.00     0.074 A 
ATOM     60  C   UNL A   1      43.864  26.965  30.125  1.00  0.00     0.031 C 
ATOM     61  C   UNL A   1      37.751  29.983  29.042  1.00  0.00     0.029 A 
ATOM     62  C   UNL A   1      38.664  30.709  29.921  1.00  0.00     0.049 A 
ATOM     63  H   UNL A   1      40.626  30.203  30.405  1.00  0.00     0.167 HD
ATOM     64  C   UNL A   1      44.607  28.777  31.638  1.00  0.00     0.037 A 
ATOM     65  C   UNL A   1      38.384  31.855  30.572  1.00  0.00     0.037 A 
ATOM     66  C   UNL A   1      44.433  30.042  32.297  1.00  0.00     0.049 A 
ATOM     67  C   UNL A   1      39.435  32.465  31.462  1.00  0.00     0.074 A 
ATOM     68  C   UNL A   1      45.334  30.735  33.084  1.00  0.00     0.029 A 
ATOM     69  N   UNL A   1      43.277  30.807  32.236  1.00  0.00    -0.354 N 
ATOM     70  N   UNL A   1      40.642  32.031  31.733  1.00  0.00    -0.248 NA
ATOM     71  C   UNL A   1      39.086  33.724  32.137  1.00  0.00     0.031 C 
ATOM     72  C   UNL A   1      44.710  31.903  33.532  1.00  0.00     0.029 A 
ATOM     73  C   UNL A   1      43.437  31.960  32.985  1.00  0.00     0.049 A 
ATOM     74  H   UNL A   1      42.465  30.564  31.737  1.00  0.00     0.167 HD
ATOM     75  C   UNL A   1      41.208  32.976  32.577  1.00  0.00     0.074 A 
ATOM     76  C   UNL A   1      40.214  34.011  32.773  1.00  0.00     0.031 C 
ATOM     77  C   UNL A   1      42.441  32.988  33.141  1.00  0.00     0.037 A 
BRANCH  64  78
ATOM     78  C   UNL A   1      45.891  28.028  31.846  1.00  0.00     0.064 A 
ATOM     79  C   UNL A   1      47.059  28.361  31.145  1.00  0.00     0.173 A 
ATOM     80  C   UNL A   1      45.958  26.978  32.773  1.00  0.00     0.173 A 
ATOM     81  F   UNL A   1      47.042  29.348  30.236  1.00  0.00    -0.203 F 
ATOM     82  C   UNL A   1      48.239  27.649  31.339  1.00  0.00     0.198 A 
ATOM     83  C   UNL A   1      47.148  26.288  32.989  1.00  0.00     0.198 A 
ATOM     84  F   UNL A   1      44.870  26.621  33.473  1.00  0.00    -0.203 F 
ATOM     85  F   UNL A   1      49.326  27.948  30.616  1.00  0.00    -0.200 F 
ATOM     86  C   UNL A   1      48.284  26.618  32.266  1.00  0.00     0.200 A 
ATOM     87  F   UNL A   1      47.194  25.300  33.892  1.00  0.00    -0.200 F 
ATOM     88  F   UNL A   1      49.422  25.936  32.454  1.00  0.00    -0.200 F 
ENDBRANCH  64  78
BRANCH  65  89
ATOM     89  C   UNL A   1      37.061  32.509  30.397  1.00  0.00     0.064 A 
ATOM     90  C   UNL A   1      36.812  33.333  29.290  1.00  0.00     0.173 A 
ATOM     91  C   UNL A   1      36.025  32.333  31.325  1.00  0.00     0.173 A 
ATOM     92  F   UNL A   1      37.778  33.548  28.385  1.00  0.00    -0.203 F 
ATOM     93  C   UNL A   1      35.584  33.972  29.128  1.00  0.00     0.198 A 
ATOM     94  C   UNL A   1      34.788  32.951  31.148  1.00  0.00     0.198 A 
ATOM     95  F   UNL A   1      36.210  31.551  32.398  1.00  0.00    -0.203 F 
ATOM     96  F   UNL A   1      35.388  34.788  28.084  1.00  0.00    -0.200 F 
ATOM     97  C   UNL A   1      34.571  33.777  30.055  1.00  0.00     0.200 A 
ATOM     98  F   UNL A   1      33.807  32.749  32.038  1.00  0.00    -0.200 F 
ATOM     99  F   UNL A   1      33.389  34.388  29.898  1.00  0.00    -0.200 F 
ENDBRANCH  65  89
BRANCH  77 100
ATOM    100  C   UNL A   1      42.811  34.176  33.977  1.00  0.00     0.064 A 
ATOM    101  C   UNL A   1      42.672  34.166  35.372  1.00  0.00     0.173 A 
ATOM    102  C   UNL A   1      43.392  35.304  33.379  1.00  0.00     0.173 A 
ATOM    103  F   UNL A   1      42.110  33.114  35.986  1.00  0.00    -0.203 F 
ATOM    104  C   UNL A   1      43.094  35.248  36.138  1.00  0.00     0.198 A 
ATOM    105  C   UNL A   1      43.837  36.374  34.150  1.00  0.00     0.198 A 
ATOM    106  F   UNL A   1      43.552  35.356  32.048  1.00  0.00    -0.203 F 
ATOM    107  F   UNL A   1      42.929  35.232  37.467  1.00  0.00    -0.200 F 
ATOM    108  C   UNL A   1      43.686  36.346  35.528  1.00  0.00     0.200 A 
ATOM    109  F   UNL A   1      44.422  37.426  33.560  1.00  0.00    -0.200 F 
ATOM    110  F   UNL A   1      44.110  37.378  36.270  1.00  0.00    -0.200 F 
ENDBRANCH  77 100
ENDBRANCH  51  52
ENDBRANCH  43  46
ENDBRANCH  41  42
ENDBRANCH  40  41
ENDBRANCH  39  40
ENDBRANCH   1  39
TORSDOF 17
ENDMDL
MODEL 3
REMARK VINA RESULT:     -10.0      0.540      6.866
REMARK SMILES COc1ccccc1C(=O)N/C(=C/c1ccc2c(c1)OCO2)C(=O)Nc1ccc(C(=O)NCCCCNC(=O)c2ccc(-c3c4nc(c(-c5c(F)c(F)c(F)c(F)c5F)c5ccc([nH]5)c(-c5c(F)c(F)c(F)c(F)c5F)c5nc(c(-c6c(F)c(F)c(F)c(F)c6F)c6ccc3[nH]6)C=C5)C=C4)cc2)cc1
REMARK SMILES IDX 33 1 32 2 30 3 31 4 29 6 26 7 27 8 104 9 28 10 103 11 25 12
REMARK SMILES IDX 23 13 24 14 12 16 13 17 11 18 9 19 10 20 8 22 3 23 4 24 5 25
REMARK SMILES IDX 7 26 6 27 2 28 1 29 14 30 15 31 19 32 16 33 18 34 17 35
REMARK SMILES IDX 20 36 22 37 21 38 34 39 35 40 36 41 37 42 38 43 39 45 40 46
REMARK SMILES IDX 41 47 102 48 42 49 101 50 43 51 44 52 45 53 95 54 46 55
REMARK SMILES IDX 100 56 94 57 96 58 47 59 99 60 93 61 92 62 48 64 80 65 60 66
REMARK SMILES IDX 79 67 61 68 64 69 78 70 97 71 62 72 63 73 77 75 98 76 65 77
REMARK SMILES IDX 49 78 50 79 58 80 51 81 52 82 56 83 59 84 53 85 54 86 57 87
REMARK SMILES IDX 55 88 81 89 82 90 90 91 83 92 84 93 88 94 91 95 85 96 86 97
REMARK SMILES IDX 89 98 87 99 66 100 67 101 75 102 68 103 69 104 73 105 76 106
REMARK SMILES IDX 70 107 71 108 74 109 72 110
REMARK H PARENT 32 5 25 15 11 21 37 44 96 63 64 74
REMARK Flexibility Score: inf
ROOT
ATOM      1  C   UNL A   1      38.318  34.331  30.263  1.00  0.00     0.116 C 
ENDROOT
BRANCH   1   2
ATOM      2  N   UNL A   1      37.367  34.769  31.265  1.00  0.00    -0.352 N 
ATOM      3  C   UNL A   1      37.187  34.323  32.547  1.00  0.00     0.251 C 
ATOM      4  O   UNL A   1      36.393  34.890  33.290  1.00  0.00    -0.269 OA
ATOM      5  H   UNL A   1      36.762  35.493  30.983  1.00  0.00     0.163 HD
BRANCH   3   6
ATOM      6  C   UNL A   1      38.001  33.222  33.076  1.00  0.00     0.039 A 
ATOM      7  C   UNL A   1      40.291  30.494  34.165  1.00  0.00     0.041 A 
ATOM      8  C   UNL A   1      40.668  32.156  34.641  1.00  0.00     0.027 A 
ATOM      9  C   UNL A   1      38.805  30.192  33.278  1.00  0.00     0.027 A 
ATOM     10  C   UNL A   1      39.473  33.662  34.013  1.00  0.00     0.016 A 
ATOM     11  C   UNL A   1      37.704  31.502  32.763  1.00  0.00     0.016 A 
BRANCH   7  12
ATOM     12  N   UNL A   1      41.450  29.765  33.844  1.00  0.00    -0.321 N 
ATOM     13  C   UNL A   1      41.655  28.480  34.334  1.00  0.00     0.272 C 
ATOM     14  O   UNL A   1      41.777  27.525  33.567  1.00  0.00    -0.267 OA
ATOM     15  H   UNL A   1      42.132  30.173  33.261  1.00  0.00     0.170 HD
BRANCH  13  16
ATOM     16  C   UNL A   1      41.954  28.284  35.840  1.00  0.00     0.108 C 
ATOM     17  C   UNL A   1      42.902  28.928  36.581  1.00  0.00     0.040 C 
BRANCH  16  18
ATOM     18  N   UNL A   1      41.155  27.392  36.551  1.00  0.00    -0.317 N 
ATOM     19  C   UNL A   1      41.230  26.064  36.911  1.00  0.00     0.259 C 
ATOM     20  O   UNL A   1      40.302  25.607  37.583  1.00  0.00    -0.269 OA
ATOM     21  H   UNL A   1      40.330  27.817  36.879  1.00  0.00     0.170 HD
BRANCH  19  22
ATOM     22  C   UNL A   1      42.304  25.132  36.528  1.00  0.00     0.082 A 
ATOM     23  C   UNL A   1      43.571  25.039  37.118  1.00  0.00     0.131 A 
ATOM     24  C   UNL A   1      44.519  24.175  36.547  1.00  0.00     0.047 A 
ATOM     25  C   UNL A   1      44.184  23.330  35.488  1.00  0.00     0.004 A 
ATOM     26  C   UNL A   1      41.956  24.235  35.500  1.00  0.00     0.018 A 
ATOM     27  C   UNL A   1      42.889  23.333  34.987  1.00  0.00     0.001 A 
BRANCH  23  28
ATOM     28  O   UNL A   1      44.071  25.737  38.183  1.00  0.00    -0.496 OA
ATOM     29  C   UNL A   1      45.324  26.385  38.015  1.00  0.00     0.278 C 
ENDBRANCH  23  28
ENDBRANCH  19  22
ENDBRANCH  16  18
BRANCH  17  30
ATOM     30  C   UNL A   1      44.005  29.756  36.047  1.00  0.00    -0.019 A 
ATOM     31  C   UNL A   1      44.398  31.045  37.236  1.00  0.00     0.012 A 
ATOM     32  C   UNL A   1      45.336  29.054  35.102  1.00  0.00     0.058 A 
ATOM     33  C   UNL A   1      46.344  31.517  37.537  1.00  0.00     0.051 A 
ATOM     34  C   UNL A   1      47.024  29.533  35.360  1.00  0.00     0.166 A 
ATOM     35  C   UNL A   1      47.553  30.697  36.514  1.00  0.00     0.165 A 
ATOM     36  O   UNL A   1      48.124  28.758  35.082  1.00  0.00    -0.454 OA
ATOM     37  O   UNL A   1      48.869  30.486  36.767  1.00  0.00    -0.454 OA
ATOM     38  C   UNL A   1      49.050  29.170  36.149  1.00  0.00     0.468 C 
ENDBRANCH  17  30
ENDBRANCH  13  16
ENDBRANCH   7  12
ENDBRANCH   3   6
ENDBRANCH   1   2
BRANCH   1  39
ATOM     39  C   UNL A   1      37.671  33.360  29.279  1.00  0.00     0.023 C 
BRANCH  39  40
ATOM     40  C   UNL A   1      36.146  33.400  29.254  1.00  0.00     0.023 C 
BRANCH  40  41
ATOM     41  C   UNL A   1      35.472  32.245  29.972  1.00  0.00     0.116 C 
BRANCH  41  42
ATOM     42  N   UNL A   1      34.547  31.498  29.132  1.00  0.00    -0.352 N 
ATOM     43  C   UNL A   1      34.840  30.399  28.358  1.00  0.00     0.251 C 
ATOM     44  H   UNL A   1      33.614  31.812  29.116  1.00  0.00     0.163 HD
ATOM     45  O   UNL A   1      34.007  29.880  27.627  1.00  0.00    -0.269 OA
BRANCH  43  46
ATOM     46  C   UNL A   1      36.221  29.893  28.412  1.00  0.00     0.039 A 
ATOM     47  C   UNL A   1      37.070  30.121  27.328  1.00  0.00     0.014 A 
ATOM     48  C   UNL A   1      36.701  29.366  29.614  1.00  0.00     0.014 A 
ATOM     49  C   UNL A   1      38.436  29.884  27.476  1.00  0.00     0.010 A 
ATOM     50  C   UNL A   1      38.068  29.208  29.781  1.00  0.00     0.010 A 
ATOM     51  C   UNL A   1      38.947  29.468  28.716  1.00  0.00    -0.014 A 
BRANCH  51  52
ATOM     52  C   UNL A   1      40.398  29.263  28.937  1.00  0.00     0.031 A 
ATOM     53  C   UNL A   1      41.023  27.974  28.489  1.00  0.00     0.074 A 
ATOM     54  C   UNL A   1      41.115  30.170  29.628  1.00  0.00     0.049 A 
ATOM     55  N   UNL A   1      42.215  27.498  28.738  1.00  0.00    -0.248 NA
ATOM     56  C   UNL A   1      40.172  27.082  27.684  1.00  0.00     0.031 C 
ATOM     57  C   UNL A   1      40.607  31.440  30.146  1.00  0.00     0.029 A 
ATOM     58  N   UNL A   1      42.426  30.146  30.034  1.00  0.00    -0.354 N 
ATOM     59  C   UNL A   1      42.242  26.240  28.154  1.00  0.00     0.074 A 
ATOM     60  C   UNL A   1      40.935  26.005  27.581  1.00  0.00     0.031 C 
ATOM     61  C   UNL A   1      41.597  32.080  30.792  1.00  0.00     0.029 A 
ATOM     62  C   UNL A   1      42.795  31.245  30.773  1.00  0.00     0.049 A 
ATOM     63  H   UNL A   1      43.045  29.411  29.817  1.00  0.00     0.167 HD
ATOM     64  C   UNL A   1      43.274  25.368  28.083  1.00  0.00     0.037 A 
ATOM     65  C   UNL A   1      43.964  31.533  31.378  1.00  0.00     0.037 A 
ATOM     66  C   UNL A   1      44.582  25.631  28.616  1.00  0.00     0.049 A 
ATOM     67  C   UNL A   1      45.100  30.548  31.279  1.00  0.00     0.074 A 
ATOM     68  C   UNL A   1      45.717  24.845  28.540  1.00  0.00     0.029 A 
ATOM     69  N   UNL A   1      44.930  26.776  29.318  1.00  0.00    -0.354 N 
ATOM     70  N   UNL A   1      45.134  29.384  30.678  1.00  0.00    -0.248 NA
ATOM     71  C   UNL A   1      46.359  30.918  31.942  1.00  0.00     0.031 C 
ATOM     72  C   UNL A   1      46.744  25.497  29.229  1.00  0.00     0.029 A 
ATOM     73  C   UNL A   1      46.260  26.711  29.693  1.00  0.00     0.049 A 
ATOM     74  H   UNL A   1      44.321  27.522  29.519  1.00  0.00     0.167 HD
ATOM     75  C   UNL A   1      46.421  28.898  30.859  1.00  0.00     0.074 A 
ATOM     76  C   UNL A   1      47.141  29.895  31.623  1.00  0.00     0.031 C 
ATOM     77  C   UNL A   1      46.961  27.730  30.431  1.00  0.00     0.037 A 
BRANCH  64  78
ATOM     78  C   UNL A   1      43.025  24.055  27.402  1.00  0.00     0.064 A 
ATOM     79  C   UNL A   1      43.288  23.872  26.036  1.00  0.00     0.173 A 
ATOM     80  C   UNL A   1      42.536  22.959  28.128  1.00  0.00     0.173 A 
ATOM     81  F   UNL A   1      43.742  24.894  25.295  1.00  0.00    -0.203 F 
ATOM     82  C   UNL A   1      43.040  22.652  25.415  1.00  0.00     0.198 A 
ATOM     83  C   UNL A   1      42.318  21.730  27.511  1.00  0.00     0.198 A 
ATOM     84  F   UNL A   1      42.270  23.078  29.438  1.00  0.00    -0.203 F 
ATOM     85  F   UNL A   1      43.245  22.520  24.097  1.00  0.00    -0.200 F 
ATOM     86  C   UNL A   1      42.561  21.580  26.154  1.00  0.00     0.200 A 
ATOM     87  F   UNL A   1      41.868  20.692  28.227  1.00  0.00    -0.200 F 
ATOM     88  F   UNL A   1      42.327  20.405  25.555  1.00  0.00    -0.200 F 
ENDBRANCH  64  78
BRANCH  65  89
ATOM     89  C   UNL A   1      44.127  32.813  32.115  1.00  0.00     0.064 A 
ATOM     90  C   UNL A   1      44.416  34.001  31.430  1.00  0.00     0.173 A 
ATOM     91  C   UNL A   1      44.005  32.878  33.510  1.00  0.00     0.173 A 
ATOM     92  F   UNL A   1      44.562  33.986  30.096  1.00  0.00    -0.203 F 
ATOM     93  C   UNL A   1      44.597  35.202  32.113  1.00  0.00     0.198 A 
ATOM     94  C   UNL A   1      44.160  34.085  34.190  1.00  0.00     0.198 A 
ATOM     95  F   UNL A   1      43.724  31.771  34.213  1.00  0.00    -0.203 F 
ATOM     96  F   UNL A   1      44.915  36.315  31.437  1.00  0.00    -0.200 F 
ATOM     97  C   UNL A   1      44.463  35.245  33.493  1.00  0.00     0.200 A 
ATOM     98  F   UNL A   1      44.016  34.125  35.522  1.00  0.00    -0.200 F 
ATOM     99  F   UNL A   1      44.634  36.400  34.149  1.00  0.00    -0.200 F 
ENDBRANCH  65  89
BRANCH  77 100
ATOM    100  C   UNL A   1      48.410  27.485  30.726  1.00  0.00     0.064 A 
ATOM    101  C   UNL A   1      49.422  27.929  29.863  1.00  0.00     0.173 A 
ATOM    102  C   UNL A   1      48.789  26.873  31.930  1.00  0.00     0.173 A 
ATOM    103  F   UNL A   1      49.107  28.507  28.695  1.00  0.00    -0.203 F 
ATOM    104  C   UNL A   1      50.764  27.761  30.193  1.00  0.00     0.198 A 
ATOM    105  C   UNL A   1      50.131  26.730  32.268  1.00  0.00     0.198 A 
ATOM    106  F   UNL A   1      47.856  26.439  32.790  1.00  0.00    -0.203 F 
ATOM    107  F   UNL A   1      51.717  28.168  29.344  1.00  0.00    -0.200 F 
ATOM    108  C   UNL A   1      51.117  27.173  31.399  1.00  0.00     0.200 A 
ATOM    109  F   UNL A   1      50.470  26.176  33.440  1.00  0.00    -0.200 F 
ATOM    110  F   UNL A   1      52.410  27.031  31.723  1.00  0.00    -0.200 F 
ENDBRANCH  77 100
ENDBRANCH  51  52
ENDBRANCH  43  46
ENDBRANCH  41  42
ENDBRANCH  40  41
ENDBRANCH  39  40
ENDBRANCH   1  39
TORSDOF 17
ENDMDL
