MODEL 1
REMARK VINA RESULT:     -11.8      0.000      0.000
REMARK SMILES COc1ncccc1Cn1ccc(C(=O)NCCCCNC(=O)c2ccc(-c3c4nc(c(-c5c(F)c(F)c(F)c(F)c5F)c5ccc([nH]5)c(-c5c(F)c(F)c(F)c(F)c5F)c5nc(c(-c6c(F)c(F)c(F)c(F)c6F)c6ccc3[nH]6)C=C5)C=C4)cc2)n1
REMARK SMILES IDX 18 1 17 2 16 3 14 4 15 5 13 7 10 8 11 9 87 10 12 11 9 12
REMARK SMILES IDX 8 13 3 14 4 15 5 16 7 17 6 18 2 19 1 20 19 21 20 22 21 23
REMARK SMILES IDX 22 24 23 26 24 27 25 28 86 29 26 30 85 31 27 32 28 33 29 34
REMARK SMILES IDX 79 35 30 36 84 37 78 38 80 39 31 40 83 41 77 42 76 43 32 45
REMARK SMILES IDX 64 46 44 47 63 48 45 49 48 50 62 51 81 52 46 53 47 54 61 56
REMARK SMILES IDX 82 57 49 58 33 59 34 60 42 61 35 62 36 63 40 64 43 65 37 66
REMARK SMILES IDX 38 67 41 68 39 69 65 70 66 71 74 72 67 73 68 74 72 75 75 76
REMARK SMILES IDX 69 77 70 78 73 79 71 80 50 81 51 82 59 83 52 84 53 85 57 86
REMARK SMILES IDX 60 87 54 88 55 89 58 90 56 91
REMARK H PARENT 16 6 21 25 80 44 48 55
REMARK Flexibility Score: inf
ROOT
ATOM      1  C   UNL A   1      35.192  34.741  34.562  1.00  0.00     0.023 C 
ENDROOT
BRANCH   1   2
ATOM      2  C   UNL A   1      34.846  35.656  33.387  1.00  0.00     0.116 C 
BRANCH   2   3
ATOM      3  N   UNL A   1      33.493  36.167  33.506  1.00  0.00    -0.351 N 
ATOM      4  C   UNL A   1      32.578  36.456  32.520  1.00  0.00     0.271 C 
ATOM      5  O   UNL A   1      31.455  36.828  32.867  1.00  0.00    -0.267 OA
ATOM      6  H   UNL A   1      33.185  36.329  34.427  1.00  0.00     0.163 HD
BRANCH   4   7
ATOM      7  C   UNL A   1      32.912  36.200  31.112  1.00  0.00     0.150 A 
ATOM      8  N   UNL A   1      33.117  35.242  29.218  1.00  0.00    -0.267 N 
ATOM      9  C   UNL A   1      33.311  36.570  28.962  1.00  0.00     0.110 A 
ATOM     10  N   UNL A   1      32.869  34.988  30.521  1.00  0.00    -0.167 NA
ATOM     11  C   UNL A   1      33.278  37.203  30.178  1.00  0.00     0.056 A 
BRANCH   8  12
ATOM     12  C   UNL A   1      32.990  34.182  28.222  1.00  0.00     0.185 C 
BRANCH  12  13
ATOM     13  C   UNL A   1      34.218  33.329  28.085  1.00  0.00     0.036 A 
ATOM     14  C   UNL A   1      34.143  31.987  27.726  1.00  0.00     0.218 A 
ATOM     15  N   UNL A   1      35.199  31.147  27.669  1.00  0.00    -0.222 NA
ATOM     16  C   UNL A   1      36.404  31.674  27.980  1.00  0.00     0.115 A 
ATOM     17  C   UNL A   1      35.488  33.839  28.376  1.00  0.00     0.013 A 
ATOM     18  C   UNL A   1      36.598  33.000  28.332  1.00  0.00     0.021 A 
BRANCH  14  19
ATOM     19  O   UNL A   1      32.902  31.428  27.533  1.00  0.00    -0.481 OA
ATOM     20  C   UNL A   1      33.038  30.037  27.251  1.00  0.00     0.280 C 
ENDBRANCH  14  19
ENDBRANCH  12  13
ENDBRANCH   8  12
ENDBRANCH   4   7
ENDBRANCH   2   3
ENDBRANCH   1   2
BRANCH   1  21
ATOM     21  C   UNL A   1      36.604  34.139  34.508  1.00  0.00     0.023 C 
BRANCH  21  22
ATOM     22  C   UNL A   1      36.650  32.693  34.033  1.00  0.00     0.116 C 
BRANCH  22  23
ATOM     23  N   UNL A   1      35.528  32.349  33.167  1.00  0.00    -0.352 N 
ATOM     24  C   UNL A   1      35.576  31.848  31.881  1.00  0.00     0.251 C 
ATOM     25  H   UNL A   1      34.630  32.488  33.545  1.00  0.00     0.163 HD
ATOM     26  O   UNL A   1      34.625  31.951  31.125  1.00  0.00    -0.269 OA
BRANCH  24  27
ATOM     27  C   UNL A   1      36.809  31.174  31.437  1.00  0.00     0.039 A 
ATOM     28  C   UNL A   1      38.006  31.880  31.310  1.00  0.00     0.014 A 
ATOM     29  C   UNL A   1      36.751  29.807  31.164  1.00  0.00     0.014 A 
ATOM     30  C   UNL A   1      39.164  31.182  30.979  1.00  0.00     0.010 A 
ATOM     31  C   UNL A   1      37.911  29.100  30.960  1.00  0.00     0.010 A 
ATOM     32  C   UNL A   1      39.112  29.785  30.826  1.00  0.00    -0.014 A 
BRANCH  32  33
ATOM     33  C   UNL A   1      40.344  29.020  30.658  1.00  0.00     0.031 A 
ATOM     34  C   UNL A   1      41.084  28.762  31.927  1.00  0.00     0.074 A 
ATOM     35  C   UNL A   1      40.692  28.417  29.501  1.00  0.00     0.049 A 
ATOM     36  N   UNL A   1      42.259  29.190  32.253  1.00  0.00    -0.248 NA
ATOM     37  C   UNL A   1      40.390  28.052  33.013  1.00  0.00     0.031 C 
ATOM     38  C   UNL A   1      39.924  28.306  28.257  1.00  0.00     0.029 A 
ATOM     39  N   UNL A   1      41.804  27.680  29.226  1.00  0.00    -0.354 N 
ATOM     40  C   UNL A   1      42.534  28.658  33.512  1.00  0.00     0.074 A 
ATOM     41  C   UNL A   1      41.295  28.104  33.992  1.00  0.00     0.031 C 
ATOM     42  C   UNL A   1      40.480  27.363  27.462  1.00  0.00     0.029 A 
ATOM     43  C   UNL A   1      41.730  26.931  28.058  1.00  0.00     0.049 A 
ATOM     44  H   UNL A   1      42.598  27.680  29.809  1.00  0.00     0.167 HD
ATOM     45  C   UNL A   1      43.819  28.528  33.947  1.00  0.00     0.037 A 
ATOM     46  C   UNL A   1      42.622  26.001  27.634  1.00  0.00     0.037 A 
ATOM     47  C   UNL A   1      44.706  29.361  33.174  1.00  0.00     0.049 A 
ATOM     48  C   UNL A   1      43.899  26.260  28.348  1.00  0.00     0.074 A 
ATOM     49  C   UNL A   1      44.798  30.720  32.938  1.00  0.00     0.029 A 
ATOM     50  N   UNL A   1      45.454  28.768  32.186  1.00  0.00    -0.354 N 
ATOM     51  N   UNL A   1      44.633  27.319  28.155  1.00  0.00    -0.248 NA
ATOM     52  C   UNL A   1      44.102  25.577  29.616  1.00  0.00     0.031 C 
ATOM     53  C   UNL A   1      45.142  30.829  31.557  1.00  0.00     0.029 A 
ATOM     54  C   UNL A   1      45.323  29.538  31.060  1.00  0.00     0.049 A 
ATOM     55  H   UNL A   1      45.983  27.942  32.271  1.00  0.00     0.167 HD
ATOM     56  C   UNL A   1      45.048  27.691  29.423  1.00  0.00     0.074 A 
ATOM     57  C   UNL A   1      44.753  26.540  30.275  1.00  0.00     0.031 C 
ATOM     58  C   UNL A   1      45.320  28.995  29.723  1.00  0.00     0.037 A 
BRANCH  45  59
ATOM     59  C   UNL A   1      44.335  27.380  34.789  1.00  0.00     0.064 A 
ATOM     60  C   UNL A   1      44.106  26.059  34.348  1.00  0.00     0.173 A 
ATOM     61  C   UNL A   1      44.743  27.504  36.134  1.00  0.00     0.173 A 
ATOM     62  F   UNL A   1      43.718  25.814  33.087  1.00  0.00    -0.203 F 
ATOM     63  C   UNL A   1      44.166  24.966  35.218  1.00  0.00     0.198 A 
ATOM     64  C   UNL A   1      44.851  26.404  36.986  1.00  0.00     0.198 A 
ATOM     65  F   UNL A   1      44.945  28.690  36.716  1.00  0.00    -0.203 F 
ATOM     66  F   UNL A   1      43.798  23.752  34.786  1.00  0.00    -0.200 F 
ATOM     67  C   UNL A   1      44.526  25.142  36.539  1.00  0.00     0.200 A 
ATOM     68  F   UNL A   1      45.189  26.598  38.268  1.00  0.00    -0.200 F 
ATOM     69  F   UNL A   1      44.511  24.110  37.393  1.00  0.00    -0.200 F 
ENDBRANCH  45  59
BRANCH  46  70
ATOM     70  C   UNL A   1      42.365  24.728  26.917  1.00  0.00     0.064 A 
ATOM     71  C   UNL A   1      43.011  24.432  25.705  1.00  0.00     0.173 A 
ATOM     72  C   UNL A   1      41.711  23.654  27.553  1.00  0.00     0.173 A 
ATOM     73  F   UNL A   1      43.695  25.386  25.057  1.00  0.00    -0.203 F 
ATOM     74  C   UNL A   1      43.029  23.136  25.177  1.00  0.00     0.198 A 
ATOM     75  C   UNL A   1      41.726  22.362  27.025  1.00  0.00     0.198 A 
ATOM     76  F   UNL A   1      41.130  23.816  28.751  1.00  0.00    -0.203 F 
ATOM     77  F   UNL A   1      43.712  22.880  24.053  1.00  0.00    -0.200 F 
ATOM     78  C   UNL A   1      42.397  22.100  25.844  1.00  0.00     0.200 A 
ATOM     79  F   UNL A   1      41.143  21.361  27.700  1.00  0.00    -0.200 F 
ATOM     80  F   UNL A   1      42.470  20.846  25.376  1.00  0.00    -0.200 F 
ENDBRANCH  46  70
BRANCH  58  81
ATOM     81  C   UNL A   1      45.405  29.982  28.591  1.00  0.00     0.064 A 
ATOM     82  C   UNL A   1      44.308  30.694  28.075  1.00  0.00     0.173 A 
ATOM     83  C   UNL A   1      46.677  30.330  28.116  1.00  0.00     0.173 A 
ATOM     84  F   UNL A   1      43.070  30.496  28.543  1.00  0.00    -0.203 F 
ATOM     85  C   UNL A   1      44.478  31.677  27.100  1.00  0.00     0.198 A 
ATOM     86  C   UNL A   1      46.847  31.337  27.172  1.00  0.00     0.198 A 
ATOM     87  F   UNL A   1      47.766  29.721  28.610  1.00  0.00    -0.203 F 
ATOM     88  F   UNL A   1      43.414  32.336  26.616  1.00  0.00    -0.200 F 
ATOM     89  C   UNL A   1      45.748  32.003  26.656  1.00  0.00     0.200 A 
ATOM     90  F   UNL A   1      48.083  31.683  26.784  1.00  0.00    -0.200 F 
ATOM     91  F   UNL A   1      45.916  32.978  25.751  1.00  0.00    -0.200 F 
ENDBRANCH  58  81
ENDBRANCH  32  33
ENDBRANCH  24  27
ENDBRANCH  22  23
ENDBRANCH  21  22
ENDBRANCH   1  21
TORSDOF 14
ENDMDL
MODEL 2
REMARK VINA RESULT:     -11.6      3.543      5.715
REMARK SMILES COc1ncccc1Cn1ccc(C(=O)NCCCCNC(=O)c2ccc(-c3c4nc(c(-c5c(F)c(F)c(F)c(F)c5F)c5ccc([nH]5)c(-c5c(F)c(F)c(F)c(F)c5F)c5nc(c(-c6c(F)c(F)c(F)c(F)c6F)c6ccc3[nH]6)C=C5)C=C4)cc2)n1
REMARK SMILES IDX 18 1 17 2 16 3 14 4 15 5 13 7 10 8 11 9 87 10 12 11 9 12
REMARK SMILES IDX 8 13 3 14 4 15 5 16 7 17 6 18 2 19 1 20 19 21 20 22 21 23
REMARK SMILES IDX 22 24 23 26 24 27 25 28 86 29 26 30 85 31 27 32 28 33 29 34
REMARK SMILES IDX 79 35 30 36 84 37 78 38 80 39 31 40 83 41 77 42 76 43 32 45
REMARK SMILES IDX 64 46 44 47 63 48 45 49 48 50 62 51 81 52 46 53 47 54 61 56
REMARK SMILES IDX 82 57 49 58 33 59 34 60 42 61 35 62 36 63 40 64 43 65 37 66
REMARK SMILES IDX 38 67 41 68 39 69 65 70 66 71 74 72 67 73 68 74 72 75 75 76
REMARK SMILES IDX 69 77 70 78 73 79 71 80 50 81 51 82 59 83 52 84 53 85 57 86
REMARK SMILES IDX 60 87 54 88 55 89 58 90 56 91
REMARK H PARENT 16 6 21 25 80 44 48 55
REMARK Flexibility Score: inf
ROOT
ATOM      1  C   UNL A   1      31.719  30.095  25.729  1.00  0.00     0.023 C 
ENDROOT
BRANCH   1   2
ATOM      2  C   UNL A   1      32.133  29.250  24.524  1.00  0.00     0.116 C 
BRANCH   2   3
ATOM      3  N   UNL A   1      31.265  29.501  23.389  1.00  0.00    -0.351 N 
ATOM      4  C   UNL A   1      30.637  28.606  22.553  1.00  0.00     0.271 C 
ATOM      5  O   UNL A   1      29.891  29.057  21.681  1.00  0.00    -0.267 OA
ATOM      6  H   UNL A   1      31.101  30.451  23.188  1.00  0.00     0.163 HD
BRANCH   4   7
ATOM      7  C   UNL A   1      30.768  27.163  22.793  1.00  0.00     0.150 A 
ATOM      8  N   UNL A   1      31.546  25.178  22.846  1.00  0.00    -0.267 N 
ATOM      9  C   UNL A   1      30.513  25.174  23.741  1.00  0.00     0.110 A 
ATOM     10  N   UNL A   1      31.726  26.379  22.255  1.00  0.00    -0.167 NA
ATOM     11  C   UNL A   1      29.932  26.414  23.660  1.00  0.00     0.056 A 
BRANCH   8  12
ATOM     12  C   UNL A   1      32.509  24.101  22.638  1.00  0.00     0.185 C 
BRANCH  12  13
ATOM     13  C   UNL A   1      33.372  23.821  23.834  1.00  0.00     0.036 A 
ATOM     14  C   UNL A   1      33.143  22.727  24.664  1.00  0.00     0.218 A 
ATOM     15  N   UNL A   1      33.828  22.469  25.800  1.00  0.00    -0.222 NA
ATOM     16  C   UNL A   1      34.804  23.344  26.126  1.00  0.00     0.115 A 
ATOM     17  C   UNL A   1      34.409  24.688  24.197  1.00  0.00     0.013 A 
ATOM     18  C   UNL A   1      35.131  24.454  25.364  1.00  0.00     0.021 A 
BRANCH  14  19
ATOM     19  O   UNL A   1      32.069  21.913  24.395  1.00  0.00    -0.481 OA
ATOM     20  C   UNL A   1      32.527  20.661  23.890  1.00  0.00     0.280 C 
ENDBRANCH  14  19
ENDBRANCH  12  13
ENDBRANCH   8  12
ENDBRANCH   4   7
ENDBRANCH   2   3
ENDBRANCH   1   2
BRANCH   1  21
ATOM     21  C   UNL A   1      32.200  29.555  27.084  1.00  0.00     0.023 C 
BRANCH  21  22
ATOM     22  C   UNL A   1      33.673  29.811  27.371  1.00  0.00     0.116 C 
BRANCH  22  23
ATOM     23  N   UNL A   1      34.063  31.195  27.127  1.00  0.00    -0.352 N 
ATOM     24  C   UNL A   1      35.160  31.866  27.633  1.00  0.00     0.251 C 
ATOM     25  H   UNL A   1      33.476  31.712  26.531  1.00  0.00     0.163 HD
ATOM     26  O   UNL A   1      35.191  33.083  27.681  1.00  0.00    -0.269 OA
BRANCH  24  27
ATOM     27  C   UNL A   1      36.306  31.072  28.111  1.00  0.00     0.039 A 
ATOM     28  C   UNL A   1      36.383  29.701  27.860  1.00  0.00     0.014 A 
ATOM     29  C   UNL A   1      37.320  31.732  28.806  1.00  0.00     0.014 A 
ATOM     30  C   UNL A   1      37.529  29.012  28.248  1.00  0.00     0.010 A 
ATOM     31  C   UNL A   1      38.499  31.080  29.078  1.00  0.00     0.010 A 
ATOM     32  C   UNL A   1      38.594  29.715  28.839  1.00  0.00    -0.014 A 
BRANCH  32  33
ATOM     33  C   UNL A   1      39.866  29.044  29.087  1.00  0.00     0.031 A 
ATOM     34  C   UNL A   1      40.179  28.832  30.530  1.00  0.00     0.074 A 
ATOM     35  C   UNL A   1      40.610  28.477  28.112  1.00  0.00     0.049 A 
ATOM     36  N   UNL A   1      41.152  29.344  31.207  1.00  0.00    -0.248 NA
ATOM     37  C   UNL A   1      39.227  28.065  31.349  1.00  0.00     0.031 C 
ATOM     38  C   UNL A   1      40.291  28.318  26.690  1.00  0.00     0.029 A 
ATOM     39  N   UNL A   1      41.802  27.827  28.219  1.00  0.00    -0.354 N 
ATOM     40  C   UNL A   1      41.048  28.825  32.497  1.00  0.00     0.074 A 
ATOM     41  C   UNL A   1      39.765  28.176  32.565  1.00  0.00     0.031 C 
ATOM     42  C   UNL A   1      41.139  27.425  26.130  1.00  0.00     0.029 A 
ATOM     43  C   UNL A   1      42.159  27.082  27.102  1.00  0.00     0.049 A 
ATOM     44  H   UNL A   1      42.365  27.881  29.025  1.00  0.00     0.167 HD
ATOM     45  C   UNL A   1      42.132  28.787  33.322  1.00  0.00     0.037 A 
ATOM     46  C   UNL A   1      43.206  26.225  27.001  1.00  0.00     0.037 A 
ATOM     47  C   UNL A   1      43.157  29.689  32.859  1.00  0.00     0.049 A 
ATOM     48  C   UNL A   1      44.164  26.572  28.081  1.00  0.00     0.074 A 
ATOM     49  C   UNL A   1      43.221  31.053  32.642  1.00  0.00     0.029 A 
ATOM     50  N   UNL A   1      44.223  29.160  32.172  1.00  0.00    -0.354 N 
ATOM     51  N   UNL A   1      44.843  27.684  28.115  1.00  0.00    -0.248 NA
ATOM     52  C   UNL A   1      44.001  25.897  29.359  1.00  0.00     0.031 C 
ATOM     53  C   UNL A   1      43.980  31.197  31.441  1.00  0.00     0.029 A 
ATOM     54  C   UNL A   1      44.404  29.927  31.050  1.00  0.00     0.049 A 
ATOM     55  H   UNL A   1      44.756  28.376  32.436  1.00  0.00     0.167 HD
ATOM     56  C   UNL A   1      44.802  28.076  29.443  1.00  0.00     0.074 A 
ATOM     57  C   UNL A   1      44.334  26.901  30.176  1.00  0.00     0.031 C 
ATOM     58  C   UNL A   1      44.868  29.395  29.792  1.00  0.00     0.037 A 
BRANCH  45  59
ATOM     59  C   UNL A   1      42.433  27.675  34.304  1.00  0.00     0.064 A 
ATOM     60  C   UNL A   1      43.030  26.488  33.823  1.00  0.00     0.173 A 
ATOM     61  C   UNL A   1      41.881  27.589  35.599  1.00  0.00     0.173 A 
ATOM     62  F   UNL A   1      43.592  26.448  32.606  1.00  0.00    -0.203 F 
ATOM     63  C   UNL A   1      42.969  25.287  34.536  1.00  0.00     0.198 A 
ATOM     64  C   UNL A   1      41.868  26.399  36.328  1.00  0.00     0.198 A 
ATOM     65  F   UNL A   1      41.234  28.609  36.172  1.00  0.00    -0.203 F 
ATOM     66  F   UNL A   1      43.420  24.158  33.973  1.00  0.00    -0.200 F 
ATOM     67  C   UNL A   1      42.377  25.242  35.782  1.00  0.00     0.200 A 
ATOM     68  F   UNL A   1      41.277  26.373  37.531  1.00  0.00    -0.200 F 
ATOM     69  F   UNL A   1      42.250  24.079  36.434  1.00  0.00    -0.200 F 
ENDBRANCH  45  59
BRANCH  46  70
ATOM     70  C   UNL A   1      43.284  24.941  26.261  1.00  0.00     0.064 A 
ATOM     71  C   UNL A   1      44.303  24.704  25.322  1.00  0.00     0.173 A 
ATOM     72  C   UNL A   1      42.544  23.816  26.675  1.00  0.00     0.173 A 
ATOM     73  F   UNL A   1      45.085  25.712  24.908  1.00  0.00    -0.203 F 
ATOM     74  C   UNL A   1      44.583  23.417  24.849  1.00  0.00     0.198 A 
ATOM     75  C   UNL A   1      42.822  22.533  26.200  1.00  0.00     0.198 A 
ATOM     76  F   UNL A   1      41.602  23.925  27.623  1.00  0.00    -0.203 F 
ATOM     77  F   UNL A   1      45.605  23.222  24.004  1.00  0.00    -0.200 F 
ATOM     78  C   UNL A   1      43.851  22.331  25.298  1.00  0.00     0.200 A 
ATOM     79  F   UNL A   1      42.131  21.486  26.672  1.00  0.00    -0.200 F 
ATOM     80  F   UNL A   1      44.161  21.090  24.898  1.00  0.00    -0.200 F 
ENDBRANCH  46  70
BRANCH  58  81
ATOM     81  C   UNL A   1      45.239  30.394  28.730  1.00  0.00     0.064 A 
ATOM     82  C   UNL A   1      44.319  31.005  27.859  1.00  0.00     0.173 A 
ATOM     83  C   UNL A   1      46.560  30.862  28.700  1.00  0.00     0.173 A 
ATOM     84  F   UNL A   1      43.020  30.689  27.891  1.00  0.00    -0.203 F 
ATOM     85  C   UNL A   1      44.718  32.007  26.974  1.00  0.00     0.198 A 
ATOM     86  C   UNL A   1      46.946  31.887  27.844  1.00  0.00     0.198 A 
ATOM     87  F   UNL A   1      47.470  30.353  29.546  1.00  0.00    -0.203 F 
ATOM     88  F   UNL A   1      43.823  32.567  26.146  1.00  0.00    -0.200 F 
ATOM     89  C   UNL A   1      46.029  32.452  26.973  1.00  0.00     0.200 A 
ATOM     90  F   UNL A   1      48.204  32.349  27.884  1.00  0.00    -0.200 F 
ATOM     91  F   UNL A   1      46.403  33.445  26.154  1.00  0.00    -0.200 F 
ENDBRANCH  58  81
ENDBRANCH  32  33
ENDBRANCH  24  27
ENDBRANCH  22  23
ENDBRANCH  21  22
ENDBRANCH   1  21
TORSDOF 14
ENDMDL
MODEL 3
REMARK VINA RESULT:     -11.5      4.526     10.340
REMARK SMILES COc1ncccc1Cn1ccc(C(=O)NCCCCNC(=O)c2ccc(-c3c4nc(c(-c5c(F)c(F)c(F)c(F)c5F)c5ccc([nH]5)c(-c5c(F)c(F)c(F)c(F)c5F)c5nc(c(-c6c(F)c(F)c(F)c(F)c6F)c6ccc3[nH]6)C=C5)C=C4)cc2)n1
REMARK SMILES IDX 18 1 17 2 16 3 14 4 15 5 13 7 10 8 11 9 87 10 12 11 9 12
REMARK SMILES IDX 8 13 3 14 4 15 5 16 7 17 6 18 2 19 1 20 19 21 20 22 21 23
REMARK SMILES IDX 22 24 23 26 24 27 25 28 86 29 26 30 85 31 27 32 28 33 29 34
REMARK SMILES IDX 79 35 30 36 84 37 78 38 80 39 31 40 83 41 77 42 76 43 32 45
REMARK SMILES IDX 64 46 44 47 63 48 45 49 48 50 62 51 81 52 46 53 47 54 61 56
REMARK SMILES IDX 82 57 49 58 33 59 34 60 42 61 35 62 36 63 40 64 43 65 37 66
REMARK SMILES IDX 38 67 41 68 39 69 65 70 66 71 74 72 67 73 68 74 72 75 75 76
REMARK SMILES IDX 69 77 70 78 73 79 71 80 50 81 51 82 59 83 52 84 53 85 57 86
REMARK SMILES IDX 60 87 54 88 55 89 58 90 56 91
REMARK H PARENT 16 6 21 25 80 44 48 55
REMARK Flexibility Score: inf
ROOT
ATOM      1  C   UNL A   1      37.819  22.981  25.736  1.00  0.00     0.023 C 
ENDROOT
BRANCH   1   2
ATOM      2  C   UNL A   1      36.776  22.937  24.621  1.00  0.00     0.116 C 
BRANCH   2   3
ATOM      3  N   UNL A   1      36.220  21.604  24.478  1.00  0.00    -0.351 N 
ATOM      4  C   UNL A   1      35.094  21.060  25.051  1.00  0.00     0.271 C 
ATOM      5  O   UNL A   1      34.783  19.911  24.733  1.00  0.00    -0.267 OA
ATOM      6  H   UNL A   1      36.724  21.001  23.884  1.00  0.00     0.163 HD
BRANCH   4   7
ATOM      7  C   UNL A   1      34.237  21.888  25.911  1.00  0.00     0.150 A 
ATOM      8  N   UNL A   1      32.703  23.213  26.574  1.00  0.00    -0.267 N 
ATOM      9  C   UNL A   1      33.144  22.593  27.708  1.00  0.00     0.110 A 
ATOM     10  N   UNL A   1      33.350  22.800  25.462  1.00  0.00    -0.167 NA
ATOM     11  C   UNL A   1      34.198  21.801  27.327  1.00  0.00     0.056 A 
BRANCH   8  12
ATOM     12  C   UNL A   1      31.542  24.092  26.469  1.00  0.00     0.185 C 
BRANCH  12  13
ATOM     13  C   UNL A   1      31.878  25.487  26.028  1.00  0.00     0.036 A 
ATOM     14  C   UNL A   1      30.945  26.300  25.390  1.00  0.00     0.218 A 
ATOM     15  N   UNL A   1      31.209  27.529  24.895  1.00  0.00    -0.222 NA
ATOM     16  C   UNL A   1      32.472  27.981  25.050  1.00  0.00     0.115 A 
ATOM     17  C   UNL A   1      33.168  26.006  26.188  1.00  0.00     0.013 A 
ATOM     18  C   UNL A   1      33.475  27.267  25.686  1.00  0.00     0.021 A 
BRANCH  14  19
ATOM     19  O   UNL A   1      29.699  25.785  25.124  1.00  0.00    -0.481 OA
ATOM     20  C   UNL A   1      29.118  26.472  24.019  1.00  0.00     0.280 C 
ENDBRANCH  14  19
ENDBRANCH  12  13
ENDBRANCH   8  12
ENDBRANCH   4   7
ENDBRANCH   2   3
ENDBRANCH   1   2
BRANCH   1  21
ATOM     21  C   UNL A   1      38.791  21.791  25.749  1.00  0.00     0.023 C 
BRANCH  21  22
ATOM     22  C   UNL A   1      39.954  21.945  26.720  1.00  0.00     0.116 C 
BRANCH  22  23
ATOM     23  N   UNL A   1      41.242  22.057  26.043  1.00  0.00    -0.352 N 
ATOM     24  C   UNL A   1      41.969  23.205  25.797  1.00  0.00     0.251 C 
ATOM     25  H   UNL A   1      41.640  21.215  25.726  1.00  0.00     0.163 HD
ATOM     26  O   UNL A   1      42.814  23.244  24.920  1.00  0.00    -0.269 OA
BRANCH  24  27
ATOM     27  C   UNL A   1      41.707  24.393  26.629  1.00  0.00     0.039 A 
ATOM     28  C   UNL A   1      42.324  24.546  27.873  1.00  0.00     0.014 A 
ATOM     29  C   UNL A   1      40.839  25.366  26.135  1.00  0.00     0.014 A 
ATOM     30  C   UNL A   1      42.119  25.727  28.581  1.00  0.00     0.010 A 
ATOM     31  C   UNL A   1      40.735  26.579  26.773  1.00  0.00     0.010 A 
ATOM     32  C   UNL A   1      41.338  26.750  28.013  1.00  0.00    -0.014 A 
BRANCH  32  33
ATOM     33  C   UNL A   1      41.261  28.057  28.658  1.00  0.00     0.031 A 
ATOM     34  C   UNL A   1      42.345  29.002  28.261  1.00  0.00     0.074 A 
ATOM     35  C   UNL A   1      40.202  28.463  29.391  1.00  0.00     0.049 A 
ATOM     36  N   UNL A   1      43.269  29.499  29.014  1.00  0.00    -0.248 NA
ATOM     37  C   UNL A   1      42.497  29.336  26.836  1.00  0.00     0.031 C 
ATOM     38  C   UNL A   1      38.924  27.780  29.612  1.00  0.00     0.029 A 
ATOM     39  N   UNL A   1      40.016  29.649  30.033  1.00  0.00    -0.354 N 
ATOM     40  C   UNL A   1      44.019  30.352  28.204  1.00  0.00     0.074 A 
ATOM     41  C   UNL A   1      43.599  30.090  26.852  1.00  0.00     0.031 C 
ATOM     42  C   UNL A   1      38.026  28.651  30.127  1.00  0.00     0.029 A 
ATOM     43  C   UNL A   1      38.707  29.895  30.430  1.00  0.00     0.049 A 
ATOM     44  H   UNL A   1      40.751  30.282  30.203  1.00  0.00     0.167 HD
ATOM     45  C   UNL A   1      44.759  31.357  28.749  1.00  0.00     0.037 A 
ATOM     46  C   UNL A   1      38.220  31.053  30.945  1.00  0.00     0.037 A 
ATOM     47  C   UNL A   1      44.980  31.124  30.155  1.00  0.00     0.049 A 
ATOM     48  C   UNL A   1      39.379  31.827  31.457  1.00  0.00     0.074 A 
ATOM     49  C   UNL A   1      45.586  30.120  30.886  1.00  0.00     0.029 A 
ATOM     50  N   UNL A   1      44.203  31.813  31.054  1.00  0.00    -0.354 N 
ATOM     51  N   UNL A   1      40.097  31.461  32.482  1.00  0.00    -0.248 NA
ATOM     52  C   UNL A   1      40.024  32.749  30.535  1.00  0.00     0.031 C 
ATOM     53  C   UNL A   1      44.750  29.945  32.029  1.00  0.00     0.029 A 
ATOM     54  C   UNL A   1      43.740  30.905  31.970  1.00  0.00     0.049 A 
ATOM     55  H   UNL A   1      44.015  32.779  31.043  1.00  0.00     0.167 HD
ATOM     56  C   UNL A   1      41.403  31.733  32.106  1.00  0.00     0.074 A 
ATOM     57  C   UNL A   1      41.292  32.593  30.929  1.00  0.00     0.031 C 
ATOM     58  C   UNL A   1      42.446  31.004  32.601  1.00  0.00     0.037 A 
BRANCH  45  59
ATOM     59  C   UNL A   1      44.951  32.725  28.127  1.00  0.00     0.064 A 
ATOM     60  C   UNL A   1      46.260  33.147  27.809  1.00  0.00     0.173 A 
ATOM     61  C   UNL A   1      43.974  33.743  28.132  1.00  0.00     0.173 A 
ATOM     62  F   UNL A   1      47.274  32.268  27.770  1.00  0.00    -0.203 F 
ATOM     63  C   UNL A   1      46.581  34.496  27.629  1.00  0.00     0.198 A 
ATOM     64  C   UNL A   1      44.290  35.082  27.902  1.00  0.00     0.198 A 
ATOM     65  F   UNL A   1      42.701  33.513  28.467  1.00  0.00    -0.203 F 
ATOM     66  F   UNL A   1      47.861  34.860  27.476  1.00  0.00    -0.200 F 
ATOM     67  C   UNL A   1      45.597  35.463  27.689  1.00  0.00     0.200 A 
ATOM     68  F   UNL A   1      43.323  36.006  27.977  1.00  0.00    -0.200 F 
ATOM     69  F   UNL A   1      45.911  36.761  27.592  1.00  0.00    -0.200 F 
ENDBRANCH  45  59
BRANCH  46  70
ATOM     70  C   UNL A   1      36.889  31.673  30.734  1.00  0.00     0.064 A 
ATOM     71  C   UNL A   1      35.993  31.854  31.801  1.00  0.00     0.173 A 
ATOM     72  C   UNL A   1      36.590  32.368  29.545  1.00  0.00     0.173 A 
ATOM     73  F   UNL A   1      36.228  31.265  32.983  1.00  0.00    -0.203 F 
ATOM     74  C   UNL A   1      34.885  32.702  31.697  1.00  0.00     0.198 A 
ATOM     75  C   UNL A   1      35.482  33.211  29.440  1.00  0.00     0.198 A 
ATOM     76  F   UNL A   1      37.423  32.322  28.495  1.00  0.00    -0.203 F 
ATOM     77  F   UNL A   1      34.090  32.899  32.758  1.00  0.00    -0.200 F 
ATOM     78  C   UNL A   1      34.637  33.389  30.520  1.00  0.00     0.200 A 
ATOM     79  F   UNL A   1      35.276  33.900  28.309  1.00  0.00    -0.200 F 
ATOM     80  F   UNL A   1      33.615  34.252  30.440  1.00  0.00    -0.200 F 
ENDBRANCH  46  70
BRANCH  58  81
ATOM     81  C   UNL A   1      42.179  30.070  33.749  1.00  0.00     0.064 A 
ATOM     82  C   UNL A   1      41.748  28.739  33.606  1.00  0.00     0.173 A 
ATOM     83  C   UNL A   1      42.523  30.498  35.039  1.00  0.00     0.173 A 
ATOM     84  F   UNL A   1      41.494  28.219  32.400  1.00  0.00    -0.203 F 
ATOM     85  C   UNL A   1      41.629  27.895  34.710  1.00  0.00     0.198 A 
ATOM     86  C   UNL A   1      42.440  29.642  36.132  1.00  0.00     0.198 A 
ATOM     87  F   UNL A   1      42.992  31.741  35.230  1.00  0.00    -0.203 F 
ATOM     88  F   UNL A   1      41.206  26.632  34.548  1.00  0.00    -0.200 F 
ATOM     89  C   UNL A   1      41.983  28.344  35.970  1.00  0.00     0.200 A 
ATOM     90  F   UNL A   1      42.833  30.067  37.341  1.00  0.00    -0.200 F 
ATOM     91  F   UNL A   1      41.911  27.521  37.025  1.00  0.00    -0.200 F 
ENDBRANCH  58  81
ENDBRANCH  32  33
ENDBRANCH  24  27
ENDBRANCH  22  23
ENDBRANCH  21  22
ENDBRANCH   1  21
TORSDOF 14
ENDMDL
