MODEL 1
REMARK VINA RESULT:     -12.1      0.000      0.000
REMARK SMILES O=C(CCNC(=O)c1cc(S(=O)(=O)N2CCCCC2)cs1)NCCCCNC(=O)c1ccc(-c2c3nc(c(-c4c(F)c(F)c(F)c(F)c4F)c4ccc([nH]4)c(-c4c(F)c(F)c(F)c(F)c4F)c4nc(c(-c5c(F)c(F)c(F)c(F)c5F)c5ccc2[nH]5)C=C4)C=C3)cc1
REMARK SMILES IDX 23 1 22 2 1 3 2 4 3 6 4 7 5 8 6 9 7 11 8 12 9 13 21 14 10 15
REMARK SMILES IDX 20 16 11 17 12 18 13 19 14 20 15 21 19 22 16 23 18 24 17 25
REMARK SMILES IDX 24 26 25 27 26 28 27 29 28 30 29 32 30 33 31 34 92 35 32 36
REMARK SMILES IDX 91 37 33 38 34 39 35 40 85 41 36 42 90 43 84 44 86 45 37 46
REMARK SMILES IDX 89 47 83 48 82 49 38 51 70 52 50 53 69 54 51 55 54 56 68 57
REMARK SMILES IDX 87 58 52 59 53 60 67 62 88 63 55 64 39 65 40 66 48 67 41 68
REMARK SMILES IDX 42 69 46 70 49 71 43 72 44 73 47 74 45 75 71 76 72 77 80 78
REMARK SMILES IDX 73 79 74 80 78 81 81 82 75 83 76 84 79 85 77 86 56 87 57 88
REMARK SMILES IDX 65 89 58 90 59 91 63 92 66 93 60 94 61 95 64 96 62 97
REMARK H PARENT 22 5 5 10 27 31 86 50 54 61
REMARK Flexibility Score: inf
ROOT
ATOM      1  C   UNL A   1      37.376  22.199  25.631  1.00  0.00     0.116 C 
ENDROOT
BRANCH   1   2
ATOM      2  N   UNL A   1      36.169  22.178  26.431  1.00  0.00    -0.356 N 
ATOM      3  O   UNL A   1      35.186  24.010  25.446  1.00  0.00    -0.275 OA
ATOM      4  C   UNL A   1      35.162  23.100  26.265  1.00  0.00     0.221 C 
ATOM      5  H   UNL A   1      36.066  21.479  27.117  1.00  0.00     0.163 HD
BRANCH   4   6
ATOM      6  C   UNL A   1      33.964  22.847  27.145  1.00  0.00     0.121 C 
BRANCH   6   7
ATOM      7  C   UNL A   1      32.977  21.947  26.415  1.00  0.00     0.126 C 
BRANCH   7   8
ATOM      8  N   UNL A   1      31.597  22.203  26.817  1.00  0.00    -0.351 N 
ATOM      9  C   UNL A   1      30.793  23.288  26.539  1.00  0.00     0.261 C 
ATOM     10  H   UNL A   1      31.179  21.500  27.366  1.00  0.00     0.163 HD
ATOM     11  O   UNL A   1      29.803  23.455  27.251  1.00  0.00    -0.268 OA
BRANCH   9  12
ATOM     12  C   UNL A   1      31.153  24.131  25.417  1.00  0.00     0.093 A 
ATOM     13  C   UNL A   1      31.652  25.418  25.453  1.00  0.00     0.047 A 
ATOM     14  S   UNL A   1      31.027  23.562  23.812  1.00  0.00    -0.137 S 
ATOM     15  C   UNL A   1      31.746  26.007  24.163  1.00  0.00     0.094 A 
ATOM     16  C   UNL A   1      31.465  25.093  23.169  1.00  0.00     0.087 A 
BRANCH  15  17
ATOM     17  S   UNL A   1      32.126  27.678  23.849  1.00  0.00     0.243 S 
ATOM     18  O   UNL A   1      33.374  27.605  23.122  1.00  0.00    -0.207 OA
ATOM     19  O   UNL A   1      30.908  28.174  23.247  1.00  0.00    -0.207 OA
BRANCH  17  20
ATOM     20  N   UNL A   1      32.383  28.523  25.318  1.00  0.00    -0.198 NA
ATOM     21  C   UNL A   1      33.725  28.333  25.925  1.00  0.00     0.102 C 
ATOM     22  C   UNL A   1      31.781  29.878  25.376  1.00  0.00     0.102 C 
ATOM     23  C   UNL A   1      33.874  29.047  27.261  1.00  0.00     0.017 C 
ATOM     24  C   UNL A   1      31.980  30.545  26.730  1.00  0.00     0.017 C 
ATOM     25  C   UNL A   1      33.438  30.500  27.162  1.00  0.00     0.003 C 
ENDBRANCH  17  20
ENDBRANCH  15  17
ENDBRANCH   9  12
ENDBRANCH   7   8
ENDBRANCH   6   7
ENDBRANCH   4   6
ENDBRANCH   1   2
BRANCH   1  26
ATOM     26  C   UNL A   1      37.396  21.076  24.599  1.00  0.00     0.023 C 
BRANCH  26  27
ATOM     27  C   UNL A   1      38.202  19.836  25.000  1.00  0.00     0.023 C 
BRANCH  27  28
ATOM     28  C   UNL A   1      39.257  20.059  26.081  1.00  0.00     0.116 C 
BRANCH  28  29
ATOM     29  N   UNL A   1      40.321  19.070  26.036  1.00  0.00    -0.352 N 
ATOM     30  C   UNL A   1      41.682  19.246  26.110  1.00  0.00     0.251 C 
ATOM     31  H   UNL A   1      40.023  18.136  25.938  1.00  0.00     0.163 HD
ATOM     32  O   UNL A   1      42.432  18.299  25.897  1.00  0.00    -0.269 OA
BRANCH  30  33
ATOM     33  C   UNL A   1      42.251  20.577  26.418  1.00  0.00     0.039 A 
ATOM     34  C   UNL A   1      42.737  21.359  25.366  1.00  0.00     0.014 A 
ATOM     35  C   UNL A   1      42.326  21.050  27.731  1.00  0.00     0.014 A 
ATOM     36  C   UNL A   1      43.235  22.639  25.620  1.00  0.00     0.010 A 
ATOM     37  C   UNL A   1      42.765  22.350  27.977  1.00  0.00     0.010 A 
ATOM     38  C   UNL A   1      43.221  23.159  26.925  1.00  0.00    -0.014 A 
BRANCH  38  39
ATOM     39  C   UNL A   1      43.668  24.547  27.205  1.00  0.00     0.031 A 
ATOM     40  C   UNL A   1      42.686  25.580  27.682  1.00  0.00     0.074 A 
ATOM     41  C   UNL A   1      44.947  24.897  26.961  1.00  0.00     0.049 A 
ATOM     42  N   UNL A   1      42.870  26.859  27.904  1.00  0.00    -0.248 NA
ATOM     43  C   UNL A   1      41.309  25.122  27.920  1.00  0.00     0.031 C 
ATOM     44  C   UNL A   1      45.987  24.000  26.456  1.00  0.00     0.029 A 
ATOM     45  N   UNL A   1      45.585  26.106  27.094  1.00  0.00    -0.354 N 
ATOM     46  C   UNL A   1      41.633  27.358  28.287  1.00  0.00     0.074 A 
ATOM     47  C   UNL A   1      40.696  26.256  28.229  1.00  0.00     0.031 C 
ATOM     48  C   UNL A   1      47.136  24.683  26.337  1.00  0.00     0.029 A 
ATOM     49  C   UNL A   1      46.907  26.072  26.722  1.00  0.00     0.049 A 
ATOM     50  H   UNL A   1      45.139  26.918  27.423  1.00  0.00     0.167 HD
ATOM     51  C   UNL A   1      41.311  28.618  28.666  1.00  0.00     0.037 A 
ATOM     52  C   UNL A   1      47.828  27.054  26.687  1.00  0.00     0.037 A 
ATOM     53  C   UNL A   1      42.248  29.707  28.754  1.00  0.00     0.049 A 
ATOM     54  C   UNL A   1      47.443  28.444  27.115  1.00  0.00     0.074 A 
ATOM     55  C   UNL A   1      42.031  30.999  29.199  1.00  0.00     0.029 A 
ATOM     56  N   UNL A   1      43.583  29.630  28.387  1.00  0.00    -0.354 N 
ATOM     57  N   UNL A   1      46.287  28.888  27.542  1.00  0.00    -0.248 NA
ATOM     58  C   UNL A   1      48.497  29.468  27.061  1.00  0.00     0.031 C 
ATOM     59  C   UNL A   1      43.225  31.716  29.063  1.00  0.00     0.029 A 
ATOM     60  C   UNL A   1      44.197  30.858  28.576  1.00  0.00     0.049 A 
ATOM     61  H   UNL A   1      44.030  28.822  28.044  1.00  0.00     0.167 HD
ATOM     62  C   UNL A   1      46.477  30.231  27.833  1.00  0.00     0.074 A 
ATOM     63  C   UNL A   1      47.865  30.529  27.547  1.00  0.00     0.031 C 
ATOM     64  C   UNL A   1      45.582  31.137  28.297  1.00  0.00     0.037 A 
BRANCH  51  65
ATOM     65  C   UNL A   1      39.879  28.891  29.023  1.00  0.00     0.064 A 
ATOM     66  C   UNL A   1      38.958  29.350  28.069  1.00  0.00     0.173 A 
ATOM     67  C   UNL A   1      39.412  28.649  30.324  1.00  0.00     0.173 A 
ATOM     68  F   UNL A   1      39.358  29.605  26.814  1.00  0.00    -0.203 F 
ATOM     69  C   UNL A   1      37.629  29.581  28.411  1.00  0.00     0.198 A 
ATOM     70  C   UNL A   1      38.075  28.856  30.655  1.00  0.00     0.198 A 
ATOM     71  F   UNL A   1      40.250  28.204  31.272  1.00  0.00    -0.203 F 
ATOM     72  F   UNL A   1      36.776  30.061  27.494  1.00  0.00    -0.200 F 
ATOM     73  C   UNL A   1      37.187  29.328  29.701  1.00  0.00     0.200 A 
ATOM     74  F   UNL A   1      37.648  28.600  31.899  1.00  0.00    -0.200 F 
ATOM     75  F   UNL A   1      35.905  29.545  30.026  1.00  0.00    -0.200 F 
ENDBRANCH  51  65
BRANCH  52  76
ATOM     76  C   UNL A   1      49.216  26.753  26.252  1.00  0.00     0.064 A 
ATOM     77  C   UNL A   1      49.601  26.923  24.915  1.00  0.00     0.173 A 
ATOM     78  C   UNL A   1      50.181  26.284  27.156  1.00  0.00     0.173 A 
ATOM     79  F   UNL A   1      48.706  27.347  24.011  1.00  0.00    -0.203 F 
ATOM     80  C   UNL A   1      50.893  26.619  24.495  1.00  0.00     0.198 A 
ATOM     81  C   UNL A   1      51.480  26.005  26.739  1.00  0.00     0.198 A 
ATOM     82  F   UNL A   1      49.862  26.107  28.447  1.00  0.00    -0.203 F 
ATOM     83  F   UNL A   1      51.223  26.750  23.202  1.00  0.00    -0.200 F 
ATOM     84  C   UNL A   1      51.833  26.166  25.407  1.00  0.00     0.200 A 
ATOM     85  F   UNL A   1      52.390  25.578  27.626  1.00  0.00    -0.200 F 
ATOM     86  F   UNL A   1      53.078  25.876  25.003  1.00  0.00    -0.200 F 
ENDBRANCH  52  76
BRANCH  64  87
ATOM     87  C   UNL A   1      46.083  32.526  28.561  1.00  0.00     0.064 A 
ATOM     88  C   UNL A   1      46.037  33.523  27.576  1.00  0.00     0.173 A 
ATOM     89  C   UNL A   1      46.580  32.872  29.826  1.00  0.00     0.173 A 
ATOM     90  F   UNL A   1      45.586  33.237  26.346  1.00  0.00    -0.203 F 
ATOM     91  C   UNL A   1      46.491  34.812  27.842  1.00  0.00     0.198 A 
ATOM     92  C   UNL A   1      47.008  34.169  30.097  1.00  0.00     0.198 A 
ATOM     93  F   UNL A   1      46.641  31.956  30.804  1.00  0.00    -0.203 F 
ATOM     94  F   UNL A   1      46.478  35.740  26.875  1.00  0.00    -0.200 F 
ATOM     95  C   UNL A   1      46.968  35.136  29.104  1.00  0.00     0.200 A 
ATOM     96  F   UNL A   1      47.459  34.483  31.319  1.00  0.00    -0.200 F 
ATOM     97  F   UNL A   1      47.399  36.380  29.360  1.00  0.00    -0.200 F 
ENDBRANCH  64  87
ENDBRANCH  38  39
ENDBRANCH  30  33
ENDBRANCH  28  29
ENDBRANCH  27  28
ENDBRANCH  26  27
ENDBRANCH   1  26
TORSDOF 16
ENDMDL
MODEL 2
REMARK VINA RESULT:     -12.0      6.284     11.032
REMARK SMILES O=C(CCNC(=O)c1cc(S(=O)(=O)N2CCCCC2)cs1)NCCCCNC(=O)c1ccc(-c2c3nc(c(-c4c(F)c(F)c(F)c(F)c4F)c4ccc([nH]4)c(-c4c(F)c(F)c(F)c(F)c4F)c4nc(c(-c5c(F)c(F)c(F)c(F)c5F)c5ccc2[nH]5)C=C4)C=C3)cc1
REMARK SMILES IDX 23 1 22 2 1 3 2 4 3 6 4 7 5 8 6 9 7 11 8 12 9 13 21 14 10 15
REMARK SMILES IDX 20 16 11 17 12 18 13 19 14 20 15 21 19 22 16 23 18 24 17 25
REMARK SMILES IDX 24 26 25 27 26 28 27 29 28 30 29 32 30 33 31 34 92 35 32 36
REMARK SMILES IDX 91 37 33 38 34 39 35 40 85 41 36 42 90 43 84 44 86 45 37 46
REMARK SMILES IDX 89 47 83 48 82 49 38 51 70 52 50 53 69 54 51 55 54 56 68 57
REMARK SMILES IDX 87 58 52 59 53 60 67 62 88 63 55 64 39 65 40 66 48 67 41 68
REMARK SMILES IDX 42 69 46 70 49 71 43 72 44 73 47 74 45 75 71 76 72 77 80 78
REMARK SMILES IDX 73 79 74 80 78 81 81 82 75 83 76 84 79 85 77 86 56 87 57 88
REMARK SMILES IDX 65 89 58 90 59 91 63 92 66 93 60 94 61 95 64 96 62 97
REMARK H PARENT 22 5 5 10 27 31 86 50 54 61
REMARK Flexibility Score: inf
ROOT
ATOM      1  C   UNL A   1      35.399  33.428  28.021  1.00  0.00     0.116 C 
ENDROOT
BRANCH   1   2
ATOM      2  N   UNL A   1      35.712  32.016  27.962  1.00  0.00    -0.356 N 
ATOM      3  O   UNL A   1      33.583  31.312  27.443  1.00  0.00    -0.275 OA
ATOM      4  C   UNL A   1      34.761  31.064  27.672  1.00  0.00     0.221 C 
ATOM      5  H   UNL A   1      36.636  31.726  28.135  1.00  0.00     0.163 HD
BRANCH   4   6
ATOM      6  C   UNL A   1      35.316  29.666  27.584  1.00  0.00     0.121 C 
BRANCH   6   7
ATOM      7  C   UNL A   1      34.350  28.783  26.807  1.00  0.00     0.126 C 
BRANCH   7   8
ATOM      8  N   UNL A   1      33.201  28.381  27.613  1.00  0.00    -0.351 N 
ATOM      9  C   UNL A   1      32.020  27.789  27.218  1.00  0.00     0.261 C 
ATOM     10  H   UNL A   1      33.280  28.557  28.579  1.00  0.00     0.163 HD
ATOM     11  O   UNL A   1      31.068  27.853  27.995  1.00  0.00    -0.268 OA
BRANCH   9  12
ATOM     12  C   UNL A   1      31.994  27.114  25.936  1.00  0.00     0.093 A 
ATOM     13  C   UNL A   1      32.584  25.911  25.604  1.00  0.00     0.047 A 
ATOM     14  S   UNL A   1      31.132  27.765  24.614  1.00  0.00    -0.137 S 
ATOM     15  C   UNL A   1      32.495  25.619  24.216  1.00  0.00     0.094 A 
ATOM     16  C   UNL A   1      31.699  26.534  23.558  1.00  0.00     0.087 A 
BRANCH  15  17
ATOM     17  S   UNL A   1      33.307  24.303  23.413  1.00  0.00     0.243 S 
ATOM     18  O   UNL A   1      32.230  23.396  23.086  1.00  0.00    -0.207 OA
ATOM     19  O   UNL A   1      34.083  24.981  22.398  1.00  0.00    -0.207 OA
BRANCH  17  20
ATOM     20  N   UNL A   1      34.391  23.521  24.486  1.00  0.00    -0.198 NA
ATOM     21  C   UNL A   1      33.812  22.385  25.247  1.00  0.00     0.102 C 
ATOM     22  C   UNL A   1      35.781  23.383  23.984  1.00  0.00     0.102 C 
ATOM     23  C   UNL A   1      34.796  21.773  26.234  1.00  0.00     0.017 C 
ATOM     24  C   UNL A   1      36.710  22.749  25.010  1.00  0.00     0.017 C 
ATOM     25  C   UNL A   1      36.125  21.460  25.566  1.00  0.00     0.003 C 
ENDBRANCH  17  20
ENDBRANCH  15  17
ENDBRANCH   9  12
ENDBRANCH   7   8
ENDBRANCH   6   7
ENDBRANCH   4   6
ENDBRANCH   1   2
BRANCH   1  26
ATOM     26  C   UNL A   1      34.629  33.790  29.287  1.00  0.00     0.023 C 
BRANCH  26  27
ATOM     27  C   UNL A   1      33.362  34.623  29.065  1.00  0.00     0.023 C 
BRANCH  27  28
ATOM     28  C   UNL A   1      33.398  36.038  29.637  1.00  0.00     0.116 C 
BRANCH  28  29
ATOM     29  N   UNL A   1      32.478  36.216  30.747  1.00  0.00    -0.352 N 
ATOM     30  C   UNL A   1      32.554  35.735  32.032  1.00  0.00     0.251 C 
ATOM     31  H   UNL A   1      31.682  36.762  30.549  1.00  0.00     0.163 HD
ATOM     32  O   UNL A   1      31.597  35.863  32.790  1.00  0.00    -0.269 OA
BRANCH  30  33
ATOM     33  C   UNL A   1      33.773  35.039  32.502  1.00  0.00     0.039 A 
ATOM     34  C   UNL A   1      33.660  33.720  32.951  1.00  0.00     0.014 A 
ATOM     35  C   UNL A   1      35.015  35.680  32.521  1.00  0.00     0.014 A 
ATOM     36  C   UNL A   1      34.801  33.021  33.355  1.00  0.00     0.010 A 
ATOM     37  C   UNL A   1      36.160  34.963  32.865  1.00  0.00     0.010 A 
ATOM     38  C   UNL A   1      36.066  33.627  33.282  1.00  0.00    -0.014 A 
BRANCH  38  39
ATOM     39  C   UNL A   1      37.300  32.875  33.627  1.00  0.00     0.031 A 
ATOM     40  C   UNL A   1      38.037  33.169  34.903  1.00  0.00     0.074 A 
ATOM     41  C   UNL A   1      37.796  31.974  32.756  1.00  0.00     0.049 A 
ATOM     42  N   UNL A   1      39.170  32.676  35.338  1.00  0.00    -0.248 NA
ATOM     43  C   UNL A   1      37.435  34.168  35.799  1.00  0.00     0.031 C 
ATOM     44  C   UNL A   1      37.200  31.629  31.465  1.00  0.00     0.029 A 
ATOM     45  N   UNL A   1      38.925  31.195  32.820  1.00  0.00    -0.354 N 
ATOM     46  C   UNL A   1      39.424  33.316  36.543  1.00  0.00     0.074 A 
ATOM     47  C   UNL A   1      38.349  34.263  36.753  1.00  0.00     0.031 C 
ATOM     48  C   UNL A   1      37.956  30.697  30.867  1.00  0.00     0.029 A 
ATOM     49  C   UNL A   1      39.110  30.404  31.712  1.00  0.00     0.049 A 
ATOM     50  H   UNL A   1      39.543  31.203  33.586  1.00  0.00     0.167 HD
ATOM     51  C   UNL A   1      40.452  33.121  37.404  1.00  0.00     0.037 A 
ATOM     52  C   UNL A   1      40.103  29.547  31.408  1.00  0.00     0.037 A 
ATOM     53  C   UNL A   1      41.504  32.157  37.211  1.00  0.00     0.049 A 
ATOM     54  C   UNL A   1      41.232  29.349  32.383  1.00  0.00     0.074 A 
ATOM     55  C   UNL A   1      42.547  31.836  38.062  1.00  0.00     0.029 A 
ATOM     56  N   UNL A   1      41.647  31.361  36.085  1.00  0.00    -0.354 N 
ATOM     57  N   UNL A   1      41.423  29.909  33.552  1.00  0.00    -0.248 NA
ATOM     58  C   UNL A   1      42.280  28.393  31.997  1.00  0.00     0.031 C 
ATOM     59  C   UNL A   1      43.344  30.874  37.433  1.00  0.00     0.029 A 
ATOM     60  C   UNL A   1      42.773  30.563  36.210  1.00  0.00     0.049 A 
ATOM     61  H   UNL A   1      41.039  31.361  35.311  1.00  0.00     0.167 HD
ATOM     62  C   UNL A   1      42.594  29.356  34.053  1.00  0.00     0.074 A 
ATOM     63  C   UNL A   1      43.064  28.406  33.066  1.00  0.00     0.031 C 
ATOM     64  C   UNL A   1      43.223  29.614  35.225  1.00  0.00     0.037 A 
BRANCH  51  65
ATOM     65  C   UNL A   1      40.489  33.966  38.643  1.00  0.00     0.064 A 
ATOM     66  C   UNL A   1      39.844  33.568  39.824  1.00  0.00     0.173 A 
ATOM     67  C   UNL A   1      41.214  35.167  38.663  1.00  0.00     0.173 A 
ATOM     68  F   UNL A   1      39.130  32.433  39.853  1.00  0.00    -0.203 F 
ATOM     69  C   UNL A   1      39.903  34.354  40.972  1.00  0.00     0.198 A 
ATOM     70  C   UNL A   1      41.294  35.937  39.822  1.00  0.00     0.198 A 
ATOM     71  F   UNL A   1      41.854  35.590  37.563  1.00  0.00    -0.203 F 
ATOM     72  F   UNL A   1      39.243  33.975  42.076  1.00  0.00    -0.200 F 
ATOM     73  C   UNL A   1      40.633  35.533  40.971  1.00  0.00     0.200 A 
ATOM     74  F   UNL A   1      42.008  37.070  39.823  1.00  0.00    -0.200 F 
ATOM     75  F   UNL A   1      40.693  36.285  42.079  1.00  0.00    -0.200 F 
ENDBRANCH  51  65
BRANCH  52  76
ATOM     76  C   UNL A   1      40.063  28.788  30.132  1.00  0.00     0.064 A 
ATOM     77  C   UNL A   1      39.456  27.526  30.068  1.00  0.00     0.173 A 
ATOM     78  C   UNL A   1      40.633  29.300  28.958  1.00  0.00     0.173 A 
ATOM     79  F   UNL A   1      38.918  26.986  31.172  1.00  0.00    -0.203 F 
ATOM     80  C   UNL A   1      39.436  26.797  28.882  1.00  0.00     0.198 A 
ATOM     81  C   UNL A   1      40.590  28.581  27.766  1.00  0.00     0.198 A 
ATOM     82  F   UNL A   1      41.222  30.505  28.967  1.00  0.00    -0.203 F 
ATOM     83  F   UNL A   1      38.888  25.574  28.858  1.00  0.00    -0.200 F 
ATOM     84  C   UNL A   1      39.998  27.326  27.731  1.00  0.00     0.200 A 
ATOM     85  F   UNL A   1      41.123  29.101  26.651  1.00  0.00    -0.200 F 
ATOM     86  F   UNL A   1      39.976  26.626  26.588  1.00  0.00    -0.200 F 
ENDBRANCH  52  76
BRANCH  64  87
ATOM     87  C   UNL A   1      44.466  28.831  35.525  1.00  0.00     0.064 A 
ATOM     88  C   UNL A   1      45.735  29.288  35.138  1.00  0.00     0.173 A 
ATOM     89  C   UNL A   1      44.391  27.627  36.241  1.00  0.00     0.173 A 
ATOM     90  F   UNL A   1      45.857  30.425  34.437  1.00  0.00    -0.203 F 
ATOM     91  C   UNL A   1      46.881  28.557  35.438  1.00  0.00     0.198 A 
ATOM     92  C   UNL A   1      45.542  26.912  36.563  1.00  0.00     0.198 A 
ATOM     93  F   UNL A   1      43.203  27.149  36.638  1.00  0.00    -0.203 F 
ATOM     94  F   UNL A   1      48.079  28.989  35.022  1.00  0.00    -0.200 F 
ATOM     95  C   UNL A   1      46.784  27.374  36.157  1.00  0.00     0.200 A 
ATOM     96  F   UNL A   1      45.447  25.775  37.267  1.00  0.00    -0.200 F 
ATOM     97  F   UNL A   1      47.890  26.675  36.451  1.00  0.00    -0.200 F 
ENDBRANCH  64  87
ENDBRANCH  38  39
ENDBRANCH  30  33
ENDBRANCH  28  29
ENDBRANCH  27  28
ENDBRANCH  26  27
ENDBRANCH   1  26
TORSDOF 16
ENDMDL
MODEL 3
REMARK VINA RESULT:     -11.9      0.302      2.010
REMARK SMILES O=C(CCNC(=O)c1cc(S(=O)(=O)N2CCCCC2)cs1)NCCCCNC(=O)c1ccc(-c2c3nc(c(-c4c(F)c(F)c(F)c(F)c4F)c4ccc([nH]4)c(-c4c(F)c(F)c(F)c(F)c4F)c4nc(c(-c5c(F)c(F)c(F)c(F)c5F)c5ccc2[nH]5)C=C4)C=C3)cc1
REMARK SMILES IDX 23 1 22 2 1 3 2 4 3 6 4 7 5 8 6 9 7 11 8 12 9 13 21 14 10 15
REMARK SMILES IDX 20 16 11 17 12 18 13 19 14 20 15 21 19 22 16 23 18 24 17 25
REMARK SMILES IDX 24 26 25 27 26 28 27 29 28 30 29 32 30 33 31 34 92 35 32 36
REMARK SMILES IDX 91 37 33 38 34 39 35 40 85 41 36 42 90 43 84 44 86 45 37 46
REMARK SMILES IDX 89 47 83 48 82 49 38 51 70 52 50 53 69 54 51 55 54 56 68 57
REMARK SMILES IDX 87 58 52 59 53 60 67 62 88 63 55 64 39 65 40 66 48 67 41 68
REMARK SMILES IDX 42 69 46 70 49 71 43 72 44 73 47 74 45 75 71 76 72 77 80 78
REMARK SMILES IDX 73 79 74 80 78 81 81 82 75 83 76 84 79 85 77 86 56 87 57 88
REMARK SMILES IDX 65 89 58 90 59 91 63 92 66 93 60 94 61 95 64 96 62 97
REMARK H PARENT 22 5 5 10 27 31 86 50 54 61
REMARK Flexibility Score: inf
ROOT
ATOM      1  C   UNL A   1      37.332  22.082  25.517  1.00  0.00     0.116 C 
ENDROOT
BRANCH   1   2
ATOM      2  N   UNL A   1      36.168  22.111  26.379  1.00  0.00    -0.356 N 
ATOM      3  O   UNL A   1      35.296  24.073  25.554  1.00  0.00    -0.275 OA
ATOM      4  C   UNL A   1      35.235  23.120  26.320  1.00  0.00     0.221 C 
ATOM      5  H   UNL A   1      36.041  21.383  27.029  1.00  0.00     0.163 HD
BRANCH   4   6
ATOM      6  C   UNL A   1      34.066  22.913  27.248  1.00  0.00     0.121 C 
BRANCH   6   7
ATOM      7  C   UNL A   1      33.024  22.036  26.566  1.00  0.00     0.126 C 
BRANCH   7   8
ATOM      8  N   UNL A   1      31.663  22.398  26.950  1.00  0.00    -0.351 N 
ATOM      9  C   UNL A   1      30.888  23.458  26.527  1.00  0.00     0.261 C 
ATOM     10  H   UNL A   1      31.235  21.801  27.606  1.00  0.00     0.163 HD
ATOM     11  O   UNL A   1      29.921  23.764  27.224  1.00  0.00    -0.268 OA
BRANCH   9  12
ATOM     12  C   UNL A   1      31.249  24.110  25.285  1.00  0.00     0.093 A 
ATOM     13  C   UNL A   1      31.818  25.356  25.120  1.00  0.00     0.047 A 
ATOM     14  S   UNL A   1      31.028  23.328  23.783  1.00  0.00    -0.137 S 
ATOM     15  C   UNL A   1      31.893  25.751  23.756  1.00  0.00     0.094 A 
ATOM     16  C   UNL A   1      31.523  24.724  22.913  1.00  0.00     0.087 A 
BRANCH  15  17
ATOM     17  S   UNL A   1      32.353  27.335  23.194  1.00  0.00     0.243 S 
ATOM     18  O   UNL A   1      33.594  27.092  22.493  1.00  0.00    -0.207 OA
ATOM     19  O   UNL A   1      31.158  27.790  22.517  1.00  0.00    -0.207 OA
BRANCH  17  20
ATOM     20  N   UNL A   1      32.652  28.380  24.519  1.00  0.00    -0.198 NA
ATOM     21  C   UNL A   1      31.447  29.036  25.086  1.00  0.00     0.102 C 
ATOM     22  C   UNL A   1      33.696  27.912  25.464  1.00  0.00     0.102 C 
ATOM     23  C   UNL A   1      31.778  30.005  26.212  1.00  0.00     0.017 C 
ATOM     24  C   UNL A   1      33.968  28.917  26.575  1.00  0.00     0.017 C 
ATOM     25  C   UNL A   1      32.678  29.358  27.251  1.00  0.00     0.003 C 
ENDBRANCH  17  20
ENDBRANCH  15  17
ENDBRANCH   9  12
ENDBRANCH   7   8
ENDBRANCH   6   7
ENDBRANCH   4   6
ENDBRANCH   1   2
BRANCH   1  26
ATOM     26  C   UNL A   1      37.311  20.887  24.570  1.00  0.00     0.023 C 
BRANCH  26  27
ATOM     27  C   UNL A   1      38.176  19.698  25.001  1.00  0.00     0.023 C 
BRANCH  27  28
ATOM     28  C   UNL A   1      39.273  20.016  26.013  1.00  0.00     0.116 C 
BRANCH  28  29
ATOM     29  N   UNL A   1      40.337  19.026  26.013  1.00  0.00    -0.352 N 
ATOM     30  C   UNL A   1      41.695  19.201  26.125  1.00  0.00     0.251 C 
ATOM     31  H   UNL A   1      40.041  18.091  25.921  1.00  0.00     0.163 HD
ATOM     32  O   UNL A   1      42.450  18.250  25.948  1.00  0.00    -0.269 OA
BRANCH  30  33
ATOM     33  C   UNL A   1      42.256  20.537  26.431  1.00  0.00     0.039 A 
ATOM     34  C   UNL A   1      42.711  21.331  25.373  1.00  0.00     0.014 A 
ATOM     35  C   UNL A   1      42.356  21.001  27.745  1.00  0.00     0.014 A 
ATOM     36  C   UNL A   1      43.201  22.615  25.626  1.00  0.00     0.010 A 
ATOM     37  C   UNL A   1      42.786  22.304  27.991  1.00  0.00     0.010 A 
ATOM     38  C   UNL A   1      43.210  23.125  26.934  1.00  0.00    -0.014 A 
BRANCH  38  39
ATOM     39  C   UNL A   1      43.649  24.516  27.214  1.00  0.00     0.031 A 
ATOM     40  C   UNL A   1      42.663  25.539  27.707  1.00  0.00     0.074 A 
ATOM     41  C   UNL A   1      44.922  24.877  26.958  1.00  0.00     0.049 A 
ATOM     42  N   UNL A   1      42.839  26.818  27.932  1.00  0.00    -0.248 NA
ATOM     43  C   UNL A   1      41.293  25.068  27.958  1.00  0.00     0.031 C 
ATOM     44  C   UNL A   1      45.963  23.992  26.438  1.00  0.00     0.029 A 
ATOM     45  N   UNL A   1      45.551  26.091  27.088  1.00  0.00    -0.354 N 
ATOM     46  C   UNL A   1      41.602  27.305  28.330  1.00  0.00     0.074 A 
ATOM     47  C   UNL A   1      40.674  26.195  28.279  1.00  0.00     0.031 C 
ATOM     48  C   UNL A   1      47.105  24.684  26.309  1.00  0.00     0.029 A 
ATOM     49  C   UNL A   1      46.869  26.070  26.702  1.00  0.00     0.049 A 
ATOM     50  H   UNL A   1      45.101  26.898  27.426  1.00  0.00     0.167 HD
ATOM     51  C   UNL A   1      41.273  28.561  28.718  1.00  0.00     0.037 A 
ATOM     52  C   UNL A   1      47.781  27.060  26.660  1.00  0.00     0.037 A 
ATOM     53  C   UNL A   1      42.203  29.657  28.800  1.00  0.00     0.049 A 
ATOM     54  C   UNL A   1      47.389  28.445  27.098  1.00  0.00     0.074 A 
ATOM     55  C   UNL A   1      41.979  30.946  29.251  1.00  0.00     0.029 A 
ATOM     56  N   UNL A   1      43.534  29.593  28.417  1.00  0.00    -0.354 N 
ATOM     57  N   UNL A   1      46.234  28.877  27.539  1.00  0.00    -0.248 NA
ATOM     58  C   UNL A   1      48.433  29.478  27.036  1.00  0.00     0.031 C 
ATOM     59  C   UNL A   1      43.166  31.673  29.105  1.00  0.00     0.029 A 
ATOM     60  C   UNL A   1      44.139  30.826  28.604  1.00  0.00     0.049 A 
ATOM     61  H   UNL A   1      43.983  28.791  28.066  1.00  0.00     0.167 HD
ATOM     62  C   UNL A   1      46.416  30.221  27.834  1.00  0.00     0.074 A 
ATOM     63  C   UNL A   1      47.798  30.532  27.533  1.00  0.00     0.031 C 
ATOM     64  C   UNL A   1      45.519  31.118  28.310  1.00  0.00     0.037 A 
BRANCH  51  65
ATOM     65  C   UNL A   1      39.844  28.820  29.091  1.00  0.00     0.064 A 
ATOM     66  C   UNL A   1      39.378  28.623  30.400  1.00  0.00     0.173 A 
ATOM     67  C   UNL A   1      38.938  29.312  28.139  1.00  0.00     0.173 A 
ATOM     68  F   UNL A   1      40.202  28.144  31.344  1.00  0.00    -0.203 F 
ATOM     69  C   UNL A   1      38.052  28.885  30.736  1.00  0.00     0.198 A 
ATOM     70  C   UNL A   1      37.619  29.600  28.486  1.00  0.00     0.198 A 
ATOM     71  F   UNL A   1      39.333  29.523  26.875  1.00  0.00    -0.203 F 
ATOM     72  F   UNL A   1      37.619  28.649  31.983  1.00  0.00    -0.200 F 
ATOM     73  C   UNL A   1      37.177  29.379  29.781  1.00  0.00     0.200 A 
ATOM     74  F   UNL A   1      36.778  30.087  27.564  1.00  0.00    -0.200 F 
ATOM     75  F   UNL A   1      35.903  29.638  30.108  1.00  0.00    -0.200 F 
ENDBRANCH  51  65
BRANCH  52  76
ATOM     76  C   UNL A   1      49.167  26.772  26.209  1.00  0.00     0.064 A 
ATOM     77  C   UNL A   1      50.128  26.293  27.109  1.00  0.00     0.173 A 
ATOM     78  C   UNL A   1      49.561  26.976  24.878  1.00  0.00     0.173 A 
ATOM     79  F   UNL A   1      49.803  26.104  28.397  1.00  0.00    -0.203 F 
ATOM     80  C   UNL A   1      51.436  26.044  26.701  1.00  0.00     0.198 A 
ATOM     81  C   UNL A   1      50.863  26.703  24.466  1.00  0.00     0.198 A 
ATOM     82  F   UNL A   1      48.677  27.431  23.978  1.00  0.00    -0.203 F 
ATOM     83  F   UNL A   1      52.346  25.627  27.591  1.00  0.00    -0.200 F 
ATOM     84  C   UNL A   1      51.801  26.244  25.379  1.00  0.00     0.200 A 
ATOM     85  F   UNL A   1      51.210  26.885  23.184  1.00  0.00    -0.200 F 
ATOM     86  F   UNL A   1      53.059  26.002  24.984  1.00  0.00    -0.200 F 
ENDBRANCH  52  76
BRANCH  64  87
ATOM     87  C   UNL A   1      46.011  32.510  28.574  1.00  0.00     0.064 A 
ATOM     88  C   UNL A   1      46.560  32.873  29.812  1.00  0.00     0.173 A 
ATOM     89  C   UNL A   1      45.966  33.481  27.563  1.00  0.00     0.173 A 
ATOM     90  F   UNL A   1      46.609  31.984  30.815  1.00  0.00    -0.203 F 
ATOM     91  C   UNL A   1      47.027  34.165  30.036  1.00  0.00     0.198 A 
ATOM     92  C   UNL A   1      46.458  34.765  27.781  1.00  0.00     0.198 A 
ATOM     93  F   UNL A   1      45.455  33.183  26.359  1.00  0.00    -0.203 F 
ATOM     94  F   UNL A   1      47.509  34.504  31.239  1.00  0.00    -0.200 F 
ATOM     95  C   UNL A   1      46.983  35.107  29.019  1.00  0.00     0.200 A 
ATOM     96  F   UNL A   1      46.424  35.671  26.794  1.00  0.00    -0.200 F 
ATOM     97  F   UNL A   1      47.439  36.350  29.233  1.00  0.00    -0.200 F 
ENDBRANCH  64  87
ENDBRANCH  38  39
ENDBRANCH  30  33
ENDBRANCH  28  29
ENDBRANCH  27  28
ENDBRANCH  26  27
ENDBRANCH   1  26
TORSDOF 16
ENDMDL
