MODEL 1
REMARK VINA RESULT:     -13.4      0.000      0.000
REMARK SMILES NS(=O)(=O)c1ccc(-n2ccnc2-c2ccc(O)c(C(=O)NCCCCNC(=O)c3ccc(-c4c5nc(c(-c6c(F)c(F)c(F)c(F)c6F)c6ccc([nH]6)c(-c6c(F)c(F)c(F)c(F)c6F)c6nc(c(-c7c(F)c(F)c(F)c(F)c7F)c7ccc4[nH]7)C=C6)C=C5)cc3)c2)cc1
REMARK SMILES IDX 23 1 22 2 20 3 21 4 19 6 14 7 15 8 93 9 16 10 17 11 13 12
REMARK SMILES IDX 9 13 10 14 11 15 12 16 8 17 5 18 6 19 95 20 7 21 94 22 2 23
REMARK SMILES IDX 3 24 4 25 1 26 18 29 24 31 25 32 26 33 27 34 28 35 29 37
REMARK SMILES IDX 30 38 31 39 92 40 32 41 91 42 33 43 34 44 35 45 85 46 36 47
REMARK SMILES IDX 90 48 84 49 86 50 37 51 89 52 83 53 82 54 38 56 70 57 50 58
REMARK SMILES IDX 69 59 51 60 54 61 68 62 87 63 52 64 53 65 67 67 88 68 55 69
REMARK SMILES IDX 39 70 40 71 48 72 41 73 42 74 46 75 49 76 43 77 44 78 47 79
REMARK SMILES IDX 45 80 71 81 72 82 80 83 73 84 74 85 78 86 81 87 75 88 76 89
REMARK SMILES IDX 79 90 77 91 56 92 57 93 65 94 58 95 59 96 63 97 66 98 60 99
REMARK SMILES IDX 61 100 64 101 62 102
REMARK H PARENT 22 5 1 27 1 28 18 30 27 36 86 55 54 66
REMARK Flexibility Score: inf
ROOT
ATOM      1  C   UNL A   1      37.275  23.106  25.427  1.00  0.00     0.116 C 
ENDROOT
BRANCH   1   2
ATOM      2  N   UNL A   1      36.257  23.120  26.475  1.00  0.00    -0.352 N 
ATOM      3  C   UNL A   1      34.898  22.863  26.500  1.00  0.00     0.255 C 
ATOM      4  O   UNL A   1      34.310  22.961  27.581  1.00  0.00    -0.269 OA
ATOM      5  H   UNL A   1      36.617  23.367  27.358  1.00  0.00     0.163 HD
BRANCH   3   6
ATOM      6  C   UNL A   1      34.075  22.533  25.302  1.00  0.00     0.082 A 
ATOM      7  C   UNL A   1      33.218  23.146  23.093  1.00  0.00     0.019 A 
ATOM      8  C   UNL A   1      32.269  22.126  23.175  1.00  0.00     0.016 A 
ATOM      9  C   UNL A   1      34.159  23.271  24.128  1.00  0.00     0.029 A 
ATOM     10  C   UNL A   1      32.283  21.250  24.264  1.00  0.00     0.048 A 
ATOM     11  C   UNL A   1      33.169  21.462  25.326  1.00  0.00     0.128 A 
BRANCH   7  12
ATOM     12  C   UNL A   1      33.153  24.187  22.052  1.00  0.00     0.144 A 
ATOM     13  N   UNL A   1      32.672  25.487  22.237  1.00  0.00    -0.300 N 
ATOM     14  C   UNL A   1      32.261  25.927  21.000  1.00  0.00     0.113 A 
ATOM     15  C   UNL A   1      32.700  24.981  20.107  1.00  0.00     0.132 A 
ATOM     16  N   UNL A   1      33.277  23.927  20.760  1.00  0.00    -0.236 NA
BRANCH  13  17
ATOM     17  C   UNL A   1      32.549  26.194  23.462  1.00  0.00     0.047 A 
ATOM     18  C   UNL A   1      32.234  27.732  25.758  1.00  0.00     0.082 A 
ATOM     19  C   UNL A   1      31.132  27.064  25.222  1.00  0.00     0.024 A 
ATOM     20  C   UNL A   1      33.496  27.626  25.163  1.00  0.00     0.024 A 
ATOM     21  C   UNL A   1      31.288  26.299  24.069  1.00  0.00     0.028 A 
ATOM     22  C   UNL A   1      33.662  26.836  24.022  1.00  0.00     0.028 A 
BRANCH  18  23
ATOM     23  S   UNL A   1      32.024  28.745  27.192  1.00  0.00     0.238 S 
ATOM     24  O   UNL A   1      31.239  28.004  28.163  1.00  0.00    -0.207 OA
ATOM     25  O   UNL A   1      31.703  30.077  26.771  1.00  0.00    -0.207 OA
BRANCH  23  26
ATOM     26  N   UNL A   1      33.569  28.809  27.851  1.00  0.00    -0.225 NA
ATOM     27  H   UNL A   1      33.811  27.896  28.237  1.00  0.00     0.137 HD
ATOM     28  H   UNL A   1      33.592  29.508  28.594  1.00  0.00     0.137 HD
ENDBRANCH  23  26
ENDBRANCH  18  23
ENDBRANCH  13  17
ENDBRANCH   7  12
BRANCH  11  29
ATOM     29  O   UNL A   1      33.091  20.573  26.364  1.00  0.00    -0.507 OA
ATOM     30  H   UNL A   1      32.567  20.774  27.115  1.00  0.00     0.293 HD
ENDBRANCH  11  29
ENDBRANCH   3   6
ENDBRANCH   1   2
BRANCH   1  31
ATOM     31  C   UNL A   1      37.713  21.724  24.945  1.00  0.00     0.023 C 
BRANCH  31  32
ATOM     32  C   UNL A   1      38.786  20.993  25.750  1.00  0.00     0.023 C 
BRANCH  32  33
ATOM     33  C   UNL A   1      39.755  21.880  26.524  1.00  0.00     0.116 C 
BRANCH  33  34
ATOM     34  N   UNL A   1      41.106  21.935  25.962  1.00  0.00    -0.352 N 
ATOM     35  C   UNL A   1      41.918  23.052  25.853  1.00  0.00     0.251 C 
ATOM     36  H   UNL A   1      41.477  21.088  25.627  1.00  0.00     0.163 HD
ATOM     37  O   UNL A   1      42.857  23.088  25.069  1.00  0.00    -0.269 OA
BRANCH  35  38
ATOM     38  C   UNL A   1      41.622  24.210  26.714  1.00  0.00     0.039 A 
ATOM     39  C   UNL A   1      42.207  24.356  27.974  1.00  0.00     0.014 A 
ATOM     40  C   UNL A   1      40.804  25.204  26.187  1.00  0.00     0.014 A 
ATOM     41  C   UNL A   1      42.046  25.565  28.650  1.00  0.00     0.010 A 
ATOM     42  C   UNL A   1      40.771  26.441  26.784  1.00  0.00     0.010 A 
ATOM     43  C   UNL A   1      41.355  26.623  28.035  1.00  0.00    -0.014 A 
BRANCH  43  44
ATOM     44  C   UNL A   1      41.328  27.952  28.646  1.00  0.00     0.031 A 
ATOM     45  C   UNL A   1      42.449  28.865  28.270  1.00  0.00     0.074 A 
ATOM     46  C   UNL A   1      40.272  28.430  29.339  1.00  0.00     0.049 A 
ATOM     47  N   UNL A   1      43.348  29.378  29.044  1.00  0.00    -0.248 NA
ATOM     48  C   UNL A   1      42.638  29.189  26.847  1.00  0.00     0.031 C 
ATOM     49  C   UNL A   1      38.957  27.817  29.560  1.00  0.00     0.029 A 
ATOM     50  N   UNL A   1      40.131  29.649  29.931  1.00  0.00    -0.354 N 
ATOM     51  C   UNL A   1      44.127  30.216  28.246  1.00  0.00     0.074 A 
ATOM     52  C   UNL A   1      43.728  29.958  26.886  1.00  0.00     0.031 C 
ATOM     53  C   UNL A   1      38.094  28.744  30.027  1.00  0.00     0.029 A 
ATOM     54  C   UNL A   1      38.833  29.957  30.314  1.00  0.00     0.049 A 
ATOM     55  H   UNL A   1      40.889  30.261  30.075  1.00  0.00     0.167 HD
ATOM     56  C   UNL A   1      44.899  31.200  28.791  1.00  0.00     0.037 A 
ATOM     57  C   UNL A   1      38.397  31.133  30.823  1.00  0.00     0.037 A 
ATOM     58  C   UNL A   1      45.121  30.969  30.196  1.00  0.00     0.049 A 
ATOM     59  C   UNL A   1      39.583  31.843  31.357  1.00  0.00     0.074 A 
ATOM     60  C   UNL A   1      45.696  29.951  30.934  1.00  0.00     0.029 A 
ATOM     61  N   UNL A   1      44.400  31.706  31.102  1.00  0.00    -0.354 N 
ATOM     62  N   UNL A   1      40.254  31.451  32.405  1.00  0.00    -0.248 NA
ATOM     63  C   UNL A   1      40.284  32.753  30.466  1.00  0.00     0.031 C 
ATOM     64  C   UNL A   1      44.873  29.830  32.094  1.00  0.00     0.029 A 
ATOM     65  C   UNL A   1      43.894  30.821  32.017  1.00  0.00     0.049 A 
ATOM     66  H   UNL A   1      44.272  32.682  31.096  1.00  0.00     0.167 HD
ATOM     67  C   UNL A   1      41.578  31.705  32.085  1.00  0.00     0.074 A 
ATOM     68  C   UNL A   1      41.528  32.592  30.925  1.00  0.00     0.031 C 
ATOM     69  C   UNL A   1      42.587  30.951  32.611  1.00  0.00     0.037 A 
BRANCH  56  70
ATOM     70  C   UNL A   1      45.163  32.546  28.153  1.00  0.00     0.064 A 
ATOM     71  C   UNL A   1      44.076  33.407  27.886  1.00  0.00     0.173 A 
ATOM     72  C   UNL A   1      46.374  32.889  27.514  1.00  0.00     0.173 A 
ATOM     73  F   UNL A   1      42.872  33.178  28.432  1.00  0.00    -0.203 F 
ATOM     74  C   UNL A   1      44.172  34.463  26.974  1.00  0.00     0.198 A 
ATOM     75  C   UNL A   1      46.479  33.975  26.646  1.00  0.00     0.198 A 
ATOM     76  F   UNL A   1      47.470  32.128  27.610  1.00  0.00    -0.203 F 
ATOM     77  F   UNL A   1      43.077  35.163  26.650  1.00  0.00    -0.200 F 
ATOM     78  C   UNL A   1      45.371  34.739  26.346  1.00  0.00     0.200 A 
ATOM     79  F   UNL A   1      47.648  34.218  26.036  1.00  0.00    -0.200 F 
ATOM     80  F   UNL A   1      45.450  35.703  25.421  1.00  0.00    -0.200 F 
ENDBRANCH  56  70
BRANCH  57  81
ATOM     81  C   UNL A   1      37.090  31.805  30.648  1.00  0.00     0.064 A 
ATOM     82  C   UNL A   1      36.139  31.797  31.681  1.00  0.00     0.173 A 
ATOM     83  C   UNL A   1      36.870  32.718  29.599  1.00  0.00     0.173 A 
ATOM     84  F   UNL A   1      36.287  30.973  32.729  1.00  0.00    -0.203 F 
ATOM     85  C   UNL A   1      35.063  32.689  31.694  1.00  0.00     0.198 A 
ATOM     86  C   UNL A   1      35.793  33.605  29.611  1.00  0.00     0.198 A 
ATOM     87  F   UNL A   1      37.747  32.832  28.590  1.00  0.00    -0.203 F 
ATOM     88  F   UNL A   1      34.218  32.702  32.735  1.00  0.00    -0.200 F 
ATOM     89  C   UNL A   1      34.901  33.604  30.668  1.00  0.00     0.200 A 
ATOM     90  F   UNL A   1      35.662  34.503  28.624  1.00  0.00    -0.200 F 
ATOM     91  F   UNL A   1      33.913  34.509  30.715  1.00  0.00    -0.200 F 
ENDBRANCH  57  81
BRANCH  69  92
ATOM     92  C   UNL A   1      42.249  30.011  33.734  1.00  0.00     0.064 A 
ATOM     93  C   UNL A   1      41.800  28.691  33.549  1.00  0.00     0.173 A 
ATOM     94  C   UNL A   1      42.521  30.417  35.046  1.00  0.00     0.173 A 
ATOM     95  F   UNL A   1      41.613  28.191  32.322  1.00  0.00    -0.203 F 
ATOM     96  C   UNL A   1      41.587  27.839  34.632  1.00  0.00     0.198 A 
ATOM     97  C   UNL A   1      42.344  29.553  36.123  1.00  0.00     0.198 A 
ATOM     98  F   UNL A   1      43.006  31.647  35.281  1.00  0.00    -0.203 F 
ATOM     99  F   UNL A   1      41.142  26.589  34.429  1.00  0.00    -0.200 F 
ATOM    100  C   UNL A   1      41.866  28.268  35.918  1.00  0.00     0.200 A 
ATOM    101  F   UNL A   1      42.662  29.957  37.361  1.00  0.00    -0.200 F 
ATOM    102  F   UNL A   1      41.700  27.438  36.957  1.00  0.00    -0.200 F 
ENDBRANCH  69  92
ENDBRANCH  43  44
ENDBRANCH  35  38
ENDBRANCH  33  34
ENDBRANCH  32  33
ENDBRANCH  31  32
ENDBRANCH   1  31
TORSDOF 16
ENDMDL
MODEL 2
REMARK VINA RESULT:     -13.2      3.267      8.940
REMARK SMILES NS(=O)(=O)c1ccc(-n2ccnc2-c2ccc(O)c(C(=O)NCCCCNC(=O)c3ccc(-c4c5nc(c(-c6c(F)c(F)c(F)c(F)c6F)c6ccc([nH]6)c(-c6c(F)c(F)c(F)c(F)c6F)c6nc(c(-c7c(F)c(F)c(F)c(F)c7F)c7ccc4[nH]7)C=C6)C=C5)cc3)c2)cc1
REMARK SMILES IDX 23 1 22 2 20 3 21 4 19 6 14 7 15 8 93 9 16 10 17 11 13 12
REMARK SMILES IDX 9 13 10 14 11 15 12 16 8 17 5 18 6 19 95 20 7 21 94 22 2 23
REMARK SMILES IDX 3 24 4 25 1 26 18 29 24 31 25 32 26 33 27 34 28 35 29 37
REMARK SMILES IDX 30 38 31 39 92 40 32 41 91 42 33 43 34 44 35 45 85 46 36 47
REMARK SMILES IDX 90 48 84 49 86 50 37 51 89 52 83 53 82 54 38 56 70 57 50 58
REMARK SMILES IDX 69 59 51 60 54 61 68 62 87 63 52 64 53 65 67 67 88 68 55 69
REMARK SMILES IDX 39 70 40 71 48 72 41 73 42 74 46 75 49 76 43 77 44 78 47 79
REMARK SMILES IDX 45 80 71 81 72 82 80 83 73 84 74 85 78 86 81 87 75 88 76 89
REMARK SMILES IDX 79 90 77 91 56 92 57 93 65 94 58 95 59 96 63 97 66 98 60 99
REMARK SMILES IDX 61 100 64 101 62 102
REMARK H PARENT 22 5 1 27 1 28 18 30 27 36 86 55 54 66
REMARK Flexibility Score: inf
ROOT
ATOM      1  C   UNL A   1      32.216  30.318  26.412  1.00  0.00     0.116 C 
ENDROOT
BRANCH   1   2
ATOM      2  N   UNL A   1      33.174  29.715  25.489  1.00  0.00    -0.352 N 
ATOM      3  C   UNL A   1      33.115  28.661  24.594  1.00  0.00     0.255 C 
ATOM      4  O   UNL A   1      34.129  28.400  23.941  1.00  0.00    -0.269 OA
ATOM      5  H   UNL A   1      34.056  30.152  25.509  1.00  0.00     0.163 HD
BRANCH   3   6
ATOM      6  C   UNL A   1      31.931  27.776  24.402  1.00  0.00     0.082 A 
ATOM      7  C   UNL A   1      30.567  25.883  25.139  1.00  0.00     0.019 A 
ATOM      8  C   UNL A   1      29.921  25.863  23.902  1.00  0.00     0.016 A 
ATOM      9  C   UNL A   1      31.503  26.899  25.390  1.00  0.00     0.029 A 
ATOM     10  C   UNL A   1      30.203  26.852  22.955  1.00  0.00     0.048 A 
ATOM     11  C   UNL A   1      31.211  27.791  23.198  1.00  0.00     0.128 A 
BRANCH   7  12
ATOM     12  C   UNL A   1      30.423  24.782  26.108  1.00  0.00     0.144 A 
ATOM     13  N   UNL A   1      31.218  23.633  26.151  1.00  0.00    -0.300 N 
ATOM     14  C   UNL A   1      30.462  22.661  26.765  1.00  0.00     0.113 A 
ATOM     15  C   UNL A   1      29.352  23.308  27.249  1.00  0.00     0.132 A 
ATOM     16  N   UNL A   1      29.352  24.622  26.868  1.00  0.00    -0.236 NA
BRANCH  13  17
ATOM     17  C   UNL A   1      32.516  23.462  25.601  1.00  0.00     0.047 A 
ATOM     18  C   UNL A   1      35.044  22.935  24.569  1.00  0.00     0.082 A 
ATOM     19  C   UNL A   1      33.916  22.662  23.794  1.00  0.00     0.024 A 
ATOM     20  C   UNL A   1      34.921  23.482  25.851  1.00  0.00     0.024 A 
ATOM     21  C   UNL A   1      32.650  22.921  24.313  1.00  0.00     0.028 A 
ATOM     22  C   UNL A   1      33.653  23.769  26.363  1.00  0.00     0.028 A 
BRANCH  18  23
ATOM     23  S   UNL A   1      36.649  22.558  23.930  1.00  0.00     0.238 S 
ATOM     24  O   UNL A   1      36.690  22.956  22.534  1.00  0.00    -0.207 OA
ATOM     25  O   UNL A   1      37.033  21.255  24.388  1.00  0.00    -0.207 OA
BRANCH  23  26
ATOM     26  N   UNL A   1      37.648  23.658  24.715  1.00  0.00    -0.225 NA
ATOM     27  H   UNL A   1      37.489  23.603  25.722  1.00  0.00     0.137 HD
ATOM     28  H   UNL A   1      37.438  24.601  24.388  1.00  0.00     0.137 HD
ENDBRANCH  23  26
ENDBRANCH  18  23
ENDBRANCH  13  17
ENDBRANCH   7  12
BRANCH  11  29
ATOM     29  O   UNL A   1      31.440  28.703  22.203  1.00  0.00    -0.507 OA
ATOM     30  H   UNL A   1      32.318  28.912  21.952  1.00  0.00     0.293 HD
ENDBRANCH  11  29
ENDBRANCH   3   6
ENDBRANCH   1   2
BRANCH   1  31
ATOM     31  C   UNL A   1      32.811  31.231  27.483  1.00  0.00     0.023 C 
BRANCH  31  32
ATOM     32  C   UNL A   1      34.333  31.315  27.586  1.00  0.00     0.023 C 
BRANCH  32  33
ATOM     33  C   UNL A   1      34.892  32.637  28.099  1.00  0.00     0.116 C 
BRANCH  33  34
ATOM     34  N   UNL A   1      34.767  32.828  29.545  1.00  0.00    -0.352 N 
ATOM     35  C   UNL A   1      35.422  32.118  30.539  1.00  0.00     0.251 C 
ATOM     36  H   UNL A   1      34.153  33.536  29.843  1.00  0.00     0.163 HD
ATOM     37  O   UNL A   1      35.005  32.093  31.690  1.00  0.00    -0.269 OA
BRANCH  35  38
ATOM     38  C   UNL A   1      36.648  31.388  30.175  1.00  0.00     0.039 A 
ATOM     39  C   UNL A   1      37.853  32.050  29.935  1.00  0.00     0.014 A 
ATOM     40  C   UNL A   1      36.583  29.998  30.166  1.00  0.00     0.014 A 
ATOM     41  C   UNL A   1      39.017  31.294  29.796  1.00  0.00     0.010 A 
ATOM     42  C   UNL A   1      37.745  29.267  30.179  1.00  0.00     0.010 A 
ATOM     43  C   UNL A   1      38.965  29.898  29.954  1.00  0.00    -0.014 A 
BRANCH  43  44
ATOM     44  C   UNL A   1      40.194  29.106  29.991  1.00  0.00     0.031 A 
ATOM     45  C   UNL A   1      40.786  28.881  31.344  1.00  0.00     0.074 A 
ATOM     46  C   UNL A   1      40.676  28.431  28.924  1.00  0.00     0.049 A 
ATOM     47  N   UNL A   1      41.940  29.266  31.780  1.00  0.00    -0.248 NA
ATOM     48  C   UNL A   1      39.962  28.211  32.363  1.00  0.00     0.031 C 
ATOM     49  C   UNL A   1      40.086  28.267  27.591  1.00  0.00     0.029 A 
ATOM     50  N   UNL A   1      41.792  27.654  28.849  1.00  0.00    -0.354 N 
ATOM     51  C   UNL A   1      42.066  28.757  33.072  1.00  0.00     0.074 A 
ATOM     52  C   UNL A   1      40.772  28.232  33.424  1.00  0.00     0.031 C 
ATOM     53  C   UNL A   1      40.718  27.273  26.930  1.00  0.00     0.029 A 
ATOM     54  C   UNL A   1      41.867  26.861  27.712  1.00  0.00     0.049 A 
ATOM     55  H   UNL A   1      42.488  27.653  29.545  1.00  0.00     0.167 HD
ATOM     56  C   UNL A   1      43.285  28.632  33.671  1.00  0.00     0.037 A 
ATOM     57  C   UNL A   1      42.807  25.926  27.437  1.00  0.00     0.037 A 
ATOM     58  C   UNL A   1      44.274  29.447  33.012  1.00  0.00     0.049 A 
ATOM     59  C   UNL A   1      43.983  26.228  28.287  1.00  0.00     0.074 A 
ATOM     60  C   UNL A   1      44.408  30.801  32.763  1.00  0.00     0.029 A 
ATOM     61  N   UNL A   1      45.169  28.837  32.169  1.00  0.00    -0.354 N 
ATOM     62  N   UNL A   1      44.745  27.275  28.128  1.00  0.00    -0.248 NA
ATOM     63  C   UNL A   1      44.057  25.588  29.590  1.00  0.00     0.031 C 
ATOM     64  C   UNL A   1      44.960  30.878  31.449  1.00  0.00     0.029 A 
ATOM     65  C   UNL A   1      45.186  29.572  31.013  1.00  0.00     0.049 A 
ATOM     66  H   UNL A   1      45.697  28.027  32.359  1.00  0.00     0.167 HD
ATOM     67  C   UNL A   1      45.053  27.679  29.416  1.00  0.00     0.074 A 
ATOM     68  C   UNL A   1      44.685  26.551  30.270  1.00  0.00     0.031 C 
ATOM     69  C   UNL A   1      45.314  28.988  29.701  1.00  0.00     0.037 A 
BRANCH  56  70
ATOM     70  C   UNL A   1      43.674  27.521  34.622  1.00  0.00     0.064 A 
ATOM     71  C   UNL A   1      43.587  26.180  34.185  1.00  0.00     0.173 A 
ATOM     72  C   UNL A   1      43.818  27.693  36.015  1.00  0.00     0.173 A 
ATOM     73  F   UNL A   1      43.441  25.892  32.883  1.00  0.00    -0.203 F 
ATOM     74  C   UNL A   1      43.547  25.109  35.083  1.00  0.00     0.198 A 
ATOM     75  C   UNL A   1      43.830  26.618  36.903  1.00  0.00     0.198 A 
ATOM     76  F   UNL A   1      43.838  28.903  36.584  1.00  0.00    -0.203 F 
ATOM     77  F   UNL A   1      43.323  23.868  34.630  1.00  0.00    -0.200 F 
ATOM     78  C   UNL A   1      43.657  25.330  36.443  1.00  0.00     0.200 A 
ATOM     79  F   UNL A   1      43.925  26.855  38.219  1.00  0.00    -0.200 F 
ATOM     80  F   UNL A   1      43.548  24.316  37.310  1.00  0.00    -0.200 F 
ENDBRANCH  56  70
BRANCH  57  81
ATOM     81  C   UNL A   1      42.672  24.648  26.703  1.00  0.00     0.064 A 
ATOM     82  C   UNL A   1      43.415  24.414  25.534  1.00  0.00     0.173 A 
ATOM     83  C   UNL A   1      42.058  23.526  27.292  1.00  0.00     0.173 A 
ATOM     84  F   UNL A   1      44.049  25.426  24.924  1.00  0.00    -0.203 F 
ATOM     85  C   UNL A   1      43.580  23.127  25.016  1.00  0.00     0.198 A 
ATOM     86  C   UNL A   1      42.221  22.242  26.772  1.00  0.00     0.198 A 
ATOM     87  F   UNL A   1      41.366  23.641  28.436  1.00  0.00    -0.203 F 
ATOM     88  F   UNL A   1      44.359  22.934  23.942  1.00  0.00    -0.200 F 
ATOM     89  C   UNL A   1      42.999  22.040  25.646  1.00  0.00     0.200 A 
ATOM     90  F   UNL A   1      41.674  21.194  27.405  1.00  0.00    -0.200 F 
ATOM     91  F   UNL A   1      43.218  20.797  25.194  1.00  0.00    -0.200 F 
ENDBRANCH  57  81
BRANCH  69  92
ATOM     92  C   UNL A   1      45.506  29.933  28.548  1.00  0.00     0.064 A 
ATOM     93  C   UNL A   1      44.455  30.595  27.887  1.00  0.00     0.173 A 
ATOM     94  C   UNL A   1      46.812  30.286  28.187  1.00  0.00     0.173 A 
ATOM     95  F   UNL A   1      43.181  30.391  28.240  1.00  0.00    -0.203 F 
ATOM     96  C   UNL A   1      44.705  31.527  26.880  1.00  0.00     0.198 A 
ATOM     97  C   UNL A   1      47.060  31.244  27.209  1.00  0.00     0.198 A 
ATOM     98  F   UNL A   1      47.857  29.729  28.822  1.00  0.00    -0.203 F 
ATOM     99  F   UNL A   1      43.684  32.132  26.255  1.00  0.00    -0.200 F 
ATOM    100  C   UNL A   1      46.007  31.856  26.548  1.00  0.00     0.200 A 
ATOM    101  F   UNL A   1      48.321  31.595  26.924  1.00  0.00    -0.200 F 
ATOM    102  F   UNL A   1      46.249  32.781  25.608  1.00  0.00    -0.200 F 
ENDBRANCH  69  92
ENDBRANCH  43  44
ENDBRANCH  35  38
ENDBRANCH  33  34
ENDBRANCH  32  33
ENDBRANCH  31  32
ENDBRANCH   1  31
TORSDOF 16
ENDMDL
MODEL 3
REMARK VINA RESULT:     -13.1      0.838      1.799
REMARK SMILES NS(=O)(=O)c1ccc(-n2ccnc2-c2ccc(O)c(C(=O)NCCCCNC(=O)c3ccc(-c4c5nc(c(-c6c(F)c(F)c(F)c(F)c6F)c6ccc([nH]6)c(-c6c(F)c(F)c(F)c(F)c6F)c6nc(c(-c7c(F)c(F)c(F)c(F)c7F)c7ccc4[nH]7)C=C6)C=C5)cc3)c2)cc1
REMARK SMILES IDX 23 1 22 2 20 3 21 4 19 6 14 7 15 8 93 9 16 10 17 11 13 12
REMARK SMILES IDX 9 13 10 14 11 15 12 16 8 17 5 18 6 19 95 20 7 21 94 22 2 23
REMARK SMILES IDX 3 24 4 25 1 26 18 29 24 31 25 32 26 33 27 34 28 35 29 37
REMARK SMILES IDX 30 38 31 39 92 40 32 41 91 42 33 43 34 44 35 45 85 46 36 47
REMARK SMILES IDX 90 48 84 49 86 50 37 51 89 52 83 53 82 54 38 56 70 57 50 58
REMARK SMILES IDX 69 59 51 60 54 61 68 62 87 63 52 64 53 65 67 67 88 68 55 69
REMARK SMILES IDX 39 70 40 71 48 72 41 73 42 74 46 75 49 76 43 77 44 78 47 79
REMARK SMILES IDX 45 80 71 81 72 82 80 83 73 84 74 85 78 86 81 87 75 88 76 89
REMARK SMILES IDX 79 90 77 91 56 92 57 93 65 94 58 95 59 96 63 97 66 98 60 99
REMARK SMILES IDX 61 100 64 101 62 102
REMARK H PARENT 22 5 1 27 1 28 18 30 27 36 86 55 54 66
REMARK Flexibility Score: inf
ROOT
ATOM      1  C   UNL A   1      36.991  22.752  25.478  1.00  0.00     0.116 C 
ENDROOT
BRANCH   1   2
ATOM      2  N   UNL A   1      36.592  21.357  25.307  1.00  0.00    -0.352 N 
ATOM      3  C   UNL A   1      35.426  20.734  24.898  1.00  0.00     0.255 C 
ATOM      4  O   UNL A   1      35.414  19.500  24.857  1.00  0.00    -0.269 OA
ATOM      5  H   UNL A   1      37.308  20.721  25.532  1.00  0.00     0.163 HD
BRANCH   3   6
ATOM      6  C   UNL A   1      34.158  21.441  24.561  1.00  0.00     0.082 A 
ATOM      7  C   UNL A   1      32.954  23.089  23.210  1.00  0.00     0.019 A 
ATOM      8  C   UNL A   1      31.890  23.055  24.112  1.00  0.00     0.016 A 
ATOM      9  C   UNL A   1      34.033  22.213  23.413  1.00  0.00     0.029 A 
ATOM     10  C   UNL A   1      31.911  22.150  25.178  1.00  0.00     0.048 A 
ATOM     11  C   UNL A   1      33.043  21.361  25.407  1.00  0.00     0.128 A 
BRANCH   7  12
ATOM     12  C   UNL A   1      33.055  24.124  22.166  1.00  0.00     0.144 A 
ATOM     13  N   UNL A   1      32.677  25.462  22.314  1.00  0.00    -0.300 N 
ATOM     14  C   UNL A   1      32.396  25.927  21.050  1.00  0.00     0.113 A 
ATOM     15  C   UNL A   1      32.815  24.941  20.192  1.00  0.00     0.132 A 
ATOM     16  N   UNL A   1      33.250  23.846  20.887  1.00  0.00    -0.236 NA
BRANCH  13  17
ATOM     17  C   UNL A   1      32.525  26.186  23.527  1.00  0.00     0.047 A 
ATOM     18  C   UNL A   1      32.223  27.769  25.792  1.00  0.00     0.082 A 
ATOM     19  C   UNL A   1      31.100  27.433  25.035  1.00  0.00     0.024 A 
ATOM     20  C   UNL A   1      33.495  27.310  25.434  1.00  0.00     0.024 A 
ATOM     21  C   UNL A   1      31.252  26.644  23.897  1.00  0.00     0.028 A 
ATOM     22  C   UNL A   1      33.647  26.496  24.309  1.00  0.00     0.028 A 
BRANCH  18  23
ATOM     23  S   UNL A   1      32.036  28.813  27.208  1.00  0.00     0.238 S 
ATOM     24  O   UNL A   1      31.243  28.104  28.196  1.00  0.00    -0.207 OA
ATOM     25  O   UNL A   1      31.735  30.142  26.763  1.00  0.00    -0.207 OA
BRANCH  23  26
ATOM     26  N   UNL A   1      33.584  28.864  27.860  1.00  0.00    -0.225 NA
ATOM     27  H   UNL A   1      34.271  28.835  27.106  1.00  0.00     0.137 HD
ATOM     28  H   UNL A   1      33.720  28.062  28.475  1.00  0.00     0.137 HD
ENDBRANCH  23  26
ENDBRANCH  18  23
ENDBRANCH  13  17
ENDBRANCH   7  12
BRANCH  11  29
ATOM     29  O   UNL A   1      32.988  20.526  26.491  1.00  0.00    -0.507 OA
ATOM     30  H   UNL A   1      33.658  19.885  26.624  1.00  0.00     0.293 HD
ENDBRANCH  11  29
ENDBRANCH   3   6
ENDBRANCH   1   2
BRANCH   1  31
ATOM     31  C   UNL A   1      38.366  22.977  26.106  1.00  0.00     0.023 C 
BRANCH  31  32
ATOM     32  C   UNL A   1      39.298  21.773  26.237  1.00  0.00     0.023 C 
BRANCH  32  33
ATOM     33  C   UNL A   1      40.571  22.003  27.042  1.00  0.00     0.116 C 
BRANCH  33  34
ATOM     34  N   UNL A   1      41.765  22.249  26.231  1.00  0.00    -0.352 N 
ATOM     35  C   UNL A   1      42.313  23.479  25.906  1.00  0.00     0.251 C 
ATOM     36  H   UNL A   1      42.228  21.455  25.880  1.00  0.00     0.163 HD
ATOM     37  O   UNL A   1      43.074  23.612  24.957  1.00  0.00    -0.269 OA
BRANCH  35  38
ATOM     38  C   UNL A   1      41.955  24.639  26.741  1.00  0.00     0.039 A 
ATOM     39  C   UNL A   1      42.552  24.860  27.984  1.00  0.00     0.014 A 
ATOM     40  C   UNL A   1      41.061  25.559  26.204  1.00  0.00     0.014 A 
ATOM     41  C   UNL A   1      42.322  26.075  28.629  1.00  0.00     0.010 A 
ATOM     42  C   UNL A   1      40.955  26.808  26.767  1.00  0.00     0.010 A 
ATOM     43  C   UNL A   1      41.549  27.065  28.000  1.00  0.00    -0.014 A 
BRANCH  43  44
ATOM     44  C   UNL A   1      41.443  28.406  28.574  1.00  0.00     0.031 A 
ATOM     45  C   UNL A   1      42.490  29.383  28.149  1.00  0.00     0.074 A 
ATOM     46  C   UNL A   1      40.370  28.832  29.277  1.00  0.00     0.049 A 
ATOM     47  N   UNL A   1      43.367  29.978  28.888  1.00  0.00    -0.248 NA
ATOM     48  C   UNL A   1      42.628  29.677  26.713  1.00  0.00     0.031 C 
ATOM     49  C   UNL A   1      39.105  28.137  29.543  1.00  0.00     0.029 A 
ATOM     50  N   UNL A   1      40.157  30.054  29.837  1.00  0.00    -0.354 N 
ATOM     51  C   UNL A   1      44.070  30.843  28.050  1.00  0.00     0.074 A 
ATOM     52  C   UNL A   1      43.663  30.520  26.707  1.00  0.00     0.031 C 
ATOM     53  C   UNL A   1      38.189  29.016  30.004  1.00  0.00     0.029 A 
ATOM     54  C   UNL A   1      38.849  30.285  30.240  1.00  0.00     0.049 A 
ATOM     55  H   UNL A   1      40.874  30.721  29.948  1.00  0.00     0.167 HD
ATOM     56  C   UNL A   1      44.783  31.893  28.551  1.00  0.00     0.037 A 
ATOM     57  C   UNL A   1      38.343  31.443  30.727  1.00  0.00     0.037 A 
ATOM     58  C   UNL A   1      45.049  31.720  29.956  1.00  0.00     0.049 A 
ATOM     59  C   UNL A   1      39.489  32.247  31.214  1.00  0.00     0.074 A 
ATOM     60  C   UNL A   1      45.708  30.765  30.709  1.00  0.00     0.029 A 
ATOM     61  N   UNL A   1      44.297  32.432  30.858  1.00  0.00    -0.354 N 
ATOM     62  N   UNL A   1      40.205  31.932  32.257  1.00  0.00    -0.248 NA
ATOM     63  C   UNL A   1      40.107  33.176  30.283  1.00  0.00     0.031 C 
ATOM     64  C   UNL A   1      44.918  30.622  31.890  1.00  0.00     0.029 A 
ATOM     65  C   UNL A   1      43.872  31.541  31.807  1.00  0.00     0.049 A 
ATOM     66  H   UNL A   1      44.102  33.396  30.827  1.00  0.00     0.167 HD
ATOM     67  C   UNL A   1      41.502  32.267  31.901  1.00  0.00     0.074 A 
ATOM     68  C   UNL A   1      41.368  33.114  30.719  1.00  0.00     0.031 C 
ATOM     69  C   UNL A   1      42.571  31.599  32.426  1.00  0.00     0.037 A 
BRANCH  56  70
ATOM     70  C   UNL A   1      44.942  33.236  27.870  1.00  0.00     0.064 A 
ATOM     71  C   UNL A   1      46.235  33.677  27.512  1.00  0.00     0.173 A 
ATOM     72  C   UNL A   1      43.937  34.227  27.843  1.00  0.00     0.173 A 
ATOM     73  F   UNL A   1      47.272  32.826  27.507  1.00  0.00    -0.203 F 
ATOM     74  C   UNL A   1      46.513  35.022  27.248  1.00  0.00     0.198 A 
ATOM     75  C   UNL A   1      44.210  35.558  27.528  1.00  0.00     0.198 A 
ATOM     76  F   UNL A   1      42.681  33.978  28.229  1.00  0.00    -0.203 F 
ATOM     77  F   UNL A   1      47.779  35.414  27.051  1.00  0.00    -0.200 F 
ATOM     78  C   UNL A   1      45.502  35.963  27.268  1.00  0.00     0.200 A 
ATOM     79  F   UNL A   1      43.217  36.458  27.565  1.00  0.00    -0.200 F 
ATOM     80  F   UNL A   1      45.774  37.261  27.086  1.00  0.00    -0.200 F 
ENDBRANCH  56  70
BRANCH  57  81
ATOM     81  C   UNL A   1      36.990  32.018  30.561  1.00  0.00     0.064 A 
ATOM     82  C   UNL A   1      36.061  31.972  31.614  1.00  0.00     0.173 A 
ATOM     83  C   UNL A   1      36.688  32.887  29.495  1.00  0.00     0.173 A 
ATOM     84  F   UNL A   1      36.286  31.186  32.678  1.00  0.00    -0.203 F 
ATOM     85  C   UNL A   1      34.926  32.787  31.626  1.00  0.00     0.198 A 
ATOM     86  C   UNL A   1      35.552  33.698  29.507  1.00  0.00     0.198 A 
ATOM     87  F   UNL A   1      37.536  33.034  28.466  1.00  0.00    -0.203 F 
ATOM     88  F   UNL A   1      34.102  32.769  32.684  1.00  0.00    -0.200 F 
ATOM     89  C   UNL A   1      34.683  33.663  30.582  1.00  0.00     0.200 A 
ATOM     90  F   UNL A   1      35.341  34.559  28.502  1.00  0.00    -0.200 F 
ATOM     91  F   UNL A   1      33.635  34.498  30.627  1.00  0.00    -0.200 F 
ENDBRANCH  57  81
BRANCH  69  92
ATOM     92  C   UNL A   1      42.321  30.671  33.582  1.00  0.00     0.064 A 
ATOM     93  C   UNL A   1      42.316  31.073  34.930  1.00  0.00     0.173 A 
ATOM     94  C   UNL A   1      41.940  29.352  33.305  1.00  0.00     0.173 A 
ATOM     95  F   UNL A   1      42.569  32.342  35.272  1.00  0.00    -0.203 F 
ATOM     96  C   UNL A   1      41.992  30.181  35.951  1.00  0.00     0.198 A 
ATOM     97  C   UNL A   1      41.581  28.474  34.324  1.00  0.00     0.198 A 
ATOM     98  F   UNL A   1      41.872  28.926  32.034  1.00  0.00    -0.203 F 
ATOM     99  F   UNL A   1      42.010  30.587  37.230  1.00  0.00    -0.200 F 
ATOM    100  C   UNL A   1      41.617  28.884  35.647  1.00  0.00     0.200 A 
ATOM    101  F   UNL A   1      41.172  27.234  34.021  1.00  0.00    -0.200 F 
ATOM    102  F   UNL A   1      41.267  28.037  36.625  1.00  0.00    -0.200 F 
ENDBRANCH  69  92
ENDBRANCH  43  44
ENDBRANCH  35  38
ENDBRANCH  33  34
ENDBRANCH  32  33
ENDBRANCH  31  32
ENDBRANCH   1  31
TORSDOF 16
ENDMDL
