MODEL 1
REMARK VINA RESULT:     -14.1      0.000      0.000
REMARK SMILES Cc1nn(-c2nc3ccccc3o2)c2c1[C@H](c1ccc(C(=O)NCCCCNC(=O)c3ccc(-c4c5nc(c(-c6c(F)c(F)c(F)c(F)c6F)c6ccc([nH]6)c(-c6c(F)c(F)c(F)c(F)c6F)c6nc(c(-c7c(F)c(F)c(F)c(F)c7F)c7ccc4[nH]7)C=C6)C=C5)cc3)cc1)CC(=O)N2
REMARK SMILES IDX 25 1 24 2 23 3 21 4 22 5 20 7 17 8 18 9 95 10 19 11 94 12
REMARK SMILES IDX 16 13 1 14 2 15 3 16 15 17 4 18 14 19 99 20 96 21 97 22
REMARK SMILES IDX 98 24 5 25 6 26 13 27 7 28 12 29 8 30 11 31 9 32 10 33 26 34
REMARK SMILES IDX 27 35 28 36 29 37 30 39 31 40 32 41 93 42 33 43 92 44 34 45
REMARK SMILES IDX 35 46 36 47 86 48 37 49 91 50 85 51 87 52 38 53 90 54 84 55
REMARK SMILES IDX 83 56 39 58 71 59 51 60 70 61 52 62 55 63 69 64 88 65 53 66
REMARK SMILES IDX 54 67 68 69 89 70 56 71 40 72 41 73 49 74 42 75 43 76 47 77
REMARK SMILES IDX 50 78 44 79 45 80 48 81 46 82 72 83 73 84 81 85 74 86 75 87
REMARK SMILES IDX 79 88 82 89 76 90 77 91 80 92 78 93 57 94 58 95 66 96 59 97
REMARK SMILES IDX 60 98 64 99 67 100 61 101 62 102 65 103 63 104
REMARK H PARENT 23 6 99 23 28 38 87 57 55 68
REMARK Flexibility Score: inf
ROOT
ATOM      1  C   UNL A   1      44.159  31.891  26.805  1.00  0.00     0.023 C 
ENDROOT
BRANCH   1   2
ATOM      2  C   UNL A   1      44.510  30.398  26.849  1.00  0.00     0.116 C 
BRANCH   2   3
ATOM      3  N   UNL A   1      45.736  30.101  26.133  1.00  0.00    -0.352 N 
ATOM      4  C   UNL A   1      46.290  28.913  25.720  1.00  0.00     0.251 C 
ATOM      5  O   UNL A   1      47.294  28.963  25.010  1.00  0.00    -0.269 OA
ATOM      6  H   UNL A   1      46.270  30.896  25.900  1.00  0.00     0.163 HD
BRANCH   4   7
ATOM      7  C   UNL A   1      45.717  27.583  26.068  1.00  0.00     0.039 A 
ATOM      8  C   UNL A   1      44.648  24.992  26.566  1.00  0.00    -0.040 A 
ATOM      9  C   UNL A   1      44.287  25.719  25.420  1.00  0.00     0.005 A 
ATOM     10  C   UNL A   1      45.554  25.596  27.452  1.00  0.00     0.005 A 
ATOM     11  C   UNL A   1      44.838  26.983  25.159  1.00  0.00     0.014 A 
ATOM     12  C   UNL A   1      46.077  26.869  27.208  1.00  0.00     0.014 A 
BRANCH   8  13
ATOM     13  C   UNL A   1      44.095  23.590  26.795  1.00  0.00     0.064 C 
ATOM     14  C   UNL A   1      42.070  25.451  28.953  1.00  0.00     0.069 C 
ATOM     15  C   UNL A   1      41.766  24.488  27.862  1.00  0.00     0.066 A 
ATOM     16  N   UNL A   1      40.472  24.187  27.669  1.00  0.00    -0.167 NA
ATOM     17  C   UNL A   1      42.618  23.729  26.998  1.00  0.00     0.026 A 
ATOM     18  N   UNL A   1      40.480  23.232  26.715  1.00  0.00    -0.166 N 
ATOM     19  C   UNL A   1      41.752  22.845  26.392  1.00  0.00     0.145 A 
ATOM     20  N   UNL A   1      42.108  21.741  25.657  1.00  0.00    -0.310 N 
ATOM     21  C   UNL A   1      44.414  22.625  25.624  1.00  0.00     0.113 C 
ATOM     22  C   UNL A   1      43.432  21.480  25.421  1.00  0.00     0.226 C 
ATOM     23  H   UNL A   1      41.415  21.140  25.300  1.00  0.00     0.171 HD
ATOM     24  O   UNL A   1      43.779  20.409  24.928  1.00  0.00    -0.275 OA
BRANCH  18  25
ATOM     25  C   UNL A   1      39.269  22.761  26.229  1.00  0.00     0.325 A 
ATOM     26  N   UNL A   1      38.191  23.533  26.206  1.00  0.00    -0.191 NA
ATOM     27  O   UNL A   1      39.076  21.501  25.712  1.00  0.00    -0.422 OA
ATOM     28  C   UNL A   1      37.201  22.693  25.778  1.00  0.00     0.111 A 
ATOM     29  C   UNL A   1      37.736  21.455  25.464  1.00  0.00     0.156 A 
ATOM     30  C   UNL A   1      35.822  22.894  25.653  1.00  0.00     0.032 A 
ATOM     31  C   UNL A   1      37.002  20.367  25.014  1.00  0.00     0.049 A 
ATOM     32  C   UNL A   1      35.037  21.802  25.260  1.00  0.00     0.003 A 
ATOM     33  C   UNL A   1      35.616  20.565  24.946  1.00  0.00     0.004 A 
ENDBRANCH  18  25
ENDBRANCH   8  13
ENDBRANCH   4   7
ENDBRANCH   2   3
ENDBRANCH   1   2
BRANCH   1  34
ATOM     34  C   UNL A   1      44.903  32.728  25.757  1.00  0.00     0.023 C 
BRANCH  34  35
ATOM     35  C   UNL A   1      44.288  34.088  25.457  1.00  0.00     0.116 C 
BRANCH  35  36
ATOM     36  N   UNL A   1      45.158  35.210  25.818  1.00  0.00    -0.352 N 
ATOM     37  C   UNL A   1      44.942  36.186  26.781  1.00  0.00     0.251 C 
ATOM     38  H   UNL A   1      46.001  35.281  25.315  1.00  0.00     0.163 HD
ATOM     39  O   UNL A   1      45.500  37.266  26.735  1.00  0.00    -0.269 OA
BRANCH  37  40
ATOM     40  C   UNL A   1      44.031  35.860  27.890  1.00  0.00     0.039 A 
ATOM     41  C   UNL A   1      42.754  36.413  27.997  1.00  0.00     0.014 A 
ATOM     42  C   UNL A   1      44.483  34.916  28.803  1.00  0.00     0.014 A 
ATOM     43  C   UNL A   1      41.905  35.935  28.994  1.00  0.00     0.010 A 
ATOM     44  C   UNL A   1      43.591  34.310  29.641  1.00  0.00     0.010 A 
ATOM     45  C   UNL A   1      42.330  34.865  29.800  1.00  0.00    -0.014 A 
BRANCH  45  46
ATOM     46  C   UNL A   1      41.437  34.229  30.757  1.00  0.00     0.031 A 
ATOM     47  C   UNL A   1      42.049  34.013  32.093  1.00  0.00     0.074 A 
ATOM     48  C   UNL A   1      40.115  34.070  30.521  1.00  0.00     0.049 A 
ATOM     49  N   UNL A   1      42.408  32.889  32.617  1.00  0.00    -0.248 NA
ATOM     50  C   UNL A   1      42.459  35.188  32.879  1.00  0.00     0.031 C 
ATOM     51  C   UNL A   1      39.335  34.571  29.378  1.00  0.00     0.029 A 
ATOM     52  N   UNL A   1      39.154  33.504  31.306  1.00  0.00    -0.354 N 
ATOM     53  C   UNL A   1      42.864  33.196  33.897  1.00  0.00     0.074 A 
ATOM     54  C   UNL A   1      43.074  34.617  33.918  1.00  0.00     0.031 C 
ATOM     55  C   UNL A   1      38.015  34.503  29.655  1.00  0.00     0.029 A 
ATOM     56  C   UNL A   1      37.851  33.773  30.897  1.00  0.00     0.049 A 
ATOM     57  H   UNL A   1      39.363  32.955  32.095  1.00  0.00     0.167 HD
ATOM     58  C   UNL A   1      42.712  32.292  34.907  1.00  0.00     0.037 A 
ATOM     59  C   UNL A   1      36.710  33.412  31.531  1.00  0.00     0.037 A 
ATOM     60  C   UNL A   1      42.337  31.008  34.369  1.00  0.00     0.049 A 
ATOM     61  C   UNL A   1      37.048  32.278  32.419  1.00  0.00     0.074 A 
ATOM     62  C   UNL A   1      42.960  29.979  33.699  1.00  0.00     0.029 A 
ATOM     63  N   UNL A   1      40.991  30.887  34.149  1.00  0.00    -0.354 N 
ATOM     64  N   UNL A   1      37.429  31.111  31.977  1.00  0.00    -0.248 NA
ATOM     65  C   UNL A   1      37.335  32.539  33.824  1.00  0.00     0.031 C 
ATOM     66  C   UNL A   1      41.945  29.341  32.923  1.00  0.00     0.029 A 
ATOM     67  C   UNL A   1      40.722  29.961  33.180  1.00  0.00     0.049 A 
ATOM     68  H   UNL A   1      40.303  31.402  34.628  1.00  0.00     0.167 HD
ATOM     69  C   UNL A   1      38.363  30.683  32.899  1.00  0.00     0.074 A 
ATOM     70  C   UNL A   1      38.132  31.500  34.086  1.00  0.00     0.031 C 
ATOM     71  C   UNL A   1      39.444  29.950  32.506  1.00  0.00     0.037 A 
BRANCH  58  72
ATOM     72  C   UNL A   1      42.378  32.632  36.348  1.00  0.00     0.064 A 
ATOM     73  C   UNL A   1      43.219  32.142  37.373  1.00  0.00     0.173 A 
ATOM     74  C   UNL A   1      41.126  33.116  36.783  1.00  0.00     0.173 A 
ATOM     75  F   UNL A   1      44.429  31.639  37.081  1.00  0.00    -0.203 F 
ATOM     76  C   UNL A   1      42.804  32.072  38.706  1.00  0.00     0.198 A 
ATOM     77  C   UNL A   1      40.734  33.090  38.121  1.00  0.00     0.198 A 
ATOM     78  F   UNL A   1      40.182  33.525  35.928  1.00  0.00    -0.203 F 
ATOM     79  F   UNL A   1      43.589  31.485  39.620  1.00  0.00    -0.200 F 
ATOM     80  C   UNL A   1      41.558  32.539  39.079  1.00  0.00     0.200 A 
ATOM     81  F   UNL A   1      39.511  33.526  38.457  1.00  0.00    -0.200 F 
ATOM     82  F   UNL A   1      41.132  32.420  40.342  1.00  0.00    -0.200 F 
ENDBRANCH  58  72
BRANCH  59  83
ATOM     83  C   UNL A   1      35.424  34.136  31.617  1.00  0.00     0.064 A 
ATOM     84  C   UNL A   1      35.201  35.123  32.590  1.00  0.00     0.173 A 
ATOM     85  C   UNL A   1      34.500  34.079  30.556  1.00  0.00     0.173 A 
ATOM     86  F   UNL A   1      36.058  35.266  33.611  1.00  0.00    -0.203 F 
ATOM     87  C   UNL A   1      34.136  36.025  32.489  1.00  0.00     0.198 A 
ATOM     88  C   UNL A   1      33.439  34.980  30.454  1.00  0.00     0.198 A 
ATOM     89  F   UNL A   1      34.673  33.212  29.546  1.00  0.00    -0.203 F 
ATOM     90  F   UNL A   1      33.992  36.995  33.402  1.00  0.00    -0.200 F 
ATOM     91  C   UNL A   1      33.265  35.962  31.412  1.00  0.00     0.200 A 
ATOM     92  F   UNL A   1      32.627  34.935  29.388  1.00  0.00    -0.200 F 
ATOM     93  F   UNL A   1      32.288  36.870  31.277  1.00  0.00    -0.200 F 
ENDBRANCH  59  83
BRANCH  71  94
ATOM     94  C   UNL A   1      39.338  29.205  31.210  1.00  0.00     0.064 A 
ATOM     95  C   UNL A   1      39.701  29.721  29.956  1.00  0.00     0.173 A 
ATOM     96  C   UNL A   1      38.921  27.869  31.264  1.00  0.00     0.173 A 
ATOM     97  F   UNL A   1      40.180  30.965  29.833  1.00  0.00    -0.203 F 
ATOM     98  C   UNL A   1      39.615  28.940  28.805  1.00  0.00     0.198 A 
ATOM     99  C   UNL A   1      38.870  27.081  30.120  1.00  0.00     0.198 A 
ATOM    100  F   UNL A   1      38.599  27.313  32.443  1.00  0.00    -0.203 F 
ATOM    101  F   UNL A   1      39.950  29.457  27.612  1.00  0.00    -0.200 F 
ATOM    102  C   UNL A   1      39.206  27.619  28.889  1.00  0.00     0.200 A 
ATOM    103  F   UNL A   1      38.514  25.792  30.217  1.00  0.00    -0.200 F 
ATOM    104  F   UNL A   1      39.155  26.856  27.788  1.00  0.00    -0.200 F 
ENDBRANCH  71  94
ENDBRANCH  45  46
ENDBRANCH  37  40
ENDBRANCH  35  36
ENDBRANCH  34  35
ENDBRANCH   1  34
TORSDOF 13
ENDMDL
MODEL 2
REMARK VINA RESULT:     -13.9      5.160     12.109
REMARK SMILES Cc1nn(-c2nc3ccccc3o2)c2c1[C@H](c1ccc(C(=O)NCCCCNC(=O)c3ccc(-c4c5nc(c(-c6c(F)c(F)c(F)c(F)c6F)c6ccc([nH]6)c(-c6c(F)c(F)c(F)c(F)c6F)c6nc(c(-c7c(F)c(F)c(F)c(F)c7F)c7ccc4[nH]7)C=C6)C=C5)cc3)cc1)CC(=O)N2
REMARK SMILES IDX 25 1 24 2 23 3 21 4 22 5 20 7 17 8 18 9 95 10 19 11 94 12
REMARK SMILES IDX 16 13 1 14 2 15 3 16 15 17 4 18 14 19 99 20 96 21 97 22
REMARK SMILES IDX 98 24 5 25 6 26 13 27 7 28 12 29 8 30 11 31 9 32 10 33 26 34
REMARK SMILES IDX 27 35 28 36 29 37 30 39 31 40 32 41 93 42 33 43 92 44 34 45
REMARK SMILES IDX 35 46 36 47 86 48 37 49 91 50 85 51 87 52 38 53 90 54 84 55
REMARK SMILES IDX 83 56 39 58 71 59 51 60 70 61 52 62 55 63 69 64 88 65 53 66
REMARK SMILES IDX 54 67 68 69 89 70 56 71 40 72 41 73 49 74 42 75 43 76 47 77
REMARK SMILES IDX 50 78 44 79 45 80 48 81 46 82 72 83 73 84 81 85 74 86 75 87
REMARK SMILES IDX 79 88 82 89 76 90 77 91 80 92 78 93 57 94 58 95 66 96 59 97
REMARK SMILES IDX 60 98 64 99 67 100 61 101 62 102 65 103 63 104
REMARK H PARENT 23 6 99 23 28 38 87 57 55 68
REMARK Flexibility Score: inf
ROOT
ATOM      1  C   UNL A   1      41.599  26.785  34.516  1.00  0.00     0.023 C 
ENDROOT
BRANCH   1   2
ATOM      2  C   UNL A   1      41.499  28.274  34.161  1.00  0.00     0.116 C 
BRANCH   2   3
ATOM      3  N   UNL A   1      41.795  29.129  35.294  1.00  0.00    -0.352 N 
ATOM      4  C   UNL A   1      41.185  30.267  35.767  1.00  0.00     0.251 C 
ATOM      5  O   UNL A   1      41.577  30.727  36.838  1.00  0.00    -0.269 OA
ATOM      6  H   UNL A   1      42.577  28.845  35.822  1.00  0.00     0.163 HD
BRANCH   4   7
ATOM      7  C   UNL A   1      40.062  30.942  35.059  1.00  0.00     0.039 A 
ATOM      8  C   UNL A   1      38.033  32.298  33.593  1.00  0.00    -0.040 A 
ATOM      9  C   UNL A   1      39.244  32.932  33.913  1.00  0.00     0.005 A 
ATOM     10  C   UNL A   1      37.866  30.974  34.026  1.00  0.00     0.005 A 
ATOM     11  C   UNL A   1      40.257  32.253  34.608  1.00  0.00     0.014 A 
ATOM     12  C   UNL A   1      38.862  30.309  34.747  1.00  0.00     0.014 A 
BRANCH   8  13
ATOM     13  C   UNL A   1      36.975  33.028  32.773  1.00  0.00     0.064 C 
ATOM     14  C   UNL A   1      39.398  32.429  30.325  1.00  0.00     0.069 C 
ATOM     15  C   UNL A   1      37.942  32.137  30.398  1.00  0.00     0.066 A 
ATOM     16  N   UNL A   1      37.382  31.594  29.304  1.00  0.00    -0.167 NA
ATOM     17  C   UNL A   1      36.967  32.403  31.411  1.00  0.00     0.026 A 
ATOM     18  N   UNL A   1      36.065  31.531  29.589  1.00  0.00    -0.166 N 
ATOM     19  C   UNL A   1      35.771  32.128  30.784  1.00  0.00     0.145 A 
ATOM     20  N   UNL A   1      34.522  32.458  31.249  1.00  0.00    -0.310 N 
ATOM     21  C   UNL A   1      35.570  32.968  33.426  1.00  0.00     0.113 C 
ATOM     22  C   UNL A   1      34.389  33.062  32.471  1.00  0.00     0.226 C 
ATOM     23  H   UNL A   1      33.725  32.260  30.706  1.00  0.00     0.171 HD
ATOM     24  O   UNL A   1      33.307  33.529  32.822  1.00  0.00    -0.275 OA
BRANCH  18  25
ATOM     25  C   UNL A   1      35.210  30.933  28.674  1.00  0.00     0.325 A 
ATOM     26  N   UNL A   1      34.192  31.601  28.147  1.00  0.00    -0.191 NA
ATOM     27  O   UNL A   1      35.342  29.644  28.213  1.00  0.00    -0.422 OA
ATOM     28  C   UNL A   1      33.538  30.660  27.403  1.00  0.00     0.111 A 
ATOM     29  C   UNL A   1      34.240  29.466  27.429  1.00  0.00     0.156 A 
ATOM     30  C   UNL A   1      32.332  30.728  26.698  1.00  0.00     0.032 A 
ATOM     31  C   UNL A   1      33.843  28.300  26.791  1.00  0.00     0.049 A 
ATOM     32  C   UNL A   1      31.865  29.555  26.089  1.00  0.00     0.003 A 
ATOM     33  C   UNL A   1      32.607  28.367  26.134  1.00  0.00     0.004 A 
ENDBRANCH  18  25
ENDBRANCH   8  13
ENDBRANCH   4   7
ENDBRANCH   2   3
ENDBRANCH   1   2
BRANCH   1  34
ATOM     34  C   UNL A   1      41.643  26.450  36.013  1.00  0.00     0.023 C 
BRANCH  34  35
ATOM     35  C   UNL A   1      41.945  24.995  36.343  1.00  0.00     0.116 C 
BRANCH  35  36
ATOM     36  N   UNL A   1      43.140  24.825  37.174  1.00  0.00    -0.352 N 
ATOM     37  C   UNL A   1      44.391  24.364  36.789  1.00  0.00     0.251 C 
ATOM     38  H   UNL A   1      43.044  25.069  38.122  1.00  0.00     0.163 HD
ATOM     39  O   UNL A   1      45.174  23.889  37.591  1.00  0.00    -0.269 OA
BRANCH  37  40
ATOM     40  C   UNL A   1      44.761  24.496  35.370  1.00  0.00     0.039 A 
ATOM     41  C   UNL A   1      44.772  23.409  34.495  1.00  0.00     0.014 A 
ATOM     42  C   UNL A   1      45.042  25.782  34.924  1.00  0.00     0.014 A 
ATOM     43  C   UNL A   1      44.988  23.652  33.140  1.00  0.00     0.010 A 
ATOM     44  C   UNL A   1      45.051  26.040  33.583  1.00  0.00     0.010 A 
ATOM     45  C   UNL A   1      45.107  24.979  32.691  1.00  0.00    -0.014 A 
BRANCH  45  46
ATOM     46  C   UNL A   1      45.188  25.301  31.274  1.00  0.00     0.031 A 
ATOM     47  C   UNL A   1      46.252  26.283  30.945  1.00  0.00     0.074 A 
ATOM     48  C   UNL A   1      44.518  24.601  30.331  1.00  0.00     0.049 A 
ATOM     49  N   UNL A   1      46.099  27.513  30.584  1.00  0.00    -0.248 NA
ATOM     50  C   UNL A   1      47.655  25.913  31.196  1.00  0.00     0.031 C 
ATOM     51  C   UNL A   1      43.715  23.381  30.513  1.00  0.00     0.029 A 
ATOM     52  N   UNL A   1      44.490  24.770  28.979  1.00  0.00    -0.354 N 
ATOM     53  C   UNL A   1      47.380  27.996  30.327  1.00  0.00     0.074 A 
ATOM     54  C   UNL A   1      48.290  27.056  30.922  1.00  0.00     0.031 C 
ATOM     55  C   UNL A   1      43.487  22.797  29.317  1.00  0.00     0.029 A 
ATOM     56  C   UNL A   1      43.947  23.697  28.279  1.00  0.00     0.049 A 
ATOM     57  H   UNL A   1      44.827  25.582  28.535  1.00  0.00     0.167 HD
ATOM     58  C   UNL A   1      47.567  28.951  29.372  1.00  0.00     0.037 A 
ATOM     59  C   UNL A   1      43.870  23.560  26.934  1.00  0.00     0.037 A 
ATOM     60  C   UNL A   1      46.299  29.511  28.979  1.00  0.00     0.049 A 
ATOM     61  C   UNL A   1      43.978  24.917  26.353  1.00  0.00     0.074 A 
ATOM     62  C   UNL A   1      45.381  30.390  29.509  1.00  0.00     0.029 A 
ATOM     63  N   UNL A   1      45.657  28.774  28.019  1.00  0.00    -0.354 N 
ATOM     64  N   UNL A   1      43.078  25.844  26.528  1.00  0.00    -0.248 NA
ATOM     65  C   UNL A   1      45.276  25.384  25.883  1.00  0.00     0.031 C 
ATOM     66  C   UNL A   1      44.117  30.024  28.952  1.00  0.00     0.029 A 
ATOM     67  C   UNL A   1      44.305  28.971  28.056  1.00  0.00     0.049 A 
ATOM     68  H   UNL A   1      46.112  28.177  27.383  1.00  0.00     0.167 HD
ATOM     69  C   UNL A   1      43.805  27.016  26.610  1.00  0.00     0.074 A 
ATOM     70  C   UNL A   1      45.107  26.701  26.032  1.00  0.00     0.031 C 
ATOM     71  C   UNL A   1      43.405  28.025  27.435  1.00  0.00     0.037 A 
BRANCH  58  72
ATOM     72  C   UNL A   1      48.752  29.027  28.426  1.00  0.00     0.064 A 
ATOM     73  C   UNL A   1      49.038  27.911  27.607  1.00  0.00     0.173 A 
ATOM     74  C   UNL A   1      49.789  29.980  28.523  1.00  0.00     0.173 A 
ATOM     75  F   UNL A   1      48.136  26.929  27.451  1.00  0.00    -0.203 F 
ATOM     76  C   UNL A   1      50.287  27.732  27.004  1.00  0.00     0.198 A 
ATOM     77  C   UNL A   1      51.016  29.821  27.879  1.00  0.00     0.198 A 
ATOM     78  F   UNL A   1      49.711  31.041  29.331  1.00  0.00    -0.203 F 
ATOM     79  F   UNL A   1      50.551  26.598  26.339  1.00  0.00    -0.200 F 
ATOM     80  C   UNL A   1      51.278  28.684  27.146  1.00  0.00     0.200 A 
ATOM     81  F   UNL A   1      51.973  30.745  28.051  1.00  0.00    -0.200 F 
ATOM     82  F   UNL A   1      52.494  28.489  26.621  1.00  0.00    -0.200 F 
ENDBRANCH  58  72
BRANCH  59  83
ATOM     83  C   UNL A   1      43.970  22.333  26.116  1.00  0.00     0.064 A 
ATOM     84  C   UNL A   1      45.212  21.834  25.691  1.00  0.00     0.173 A 
ATOM     85  C   UNL A   1      42.868  21.465  25.991  1.00  0.00     0.173 A 
ATOM     86  F   UNL A   1      46.315  22.585  25.813  1.00  0.00    -0.203 F 
ATOM     87  C   UNL A   1      45.350  20.530  25.203  1.00  0.00     0.198 A 
ATOM     88  C   UNL A   1      43.006  20.164  25.506  1.00  0.00     0.198 A 
ATOM     89  F   UNL A   1      41.657  21.834  26.435  1.00  0.00    -0.203 F 
ATOM     90  F   UNL A   1      46.561  20.065  24.866  1.00  0.00    -0.200 F 
ATOM     91  C   UNL A   1      44.248  19.691  25.125  1.00  0.00     0.200 A 
ATOM     92  F   UNL A   1      41.942  19.350  25.473  1.00  0.00    -0.200 F 
ATOM     93  F   UNL A   1      44.392  18.420  24.725  1.00  0.00    -0.200 F 
ENDBRANCH  59  83
BRANCH  71  94
ATOM     94  C   UNL A   1      41.962  28.060  27.834  1.00  0.00     0.064 A 
ATOM     95  C   UNL A   1      41.445  27.522  29.024  1.00  0.00     0.173 A 
ATOM     96  C   UNL A   1      41.076  28.751  26.998  1.00  0.00     0.173 A 
ATOM     97  F   UNL A   1      42.242  26.913  29.910  1.00  0.00    -0.203 F 
ATOM     98  C   UNL A   1      40.093  27.642  29.339  1.00  0.00     0.198 A 
ATOM     99  C   UNL A   1      39.734  28.900  27.332  1.00  0.00     0.198 A 
ATOM    100  F   UNL A   1      41.524  29.320  25.867  1.00  0.00    -0.203 F 
ATOM    101  F   UNL A   1      39.615  27.104  30.472  1.00  0.00    -0.200 F 
ATOM    102  C   UNL A   1      39.240  28.337  28.496  1.00  0.00     0.200 A 
ATOM    103  F   UNL A   1      38.926  29.610  26.532  1.00  0.00    -0.200 F 
ATOM    104  F   UNL A   1      37.946  28.482  28.815  1.00  0.00    -0.200 F 
ENDBRANCH  71  94
ENDBRANCH  45  46
ENDBRANCH  37  40
ENDBRANCH  35  36
ENDBRANCH  34  35
ENDBRANCH   1  34
TORSDOF 13
ENDMDL
MODEL 3
REMARK VINA RESULT:     -13.5      4.888      8.892
REMARK SMILES Cc1nn(-c2nc3ccccc3o2)c2c1[C@H](c1ccc(C(=O)NCCCCNC(=O)c3ccc(-c4c5nc(c(-c6c(F)c(F)c(F)c(F)c6F)c6ccc([nH]6)c(-c6c(F)c(F)c(F)c(F)c6F)c6nc(c(-c7c(F)c(F)c(F)c(F)c7F)c7ccc4[nH]7)C=C6)C=C5)cc3)cc1)CC(=O)N2
REMARK SMILES IDX 25 1 24 2 23 3 21 4 22 5 20 7 17 8 18 9 95 10 19 11 94 12
REMARK SMILES IDX 16 13 1 14 2 15 3 16 15 17 4 18 14 19 99 20 96 21 97 22
REMARK SMILES IDX 98 24 5 25 6 26 13 27 7 28 12 29 8 30 11 31 9 32 10 33 26 34
REMARK SMILES IDX 27 35 28 36 29 37 30 39 31 40 32 41 93 42 33 43 92 44 34 45
REMARK SMILES IDX 35 46 36 47 86 48 37 49 91 50 85 51 87 52 38 53 90 54 84 55
REMARK SMILES IDX 83 56 39 58 71 59 51 60 70 61 52 62 55 63 69 64 88 65 53 66
REMARK SMILES IDX 54 67 68 69 89 70 56 71 40 72 41 73 49 74 42 75 43 76 47 77
REMARK SMILES IDX 50 78 44 79 45 80 48 81 46 82 72 83 73 84 81 85 74 86 75 87
REMARK SMILES IDX 79 88 82 89 76 90 77 91 80 92 78 93 57 94 58 95 66 96 59 97
REMARK SMILES IDX 60 98 64 99 67 100 61 101 62 102 65 103 63 104
REMARK H PARENT 23 6 99 23 28 38 87 57 55 68
REMARK Flexibility Score: inf
ROOT
ATOM      1  C   UNL A   1      45.231  24.403  26.726  1.00  0.00     0.023 C 
ENDROOT
BRANCH   1   2
ATOM      2  C   UNL A   1      46.716  24.373  27.111  1.00  0.00     0.116 C 
BRANCH   2   3
ATOM      3  N   UNL A   1      47.283  25.704  27.213  1.00  0.00    -0.352 N 
ATOM      4  C   UNL A   1      47.310  26.610  28.247  1.00  0.00     0.251 C 
ATOM      5  O   UNL A   1      47.979  27.631  28.099  1.00  0.00    -0.269 OA
ATOM      6  H   UNL A   1      47.730  26.017  26.394  1.00  0.00     0.163 HD
BRANCH   4   7
ATOM      7  C   UNL A   1      46.594  26.397  29.535  1.00  0.00     0.039 A 
ATOM      8  C   UNL A   1      45.345  26.093  32.075  1.00  0.00    -0.040 A 
ATOM      9  C   UNL A   1      46.740  26.003  31.937  1.00  0.00     0.005 A 
ATOM     10  C   UNL A   1      44.597  26.336  30.914  1.00  0.00     0.005 A 
ATOM     11  C   UNL A   1      47.357  26.184  30.689  1.00  0.00     0.014 A 
ATOM     12  C   UNL A   1      45.211  26.483  29.667  1.00  0.00     0.014 A 
BRANCH   8  13
ATOM     13  C   UNL A   1      44.698  25.966  33.450  1.00  0.00     0.064 C 
ATOM     14  C   UNL A   1      43.699  22.956  31.980  1.00  0.00     0.069 C 
ATOM     15  C   UNL A   1      44.390  23.276  33.257  1.00  0.00     0.066 A 
ATOM     16  N   UNL A   1      44.646  22.244  34.077  1.00  0.00    -0.167 NA
ATOM     17  C   UNL A   1      44.779  24.523  33.842  1.00  0.00     0.026 A 
ATOM     18  N   UNL A   1      45.168  22.808  35.186  1.00  0.00    -0.166 N 
ATOM     19  C   UNL A   1      45.136  24.175  35.127  1.00  0.00     0.145 A 
ATOM     20  N   UNL A   1      45.352  25.044  36.168  1.00  0.00    -0.310 N 
ATOM     21  C   UNL A   1      45.371  26.875  34.511  1.00  0.00     0.113 C 
ATOM     22  C   UNL A   1      45.279  26.395  35.952  1.00  0.00     0.226 C 
ATOM     23  H   UNL A   1      45.559  24.697  37.066  1.00  0.00     0.171 HD
ATOM     24  O   UNL A   1      45.285  27.179  36.899  1.00  0.00    -0.275 OA
BRANCH  18  25
ATOM     25  C   UNL A   1      45.617  21.985  36.209  1.00  0.00     0.325 A 
ATOM     26  N   UNL A   1      45.672  20.669  36.057  1.00  0.00    -0.191 NA
ATOM     27  O   UNL A   1      46.064  22.434  37.430  1.00  0.00    -0.422 OA
ATOM     28  C   UNL A   1      46.045  20.216  37.291  1.00  0.00     0.111 A 
ATOM     29  C   UNL A   1      46.297  21.288  38.131  1.00  0.00     0.156 A 
ATOM     30  C   UNL A   1      46.168  18.915  37.789  1.00  0.00     0.032 A 
ATOM     31  C   UNL A   1      46.681  21.180  39.460  1.00  0.00     0.049 A 
ATOM     32  C   UNL A   1      46.495  18.762  39.143  1.00  0.00     0.003 A 
ATOM     33  C   UNL A   1      46.747  19.873  39.960  1.00  0.00     0.004 A 
ENDBRANCH  18  25
ENDBRANCH   8  13
ENDBRANCH   4   7
ENDBRANCH   2   3
ENDBRANCH   1   2
BRANCH   1  34
ATOM     34  C   UNL A   1      44.744  23.258  25.828  1.00  0.00     0.023 C 
BRANCH  34  35
ATOM     35  C   UNL A   1      43.564  23.598  24.927  1.00  0.00     0.116 C 
BRANCH  35  36
ATOM     36  N   UNL A   1      42.421  22.698  25.104  1.00  0.00    -0.352 N 
ATOM     37  C   UNL A   1      41.518  22.658  26.156  1.00  0.00     0.251 C 
ATOM     38  H   UNL A   1      42.275  22.041  24.386  1.00  0.00     0.163 HD
ATOM     39  O   UNL A   1      40.873  21.658  26.410  1.00  0.00    -0.269 OA
BRANCH  37  40
ATOM     40  C   UNL A   1      41.338  23.886  26.948  1.00  0.00     0.039 A 
ATOM     41  C   UNL A   1      41.931  24.064  28.199  1.00  0.00     0.014 A 
ATOM     42  C   UNL A   1      40.591  24.897  26.356  1.00  0.00     0.014 A 
ATOM     43  C   UNL A   1      41.829  25.313  28.809  1.00  0.00     0.010 A 
ATOM     44  C   UNL A   1      40.664  26.167  26.855  1.00  0.00     0.010 A 
ATOM     45  C   UNL A   1      41.208  26.366  28.115  1.00  0.00    -0.014 A 
BRANCH  45  46
ATOM     46  C   UNL A   1      41.201  27.725  28.637  1.00  0.00     0.031 A 
ATOM     47  C   UNL A   1      42.297  28.574  28.107  1.00  0.00     0.074 A 
ATOM     48  C   UNL A   1      40.164  28.224  29.348  1.00  0.00     0.049 A 
ATOM     49  N   UNL A   1      43.340  28.994  28.742  1.00  0.00    -0.248 NA
ATOM     50  C   UNL A   1      42.330  28.863  26.664  1.00  0.00     0.031 C 
ATOM     51  C   UNL A   1      38.869  27.583  29.627  1.00  0.00     0.029 A 
ATOM     52  N   UNL A   1      40.003  29.461  29.898  1.00  0.00    -0.354 N 
ATOM     53  C   UNL A   1      44.032  29.802  27.843  1.00  0.00     0.074 A 
ATOM     54  C   UNL A   1      43.493  29.510  26.544  1.00  0.00     0.031 C 
ATOM     55  C   UNL A   1      37.986  28.503  30.071  1.00  0.00     0.029 A 
ATOM     56  C   UNL A   1      38.700  29.743  30.299  1.00  0.00     0.049 A 
ATOM     57  H   UNL A   1      40.744  30.101  30.001  1.00  0.00     0.167 HD
ATOM     58  C   UNL A   1      44.755  30.864  28.301  1.00  0.00     0.037 A 
ATOM     59  C   UNL A   1      38.240  30.915  30.797  1.00  0.00     0.037 A 
ATOM     60  C   UNL A   1      44.899  30.782  29.733  1.00  0.00     0.049 A 
ATOM     61  C   UNL A   1      39.411  31.656  31.315  1.00  0.00     0.074 A 
ATOM     62  C   UNL A   1      45.640  30.043  30.627  1.00  0.00     0.029 A 
ATOM     63  N   UNL A   1      43.831  31.303  30.414  1.00  0.00    -0.354 N 
ATOM     64  N   UNL A   1      40.120  31.253  32.333  1.00  0.00    -0.248 NA
ATOM     65  C   UNL A   1      40.043  32.663  30.471  1.00  0.00     0.031 C 
ATOM     66  C   UNL A   1      44.873  29.996  31.832  1.00  0.00     0.029 A 
ATOM     67  C   UNL A   1      43.714  30.751  31.659  1.00  0.00     0.049 A 
ATOM     68  H   UNL A   1      43.224  31.988  30.052  1.00  0.00     0.167 HD
ATOM     69  C   UNL A   1      41.413  31.617  32.016  1.00  0.00     0.074 A 
ATOM     70  C   UNL A   1      41.282  32.624  30.969  1.00  0.00     0.031 C 
ATOM     71  C   UNL A   1      42.467  30.835  32.387  1.00  0.00     0.037 A 
BRANCH  58  72
ATOM     72  C   UNL A   1      44.880  32.207  27.605  1.00  0.00     0.064 A 
ATOM     73  C   UNL A   1      46.071  32.498  26.902  1.00  0.00     0.173 A 
ATOM     74  C   UNL A   1      44.053  33.321  27.869  1.00  0.00     0.173 A 
ATOM     75  F   UNL A   1      46.946  31.524  26.608  1.00  0.00    -0.203 F 
ATOM     76  C   UNL A   1      46.435  33.806  26.564  1.00  0.00     0.198 A 
ATOM     77  C   UNL A   1      44.397  34.617  27.487  1.00  0.00     0.198 A 
ATOM     78  F   UNL A   1      42.942  33.227  28.605  1.00  0.00    -0.203 F 
ATOM     79  F   UNL A   1      47.631  34.044  26.008  1.00  0.00    -0.200 F 
ATOM     80  C   UNL A   1      45.601  34.866  26.864  1.00  0.00     0.200 A 
ATOM     81  F   UNL A   1      43.584  35.635  27.810  1.00  0.00    -0.200 F 
ATOM     82  F   UNL A   1      45.971  36.125  26.597  1.00  0.00    -0.200 F 
ENDBRANCH  58  72
BRANCH  59  83
ATOM     83  C   UNL A   1      36.913  31.543  30.622  1.00  0.00     0.064 A 
ATOM     84  C   UNL A   1      36.036  31.718  31.705  1.00  0.00     0.173 A 
ATOM     85  C   UNL A   1      36.607  32.251  29.444  1.00  0.00     0.173 A 
ATOM     86  F   UNL A   1      36.280  31.107  32.873  1.00  0.00    -0.203 F 
ATOM     87  C   UNL A   1      34.937  32.580  31.626  1.00  0.00     0.198 A 
ATOM     88  C   UNL A   1      35.511  33.112  29.367  1.00  0.00     0.198 A 
ATOM     89  F   UNL A   1      37.426  32.197  28.384  1.00  0.00    -0.203 F 
ATOM     90  F   UNL A   1      34.158  32.772  32.699  1.00  0.00    -0.200 F 
ATOM     91  C   UNL A   1      34.684  33.288  30.461  1.00  0.00     0.200 A 
ATOM     92  F   UNL A   1      35.301  33.822  28.249  1.00  0.00    -0.200 F 
ATOM     93  F   UNL A   1      33.674  34.167  30.408  1.00  0.00    -0.200 F 
ENDBRANCH  59  83
BRANCH  71  94
ATOM     94  C   UNL A   1      42.260  29.898  33.537  1.00  0.00     0.064 A 
ATOM     95  C   UNL A   1      41.908  28.544  33.415  1.00  0.00     0.173 A 
ATOM     96  C   UNL A   1      42.513  30.388  34.825  1.00  0.00     0.173 A 
ATOM     97  F   UNL A   1      41.724  27.983  32.214  1.00  0.00    -0.203 F 
ATOM     98  C   UNL A   1      41.782  27.730  34.540  1.00  0.00     0.198 A 
ATOM     99  C   UNL A   1      42.421  29.565  35.942  1.00  0.00     0.198 A 
ATOM    100  F   UNL A   1      42.891  31.665  34.995  1.00  0.00    -0.203 F 
ATOM    101  F   UNL A   1      41.428  26.443  34.404  1.00  0.00    -0.200 F 
ATOM    102  C   UNL A   1      42.046  28.240  35.801  1.00  0.00     0.200 A 
ATOM    103  F   UNL A   1      42.719  30.055  37.154  1.00  0.00    -0.200 F 
ATOM    104  F   UNL A   1      41.958  27.449  36.881  1.00  0.00    -0.200 F 
ENDBRANCH  71  94
ENDBRANCH  45  46
ENDBRANCH  37  40
ENDBRANCH  35  36
ENDBRANCH  34  35
ENDBRANCH   1  34
TORSDOF 13
ENDMDL
