MODEL 1
REMARK VINA RESULT:     -12.0      0.000      0.000
REMARK SMILES CCC[C@@]1(C(=O)NCCCCNC(=O)c2ccc(-c3c4nc(c(-c5c(F)c(F)c(F)c(F)c5F)c5ccc([nH]5)c(-c5c(F)c(F)c(F)c(F)c5F)c5nc(c(-c6c(F)c(F)c(F)c(F)c6F)c6ccc3[nH]6)C=C5)C=C4)cc2)CCN(C(=O)NC[C@]2(C)CCCO2)C1
REMARK SMILES IDX 9 1 8 2 7 3 5 4 6 5 4 7 78 8 91 9 79 10 80 11 3 12 2 13 1 14
REMARK SMILES IDX 81 15 82 16 83 17 84 19 85 20 87 21 90 22 86 23 88 24 89 25
REMARK SMILES IDX 10 26 11 27 12 28 13 29 14 31 15 32 16 33 77 34 17 35 76 36
REMARK SMILES IDX 18 37 19 38 20 39 70 40 21 41 75 42 69 43 71 44 22 45 74 46
REMARK SMILES IDX 68 47 67 48 23 50 55 51 35 52 54 53 36 54 39 55 53 56 72 57
REMARK SMILES IDX 37 58 38 59 52 61 73 62 40 63 24 64 25 65 33 66 26 67 27 68
REMARK SMILES IDX 31 69 34 70 28 71 29 72 32 73 30 74 56 75 57 76 65 77 58 78
REMARK SMILES IDX 59 79 63 80 66 81 60 82 61 83 64 84 62 85 41 86 42 87 50 88
REMARK SMILES IDX 43 89 44 90 48 91 51 92 45 93 46 94 49 95 47 96
REMARK H PARENT 7 6 83 18 12 30 71 49 39 60
REMARK Flexibility Score: inf
ROOT
ATOM      1  C   UNL A   1      37.424  22.227  24.613  1.00  0.00     0.023 C 
ENDROOT
BRANCH   1   2
ATOM      2  C   UNL A   1      36.943  23.284  25.599  1.00  0.00     0.116 C 
BRANCH   2   3
ATOM      3  N   UNL A   1      36.078  22.735  26.626  1.00  0.00    -0.356 N 
ATOM      4  C   UNL A   1      34.769  22.360  26.632  1.00  0.00     0.228 C 
ATOM      5  O   UNL A   1      34.419  21.702  27.617  1.00  0.00    -0.274 OA
ATOM      6  H   UNL A   1      36.528  22.608  27.493  1.00  0.00     0.163 HD
BRANCH   4   7
ATOM      7  C   UNL A   1      33.789  22.675  25.486  1.00  0.00     0.068 C 
ATOM      8  C   UNL A   1      33.829  24.148  25.035  1.00  0.00     0.040 C 
ATOM      9  C   UNL A   1      32.315  22.603  26.050  1.00  0.00     0.138 C 
ATOM     10  C   UNL A   1      33.006  24.847  26.100  1.00  0.00     0.122 C 
ATOM     11  N   UNL A   1      31.865  23.989  26.205  1.00  0.00    -0.324 N 
BRANCH   7  12
ATOM     12  C   UNL A   1      33.875  21.632  24.337  1.00  0.00     0.018 C 
BRANCH  12  13
ATOM     13  C   UNL A   1      33.673  20.146  24.637  1.00  0.00    -0.002 C 
ATOM     14  C   UNL A   1      32.588  19.494  23.789  1.00  0.00     0.004 C 
ENDBRANCH  12  13
ENDBRANCH   7  12
BRANCH  11  15
ATOM     15  C   UNL A   1      30.542  24.280  26.178  1.00  0.00     0.317 C 
ATOM     16  O   UNL A   1      29.826  24.116  27.171  1.00  0.00    -0.249 OA
ATOM     17  N   UNL A   1      29.913  24.718  25.073  1.00  0.00    -0.335 N 
ATOM     18  H   UNL A   1      28.935  24.645  25.157  1.00  0.00     0.165 HD
BRANCH  17  19
ATOM     19  C   UNL A   1      30.301  25.271  23.782  1.00  0.00     0.152 C 
BRANCH  19  20
ATOM     20  C   UNL A   1      30.083  26.809  23.603  1.00  0.00     0.083 C 
ATOM     21  C   UNL A   1      30.806  27.462  22.424  1.00  0.00     0.039 C 
ATOM     22  O   UNL A   1      30.689  27.445  24.761  1.00  0.00    -0.373 OA
ATOM     23  C   UNL A   1      28.599  27.176  23.586  1.00  0.00     0.044 C 
ATOM     24  C   UNL A   1      32.216  27.603  22.943  1.00  0.00     0.031 C 
ATOM     25  C   UNL A   1      31.971  27.978  24.390  1.00  0.00     0.161 C 
ENDBRANCH  19  20
ENDBRANCH  17  19
ENDBRANCH  11  15
ENDBRANCH   4   7
ENDBRANCH   2   3
ENDBRANCH   1   2
BRANCH   1  26
ATOM     26  C   UNL A   1      37.856  20.914  25.267  1.00  0.00     0.023 C 
BRANCH  26  27
ATOM     27  C   UNL A   1      39.219  20.948  25.955  1.00  0.00     0.116 C 
BRANCH  27  28
ATOM     28  N   UNL A   1      39.958  19.696  25.853  1.00  0.00    -0.352 N 
ATOM     29  C   UNL A   1      41.306  19.483  26.028  1.00  0.00     0.251 C 
ATOM     30  H   UNL A   1      39.423  18.900  25.629  1.00  0.00     0.163 HD
ATOM     31  O   UNL A   1      41.805  18.382  25.841  1.00  0.00    -0.269 OA
BRANCH  29  32
ATOM     32  C   UNL A   1      42.148  20.635  26.400  1.00  0.00     0.039 A 
ATOM     33  C   UNL A   1      42.685  21.427  25.385  1.00  0.00     0.014 A 
ATOM     34  C   UNL A   1      42.283  20.993  27.744  1.00  0.00     0.014 A 
ATOM     35  C   UNL A   1      43.274  22.648  25.713  1.00  0.00     0.010 A 
ATOM     36  C   UNL A   1      42.817  22.235  28.063  1.00  0.00     0.010 A 
ATOM     37  C   UNL A   1      43.287  23.085  27.048  1.00  0.00    -0.014 A 
BRANCH  37  38
ATOM     38  C   UNL A   1      43.719  24.456  27.406  1.00  0.00     0.031 A 
ATOM     39  C   UNL A   1      42.714  25.460  27.885  1.00  0.00     0.074 A 
ATOM     40  C   UNL A   1      44.999  24.819  27.194  1.00  0.00     0.049 A 
ATOM     41  N   UNL A   1      42.871  26.738  28.115  1.00  0.00    -0.248 NA
ATOM     42  C   UNL A   1      41.347  24.967  28.109  1.00  0.00     0.031 C 
ATOM     43  C   UNL A   1      46.056  23.942  26.686  1.00  0.00     0.029 A 
ATOM     44  N   UNL A   1      45.624  26.031  27.354  1.00  0.00    -0.354 N 
ATOM     45  C   UNL A   1      41.622  27.206  28.496  1.00  0.00     0.074 A 
ATOM     46  C   UNL A   1      40.709  26.085  28.429  1.00  0.00     0.031 C 
ATOM     47  C   UNL A   1      47.197  24.640  26.586  1.00  0.00     0.029 A 
ATOM     48  C   UNL A   1      46.945  26.023  26.980  1.00  0.00     0.049 A 
ATOM     49  H   UNL A   1      45.168  26.830  27.703  1.00  0.00     0.167 HD
ATOM     50  C   UNL A   1      41.275  28.455  28.884  1.00  0.00     0.037 A 
ATOM     51  C   UNL A   1      47.846  27.022  26.941  1.00  0.00     0.037 A 
ATOM     52  C   UNL A   1      42.193  29.559  28.977  1.00  0.00     0.049 A 
ATOM     53  C   UNL A   1      47.426  28.405  27.353  1.00  0.00     0.074 A 
ATOM     54  C   UNL A   1      41.956  30.839  29.446  1.00  0.00     0.029 A 
ATOM     55  N   UNL A   1      43.522  29.513  28.590  1.00  0.00    -0.354 N 
ATOM     56  N   UNL A   1      46.259  28.822  27.777  1.00  0.00    -0.248 NA
ATOM     57  C   UNL A   1      48.447  29.460  27.272  1.00  0.00     0.031 C 
ATOM     58  C   UNL A   1      43.134  31.580  29.305  1.00  0.00     0.029 A 
ATOM     59  C   UNL A   1      44.113  30.752  28.780  1.00  0.00     0.049 A 
ATOM     60  H   UNL A   1      43.980  28.718  28.231  1.00  0.00     0.167 HD
ATOM     61  C   UNL A   1      46.405  30.179  28.025  1.00  0.00     0.074 A 
ATOM     62  C   UNL A   1      47.780  30.515  27.720  1.00  0.00     0.031 C 
ATOM     63  C   UNL A   1      45.481  31.068  28.463  1.00  0.00     0.037 A 
BRANCH  50  64
ATOM     64  C   UNL A   1      39.842  28.694  29.247  1.00  0.00     0.064 A 
ATOM     65  C   UNL A   1      39.376  28.493  30.555  1.00  0.00     0.173 A 
ATOM     66  C   UNL A   1      38.934  29.166  28.289  1.00  0.00     0.173 A 
ATOM     67  F   UNL A   1      40.205  28.028  31.502  1.00  0.00    -0.203 F 
ATOM     68  C   UNL A   1      38.047  28.739  30.886  1.00  0.00     0.198 A 
ATOM     69  C   UNL A   1      37.609  29.432  28.630  1.00  0.00     0.198 A 
ATOM     70  F   UNL A   1      39.331  29.375  27.025  1.00  0.00    -0.203 F 
ATOM     71  F   UNL A   1      37.614  28.505  32.132  1.00  0.00    -0.200 F 
ATOM     72  C   UNL A   1      37.167  29.214  29.925  1.00  0.00     0.200 A 
ATOM     73  F   UNL A   1      36.762  29.900  27.702  1.00  0.00    -0.200 F 
ATOM     74  F   UNL A   1      35.889  29.456  30.247  1.00  0.00    -0.200 F 
ENDBRANCH  50  64
BRANCH  51  75
ATOM     75  C   UNL A   1      49.236  26.752  26.492  1.00  0.00     0.064 A 
ATOM     76  C   UNL A   1      49.600  26.923  25.150  1.00  0.00     0.173 A 
ATOM     77  C   UNL A   1      50.223  26.320  27.389  1.00  0.00     0.173 A 
ATOM     78  F   UNL A   1      48.684  27.314  24.252  1.00  0.00    -0.203 F 
ATOM     79  C   UNL A   1      50.897  26.656  24.718  1.00  0.00     0.198 A 
ATOM     80  C   UNL A   1      51.525  26.076  26.960  1.00  0.00     0.198 A 
ATOM     81  F   UNL A   1      49.923  26.145  28.685  1.00  0.00    -0.203 F 
ATOM     82  F   UNL A   1      51.211  26.792  23.422  1.00  0.00    -0.200 F 
ATOM     83  C   UNL A   1      51.861  26.238  25.624  1.00  0.00     0.200 A 
ATOM     84  F   UNL A   1      52.456  25.683  27.841  1.00  0.00    -0.200 F 
ATOM     85  F   UNL A   1      53.110  25.986  25.210  1.00  0.00    -0.200 F 
ENDBRANCH  51  75
BRANCH  63  86
ATOM     86  C   UNL A   1      45.928  32.486  28.642  1.00  0.00     0.064 A 
ATOM     87  C   UNL A   1      45.788  33.427  27.613  1.00  0.00     0.173 A 
ATOM     88  C   UNL A   1      46.455  32.920  29.867  1.00  0.00     0.173 A 
ATOM     89  F   UNL A   1      45.305  33.054  26.417  1.00  0.00    -0.203 F 
ATOM     90  C   UNL A   1      46.171  34.752  27.800  1.00  0.00     0.198 A 
ATOM     91  C   UNL A   1      46.818  34.250  30.058  1.00  0.00     0.198 A 
ATOM     92  F   UNL A   1      46.606  32.054  30.882  1.00  0.00    -0.203 F 
ATOM     93  F   UNL A   1      46.059  35.630  26.793  1.00  0.00    -0.200 F 
ATOM     94  C   UNL A   1      46.678  35.164  29.025  1.00  0.00     0.200 A 
ATOM     95  F   UNL A   1      47.298  34.647  31.244  1.00  0.00    -0.200 F 
ATOM     96  F   UNL A   1      47.039  36.441  29.206  1.00  0.00    -0.200 F 
ENDBRANCH  63  86
ENDBRANCH  37  38
ENDBRANCH  29  32
ENDBRANCH  27  28
ENDBRANCH  26  27
ENDBRANCH   1  26
TORSDOF 16
ENDMDL
MODEL 2
REMARK VINA RESULT:     -12.0      0.479      1.720
REMARK SMILES CCC[C@@]1(C(=O)NCCCCNC(=O)c2ccc(-c3c4nc(c(-c5c(F)c(F)c(F)c(F)c5F)c5ccc([nH]5)c(-c5c(F)c(F)c(F)c(F)c5F)c5nc(c(-c6c(F)c(F)c(F)c(F)c6F)c6ccc3[nH]6)C=C5)C=C4)cc2)CCN(C(=O)NC[C@]2(C)CCCO2)C1
REMARK SMILES IDX 9 1 8 2 7 3 5 4 6 5 4 7 78 8 91 9 79 10 80 11 3 12 2 13 1 14
REMARK SMILES IDX 81 15 82 16 83 17 84 19 85 20 87 21 90 22 86 23 88 24 89 25
REMARK SMILES IDX 10 26 11 27 12 28 13 29 14 31 15 32 16 33 77 34 17 35 76 36
REMARK SMILES IDX 18 37 19 38 20 39 70 40 21 41 75 42 69 43 71 44 22 45 74 46
REMARK SMILES IDX 68 47 67 48 23 50 55 51 35 52 54 53 36 54 39 55 53 56 72 57
REMARK SMILES IDX 37 58 38 59 52 61 73 62 40 63 24 64 25 65 33 66 26 67 27 68
REMARK SMILES IDX 31 69 34 70 28 71 29 72 32 73 30 74 56 75 57 76 65 77 58 78
REMARK SMILES IDX 59 79 63 80 66 81 60 82 61 83 64 84 62 85 41 86 42 87 50 88
REMARK SMILES IDX 43 89 44 90 48 91 51 92 45 93 46 94 49 95 47 96
REMARK H PARENT 7 6 83 18 12 30 71 49 39 60
REMARK Flexibility Score: inf
ROOT
ATOM      1  C   UNL A   1      37.381  22.229  24.491  1.00  0.00     0.023 C 
ENDROOT
BRANCH   1   2
ATOM      2  C   UNL A   1      36.815  23.290  25.426  1.00  0.00     0.116 C 
BRANCH   2   3
ATOM      3  N   UNL A   1      36.077  22.718  26.536  1.00  0.00    -0.356 N 
ATOM      4  C   UNL A   1      34.778  22.339  26.687  1.00  0.00     0.228 C 
ATOM      5  O   UNL A   1      34.546  21.660  27.693  1.00  0.00    -0.274 OA
ATOM      6  H   UNL A   1      36.626  22.575  27.341  1.00  0.00     0.163 HD
BRANCH   4   7
ATOM      7  C   UNL A   1      33.670  22.674  25.671  1.00  0.00     0.068 C 
ATOM      8  C   UNL A   1      33.545  24.182  25.379  1.00  0.00     0.040 C 
ATOM      9  C   UNL A   1      32.268  22.411  26.350  1.00  0.00     0.138 C 
ATOM     10  C   UNL A   1      32.772  24.693  26.579  1.00  0.00     0.122 C 
ATOM     11  N   UNL A   1      31.721  23.727  26.690  1.00  0.00    -0.324 N 
BRANCH   7  12
ATOM     12  C   UNL A   1      33.732  21.763  24.413  1.00  0.00     0.018 C 
BRANCH  12  13
ATOM     13  C   UNL A   1      33.873  20.248  24.574  1.00  0.00    -0.002 C 
ATOM     14  C   UNL A   1      32.622  19.473  24.179  1.00  0.00     0.004 C 
ENDBRANCH  12  13
ENDBRANCH   7  12
BRANCH  11  15
ATOM     15  C   UNL A   1      30.382  23.896  26.809  1.00  0.00     0.317 C 
ATOM     16  O   UNL A   1      29.689  23.109  27.462  1.00  0.00    -0.249 OA
ATOM     17  N   UNL A   1      29.714  24.890  26.197  1.00  0.00    -0.335 N 
ATOM     18  H   UNL A   1      28.744  24.725  26.188  1.00  0.00     0.165 HD
BRANCH  17  19
ATOM     19  C   UNL A   1      30.052  26.148  25.543  1.00  0.00     0.152 C 
BRANCH  19  20
ATOM     20  C   UNL A   1      30.018  26.137  23.980  1.00  0.00     0.083 C 
ATOM     21  C   UNL A   1      30.925  27.148  23.278  1.00  0.00     0.039 C 
ATOM     22  O   UNL A   1      28.681  26.563  23.598  1.00  0.00    -0.373 OA
ATOM     23  C   UNL A   1      30.246  24.735  23.415  1.00  0.00     0.044 C 
ATOM     24  C   UNL A   1      30.141  28.432  23.403  1.00  0.00     0.031 C 
ATOM     25  C   UNL A   1      28.722  27.943  23.199  1.00  0.00     0.161 C 
ENDBRANCH  19  20
ENDBRANCH  17  19
ENDBRANCH  11  15
ENDBRANCH   4   7
ENDBRANCH   2   3
ENDBRANCH   1   2
BRANCH   1  26
ATOM     26  C   UNL A   1      37.819  20.945  25.196  1.00  0.00     0.023 C 
BRANCH  26  27
ATOM     27  C   UNL A   1      39.193  21.003  25.859  1.00  0.00     0.116 C 
BRANCH  27  28
ATOM     28  N   UNL A   1      39.912  19.735  25.829  1.00  0.00    -0.352 N 
ATOM     29  C   UNL A   1      41.250  19.506  26.053  1.00  0.00     0.251 C 
ATOM     30  H   UNL A   1      39.369  18.940  25.620  1.00  0.00     0.163 HD
ATOM     31  O   UNL A   1      41.734  18.390  25.925  1.00  0.00    -0.269 OA
BRANCH  29  32
ATOM     32  C   UNL A   1      42.101  20.657  26.404  1.00  0.00     0.039 A 
ATOM     33  C   UNL A   1      42.624  21.441  25.375  1.00  0.00     0.014 A 
ATOM     34  C   UNL A   1      42.260  21.022  27.743  1.00  0.00     0.014 A 
ATOM     35  C   UNL A   1      43.222  22.662  25.687  1.00  0.00     0.010 A 
ATOM     36  C   UNL A   1      42.803  22.264  28.046  1.00  0.00     0.010 A 
ATOM     37  C   UNL A   1      43.259  23.107  27.019  1.00  0.00    -0.014 A 
BRANCH  37  38
ATOM     38  C   UNL A   1      43.702  24.479  27.361  1.00  0.00     0.031 A 
ATOM     39  C   UNL A   1      42.708  25.490  27.849  1.00  0.00     0.074 A 
ATOM     40  C   UNL A   1      44.979  24.836  27.127  1.00  0.00     0.049 A 
ATOM     41  N   UNL A   1      42.873  26.768  28.069  1.00  0.00    -0.248 NA
ATOM     42  C   UNL A   1      41.343  25.003  28.098  1.00  0.00     0.031 C 
ATOM     43  C   UNL A   1      46.025  23.952  26.608  1.00  0.00     0.029 A 
ATOM     44  N   UNL A   1      45.611  26.046  27.269  1.00  0.00    -0.354 N 
ATOM     45  C   UNL A   1      41.632  27.243  28.466  1.00  0.00     0.074 A 
ATOM     46  C   UNL A   1      40.714  26.124  28.421  1.00  0.00     0.031 C 
ATOM     47  C   UNL A   1      47.167  24.645  26.485  1.00  0.00     0.029 A 
ATOM     48  C   UNL A   1      46.926  26.031  26.875  1.00  0.00     0.049 A 
ATOM     49  H   UNL A   1      45.163  26.850  27.621  1.00  0.00     0.167 HD
ATOM     50  C   UNL A   1      41.296  28.495  28.852  1.00  0.00     0.037 A 
ATOM     51  C   UNL A   1      47.830  27.027  26.815  1.00  0.00     0.037 A 
ATOM     52  C   UNL A   1      42.218  29.596  28.924  1.00  0.00     0.049 A 
ATOM     53  C   UNL A   1      47.422  28.414  27.226  1.00  0.00     0.074 A 
ATOM     54  C   UNL A   1      41.994  30.881  29.388  1.00  0.00     0.029 A 
ATOM     55  N   UNL A   1      43.541  29.544  28.516  1.00  0.00    -0.354 N 
ATOM     56  N   UNL A   1      46.262  28.837  27.665  1.00  0.00    -0.248 NA
ATOM     57  C   UNL A   1      48.445  29.464  27.123  1.00  0.00     0.031 C 
ATOM     58  C   UNL A   1      43.172  31.616  29.225  1.00  0.00     0.029 A 
ATOM     59  C   UNL A   1      44.139  30.781  28.690  1.00  0.00     0.049 A 
ATOM     60  H   UNL A   1      43.991  28.745  28.156  1.00  0.00     0.167 HD
ATOM     61  C   UNL A   1      46.417  30.195  27.902  1.00  0.00     0.074 A 
ATOM     62  C   UNL A   1      47.789  30.524  27.574  1.00  0.00     0.031 C 
ATOM     63  C   UNL A   1      45.504  31.091  28.349  1.00  0.00     0.037 A 
BRANCH  50  64
ATOM     64  C   UNL A   1      39.869  28.742  29.236  1.00  0.00     0.064 A 
ATOM     65  C   UNL A   1      38.926  29.188  28.297  1.00  0.00     0.173 A 
ATOM     66  C   UNL A   1      39.429  28.491  30.543  1.00  0.00     0.173 A 
ATOM     67  F   UNL A   1      39.302  29.455  27.038  1.00  0.00    -0.203 F 
ATOM     68  C   UNL A   1      37.598  29.392  28.660  1.00  0.00     0.198 A 
ATOM     69  C   UNL A   1      38.095  28.675  30.897  1.00  0.00     0.198 A 
ATOM     70  F   UNL A   1      40.292  28.062  31.476  1.00  0.00    -0.203 F 
ATOM     71  F   UNL A   1      36.722  29.855  27.758  1.00  0.00    -0.200 F 
ATOM     72  C   UNL A   1      37.183  29.130  29.957  1.00  0.00     0.200 A 
ATOM     73  F   UNL A   1      37.692  28.413  32.148  1.00  0.00    -0.200 F 
ATOM     74  F   UNL A   1      35.902  29.322  30.303  1.00  0.00    -0.200 F 
ENDBRANCH  50  64
BRANCH  51  75
ATOM     75  C   UNL A   1      49.212  26.749  26.347  1.00  0.00     0.064 A 
ATOM     76  C   UNL A   1      49.563  26.938  25.004  1.00  0.00     0.173 A 
ATOM     77  C   UNL A   1      50.203  26.290  27.226  1.00  0.00     0.173 A 
ATOM     78  F   UNL A   1      48.642  27.355  24.124  1.00  0.00    -0.203 F 
ATOM     79  C   UNL A   1      50.852  26.665  24.554  1.00  0.00     0.198 A 
ATOM     80  C   UNL A   1      51.498  26.040  26.778  1.00  0.00     0.198 A 
ATOM     81  F   UNL A   1      49.916  26.097  28.522  1.00  0.00    -0.203 F 
ATOM     82  F   UNL A   1      51.154  26.819  23.257  1.00  0.00    -0.200 F 
ATOM     83  C   UNL A   1      51.821  26.220  25.442  1.00  0.00     0.200 A 
ATOM     84  F   UNL A   1      52.434  25.621  27.642  1.00  0.00    -0.200 F 
ATOM     85  F   UNL A   1      53.062  25.962  25.009  1.00  0.00    -0.200 F 
ENDBRANCH  51  75
BRANCH  63  86
ATOM     86  C   UNL A   1      45.958  32.508  28.513  1.00  0.00     0.064 A 
ATOM     87  C   UNL A   1      46.556  32.946  29.702  1.00  0.00     0.173 A 
ATOM     88  C   UNL A   1      45.838  33.423  27.458  1.00  0.00     0.173 A 
ATOM     89  F   UNL A   1      46.676  32.111  30.746  1.00  0.00    -0.203 F 
ATOM     90  C   UNL A   1      47.009  34.256  29.833  1.00  0.00     0.198 A 
ATOM     91  C   UNL A   1      46.311  34.726  27.584  1.00  0.00     0.198 A 
ATOM     92  F   UNL A   1      45.273  33.048  26.299  1.00  0.00    -0.203 F 
ATOM     93  F   UNL A   1      47.550  34.664  30.990  1.00  0.00    -0.200 F 
ATOM     94  C   UNL A   1      46.893  35.142  28.771  1.00  0.00     0.200 A 
ATOM     95  F   UNL A   1      46.206  35.577  26.555  1.00  0.00    -0.200 F 
ATOM     96  F   UNL A   1      47.337  36.400  28.896  1.00  0.00    -0.200 F 
ENDBRANCH  63  86
ENDBRANCH  37  38
ENDBRANCH  29  32
ENDBRANCH  27  28
ENDBRANCH  26  27
ENDBRANCH   1  26
TORSDOF 16
ENDMDL
MODEL 3
REMARK VINA RESULT:     -12.0      0.274      1.598
REMARK SMILES CCC[C@@]1(C(=O)NCCCCNC(=O)c2ccc(-c3c4nc(c(-c5c(F)c(F)c(F)c(F)c5F)c5ccc([nH]5)c(-c5c(F)c(F)c(F)c(F)c5F)c5nc(c(-c6c(F)c(F)c(F)c(F)c6F)c6ccc3[nH]6)C=C5)C=C4)cc2)CCN(C(=O)NC[C@]2(C)CCCO2)C1
REMARK SMILES IDX 9 1 8 2 7 3 5 4 6 5 4 7 78 8 91 9 79 10 80 11 3 12 2 13 1 14
REMARK SMILES IDX 81 15 82 16 83 17 84 19 85 20 87 21 90 22 86 23 88 24 89 25
REMARK SMILES IDX 10 26 11 27 12 28 13 29 14 31 15 32 16 33 77 34 17 35 76 36
REMARK SMILES IDX 18 37 19 38 20 39 70 40 21 41 75 42 69 43 71 44 22 45 74 46
REMARK SMILES IDX 68 47 67 48 23 50 55 51 35 52 54 53 36 54 39 55 53 56 72 57
REMARK SMILES IDX 37 58 38 59 52 61 73 62 40 63 24 64 25 65 33 66 26 67 27 68
REMARK SMILES IDX 31 69 34 70 28 71 29 72 32 73 30 74 56 75 57 76 65 77 58 78
REMARK SMILES IDX 59 79 63 80 66 81 60 82 61 83 64 84 62 85 41 86 42 87 50 88
REMARK SMILES IDX 43 89 44 90 48 91 51 92 45 93 46 94 49 95 47 96
REMARK H PARENT 7 6 83 18 12 30 71 49 39 60
REMARK Flexibility Score: inf
ROOT
ATOM      1  C   UNL A   1      37.394  22.137  24.534  1.00  0.00     0.023 C 
ENDROOT
BRANCH   1   2
ATOM      2  C   UNL A   1      36.914  23.242  25.466  1.00  0.00     0.116 C 
BRANCH   2   3
ATOM      3  N   UNL A   1      36.049  22.746  26.519  1.00  0.00    -0.356 N 
ATOM      4  C   UNL A   1      34.730  22.405  26.551  1.00  0.00     0.228 C 
ATOM      5  O   UNL A   1      34.375  21.785  27.558  1.00  0.00    -0.274 OA
ATOM      6  H   UNL A   1      36.506  22.631  27.383  1.00  0.00     0.163 HD
BRANCH   4   7
ATOM      7  C   UNL A   1      33.744  22.714  25.408  1.00  0.00     0.068 C 
ATOM      8  C   UNL A   1      33.803  24.178  24.930  1.00  0.00     0.040 C 
ATOM      9  C   UNL A   1      32.275  22.675  25.987  1.00  0.00     0.138 C 
ATOM     10  C   UNL A   1      33.000  24.909  25.988  1.00  0.00     0.122 C 
ATOM     11  N   UNL A   1      31.847  24.070  26.119  1.00  0.00    -0.324 N 
BRANCH   7  12
ATOM     12  C   UNL A   1      33.804  21.649  24.278  1.00  0.00     0.018 C 
BRANCH  12  13
ATOM     13  C   UNL A   1      33.984  20.171  24.629  1.00  0.00    -0.002 C 
ATOM     14  C   UNL A   1      32.811  19.296  24.205  1.00  0.00     0.004 C 
ENDBRANCH  12  13
ENDBRANCH   7  12
BRANCH  11  15
ATOM     15  C   UNL A   1      30.528  24.381  26.099  1.00  0.00     0.317 C 
ATOM     16  O   UNL A   1      29.814  24.226  27.095  1.00  0.00    -0.249 OA
ATOM     17  N   UNL A   1      29.901  24.830  24.998  1.00  0.00    -0.335 N 
ATOM     18  H   UNL A   1      28.923  24.772  25.087  1.00  0.00     0.165 HD
BRANCH  17  19
ATOM     19  C   UNL A   1      30.291  25.380  23.706  1.00  0.00     0.152 C 
BRANCH  19  20
ATOM     20  C   UNL A   1      30.116  26.925  23.539  1.00  0.00     0.083 C 
ATOM     21  C   UNL A   1      30.872  27.568  22.376  1.00  0.00     0.039 C 
ATOM     22  O   UNL A   1      30.721  27.534  24.711  1.00  0.00    -0.373 OA
ATOM     23  C   UNL A   1      28.642  27.329  23.504  1.00  0.00     0.044 C 
ATOM     24  C   UNL A   1      32.278  27.669  22.916  1.00  0.00     0.031 C 
ATOM     25  C   UNL A   1      32.022  28.037  24.363  1.00  0.00     0.161 C 
ENDBRANCH  19  20
ENDBRANCH  17  19
ENDBRANCH  11  15
ENDBRANCH   4   7
ENDBRANCH   2   3
ENDBRANCH   1   2
BRANCH   1  26
ATOM     26  C   UNL A   1      37.859  20.871  25.254  1.00  0.00     0.023 C 
BRANCH  26  27
ATOM     27  C   UNL A   1      39.254  20.948  25.871  1.00  0.00     0.116 C 
BRANCH  27  28
ATOM     28  N   UNL A   1      39.994  19.694  25.804  1.00  0.00    -0.352 N 
ATOM     29  C   UNL A   1      41.338  19.483  26.012  1.00  0.00     0.251 C 
ATOM     30  H   UNL A   1      39.464  18.895  25.579  1.00  0.00     0.163 HD
ATOM     31  O   UNL A   1      41.840  18.379  25.852  1.00  0.00    -0.269 OA
BRANCH  29  32
ATOM     32  C   UNL A   1      42.172  20.640  26.386  1.00  0.00     0.039 A 
ATOM     33  C   UNL A   1      42.825  21.348  25.378  1.00  0.00     0.014 A 
ATOM     34  C   UNL A   1      42.187  21.087  27.710  1.00  0.00     0.014 A 
ATOM     35  C   UNL A   1      43.414  22.576  25.680  1.00  0.00     0.010 A 
ATOM     36  C   UNL A   1      42.723  22.336  27.996  1.00  0.00     0.010 A 
ATOM     37  C   UNL A   1      43.311  23.104  26.978  1.00  0.00    -0.014 A 
BRANCH  37  38
ATOM     38  C   UNL A   1      43.745  24.487  27.283  1.00  0.00     0.031 A 
ATOM     39  C   UNL A   1      42.748  25.500  27.760  1.00  0.00     0.074 A 
ATOM     40  C   UNL A   1      45.017  24.850  27.026  1.00  0.00     0.049 A 
ATOM     41  N   UNL A   1      42.903  26.785  27.948  1.00  0.00    -0.248 NA
ATOM     42  C   UNL A   1      41.390  25.007  28.035  1.00  0.00     0.031 C 
ATOM     43  C   UNL A   1      46.064  23.964  26.516  1.00  0.00     0.029 A 
ATOM     44  N   UNL A   1      45.639  26.069  27.134  1.00  0.00    -0.354 N 
ATOM     45  C   UNL A   1      41.663  27.257  28.348  1.00  0.00     0.074 A 
ATOM     46  C   UNL A   1      40.755  26.130  28.339  1.00  0.00     0.031 C 
ATOM     47  C   UNL A   1      47.199  24.664  26.364  1.00  0.00     0.029 A 
ATOM     48  C   UNL A   1      46.950  26.056  26.725  1.00  0.00     0.049 A 
ATOM     49  H   UNL A   1      45.188  26.876  27.472  1.00  0.00     0.167 HD
ATOM     50  C   UNL A   1      41.320  28.516  28.709  1.00  0.00     0.037 A 
ATOM     51  C   UNL A   1      47.844  27.058  26.632  1.00  0.00     0.037 A 
ATOM     52  C   UNL A   1      42.233  29.626  28.745  1.00  0.00     0.049 A 
ATOM     53  C   UNL A   1      47.427  28.451  27.015  1.00  0.00     0.074 A 
ATOM     54  C   UNL A   1      42.002  30.919  29.182  1.00  0.00     0.029 A 
ATOM     55  N   UNL A   1      43.552  29.576  28.324  1.00  0.00    -0.354 N 
ATOM     56  N   UNL A   1      46.269  28.874  27.458  1.00  0.00    -0.248 NA
ATOM     57  C   UNL A   1      48.440  29.508  26.876  1.00  0.00     0.031 C 
ATOM     58  C   UNL A   1      43.172  31.661  28.989  1.00  0.00     0.029 A 
ATOM     59  C   UNL A   1      44.141  30.822  28.462  1.00  0.00     0.049 A 
ATOM     60  H   UNL A   1      44.004  28.772  27.976  1.00  0.00     0.167 HD
ATOM     61  C   UNL A   1      46.414  30.238  27.662  1.00  0.00     0.074 A 
ATOM     62  C   UNL A   1      47.779  30.572  27.311  1.00  0.00     0.031 C 
ATOM     63  C   UNL A   1      45.498  31.136  28.099  1.00  0.00     0.037 A 
BRANCH  50  64
ATOM     64  C   UNL A   1      39.895  28.758  29.104  1.00  0.00     0.064 A 
ATOM     65  C   UNL A   1      38.930  29.140  28.160  1.00  0.00     0.173 A 
ATOM     66  C   UNL A   1      39.481  28.568  30.429  1.00  0.00     0.173 A 
ATOM     67  F   UNL A   1      39.282  29.348  26.882  1.00  0.00    -0.203 F 
ATOM     68  C   UNL A   1      37.604  29.341  28.533  1.00  0.00     0.198 A 
ATOM     69  C   UNL A   1      38.149  28.748  30.795  1.00  0.00     0.198 A 
ATOM     70  F   UNL A   1      40.365  28.201  31.368  1.00  0.00    -0.203 F 
ATOM     71  F   UNL A   1      36.707  29.742  27.623  1.00  0.00    -0.200 F 
ATOM     72  C   UNL A   1      37.214  29.139  29.849  1.00  0.00     0.200 A 
ATOM     73  F   UNL A   1      37.771  28.544  32.065  1.00  0.00    -0.200 F 
ATOM     74  F   UNL A   1      35.936  29.328  30.206  1.00  0.00    -0.200 F 
ENDBRANCH  50  64
BRANCH  51  75
ATOM     75  C   UNL A   1      49.222  26.782  26.154  1.00  0.00     0.064 A 
ATOM     76  C   UNL A   1      50.208  26.324  27.039  1.00  0.00     0.173 A 
ATOM     77  C   UNL A   1      49.583  26.970  24.812  1.00  0.00     0.173 A 
ATOM     78  F   UNL A   1      49.914  26.150  28.336  1.00  0.00    -0.203 F 
ATOM     79  C   UNL A   1      51.507  26.078  26.602  1.00  0.00     0.198 A 
ATOM     80  C   UNL A   1      50.876  26.701  24.372  1.00  0.00     0.198 A 
ATOM     81  F   UNL A   1      48.673  27.404  23.927  1.00  0.00    -0.203 F 
ATOM     82  F   UNL A   1      52.441  25.675  27.475  1.00  0.00    -0.200 F 
ATOM     83  C   UNL A   1      51.840  26.262  25.268  1.00  0.00     0.200 A 
ATOM     84  F   UNL A   1      51.191  26.869  23.080  1.00  0.00    -0.200 F 
ATOM     85  F   UNL A   1      53.089  26.020  24.847  1.00  0.00    -0.200 F 
ENDBRANCH  51  75
BRANCH  63  86
ATOM     86  C   UNL A   1      45.941  32.560  28.225  1.00  0.00     0.064 A 
ATOM     87  C   UNL A   1      45.756  33.474  27.178  1.00  0.00     0.173 A 
ATOM     88  C   UNL A   1      46.512  33.029  29.417  1.00  0.00     0.173 A 
ATOM     89  F   UNL A   1      45.231  33.067  26.011  1.00  0.00    -0.203 F 
ATOM     90  C   UNL A   1      46.137  34.805  27.316  1.00  0.00     0.198 A 
ATOM     91  C   UNL A   1      46.872  34.365  29.560  1.00  0.00     0.198 A 
ATOM     92  F   UNL A   1      46.707  32.191  30.447  1.00  0.00    -0.203 F 
ATOM     93  F   UNL A   1      45.981  35.656  26.292  1.00  0.00    -0.200 F 
ATOM     94  C   UNL A   1      46.687  35.251  28.510  1.00  0.00     0.200 A 
ATOM     95  F   UNL A   1      47.395  34.796  30.716  1.00  0.00    -0.200 F 
ATOM     96  F   UNL A   1      47.046  36.536  28.644  1.00  0.00    -0.200 F 
ENDBRANCH  63  86
ENDBRANCH  37  38
ENDBRANCH  29  32
ENDBRANCH  27  28
ENDBRANCH  26  27
ENDBRANCH   1  26
TORSDOF 16
ENDMDL
