MODEL 1
REMARK VINA RESULT:     -12.8      0.000      0.000
REMARK SMILES O=C(NCCCCNC(=O)[C@@H]1[C@@H](C(=O)NCCCn2ccnc2)[C@@H]2C=C[C@H]1C2)c1ccc(-c2c3nc(c(-c4c(F)c(F)c(F)c(F)c4F)c4ccc([nH]4)c(-c4c(F)c(F)c(F)c(F)c4F)c4nc(c(-c5c(F)c(F)c(F)c(F)c5F)c5ccc2[nH]5)C=C4)C=C3)cc1
REMARK SMILES IDX 7 1 6 2 5 3 4 4 3 5 1 6 2 7 29 9 30 10 91 11 31 12 90 13
REMARK SMILES IDX 32 14 33 15 34 16 84 17 35 18 89 19 83 20 85 21 36 22 88 23
REMARK SMILES IDX 82 24 81 25 37 27 69 28 49 29 68 30 50 31 53 32 67 33 86 34
REMARK SMILES IDX 51 35 52 36 66 38 87 39 54 40 38 41 39 42 47 43 40 44 41 45
REMARK SMILES IDX 45 46 48 47 42 48 43 49 46 50 44 51 70 52 71 53 79 54 72 55
REMARK SMILES IDX 73 56 77 57 80 58 74 59 75 60 78 61 76 62 55 63 56 64 64 65
REMARK SMILES IDX 57 66 58 67 62 68 65 69 59 70 60 71 63 72 61 73 8 74 9 75
REMARK SMILES IDX 10 77 11 78 12 79 27 80 24 81 26 82 28 83 25 84 13 85 14 86
REMARK SMILES IDX 15 87 16 89 17 90 18 91 19 92 20 93 23 94 21 95 22 96
REMARK H PARENT 3 8 85 26 53 37 8 76 15 88
REMARK Flexibility Score: inf
ROOT
ATOM      1  C   UNL A   1      36.593  23.572  25.653  1.00  0.00     0.116 C 
ENDROOT
BRANCH   1   2
ATOM      2  C   UNL A   1      37.391  22.654  24.725  1.00  0.00     0.023 C 
BRANCH   2   3
ATOM      3  C   UNL A   1      38.164  21.517  25.415  1.00  0.00     0.023 C 
BRANCH   3   4
ATOM      4  C   UNL A   1      39.223  21.965  26.422  1.00  0.00     0.116 C 
BRANCH   4   5
ATOM      5  N   UNL A   1      40.558  22.065  25.870  1.00  0.00    -0.352 N 
ATOM      6  O   UNL A   1      42.634  22.643  25.410  1.00  0.00    -0.269 OA
ATOM      7  C   UNL A   1      41.596  22.956  25.975  1.00  0.00     0.251 C 
ATOM      8  H   UNL A   1      40.774  21.311  25.275  1.00  0.00     0.163 HD
BRANCH   7   9
ATOM      9  C   UNL A   1      41.536  24.269  26.686  1.00  0.00     0.039 A 
ATOM     10  C   UNL A   1      42.143  24.576  27.903  1.00  0.00     0.014 A 
ATOM     11  C   UNL A   1      40.805  25.283  26.033  1.00  0.00     0.014 A 
ATOM     12  C   UNL A   1      41.986  25.839  28.476  1.00  0.00     0.010 A 
ATOM     13  C   UNL A   1      40.656  26.551  26.595  1.00  0.00     0.010 A 
ATOM     14  C   UNL A   1      41.233  26.824  27.832  1.00  0.00    -0.014 A 
BRANCH  14  15
ATOM     15  C   UNL A   1      41.173  28.155  28.439  1.00  0.00     0.031 A 
ATOM     16  C   UNL A   1      42.256  29.113  28.052  1.00  0.00     0.074 A 
ATOM     17  C   UNL A   1      40.138  28.596  29.183  1.00  0.00     0.049 A 
ATOM     18  N   UNL A   1      43.050  29.798  28.816  1.00  0.00    -0.248 NA
ATOM     19  C   UNL A   1      42.495  29.313  26.614  1.00  0.00     0.031 C 
ATOM     20  C   UNL A   1      38.847  27.946  29.414  1.00  0.00     0.029 A 
ATOM     21  N   UNL A   1      40.002  29.796  29.820  1.00  0.00    -0.354 N 
ATOM     22  C   UNL A   1      43.804  30.611  27.967  1.00  0.00     0.074 A 
ATOM     23  C   UNL A   1      43.473  30.219  26.621  1.00  0.00     0.031 C 
ATOM     24  C   UNL A   1      37.994  28.838  29.966  1.00  0.00     0.029 A 
ATOM     25  C   UNL A   1      38.712  30.070  30.246  1.00  0.00     0.049 A 
ATOM     26  H   UNL A   1      40.756  30.413  29.964  1.00  0.00     0.167 HD
ATOM     27  C   UNL A   1      44.556  31.655  28.417  1.00  0.00     0.037 A 
ATOM     28  C   UNL A   1      38.253  31.245  30.734  1.00  0.00     0.037 A 
ATOM     29  C   UNL A   1      44.860  31.543  29.815  1.00  0.00     0.049 A 
ATOM     30  C   UNL A   1      39.415  32.047  31.185  1.00  0.00     0.074 A 
ATOM     31  C   UNL A   1      45.562  30.636  30.584  1.00  0.00     0.029 A 
ATOM     32  N   UNL A   1      44.172  32.319  30.711  1.00  0.00    -0.354 N 
ATOM     33  N   UNL A   1      40.146  31.768  32.226  1.00  0.00    -0.248 NA
ATOM     34  C   UNL A   1      39.999  32.990  30.245  1.00  0.00     0.031 C 
ATOM     35  C   UNL A   1      44.870  30.592  31.830  1.00  0.00     0.029 A 
ATOM     36  C   UNL A   1      43.808  31.491  31.742  1.00  0.00     0.049 A 
ATOM     37  H   UNL A   1      43.978  33.281  30.630  1.00  0.00     0.167 HD
ATOM     38  C   UNL A   1      41.426  32.162  31.872  1.00  0.00     0.074 A 
ATOM     39  C   UNL A   1      41.253  33.009  30.698  1.00  0.00     0.031 C 
ATOM     40  C   UNL A   1      42.525  31.546  32.397  1.00  0.00     0.037 A 
BRANCH  27  41
ATOM     41  C   UNL A   1      44.817  32.915  27.634  1.00  0.00     0.064 A 
ATOM     42  C   UNL A   1      46.035  33.082  26.943  1.00  0.00     0.173 A 
ATOM     43  C   UNL A   1      44.026  34.076  27.763  1.00  0.00     0.173 A 
ATOM     44  F   UNL A   1      46.883  32.054  26.795  1.00  0.00    -0.203 F 
ATOM     45  C   UNL A   1      46.444  34.328  26.458  1.00  0.00     0.198 A 
ATOM     46  C   UNL A   1      44.413  35.306  27.233  1.00  0.00     0.198 A 
ATOM     47  F   UNL A   1      42.903  34.082  28.493  1.00  0.00    -0.203 F 
ATOM     48  F   UNL A   1      47.656  34.460  25.901  1.00  0.00    -0.200 F 
ATOM     49  C   UNL A   1      45.634  35.438  26.604  1.00  0.00     0.200 A 
ATOM     50  F   UNL A   1      43.625  36.376  27.404  1.00  0.00    -0.200 F 
ATOM     51  F   UNL A   1      46.045  36.643  26.183  1.00  0.00    -0.200 F 
ENDBRANCH  27  41
BRANCH  28  52
ATOM     52  C   UNL A   1      36.902  31.834  30.593  1.00  0.00     0.064 A 
ATOM     53  C   UNL A   1      36.025  31.917  31.686  1.00  0.00     0.173 A 
ATOM     54  C   UNL A   1      36.551  32.572  29.447  1.00  0.00     0.173 A 
ATOM     55  F   UNL A   1      36.312  31.285  32.833  1.00  0.00    -0.203 F 
ATOM     56  C   UNL A   1      34.874  32.711  31.640  1.00  0.00     0.198 A 
ATOM     57  C   UNL A   1      35.398  33.354  29.399  1.00  0.00     0.198 A 
ATOM     58  F   UNL A   1      37.369  32.623  28.386  1.00  0.00    -0.203 F 
ATOM     59  F   UNL A   1      34.092  32.817  32.724  1.00  0.00    -0.200 F 
ATOM     60  C   UNL A   1      34.566  33.434  30.499  1.00  0.00     0.200 A 
ATOM     61  F   UNL A   1      35.132  34.078  28.302  1.00  0.00    -0.200 F 
ATOM     62  F   UNL A   1      33.495  34.240  30.475  1.00  0.00    -0.200 F 
ENDBRANCH  28  52
BRANCH  40  63
ATOM     63  C   UNL A   1      42.316  30.629  33.570  1.00  0.00     0.064 A 
ATOM     64  C   UNL A   1      42.338  31.061  34.908  1.00  0.00     0.173 A 
ATOM     65  C   UNL A   1      41.946  29.299  33.328  1.00  0.00     0.173 A 
ATOM     66  F   UNL A   1      42.570  32.343  35.216  1.00  0.00    -0.203 F 
ATOM     67  C   UNL A   1      42.061  30.184  35.956  1.00  0.00     0.198 A 
ATOM     68  C   UNL A   1      41.633  28.435  34.374  1.00  0.00     0.198 A 
ATOM     69  F   UNL A   1      41.846  28.847  32.068  1.00  0.00    -0.203 F 
ATOM     70  F   UNL A   1      42.108  30.616  37.224  1.00  0.00    -0.200 F 
ATOM     71  C   UNL A   1      41.702  28.874  35.687  1.00  0.00     0.200 A 
ATOM     72  F   UNL A   1      41.233  27.184  34.107  1.00  0.00    -0.200 F 
ATOM     73  F   UNL A   1      41.396  28.041  36.691  1.00  0.00    -0.200 F 
ENDBRANCH  40  63
ENDBRANCH  14  15
ENDBRANCH   7   9
ENDBRANCH   4   5
ENDBRANCH   3   4
ENDBRANCH   2   3
ENDBRANCH   1   2
BRANCH   1  74
ATOM     74  N   UNL A   1      35.868  22.842  26.676  1.00  0.00    -0.356 N 
ATOM     75  C   UNL A   1      34.550  22.506  26.769  1.00  0.00     0.224 C 
ATOM     76  H   UNL A   1      36.421  22.538  27.431  1.00  0.00     0.163 HD
ATOM     77  O   UNL A   1      34.257  21.665  27.620  1.00  0.00    -0.275 OA
BRANCH  75  78
ATOM     78  C   UNL A   1      33.523  23.093  25.799  1.00  0.00     0.098 C 
ATOM     79  C   UNL A   1      32.056  22.671  26.091  1.00  0.00     0.098 C 
ATOM     80  C   UNL A   1      33.714  22.548  24.342  1.00  0.00     0.025 C 
ATOM     81  C   UNL A   1      31.553  22.117  24.729  1.00  0.00     0.025 C 
ATOM     82  C   UNL A   1      33.537  21.040  24.312  1.00  0.00    -0.027 C 
ATOM     83  C   UNL A   1      32.371  22.883  23.687  1.00  0.00     0.017 C 
ATOM     84  C   UNL A   1      32.239  20.781  24.539  1.00  0.00    -0.027 C 
BRANCH  79  85
ATOM     85  C   UNL A   1      31.109  23.671  26.737  1.00  0.00     0.224 C 
ATOM     86  O   UNL A   1      30.233  23.252  27.505  1.00  0.00    -0.275 OA
ATOM     87  N   UNL A   1      31.113  25.010  26.563  1.00  0.00    -0.356 N 
ATOM     88  H   UNL A   1      30.422  25.467  27.093  1.00  0.00     0.163 HD
BRANCH  87  89
ATOM     89  C   UNL A   1      31.908  25.923  25.770  1.00  0.00     0.117 C 
BRANCH  89  90
ATOM     90  C   UNL A   1      31.067  27.099  25.269  1.00  0.00     0.043 C 
BRANCH  90  91
ATOM     91  C   UNL A   1      31.738  27.872  24.129  1.00  0.00     0.125 C 
BRANCH  91  92
ATOM     92  N   UNL A   1      32.218  26.986  23.085  1.00  0.00    -0.337 N 
ATOM     93  C   UNL A   1      31.458  26.334  22.155  1.00  0.00     0.107 A 
ATOM     94  C   UNL A   1      33.527  26.729  22.800  1.00  0.00     0.199 A 
ATOM     95  C   UNL A   1      32.365  25.801  21.269  1.00  0.00     0.130 A 
ATOM     96  N   UNL A   1      33.647  26.039  21.688  1.00  0.00    -0.245 NA
ENDBRANCH  91  92
ENDBRANCH  90  91
ENDBRANCH  89  90
ENDBRANCH  87  89
ENDBRANCH  79  85
ENDBRANCH  75  78
ENDBRANCH   1  74
TORSDOF 16
ENDMDL
MODEL 2
REMARK VINA RESULT:     -12.8      1.607      3.299
REMARK SMILES O=C(NCCCCNC(=O)[C@@H]1[C@@H](C(=O)NCCCn2ccnc2)[C@@H]2C=C[C@H]1C2)c1ccc(-c2c3nc(c(-c4c(F)c(F)c(F)c(F)c4F)c4ccc([nH]4)c(-c4c(F)c(F)c(F)c(F)c4F)c4nc(c(-c5c(F)c(F)c(F)c(F)c5F)c5ccc2[nH]5)C=C4)C=C3)cc1
REMARK SMILES IDX 7 1 6 2 5 3 4 4 3 5 1 6 2 7 29 9 30 10 91 11 31 12 90 13
REMARK SMILES IDX 32 14 33 15 34 16 84 17 35 18 89 19 83 20 85 21 36 22 88 23
REMARK SMILES IDX 82 24 81 25 37 27 69 28 49 29 68 30 50 31 53 32 67 33 86 34
REMARK SMILES IDX 51 35 52 36 66 38 87 39 54 40 38 41 39 42 47 43 40 44 41 45
REMARK SMILES IDX 45 46 48 47 42 48 43 49 46 50 44 51 70 52 71 53 79 54 72 55
REMARK SMILES IDX 73 56 77 57 80 58 74 59 75 60 78 61 76 62 55 63 56 64 64 65
REMARK SMILES IDX 57 66 58 67 62 68 65 69 59 70 60 71 63 72 61 73 8 74 9 75
REMARK SMILES IDX 10 77 11 78 12 79 27 80 24 81 26 82 28 83 25 84 13 85 14 86
REMARK SMILES IDX 15 87 16 89 17 90 18 91 19 92 20 93 23 94 21 95 22 96
REMARK H PARENT 3 8 85 26 53 37 8 76 15 88
REMARK Flexibility Score: inf
ROOT
ATOM      1  C   UNL A   1      36.634  23.785  26.149  1.00  0.00     0.116 C 
ENDROOT
BRANCH   1   2
ATOM      2  C   UNL A   1      38.134  23.565  25.936  1.00  0.00     0.023 C 
BRANCH   2   3
ATOM      3  C   UNL A   1      38.593  22.098  25.892  1.00  0.00     0.023 C 
BRANCH   3   4
ATOM      4  C   UNL A   1      39.908  21.805  26.613  1.00  0.00     0.116 C 
BRANCH   4   5
ATOM      5  N   UNL A   1      41.091  22.112  25.834  1.00  0.00    -0.352 N 
ATOM      6  O   UNL A   1      42.938  23.003  25.032  1.00  0.00    -0.269 OA
ATOM      7  C   UNL A   1      41.988  23.149  25.787  1.00  0.00     0.251 C 
ATOM      8  H   UNL A   1      41.302  21.406  25.182  1.00  0.00     0.163 HD
BRANCH   7   9
ATOM      9  C   UNL A   1      41.867  24.430  26.547  1.00  0.00     0.039 A 
ATOM     10  C   UNL A   1      42.400  24.692  27.808  1.00  0.00     0.014 A 
ATOM     11  C   UNL A   1      41.157  25.460  25.897  1.00  0.00     0.014 A 
ATOM     12  C   UNL A   1      42.191  25.928  28.424  1.00  0.00     0.010 A 
ATOM     13  C   UNL A   1      40.957  26.700  26.502  1.00  0.00     0.010 A 
ATOM     14  C   UNL A   1      41.459  26.929  27.780  1.00  0.00    -0.014 A 
BRANCH  14  15
ATOM     15  C   UNL A   1      41.344  28.231  28.438  1.00  0.00     0.031 A 
ATOM     16  C   UNL A   1      42.436  29.216  28.160  1.00  0.00     0.074 A 
ATOM     17  C   UNL A   1      40.259  28.628  29.134  1.00  0.00     0.049 A 
ATOM     18  N   UNL A   1      43.171  29.876  29.001  1.00  0.00    -0.248 NA
ATOM     19  C   UNL A   1      42.760  29.481  26.750  1.00  0.00     0.031 C 
ATOM     20  C   UNL A   1      38.964  27.955  29.256  1.00  0.00     0.029 A 
ATOM     21  N   UNL A   1      40.068  29.799  29.811  1.00  0.00    -0.354 N 
ATOM     22  C   UNL A   1      43.966  30.733  28.236  1.00  0.00     0.074 A 
ATOM     23  C   UNL A   1      43.724  30.396  26.857  1.00  0.00     0.031 C 
ATOM     24  C   UNL A   1      38.067  28.813  29.791  1.00  0.00     0.029 A 
ATOM     25  C   UNL A   1      38.751  30.040  30.167  1.00  0.00     0.049 A 
ATOM     26  H   UNL A   1      40.803  30.417  30.028  1.00  0.00     0.167 HD
ATOM     27  C   UNL A   1      44.674  31.765  28.776  1.00  0.00     0.037 A 
ATOM     28  C   UNL A   1      38.246  31.188  30.675  1.00  0.00     0.037 A 
ATOM     29  C   UNL A   1      44.892  31.596  30.184  1.00  0.00     0.049 A 
ATOM     30  C   UNL A   1      39.367  31.982  31.232  1.00  0.00     0.074 A 
ATOM     31  C   UNL A   1      45.557  30.664  30.957  1.00  0.00     0.029 A 
ATOM     32  N   UNL A   1      44.141  32.325  31.068  1.00  0.00    -0.354 N 
ATOM     33  N   UNL A   1      40.036  31.667  32.304  1.00  0.00    -0.248 NA
ATOM     34  C   UNL A   1      39.995  32.971  30.371  1.00  0.00     0.031 C 
ATOM     35  C   UNL A   1      44.790  30.559  32.154  1.00  0.00     0.029 A 
ATOM     36  C   UNL A   1      43.724  31.450  32.038  1.00  0.00     0.049 A 
ATOM     37  H   UNL A   1      43.939  33.288  31.016  1.00  0.00     0.167 HD
ATOM     38  C   UNL A   1      41.330  32.089  32.047  1.00  0.00     0.074 A 
ATOM     39  C   UNL A   1      41.219  32.984  30.901  1.00  0.00     0.031 C 
ATOM     40  C   UNL A   1      42.402  31.462  32.613  1.00  0.00     0.037 A 
BRANCH  27  41
ATOM     41  C   UNL A   1      44.966  33.060  28.064  1.00  0.00     0.064 A 
ATOM     42  C   UNL A   1      46.287  33.383  27.691  1.00  0.00     0.173 A 
ATOM     43  C   UNL A   1      44.035  34.116  27.981  1.00  0.00     0.173 A 
ATOM     44  F   UNL A   1      47.263  32.465  27.768  1.00  0.00    -0.203 F 
ATOM     45  C   UNL A   1      46.651  34.677  27.305  1.00  0.00     0.198 A 
ATOM     46  C   UNL A   1      44.390  35.393  27.547  1.00  0.00     0.198 A 
ATOM     47  F   UNL A   1      42.775  33.976  28.414  1.00  0.00    -0.203 F 
ATOM     48  F   UNL A   1      47.937  34.962  27.060  1.00  0.00    -0.200 F 
ATOM     49  C   UNL A   1      45.702  35.680  27.234  1.00  0.00     0.200 A 
ATOM     50  F   UNL A   1      43.461  36.359  27.506  1.00  0.00    -0.200 F 
ATOM     51  F   UNL A   1      46.057  36.932  26.912  1.00  0.00    -0.200 F 
ENDBRANCH  27  41
BRANCH  28  52
ATOM     52  C   UNL A   1      36.898  31.767  30.475  1.00  0.00     0.064 A 
ATOM     53  C   UNL A   1      35.989  31.882  31.538  1.00  0.00     0.173 A 
ATOM     54  C   UNL A   1      36.581  32.468  29.296  1.00  0.00     0.173 A 
ATOM     55  F   UNL A   1      36.242  31.287  32.712  1.00  0.00    -0.203 F 
ATOM     56  C   UNL A   1      34.838  32.670  31.432  1.00  0.00     0.198 A 
ATOM     57  C   UNL A   1      35.428  33.245  29.189  1.00  0.00     0.198 A 
ATOM     58  F   UNL A   1      37.431  32.489  28.259  1.00  0.00    -0.203 F 
ATOM     59  F   UNL A   1      34.023  32.808  32.488  1.00  0.00    -0.200 F 
ATOM     60  C   UNL A   1      34.563  33.357  30.261  1.00  0.00     0.200 A 
ATOM     61  F   UNL A   1      35.194  33.933  28.063  1.00  0.00    -0.200 F 
ATOM     62  F   UNL A   1      33.492  34.158  30.179  1.00  0.00    -0.200 F 
ENDBRANCH  28  52
BRANCH  40  63
ATOM     63  C   UNL A   1      42.133  30.494  33.731  1.00  0.00     0.064 A 
ATOM     64  C   UNL A   1      41.763  29.153  33.527  1.00  0.00     0.173 A 
ATOM     65  C   UNL A   1      42.391  30.898  35.048  1.00  0.00     0.173 A 
ATOM     66  F   UNL A   1      41.609  28.661  32.292  1.00  0.00    -0.203 F 
ATOM     67  C   UNL A   1      41.601  28.276  34.598  1.00  0.00     0.198 A 
ATOM     68  C   UNL A   1      42.265  30.010  36.113  1.00  0.00     0.198 A 
ATOM     69  F   UNL A   1      42.809  32.149  35.299  1.00  0.00    -0.203 F 
ATOM     70  F   UNL A   1      41.227  27.008  34.377  1.00  0.00    -0.200 F 
ATOM     71  C   UNL A   1      41.859  28.704  35.889  1.00  0.00     0.200 A 
ATOM     72  F   UNL A   1      42.569  30.412  37.355  1.00  0.00    -0.200 F 
ATOM     73  F   UNL A   1      41.743  27.850  36.916  1.00  0.00    -0.200 F 
ENDBRANCH  40  63
ENDBRANCH  14  15
ENDBRANCH   7   9
ENDBRANCH   4   5
ENDBRANCH   3   4
ENDBRANCH   2   3
ENDBRANCH   1   2
BRANCH   1  74
ATOM     74  N   UNL A   1      35.879  23.730  24.911  1.00  0.00    -0.356 N 
ATOM     75  C   UNL A   1      34.634  24.191  24.602  1.00  0.00     0.224 C 
ATOM     76  H   UNL A   1      36.345  23.283  24.168  1.00  0.00     0.163 HD
ATOM     77  O   UNL A   1      34.346  24.233  23.405  1.00  0.00    -0.275 OA
BRANCH  75  78
ATOM     78  C   UNL A   1      33.697  24.704  25.696  1.00  0.00     0.098 C 
ATOM     79  C   UNL A   1      32.196  24.377  25.456  1.00  0.00     0.098 C 
ATOM     80  C   UNL A   1      33.663  26.270  25.754  1.00  0.00     0.025 C 
ATOM     81  C   UNL A   1      31.492  25.756  25.588  1.00  0.00     0.025 C 
ATOM     82  C   UNL A   1      33.159  26.839  24.439  1.00  0.00    -0.027 C 
ATOM     83  C   UNL A   1      32.384  26.542  26.551  1.00  0.00     0.017 C 
ATOM     84  C   UNL A   1      31.854  26.535  24.342  1.00  0.00    -0.027 C 
BRANCH  79  85
ATOM     85  C   UNL A   1      31.538  23.269  26.263  1.00  0.00     0.224 C 
ATOM     86  O   UNL A   1      30.909  23.569  27.286  1.00  0.00    -0.275 OA
ATOM     87  N   UNL A   1      31.561  21.948  25.982  1.00  0.00    -0.356 N 
ATOM     88  H   UNL A   1      31.052  21.410  26.630  1.00  0.00     0.163 HD
BRANCH  87  89
ATOM     89  C   UNL A   1      32.168  21.147  24.941  1.00  0.00     0.117 C 
BRANCH  89  90
ATOM     90  C   UNL A   1      32.991  20.000  25.533  1.00  0.00     0.043 C 
BRANCH  90  91
ATOM     91  C   UNL A   1      33.618  19.100  24.463  1.00  0.00     0.125 C 
BRANCH  91  92
ATOM     92  N   UNL A   1      33.589  17.702  24.848  1.00  0.00    -0.337 N 
ATOM     93  C   UNL A   1      32.663  17.094  25.648  1.00  0.00     0.107 A 
ATOM     94  C   UNL A   1      34.442  16.736  24.397  1.00  0.00     0.199 A 
ATOM     95  C   UNL A   1      32.935  15.749  25.544  1.00  0.00     0.130 A 
ATOM     96  N   UNL A   1      34.051  15.540  24.778  1.00  0.00    -0.245 NA
ENDBRANCH  91  92
ENDBRANCH  90  91
ENDBRANCH  89  90
ENDBRANCH  87  89
ENDBRANCH  79  85
ENDBRANCH  75  78
ENDBRANCH   1  74
TORSDOF 16
ENDMDL
MODEL 3
REMARK VINA RESULT:     -12.7      3.495      8.687
REMARK SMILES O=C(NCCCCNC(=O)[C@@H]1[C@@H](C(=O)NCCCn2ccnc2)[C@@H]2C=C[C@H]1C2)c1ccc(-c2c3nc(c(-c4c(F)c(F)c(F)c(F)c4F)c4ccc([nH]4)c(-c4c(F)c(F)c(F)c(F)c4F)c4nc(c(-c5c(F)c(F)c(F)c(F)c5F)c5ccc2[nH]5)C=C4)C=C3)cc1
REMARK SMILES IDX 7 1 6 2 5 3 4 4 3 5 1 6 2 7 29 9 30 10 91 11 31 12 90 13
REMARK SMILES IDX 32 14 33 15 34 16 84 17 35 18 89 19 83 20 85 21 36 22 88 23
REMARK SMILES IDX 82 24 81 25 37 27 69 28 49 29 68 30 50 31 53 32 67 33 86 34
REMARK SMILES IDX 51 35 52 36 66 38 87 39 54 40 38 41 39 42 47 43 40 44 41 45
REMARK SMILES IDX 45 46 48 47 42 48 43 49 46 50 44 51 70 52 71 53 79 54 72 55
REMARK SMILES IDX 73 56 77 57 80 58 74 59 75 60 78 61 76 62 55 63 56 64 64 65
REMARK SMILES IDX 57 66 58 67 62 68 65 69 59 70 60 71 63 72 61 73 8 74 9 75
REMARK SMILES IDX 10 77 11 78 12 79 27 80 24 81 26 82 28 83 25 84 13 85 14 86
REMARK SMILES IDX 15 87 16 89 17 90 18 91 19 92 20 93 23 94 21 95 22 96
REMARK H PARENT 3 8 85 26 53 37 8 76 15 88
REMARK Flexibility Score: inf
ROOT
ATOM      1  C   UNL A   1      32.268  26.986  26.478  1.00  0.00     0.116 C 
ENDROOT
BRANCH   1   2
ATOM      2  C   UNL A   1      31.548  28.192  27.085  1.00  0.00     0.023 C 
BRANCH   2   3
ATOM      3  C   UNL A   1      31.882  29.554  26.456  1.00  0.00     0.023 C 
BRANCH   3   4
ATOM      4  C   UNL A   1      33.357  29.953  26.510  1.00  0.00     0.116 C 
BRANCH   4   5
ATOM      5  N   UNL A   1      33.620  31.136  27.303  1.00  0.00    -0.352 N 
ATOM      6  O   UNL A   1      34.558  32.737  28.491  1.00  0.00    -0.269 OA
ATOM      7  C   UNL A   1      34.693  31.622  28.007  1.00  0.00     0.251 C 
ATOM      8  H   UNL A   1      32.842  31.737  27.348  1.00  0.00     0.163 HD
BRANCH   7   9
ATOM      9  C   UNL A   1      35.970  30.886  28.250  1.00  0.00     0.039 A 
ATOM     10  C   UNL A   1      36.199  29.532  28.013  1.00  0.00     0.014 A 
ATOM     11  C   UNL A   1      37.036  31.663  28.752  1.00  0.00     0.014 A 
ATOM     12  C   UNL A   1      37.437  28.958  28.311  1.00  0.00     0.010 A 
ATOM     13  C   UNL A   1      38.277  31.097  29.038  1.00  0.00     0.010 A 
ATOM     14  C   UNL A   1      38.473  29.734  28.836  1.00  0.00    -0.014 A 
BRANCH  14  15
ATOM     15  C   UNL A   1      39.773  29.096  29.050  1.00  0.00     0.031 A 
ATOM     16  C   UNL A   1      40.190  28.893  30.473  1.00  0.00     0.074 A 
ATOM     17  C   UNL A   1      40.517  28.559  28.062  1.00  0.00     0.049 A 
ATOM     18  N   UNL A   1      41.290  29.250  31.059  1.00  0.00    -0.248 NA
ATOM     19  C   UNL A   1      39.233  28.216  31.363  1.00  0.00     0.031 C 
ATOM     20  C   UNL A   1      40.153  28.363  26.657  1.00  0.00     0.029 A 
ATOM     21  N   UNL A   1      41.750  27.978  28.149  1.00  0.00    -0.354 N 
ATOM     22  C   UNL A   1      41.227  28.737  32.356  1.00  0.00     0.074 A 
ATOM     23  C   UNL A   1      39.910  28.174  32.511  1.00  0.00     0.031 C 
ATOM     24  C   UNL A   1      41.054  27.538  26.077  1.00  0.00     0.029 A 
ATOM     25  C   UNL A   1      42.119  27.257  27.025  1.00  0.00     0.049 A 
ATOM     26  H   UNL A   1      42.327  28.066  28.942  1.00  0.00     0.167 HD
ATOM     27  C   UNL A   1      42.309  28.681  33.184  1.00  0.00     0.037 A 
ATOM     28  C   UNL A   1      43.189  26.437  26.903  1.00  0.00     0.037 A 
ATOM     29  C   UNL A   1      43.344  29.591  32.786  1.00  0.00     0.049 A 
ATOM     30  C   UNL A   1      44.160  26.780  27.969  1.00  0.00     0.074 A 
ATOM     31  C   UNL A   1      43.436  30.964  32.670  1.00  0.00     0.029 A 
ATOM     32  N   UNL A   1      44.453  29.101  32.147  1.00  0.00    -0.354 N 
ATOM     33  N   UNL A   1      44.860  27.877  28.007  1.00  0.00    -0.248 NA
ATOM     34  C   UNL A   1      44.091  26.038  29.218  1.00  0.00     0.031 C 
ATOM     35  C   UNL A   1      44.296  31.185  31.555  1.00  0.00     0.029 A 
ATOM     36  C   UNL A   1      44.687  29.933  31.083  1.00  0.00     0.049 A 
ATOM     37  H   UNL A   1      44.977  28.307  32.402  1.00  0.00     0.167 HD
ATOM     38  C   UNL A   1      44.967  28.179  29.354  1.00  0.00     0.074 A 
ATOM     39  C   UNL A   1      44.579  26.959  30.051  1.00  0.00     0.031 C 
ATOM     40  C   UNL A   1      45.095  29.470  29.779  1.00  0.00     0.037 A 
BRANCH  27  41
ATOM     41  C   UNL A   1      42.526  27.618  34.228  1.00  0.00     0.064 A 
ATOM     42  C   UNL A   1      43.124  26.390  33.877  1.00  0.00     0.173 A 
ATOM     43  C   UNL A   1      41.919  27.658  35.501  1.00  0.00     0.173 A 
ATOM     44  F   UNL A   1      43.697  26.228  32.675  1.00  0.00    -0.203 F 
ATOM     45  C   UNL A   1      43.078  25.277  34.723  1.00  0.00     0.198 A 
ATOM     46  C   UNL A   1      41.919  26.562  36.363  1.00  0.00     0.198 A 
ATOM     47  F   UNL A   1      41.217  28.723  35.910  1.00  0.00    -0.203 F 
ATOM     48  F   UNL A   1      43.568  24.102  34.305  1.00  0.00    -0.200 F 
ATOM     49  C   UNL A   1      42.475  25.364  35.964  1.00  0.00     0.200 A 
ATOM     50  F   UNL A   1      41.310  26.658  37.553  1.00  0.00    -0.200 F 
ATOM     51  F   UNL A   1      42.387  24.286  36.756  1.00  0.00    -0.200 F 
ENDBRANCH  27  41
BRANCH  28  52
ATOM     52  C   UNL A   1      43.313  25.202  26.097  1.00  0.00     0.064 A 
ATOM     53  C   UNL A   1      44.402  25.000  25.235  1.00  0.00     0.173 A 
ATOM     54  C   UNL A   1      42.505  24.080  26.363  1.00  0.00     0.173 A 
ATOM     55  F   UNL A   1      45.250  26.004  24.970  1.00  0.00    -0.203 F 
ATOM     56  C   UNL A   1      44.678  23.742  24.689  1.00  0.00     0.198 A 
ATOM     57  C   UNL A   1      42.775  22.829  25.809  1.00  0.00     0.198 A 
ATOM     58  F   UNL A   1      41.494  24.155  27.241  1.00  0.00    -0.203 F 
ATOM     59  F   UNL A   1      45.763  23.570  23.920  1.00  0.00    -0.200 F 
ATOM     60  C   UNL A   1      43.869  22.657  24.983  1.00  0.00     0.200 A 
ATOM     61  F   UNL A   1      42.005  21.781  26.132  1.00  0.00    -0.200 F 
ATOM     62  F   UNL A   1      44.166  21.440  24.507  1.00  0.00    -0.200 F 
ENDBRANCH  28  52
BRANCH  40  63
ATOM     63  C   UNL A   1      45.398  30.518  28.745  1.00  0.00     0.064 A 
ATOM     64  C   UNL A   1      44.415  31.140  27.956  1.00  0.00     0.173 A 
ATOM     65  C   UNL A   1      46.708  31.005  28.646  1.00  0.00     0.173 A 
ATOM     66  F   UNL A   1      43.124  30.809  28.076  1.00  0.00    -0.203 F 
ATOM     67  C   UNL A   1      44.742  32.162  27.065  1.00  0.00     0.198 A 
ATOM     68  C   UNL A   1      47.025  32.052  27.784  1.00  0.00     0.198 A 
ATOM     69  F   UNL A   1      47.678  30.494  29.421  1.00  0.00    -0.203 F 
ATOM     70  F   UNL A   1      43.788  32.725  26.309  1.00  0.00    -0.200 F 
ATOM     71  C   UNL A   1      46.046  32.621  26.986  1.00  0.00     0.200 A 
ATOM     72  F   UNL A   1      48.277  32.531  27.749  1.00  0.00    -0.200 F 
ATOM     73  F   UNL A   1      46.353  33.631  26.160  1.00  0.00    -0.200 F 
ENDBRANCH  40  63
ENDBRANCH  14  15
ENDBRANCH   7   9
ENDBRANCH   4   5
ENDBRANCH   3   4
ENDBRANCH   2   3
ENDBRANCH   1   2
BRANCH   1  74
ATOM     74  N   UNL A   1      31.353  25.947  26.043  1.00  0.00    -0.356 N 
ATOM     75  C   UNL A   1      31.502  24.951  25.124  1.00  0.00     0.224 C 
ATOM     76  H   UNL A   1      30.474  25.965  26.486  1.00  0.00     0.163 HD
ATOM     77  O   UNL A   1      30.654  24.059  25.139  1.00  0.00    -0.275 OA
BRANCH  75  78
ATOM     78  C   UNL A   1      32.714  24.924  24.192  1.00  0.00     0.098 C 
ATOM     79  C   UNL A   1      32.359  24.751  22.688  1.00  0.00     0.098 C 
ATOM     80  C   UNL A   1      33.617  23.666  24.439  1.00  0.00     0.025 C 
ATOM     81  C   UNL A   1      33.233  23.547  22.238  1.00  0.00     0.025 C 
ATOM     82  C   UNL A   1      32.833  22.391  24.181  1.00  0.00    -0.027 C 
ATOM     83  C   UNL A   1      34.454  23.605  23.159  1.00  0.00     0.017 C 
ATOM     84  C   UNL A   1      32.607  22.317  22.860  1.00  0.00    -0.027 C 
BRANCH  79  85
ATOM     85  C   UNL A   1      32.442  25.953  21.760  1.00  0.00     0.224 C 
ATOM     86  O   UNL A   1      33.282  25.947  20.851  1.00  0.00    -0.275 OA
ATOM     87  N   UNL A   1      31.679  27.066  21.817  1.00  0.00    -0.356 N 
ATOM     88  H   UNL A   1      31.891  27.712  21.106  1.00  0.00     0.163 HD
BRANCH  87  89
ATOM     89  C   UNL A   1      30.618  27.520  22.690  1.00  0.00     0.117 C 
BRANCH  89  90
ATOM     90  C   UNL A   1      30.333  29.010  22.487  1.00  0.00     0.043 C 
BRANCH  90  91
ATOM     91  C   UNL A   1      28.837  29.322  22.376  1.00  0.00     0.125 C 
BRANCH  91  92
ATOM     92  N   UNL A   1      28.576  30.748  22.448  1.00  0.00    -0.337 N 
ATOM     93  C   UNL A   1      28.884  31.583  23.485  1.00  0.00     0.107 A 
ATOM     94  C   UNL A   1      28.056  31.512  21.444  1.00  0.00     0.199 A 
ATOM     95  C   UNL A   1      28.640  32.848  23.003  1.00  0.00     0.130 A 
ATOM     96  N   UNL A   1      28.111  32.791  21.741  1.00  0.00    -0.245 NA
ENDBRANCH  91  92
ENDBRANCH  90  91
ENDBRANCH  89  90
ENDBRANCH  87  89
ENDBRANCH  79  85
ENDBRANCH  75  78
ENDBRANCH   1  74
TORSDOF 16
ENDMDL
