MODEL 1
REMARK VINA RESULT:     -11.8      0.000      0.000
REMARK SMILES CCCCCCNC(=O)Nc1cccc(-c2ccc([C@@H](C)C(=O)NCCCCNC(=O)c3ccc(-c4c5nc(c(-c6c(F)c(F)c(F)c(F)c6F)c6ccc([nH]6)c(-c6c(F)c(F)c(F)c(F)c6F)c6nc(c(-c7c(F)c(F)c(F)c(F)c7F)c7ccc4[nH]7)C=C6)C=C5)cc3)cc2F)c1
REMARK SMILES IDX 20 1 21 2 19 3 16 4 17 5 96 6 18 7 95 8 97 9 15 10 11 11
REMARK SMILES IDX 12 12 98 13 13 14 14 15 10 16 7 17 8 18 9 20 6 22 5 23 4 24
REMARK SMILES IDX 3 25 2 26 1 27 22 28 23 29 24 30 25 32 26 33 27 34 28 35
REMARK SMILES IDX 29 36 30 37 31 39 32 40 33 41 94 42 34 43 93 44 35 45 36 46
REMARK SMILES IDX 37 47 87 48 38 49 92 50 86 51 88 52 39 53 91 54 85 55 84 56
REMARK SMILES IDX 40 58 72 59 52 60 71 61 53 62 56 63 70 64 89 65 54 66 55 67
REMARK SMILES IDX 69 69 90 70 57 71 41 72 42 73 50 74 43 75 44 76 48 77 51 78
REMARK SMILES IDX 45 79 46 80 49 81 47 82 73 83 74 84 82 85 75 86 76 87 80 88
REMARK SMILES IDX 83 89 77 90 78 91 81 92 79 93 58 94 59 95 67 96 60 97 61 98
REMARK SMILES IDX 65 99 68 100 62 101 63 102 66 103 64 104
REMARK H PARENT 7 19 10 21 24 31 29 38 88 57 56 68
REMARK Flexibility Score: inf
ROOT
ATOM      1  C   UNL A   1      29.564  27.895  23.092  1.00  0.00     0.105 C 
ATOM      2  C   UNL A   1      28.091  27.906  23.499  1.00  0.00     0.023 C 
ENDROOT
BRANCH   1   3
ATOM      3  C   UNL A   1      30.464  26.997  23.926  1.00  0.00    -0.033 A 
ATOM      4  C   UNL A   1      32.076  25.165  25.434  1.00  0.00     0.018 A 
ATOM      5  C   UNL A   1      32.640  26.059  24.508  1.00  0.00     0.012 A 
ATOM      6  C   UNL A   1      30.686  25.249  25.611  1.00  0.00     0.131 A 
ATOM      7  C   UNL A   1      31.856  26.978  23.797  1.00  0.00     0.005 A 
ATOM      8  C   UNL A   1      29.893  26.125  24.862  1.00  0.00     0.044 A 
ATOM      9  F   UNL A   1      30.064  24.474  26.512  1.00  0.00    -0.206 F 
BRANCH   4  10
ATOM     10  C   UNL A   1      32.918  24.159  26.126  1.00  0.00    -0.013 A 
ATOM     11  C   UNL A   1      35.108  23.110  26.468  1.00  0.00     0.043 A 
ATOM     12  C   UNL A   1      34.610  22.379  27.543  1.00  0.00     0.026 A 
ATOM     13  C   UNL A   1      34.249  23.939  25.734  1.00  0.00     0.035 A 
ATOM     14  C   UNL A   1      33.291  22.563  27.945  1.00  0.00     0.003 A 
ATOM     15  C   UNL A   1      32.460  23.451  27.252  1.00  0.00     0.009 A 
BRANCH  11  16
ATOM     16  N   UNL A   1      36.479  23.017  26.181  1.00  0.00    -0.308 N 
ATOM     17  N   UNL A   1      36.707  20.910  25.131  1.00  0.00    -0.338 N 
ATOM     18  C   UNL A   1      37.230  21.944  25.836  1.00  0.00     0.319 C 
ATOM     19  H   UNL A   1      37.251  20.090  25.131  1.00  0.00     0.165 HD
ATOM     20  O   UNL A   1      38.438  21.939  26.077  1.00  0.00    -0.249 OA
ATOM     21  H   UNL A   1      36.973  23.867  26.240  1.00  0.00     0.171 HD
BRANCH  17  22
ATOM     22  C   UNL A   1      35.465  20.821  24.377  1.00  0.00     0.117 C 
BRANCH  22  23
ATOM     23  C   UNL A   1      34.436  19.895  25.017  1.00  0.00     0.021 C 
BRANCH  23  24
ATOM     24  C   UNL A   1      33.119  19.753  24.253  1.00  0.00     0.002 C 
BRANCH  24  25
ATOM     25  C   UNL A   1      32.221  20.994  24.238  1.00  0.00    -0.000 C 
BRANCH  25  26
ATOM     26  C   UNL A   1      32.470  21.984  23.098  1.00  0.00    -0.003 C 
ATOM     27  C   UNL A   1      31.331  22.972  22.895  1.00  0.00     0.004 C 
ENDBRANCH  25  26
ENDBRANCH  24  25
ENDBRANCH  23  24
ENDBRANCH  22  23
ENDBRANCH  17  22
ENDBRANCH  11  16
ENDBRANCH   4  10
ENDBRANCH   1   3
BRANCH   1  28
ATOM     28  C   UNL A   1      30.162  29.282  22.805  1.00  0.00     0.227 C 
ATOM     29  O   UNL A   1      30.332  29.650  21.636  1.00  0.00    -0.274 OA
ATOM     30  N   UNL A   1      30.525  30.170  23.771  1.00  0.00    -0.356 N 
ATOM     31  H   UNL A   1      30.808  31.048  23.427  1.00  0.00     0.163 HD
BRANCH  30  32
ATOM     32  C   UNL A   1      30.570  30.054  25.211  1.00  0.00     0.116 C 
BRANCH  32  33
ATOM     33  C   UNL A   1      31.789  30.760  25.800  1.00  0.00     0.023 C 
BRANCH  33  34
ATOM     34  C   UNL A   1      31.473  31.998  26.630  1.00  0.00     0.023 C 
BRANCH  34  35
ATOM     35  C   UNL A   1      32.674  32.694  27.250  1.00  0.00     0.116 C 
BRANCH  35  36
ATOM     36  N   UNL A   1      32.412  34.075  27.626  1.00  0.00    -0.352 N 
ATOM     37  C   UNL A   1      33.029  34.827  28.600  1.00  0.00     0.251 C 
ATOM     38  H   UNL A   1      31.702  34.531  27.117  1.00  0.00     0.163 HD
ATOM     39  O   UNL A   1      32.621  35.945  28.878  1.00  0.00    -0.269 OA
BRANCH  37  40
ATOM     40  C   UNL A   1      34.169  34.242  29.338  1.00  0.00     0.039 A 
ATOM     41  C   UNL A   1      33.915  33.425  30.442  1.00  0.00     0.014 A 
ATOM     42  C   UNL A   1      35.478  34.456  28.902  1.00  0.00     0.014 A 
ATOM     43  C   UNL A   1      34.974  32.760  31.063  1.00  0.00     0.010 A 
ATOM     44  C   UNL A   1      36.517  33.726  29.462  1.00  0.00     0.010 A 
ATOM     45  C   UNL A   1      36.278  32.875  30.552  1.00  0.00    -0.014 A 
BRANCH  45  46
ATOM     46  C   UNL A   1      37.413  32.126  31.146  1.00  0.00     0.031 A 
ATOM     47  C   UNL A   1      37.913  32.489  32.515  1.00  0.00     0.074 A 
ATOM     48  C   UNL A   1      38.048  31.187  30.420  1.00  0.00     0.049 A 
ATOM     49  N   UNL A   1      38.946  32.025  33.172  1.00  0.00    -0.248 NA
ATOM     50  C   UNL A   1      37.176  33.546  33.225  1.00  0.00     0.031 C 
ATOM     51  C   UNL A   1      37.702  30.796  29.053  1.00  0.00     0.029 A 
ATOM     52  N   UNL A   1      39.132  30.403  30.727  1.00  0.00    -0.354 N 
ATOM     53  C   UNL A   1      38.994  32.749  34.355  1.00  0.00     0.074 A 
ATOM     54  C   UNL A   1      37.929  33.726  34.299  1.00  0.00     0.031 C 
ATOM     55  C   UNL A   1      38.545  29.834  28.645  1.00  0.00     0.029 A 
ATOM     56  C   UNL A   1      39.508  29.562  29.708  1.00  0.00     0.049 A 
ATOM     57  H   UNL A   1      39.596  30.440  31.594  1.00  0.00     0.167 HD
ATOM     58  C   UNL A   1      39.832  32.594  35.408  1.00  0.00     0.037 A 
ATOM     59  C   UNL A   1      40.520  28.677  29.640  1.00  0.00     0.037 A 
ATOM     60  C   UNL A   1      40.868  31.599  35.472  1.00  0.00     0.049 A 
ATOM     61  C   UNL A   1      41.421  28.498  30.830  1.00  0.00     0.074 A 
ATOM     62  C   UNL A   1      41.722  31.306  36.521  1.00  0.00     0.029 A 
ATOM     63  N   UNL A   1      41.191  30.731  34.438  1.00  0.00    -0.354 N 
ATOM     64  N   UNL A   1      41.408  29.131  31.978  1.00  0.00    -0.248 NA
ATOM     65  C   UNL A   1      42.468  27.474  30.721  1.00  0.00     0.031 C 
ATOM     66  C   UNL A   1      42.589  30.289  36.106  1.00  0.00     0.029 A 
ATOM     67  C   UNL A   1      42.245  29.915  34.816  1.00  0.00     0.049 A 
ATOM     68  H   UNL A   1      40.738  30.701  33.565  1.00  0.00     0.167 HD
ATOM     69  C   UNL A   1      42.429  28.573  32.735  1.00  0.00     0.074 A 
ATOM     70  C   UNL A   1      43.031  27.537  31.920  1.00  0.00     0.031 C 
ATOM     71  C   UNL A   1      42.831  28.889  33.990  1.00  0.00     0.037 A 
BRANCH  58  72
ATOM     72  C   UNL A   1      39.651  33.527  36.572  1.00  0.00     0.064 A 
ATOM     73  C   UNL A   1      38.832  33.193  37.662  1.00  0.00     0.173 A 
ATOM     74  C   UNL A   1      40.298  34.771  36.595  1.00  0.00     0.173 A 
ATOM     75  F   UNL A   1      38.179  32.021  37.683  1.00  0.00    -0.203 F 
ATOM     76  C   UNL A   1      38.630  34.089  38.708  1.00  0.00     0.198 A 
ATOM     77  C   UNL A   1      40.121  35.650  37.661  1.00  0.00     0.198 A 
ATOM     78  F   UNL A   1      41.097  35.139  35.582  1.00  0.00    -0.203 F 
ATOM     79  F   UNL A   1      37.787  33.776  39.702  1.00  0.00    -0.200 F 
ATOM     80  C   UNL A   1      39.278  35.315  38.709  1.00  0.00     0.200 A 
ATOM     81  F   UNL A   1      40.756  36.831  37.666  1.00  0.00    -0.200 F 
ATOM     82  F   UNL A   1      39.079  36.178  39.715  1.00  0.00    -0.200 F 
ENDBRANCH  58  72
BRANCH  59  83
ATOM     83  C   UNL A   1      40.702  27.868  28.408  1.00  0.00     0.064 A 
ATOM     84  C   UNL A   1      41.509  28.330  27.359  1.00  0.00     0.173 A 
ATOM     85  C   UNL A   1      40.106  26.607  28.267  1.00  0.00     0.173 A 
ATOM     86  F   UNL A   1      42.087  29.538  27.441  1.00  0.00    -0.203 F 
ATOM     87  C   UNL A   1      41.704  27.566  26.210  1.00  0.00     0.198 A 
ATOM     88  C   UNL A   1      40.322  25.832  27.128  1.00  0.00     0.198 A 
ATOM     89  F   UNL A   1      39.332  26.117  29.247  1.00  0.00    -0.203 F 
ATOM     90  F   UNL A   1      42.457  28.043  25.210  1.00  0.00    -0.200 F 
ATOM     91  C   UNL A   1      41.117  26.314  26.100  1.00  0.00     0.200 A 
ATOM     92  F   UNL A   1      39.765  24.618  27.031  1.00  0.00    -0.200 F 
ATOM     93  F   UNL A   1      41.316  25.574  25.001  1.00  0.00    -0.200 F 
ENDBRANCH  59  83
BRANCH  71  94
ATOM     94  C   UNL A   1      43.963  28.092  34.570  1.00  0.00     0.064 A 
ATOM     95  C   UNL A   1      43.742  26.869  35.220  1.00  0.00     0.173 A 
ATOM     96  C   UNL A   1      45.287  28.534  34.431  1.00  0.00     0.173 A 
ATOM     97  F   UNL A   1      42.492  26.412  35.391  1.00  0.00    -0.203 F 
ATOM     98  C   UNL A   1      44.805  26.129  35.730  1.00  0.00     0.198 A 
ATOM     99  C   UNL A   1      46.348  27.778  34.916  1.00  0.00     0.198 A 
ATOM    100  F   UNL A   1      45.550  29.695  33.811  1.00  0.00    -0.203 F 
ATOM    101  F   UNL A   1      44.568  24.983  36.385  1.00  0.00    -0.200 F 
ATOM    102  C   UNL A   1      46.107  26.579  35.571  1.00  0.00     0.200 A 
ATOM    103  F   UNL A   1      47.607  28.208  34.751  1.00  0.00    -0.200 F 
ATOM    104  F   UNL A   1      47.130  25.860  36.054  1.00  0.00    -0.200 F 
ENDBRANCH  71  94
ENDBRANCH  45  46
ENDBRANCH  37  40
ENDBRANCH  35  36
ENDBRANCH  34  35
ENDBRANCH  33  34
ENDBRANCH  32  33
ENDBRANCH  30  32
ENDBRANCH   1  28
TORSDOF 19
ENDMDL
MODEL 2
REMARK VINA RESULT:     -11.5      1.157      7.048
REMARK SMILES CCCCCCNC(=O)Nc1cccc(-c2ccc([C@@H](C)C(=O)NCCCCNC(=O)c3ccc(-c4c5nc(c(-c6c(F)c(F)c(F)c(F)c6F)c6ccc([nH]6)c(-c6c(F)c(F)c(F)c(F)c6F)c6nc(c(-c7c(F)c(F)c(F)c(F)c7F)c7ccc4[nH]7)C=C6)C=C5)cc3)cc2F)c1
REMARK SMILES IDX 20 1 21 2 19 3 16 4 17 5 96 6 18 7 95 8 97 9 15 10 11 11
REMARK SMILES IDX 12 12 98 13 13 14 14 15 10 16 7 17 8 18 9 20 6 22 5 23 4 24
REMARK SMILES IDX 3 25 2 26 1 27 22 28 23 29 24 30 25 32 26 33 27 34 28 35
REMARK SMILES IDX 29 36 30 37 31 39 32 40 33 41 94 42 34 43 93 44 35 45 36 46
REMARK SMILES IDX 37 47 87 48 38 49 92 50 86 51 88 52 39 53 91 54 85 55 84 56
REMARK SMILES IDX 40 58 72 59 52 60 71 61 53 62 56 63 70 64 89 65 54 66 55 67
REMARK SMILES IDX 69 69 90 70 57 71 41 72 42 73 50 74 43 75 44 76 48 77 51 78
REMARK SMILES IDX 45 79 46 80 49 81 47 82 73 83 74 84 82 85 75 86 76 87 80 88
REMARK SMILES IDX 83 89 77 90 78 91 81 92 79 93 58 94 59 95 67 96 60 97 61 98
REMARK SMILES IDX 65 99 68 100 62 101 63 102 66 103 64 104
REMARK H PARENT 7 19 10 21 24 31 29 38 88 57 56 68
REMARK Flexibility Score: inf
ROOT
ATOM      1  C   UNL A   1      32.494  28.980  23.884  1.00  0.00     0.105 C 
ATOM      2  C   UNL A   1      33.432  29.313  22.724  1.00  0.00     0.023 C 
ENDROOT
BRANCH   1   3
ATOM      3  C   UNL A   1      32.752  27.647  24.569  1.00  0.00    -0.033 A 
ATOM      4  C   UNL A   1      33.111  25.063  25.761  1.00  0.00     0.018 A 
ATOM      5  C   UNL A   1      34.156  25.721  25.091  1.00  0.00     0.012 A 
ATOM      6  C   UNL A   1      31.896  25.758  25.851  1.00  0.00     0.131 A 
ATOM      7  C   UNL A   1      33.990  26.999  24.539  1.00  0.00     0.005 A 
ATOM      8  C   UNL A   1      31.709  27.009  25.253  1.00  0.00     0.044 A 
ATOM      9  F   UNL A   1      30.856  25.234  26.518  1.00  0.00    -0.206 F 
BRANCH   4  10
ATOM     10  C   UNL A   1      33.293  23.686  26.279  1.00  0.00    -0.013 A 
ATOM     11  C   UNL A   1      34.188  21.420  25.995  1.00  0.00     0.043 A 
ATOM     12  C   UNL A   1      33.824  21.093  27.298  1.00  0.00     0.026 A 
ATOM     13  C   UNL A   1      33.864  22.681  25.479  1.00  0.00     0.035 A 
ATOM     14  C   UNL A   1      33.242  22.061  28.110  1.00  0.00     0.003 A 
ATOM     15  C   UNL A   1      32.990  23.343  27.610  1.00  0.00     0.009 A 
BRANCH  11  16
ATOM     16  N   UNL A   1      34.908  20.473  25.250  1.00  0.00    -0.308 N 
ATOM     17  N   UNL A   1      33.243  19.036  24.379  1.00  0.00    -0.338 N 
ATOM     18  C   UNL A   1      34.524  19.270  24.757  1.00  0.00     0.319 C 
ATOM     19  H   UNL A   1      33.013  18.087  24.258  1.00  0.00     0.165 HD
ATOM     20  O   UNL A   1      35.367  18.395  24.554  1.00  0.00    -0.249 OA
ATOM     21  H   UNL A   1      35.840  20.721  25.055  1.00  0.00     0.171 HD
BRANCH  17  22
ATOM     22  C   UNL A   1      32.154  19.968  24.123  1.00  0.00     0.117 C 
BRANCH  22  23
ATOM     23  C   UNL A   1      32.242  20.636  22.755  1.00  0.00     0.021 C 
BRANCH  23  24
ATOM     24  C   UNL A   1      32.049  22.153  22.756  1.00  0.00     0.002 C 
BRANCH  24  25
ATOM     25  C   UNL A   1      33.107  22.958  21.994  1.00  0.00    -0.000 C 
BRANCH  25  26
ATOM     26  C   UNL A   1      32.904  24.475  21.974  1.00  0.00    -0.003 C 
ATOM     27  C   UNL A   1      31.501  24.902  22.381  1.00  0.00     0.004 C 
ENDBRANCH  25  26
ENDBRANCH  24  25
ENDBRANCH  23  24
ENDBRANCH  22  23
ENDBRANCH  17  22
ENDBRANCH  11  16
ENDBRANCH   4  10
ENDBRANCH   1   3
BRANCH   1  28
ATOM     28  C   UNL A   1      31.007  29.262  23.610  1.00  0.00     0.227 C 
ATOM     29  O   UNL A   1      30.382  28.551  22.814  1.00  0.00    -0.274 OA
ATOM     30  N   UNL A   1      30.300  30.263  24.201  1.00  0.00    -0.356 N 
ATOM     31  H   UNL A   1      29.339  30.257  23.990  1.00  0.00     0.163 HD
BRANCH  30  32
ATOM     32  C   UNL A   1      30.708  31.333  25.084  1.00  0.00     0.116 C 
BRANCH  32  33
ATOM     33  C   UNL A   1      31.567  30.820  26.238  1.00  0.00     0.023 C 
BRANCH  33  34
ATOM     34  C   UNL A   1      31.736  31.799  27.394  1.00  0.00     0.023 C 
BRANCH  34  35
ATOM     35  C   UNL A   1      32.876  32.793  27.248  1.00  0.00     0.116 C 
BRANCH  35  36
ATOM     36  N   UNL A   1      32.498  34.160  27.576  1.00  0.00    -0.352 N 
ATOM     37  C   UNL A   1      33.031  34.986  28.540  1.00  0.00     0.251 C 
ATOM     38  H   UNL A   1      31.766  34.543  27.040  1.00  0.00     0.163 HD
ATOM     39  O   UNL A   1      32.531  36.076  28.775  1.00  0.00    -0.269 OA
BRANCH  37  40
ATOM     40  C   UNL A   1      34.197  34.515  29.317  1.00  0.00     0.039 A 
ATOM     41  C   UNL A   1      33.990  33.966  30.585  1.00  0.00     0.014 A 
ATOM     42  C   UNL A   1      35.480  34.564  28.769  1.00  0.00     0.014 A 
ATOM     43  C   UNL A   1      35.064  33.396  31.271  1.00  0.00     0.010 A 
ATOM     44  C   UNL A   1      36.528  33.918  29.411  1.00  0.00     0.010 A 
ATOM     45  C   UNL A   1      36.333  33.333  30.671  1.00  0.00    -0.014 A 
BRANCH  45  46
ATOM     46  C   UNL A   1      37.477  32.671  31.345  1.00  0.00     0.031 A 
ATOM     47  C   UNL A   1      38.175  31.521  30.678  1.00  0.00     0.074 A 
ATOM     48  C   UNL A   1      37.827  33.044  32.591  1.00  0.00     0.049 A 
ATOM     49  N   UNL A   1      39.128  30.749  31.134  1.00  0.00    -0.248 NA
ATOM     50  C   UNL A   1      37.708  31.163  29.329  1.00  0.00     0.031 C 
ATOM     51  C   UNL A   1      37.180  34.099  33.372  1.00  0.00     0.029 A 
ATOM     52  N   UNL A   1      38.804  32.563  33.426  1.00  0.00    -0.354 N 
ATOM     53  C   UNL A   1      39.356  29.805  30.143  1.00  0.00     0.074 A 
ATOM     54  C   UNL A   1      38.398  30.059  29.089  1.00  0.00     0.031 C 
ATOM     55  C   UNL A   1      37.789  34.198  34.564  1.00  0.00     0.029 A 
ATOM     56  C   UNL A   1      38.847  33.196  34.644  1.00  0.00     0.049 A 
ATOM     57  H   UNL A   1      39.417  31.835  33.175  1.00  0.00     0.167 HD
ATOM     58  C   UNL A   1      40.297  28.833  30.100  1.00  0.00     0.037 A 
ATOM     59  C   UNL A   1      39.646  32.985  35.706  1.00  0.00     0.037 A 
ATOM     60  C   UNL A   1      41.268  28.607  31.137  1.00  0.00     0.049 A 
ATOM     61  C   UNL A   1      40.705  31.920  35.628  1.00  0.00     0.074 A 
ATOM     62  C   UNL A   1      42.313  27.701  31.160  1.00  0.00     0.029 A 
ATOM     63  N   UNL A   1      41.311  29.299  32.339  1.00  0.00    -0.354 N 
ATOM     64  N   UNL A   1      40.966  31.085  34.652  1.00  0.00    -0.248 NA
ATOM     65  C   UNL A   1      41.588  31.777  36.793  1.00  0.00     0.031 C 
ATOM     66  C   UNL A   1      42.962  27.815  32.394  1.00  0.00     0.029 A 
ATOM     67  C   UNL A   1      42.353  28.826  33.121  1.00  0.00     0.049 A 
ATOM     68  H   UNL A   1      40.692  30.019  32.598  1.00  0.00     0.167 HD
ATOM     69  C   UNL A   1      42.052  30.330  35.073  1.00  0.00     0.074 A 
ATOM     70  C   UNL A   1      42.412  30.819  36.389  1.00  0.00     0.031 C 
ATOM     71  C   UNL A   1      42.694  29.325  34.429  1.00  0.00     0.037 A 
BRANCH  58  72
ATOM     72  C   UNL A   1      40.315  27.948  28.886  1.00  0.00     0.064 A 
ATOM     73  C   UNL A   1      39.614  26.732  28.851  1.00  0.00     0.173 A 
ATOM     74  C   UNL A   1      41.047  28.316  27.747  1.00  0.00     0.173 A 
ATOM     75  F   UNL A   1      38.909  26.327  29.918  1.00  0.00    -0.203 F 
ATOM     76  C   UNL A   1      39.683  25.897  27.739  1.00  0.00     0.198 A 
ATOM     77  C   UNL A   1      41.086  27.492  26.624  1.00  0.00     0.198 A 
ATOM     78  F   UNL A   1      41.732  29.469  27.725  1.00  0.00    -0.203 F 
ATOM     79  F   UNL A   1      39.063  24.709  27.757  1.00  0.00    -0.200 F 
ATOM     80  C   UNL A   1      40.416  26.279  26.626  1.00  0.00     0.200 A 
ATOM     81  F   UNL A   1      41.786  27.868  25.544  1.00  0.00    -0.200 F 
ATOM     82  F   UNL A   1      40.485  25.471  25.558  1.00  0.00    -0.200 F 
ENDBRANCH  58  72
BRANCH  59  83
ATOM     83  C   UNL A   1      39.492  33.831  36.917  1.00  0.00     0.064 A 
ATOM     84  C   UNL A   1      40.091  35.096  36.989  1.00  0.00     0.173 A 
ATOM     85  C   UNL A   1      38.720  33.410  38.008  1.00  0.00     0.173 A 
ATOM     86  F   UNL A   1      40.854  35.535  35.977  1.00  0.00    -0.203 F 
ATOM     87  C   UNL A   1      39.931  35.905  38.112  1.00  0.00     0.198 A 
ATOM     88  C   UNL A   1      38.539  34.230  39.121  1.00  0.00     0.198 A 
ATOM     89  F   UNL A   1      38.119  32.210  37.984  1.00  0.00    -0.203 F 
ATOM     90  F   UNL A   1      40.537  37.099  38.168  1.00  0.00    -0.200 F 
ATOM     91  C   UNL A   1      39.148  35.475  39.174  1.00  0.00     0.200 A 
ATOM     92  F   UNL A   1      37.771  33.817  40.138  1.00  0.00    -0.200 F 
ATOM     93  F   UNL A   1      38.983  36.259  40.248  1.00  0.00    -0.200 F 
ENDBRANCH  59  83
BRANCH  71  94
ATOM     94  C   UNL A   1      43.865  28.698  35.128  1.00  0.00     0.064 A 
ATOM     95  C   UNL A   1      43.711  27.579  35.960  1.00  0.00     0.173 A 
ATOM     96  C   UNL A   1      45.161  29.195  34.925  1.00  0.00     0.173 A 
ATOM     97  F   UNL A   1      42.490  27.078  36.197  1.00  0.00    -0.203 F 
ATOM     98  C   UNL A   1      44.812  26.994  36.581  1.00  0.00     0.198 A 
ATOM     99  C   UNL A   1      46.261  28.590  35.525  1.00  0.00     0.198 A 
ATOM    100  F   UNL A   1      45.361  30.259  34.133  1.00  0.00    -0.203 F 
ATOM    101  F   UNL A   1      44.637  25.952  37.406  1.00  0.00    -0.200 F 
ATOM    102  C   UNL A   1      46.085  27.494  36.357  1.00  0.00     0.200 A 
ATOM    103  F   UNL A   1      47.493  29.066  35.297  1.00  0.00    -0.200 F 
ATOM    104  F   UNL A   1      47.144  26.924  36.948  1.00  0.00    -0.200 F 
ENDBRANCH  71  94
ENDBRANCH  45  46
ENDBRANCH  37  40
ENDBRANCH  35  36
ENDBRANCH  34  35
ENDBRANCH  33  34
ENDBRANCH  32  33
ENDBRANCH  30  32
ENDBRANCH   1  28
TORSDOF 19
ENDMDL
MODEL 3
REMARK VINA RESULT:     -11.5      5.601      9.236
REMARK SMILES CCCCCCNC(=O)Nc1cccc(-c2ccc([C@@H](C)C(=O)NCCCCNC(=O)c3ccc(-c4c5nc(c(-c6c(F)c(F)c(F)c(F)c6F)c6ccc([nH]6)c(-c6c(F)c(F)c(F)c(F)c6F)c6nc(c(-c7c(F)c(F)c(F)c(F)c7F)c7ccc4[nH]7)C=C6)C=C5)cc3)cc2F)c1
REMARK SMILES IDX 20 1 21 2 19 3 16 4 17 5 96 6 18 7 95 8 97 9 15 10 11 11
REMARK SMILES IDX 12 12 98 13 13 14 14 15 10 16 7 17 8 18 9 20 6 22 5 23 4 24
REMARK SMILES IDX 3 25 2 26 1 27 22 28 23 29 24 30 25 32 26 33 27 34 28 35
REMARK SMILES IDX 29 36 30 37 31 39 32 40 33 41 94 42 34 43 93 44 35 45 36 46
REMARK SMILES IDX 37 47 87 48 38 49 92 50 86 51 88 52 39 53 91 54 85 55 84 56
REMARK SMILES IDX 40 58 72 59 52 60 71 61 53 62 56 63 70 64 89 65 54 66 55 67
REMARK SMILES IDX 69 69 90 70 57 71 41 72 42 73 50 74 43 75 44 76 48 77 51 78
REMARK SMILES IDX 45 79 46 80 49 81 47 82 73 83 74 84 82 85 75 86 76 87 80 88
REMARK SMILES IDX 83 89 77 90 78 91 81 92 79 93 58 94 59 95 67 96 60 97 61 98
REMARK SMILES IDX 65 99 68 100 62 101 63 102 66 103 64 104
REMARK H PARENT 7 19 10 21 24 31 29 38 88 57 56 68
REMARK Flexibility Score: inf
ROOT
ATOM      1  C   UNL A   1      37.841  31.084  30.393  1.00  0.00     0.105 C 
ATOM      2  C   UNL A   1      38.673  32.361  30.272  1.00  0.00     0.023 C 
ENDROOT
BRANCH   1   3
ATOM      3  C   UNL A   1      38.392  29.876  29.652  1.00  0.00    -0.033 A 
ATOM      4  C   UNL A   1      39.584  27.681  28.241  1.00  0.00     0.018 A 
ATOM      5  C   UNL A   1      39.050  27.530  29.532  1.00  0.00     0.012 A 
ATOM      6  C   UNL A   1      39.463  28.955  27.665  1.00  0.00     0.131 A 
ATOM      7  C   UNL A   1      38.436  28.594  30.207  1.00  0.00     0.005 A 
ATOM      8  C   UNL A   1      38.902  30.034  28.356  1.00  0.00     0.044 A 
ATOM      9  F   UNL A   1      39.894  29.183  26.414  1.00  0.00    -0.206 F 
BRANCH   4  10
ATOM     10  C   UNL A   1      40.285  26.558  27.574  1.00  0.00    -0.013 A 
ATOM     11  C   UNL A   1      40.630  24.145  27.301  1.00  0.00     0.043 A 
ATOM     12  C   UNL A   1      41.464  24.370  26.209  1.00  0.00     0.026 A 
ATOM     13  C   UNL A   1      40.104  25.233  28.008  1.00  0.00     0.035 A 
ATOM     14  C   UNL A   1      41.676  25.671  25.765  1.00  0.00     0.003 A 
ATOM     15  C   UNL A   1      41.085  26.749  26.433  1.00  0.00     0.009 A 
BRANCH  11  16
ATOM     16  N   UNL A   1      40.314  22.818  27.632  1.00  0.00    -0.308 N 
ATOM     17  N   UNL A   1      42.292  21.985  28.627  1.00  0.00    -0.338 N 
ATOM     18  C   UNL A   1      41.122  21.784  27.971  1.00  0.00     0.319 C 
ATOM     19  H   UNL A   1      42.907  21.217  28.622  1.00  0.00     0.165 HD
ATOM     20  O   UNL A   1      40.751  20.627  27.772  1.00  0.00    -0.249 OA
ATOM     21  H   UNL A   1      39.354  22.604  27.614  1.00  0.00     0.171 HD
BRANCH  17  22
ATOM     22  C   UNL A   1      42.782  23.159  29.336  1.00  0.00     0.117 C 
BRANCH  22  23
ATOM     23  C   UNL A   1      44.260  23.440  29.086  1.00  0.00     0.021 C 
BRANCH  23  24
ATOM     24  C   UNL A   1      44.574  24.825  28.520  1.00  0.00     0.002 C 
BRANCH  24  25
ATOM     25  C   UNL A   1      43.756  25.983  29.099  1.00  0.00    -0.000 C 
BRANCH  25  26
ATOM     26  C   UNL A   1      44.031  27.362  28.495  1.00  0.00    -0.003 C 
ATOM     27  C   UNL A   1      43.089  28.444  29.004  1.00  0.00     0.004 C 
ENDBRANCH  25  26
ENDBRANCH  24  25
ENDBRANCH  23  24
ENDBRANCH  22  23
ENDBRANCH  17  22
ENDBRANCH  11  16
ENDBRANCH   4  10
ENDBRANCH   1   3
BRANCH   1  28
ATOM     28  C   UNL A   1      36.326  31.285  30.218  1.00  0.00     0.227 C 
ATOM     29  O   UNL A   1      35.826  31.247  29.088  1.00  0.00    -0.274 OA
ATOM     30  N   UNL A   1      35.463  31.501  31.248  1.00  0.00    -0.356 N 
ATOM     31  H   UNL A   1      34.515  31.520  30.983  1.00  0.00     0.163 HD
BRANCH  30  32
ATOM     32  C   UNL A   1      35.689  31.707  32.661  1.00  0.00     0.116 C 
BRANCH  32  33
ATOM     33  C   UNL A   1      35.262  33.104  33.106  1.00  0.00     0.023 C 
BRANCH  33  34
ATOM     34  C   UNL A   1      36.312  34.190  32.903  1.00  0.00     0.023 C 
BRANCH  34  35
ATOM     35  C   UNL A   1      37.494  34.143  33.858  1.00  0.00     0.116 C 
BRANCH  35  36
ATOM     36  N   UNL A   1      37.183  33.511  35.132  1.00  0.00    -0.352 N 
ATOM     37  C   UNL A   1      37.778  32.411  35.707  1.00  0.00     0.251 C 
ATOM     38  H   UNL A   1      36.453  33.924  35.649  1.00  0.00     0.163 HD
ATOM     39  O   UNL A   1      37.331  31.926  36.736  1.00  0.00    -0.269 OA
BRANCH  37  40
ATOM     40  C   UNL A   1      38.944  31.798  35.037  1.00  0.00     0.039 A 
ATOM     41  C   UNL A   1      38.728  30.833  34.049  1.00  0.00     0.014 A 
ATOM     42  C   UNL A   1      40.239  32.219  35.344  1.00  0.00     0.014 A 
ATOM     43  C   UNL A   1      39.812  30.346  33.317  1.00  0.00     0.010 A 
ATOM     44  C   UNL A   1      41.303  31.802  34.555  1.00  0.00     0.010 A 
ATOM     45  C   UNL A   1      41.102  30.857  33.537  1.00  0.00    -0.014 A 
BRANCH  45  46
ATOM     46  C   UNL A   1      42.262  30.411  32.727  1.00  0.00     0.031 A 
ATOM     47  C   UNL A   1      42.937  29.106  33.041  1.00  0.00     0.074 A 
ATOM     48  C   UNL A   1      42.763  31.219  31.774  1.00  0.00     0.049 A 
ATOM     49  N   UNL A   1      44.016  28.582  32.519  1.00  0.00    -0.248 NA
ATOM     50  C   UNL A   1      42.339  28.301  34.117  1.00  0.00     0.031 C 
ATOM     51  C   UNL A   1      42.241  32.541  31.424  1.00  0.00     0.029 A 
ATOM     52  N   UNL A   1      43.837  31.054  30.937  1.00  0.00    -0.354 N 
ATOM     53  C   UNL A   1      44.238  27.404  33.218  1.00  0.00     0.074 A 
ATOM     54  C   UNL A   1      43.220  27.321  34.243  1.00  0.00     0.031 C 
ATOM     55  C   UNL A   1      42.983  33.058  30.433  1.00  0.00     0.029 A 
ATOM     56  C   UNL A   1      44.051  32.120  30.098  1.00  0.00     0.049 A 
ATOM     57  H   UNL A   1      44.401  30.247  30.936  1.00  0.00     0.167 HD
ATOM     58  C   UNL A   1      45.186  26.460  33.007  1.00  0.00     0.037 A 
ATOM     59  C   UNL A   1      45.005  32.319  29.169  1.00  0.00     0.037 A 
ATOM     60  C   UNL A   1      46.174  26.532  31.964  1.00  0.00     0.049 A 
ATOM     61  C   UNL A   1      46.030  31.247  28.928  1.00  0.00     0.074 A 
ATOM     62  C   UNL A   1      47.131  25.596  31.613  1.00  0.00     0.029 A 
ATOM     63  N   UNL A   1      46.332  27.608  31.102  1.00  0.00    -0.354 N 
ATOM     64  N   UNL A   1      46.183  30.097  29.540  1.00  0.00    -0.248 NA
ATOM     65  C   UNL A   1      47.008  31.493  27.860  1.00  0.00     0.031 C 
ATOM     66  C   UNL A   1      47.894  26.124  30.566  1.00  0.00     0.029 A 
ATOM     67  C   UNL A   1      47.383  27.369  30.232  1.00  0.00     0.049 A 
ATOM     68  H   UNL A   1      45.778  28.422  31.108  1.00  0.00     0.167 HD
ATOM     69  C   UNL A   1      47.258  29.474  28.922  1.00  0.00     0.074 A 
ATOM     70  C   UNL A   1      47.710  30.367  27.875  1.00  0.00     0.031 C 
ATOM     71  C   UNL A   1      47.819  28.271  29.197  1.00  0.00     0.037 A 
BRANCH  58  72
ATOM     72  C   UNL A   1      45.187  25.270  33.924  1.00  0.00     0.064 A 
ATOM     73  C   UNL A   1      44.559  24.066  33.569  1.00  0.00     0.173 A 
ATOM     74  C   UNL A   1      45.816  25.337  35.176  1.00  0.00     0.173 A 
ATOM     75  F   UNL A   1      43.931  23.954  32.389  1.00  0.00    -0.203 F 
ATOM     76  C   UNL A   1      44.522  22.990  34.452  1.00  0.00     0.198 A 
ATOM     77  C   UNL A   1      45.806  24.246  36.042  1.00  0.00     0.198 A 
ATOM     78  F   UNL A   1      46.435  26.463  35.565  1.00  0.00    -0.203 F 
ATOM     79  F   UNL A   1      43.855  21.876  34.118  1.00  0.00    -0.200 F 
ATOM     80  C   UNL A   1      45.148  23.079  35.686  1.00  0.00     0.200 A 
ATOM     81  F   UNL A   1      46.421  24.330  37.230  1.00  0.00    -0.200 F 
ATOM     82  F   UNL A   1      45.107  22.044  36.535  1.00  0.00    -0.200 F 
ENDBRANCH  58  72
BRANCH  59  83
ATOM     83  C   UNL A   1      45.003  33.575  28.376  1.00  0.00     0.064 A 
ATOM     84  C   UNL A   1      44.338  33.645  27.144  1.00  0.00     0.173 A 
ATOM     85  C   UNL A   1      45.631  34.736  28.846  1.00  0.00     0.173 A 
ATOM     86  F   UNL A   1      43.737  32.554  26.645  1.00  0.00    -0.203 F 
ATOM     87  C   UNL A   1      44.312  34.826  26.406  1.00  0.00     0.198 A 
ATOM     88  C   UNL A   1      45.583  35.925  28.120  1.00  0.00     0.198 A 
ATOM     89  F   UNL A   1      46.273  34.723  30.024  1.00  0.00    -0.203 F 
ATOM     90  F   UNL A   1      43.694  34.858  25.218  1.00  0.00    -0.200 F 
ATOM     91  C   UNL A   1      44.927  35.968  26.899  1.00  0.00     0.200 A 
ATOM     92  F   UNL A   1      46.166  37.029  28.605  1.00  0.00    -0.200 F 
ATOM     93  F   UNL A   1      44.889  37.108  26.195  1.00  0.00    -0.200 F 
ENDBRANCH  59  83
BRANCH  71  94
ATOM     94  C   UNL A   1      48.972  27.840  28.338  1.00  0.00     0.064 A 
ATOM     95  C   UNL A   1      48.777  27.094  27.166  1.00  0.00     0.173 A 
ATOM     96  C   UNL A   1      50.283  28.218  28.667  1.00  0.00     0.173 A 
ATOM     97  F   UNL A   1      47.545  26.696  26.818  1.00  0.00    -0.203 F 
ATOM     98  C   UNL A   1      49.856  26.724  26.367  1.00  0.00     0.198 A 
ATOM     99  C   UNL A   1      51.354  27.871  27.851  1.00  0.00     0.198 A 
ATOM    100  F   UNL A   1      50.520  28.937  29.775  1.00  0.00    -0.203 F 
ATOM    101  F   UNL A   1      49.651  25.975  25.274  1.00  0.00    -0.200 F 
ATOM    102  C   UNL A   1      51.141  27.119  26.706  1.00  0.00     0.200 A 
ATOM    103  F   UNL A   1      52.594  28.264  28.172  1.00  0.00    -0.200 F 
ATOM    104  F   UNL A   1      52.177  26.769  25.930  1.00  0.00    -0.200 F 
ENDBRANCH  71  94
ENDBRANCH  45  46
ENDBRANCH  37  40
ENDBRANCH  35  36
ENDBRANCH  34  35
ENDBRANCH  33  34
ENDBRANCH  32  33
ENDBRANCH  30  32
ENDBRANCH   1  28
TORSDOF 19
ENDMDL
