MODEL 1
REMARK VINA RESULT:     -13.9      0.000      0.000
REMARK SMILES NC(=O)c1cccc(N2CC(n3cc(C(=O)NCCCCNC(=O)c4ccc(-c5c6nc(c(-c7c(F)c(F)c(F)c(F)c7F)c7ccc([nH]7)c(-c7c(F)c(F)c(F)c(F)c7F)c7nc(c(-c8c(F)c(F)c(F)c(F)c8F)c8ccc5[nH]8)C=C7)C=C6)cc4)nn3)C2)n1
REMARK SMILES IDX 19 1 18 2 17 3 15 4 16 5 14 7 12 8 13 9 89 10 88 11 11 12
REMARK SMILES IDX 9 13 10 14 90 15 8 16 4 17 5 18 91 19 6 20 7 21 2 22 1 23
REMARK SMILES IDX 3 26 20 27 21 28 22 29 23 30 24 32 25 33 26 34 87 35 27 36
REMARK SMILES IDX 86 37 28 38 29 39 30 40 80 41 31 42 85 43 79 44 81 45 32 46
REMARK SMILES IDX 84 47 78 48 77 49 33 51 65 52 45 53 64 54 46 55 49 56 63 57
REMARK SMILES IDX 82 58 47 59 48 60 62 62 83 63 50 64 34 65 35 66 43 67 36 68
REMARK SMILES IDX 37 69 41 70 44 71 38 72 39 73 42 74 40 75 66 76 67 77 75 78
REMARK SMILES IDX 68 79 69 80 73 81 76 82 70 83 71 84 74 85 72 86 51 87 52 88
REMARK SMILES IDX 60 89 53 90 54 91 58 92 61 93 55 94 56 95 59 96 57 97
REMARK H PARENT 17 6 1 24 1 25 22 31 81 50 49 61
REMARK Flexibility Score: inf
ROOT
ATOM      1  C   UNL A   1      31.786  30.130  25.650  1.00  0.00     0.023 C 
ENDROOT
BRANCH   1   2
ATOM      2  C   UNL A   1      32.367  29.456  24.405  1.00  0.00     0.116 C 
BRANCH   2   3
ATOM      3  N   UNL A   1      31.502  29.609  23.252  1.00  0.00    -0.351 N 
ATOM      4  C   UNL A   1      30.563  28.771  22.691  1.00  0.00     0.273 C 
ATOM      5  O   UNL A   1      29.882  29.250  21.782  1.00  0.00    -0.267 OA
ATOM      6  H   UNL A   1      31.603  30.469  22.785  1.00  0.00     0.163 HD
BRANCH   4   7
ATOM      7  C   UNL A   1      30.362  27.406  23.166  1.00  0.00     0.170 A 
ATOM      8  N   UNL A   1      30.484  25.320  23.779  1.00  0.00    -0.245 N 
ATOM      9  C   UNL A   1      31.176  26.292  23.105  1.00  0.00     0.145 A 
ATOM     10  N   UNL A   1      29.286  25.769  24.176  1.00  0.00    -0.066 NA
ATOM     11  N   UNL A   1      29.183  27.032  23.781  1.00  0.00    -0.125 NA
BRANCH   8  12
ATOM     12  C   UNL A   1      31.036  24.040  24.091  1.00  0.00     0.148 C 
ATOM     13  N   UNL A   1      32.968  23.381  24.444  1.00  0.00    -0.352 N 
ATOM     14  C   UNL A   1      31.968  23.957  25.299  1.00  0.00     0.147 C 
ATOM     15  C   UNL A   1      32.292  23.772  23.244  1.00  0.00     0.147 C 
BRANCH  13  16
ATOM     16  C   UNL A   1      33.614  22.142  24.616  1.00  0.00     0.129 A 
ATOM     17  C   UNL A   1      33.552  19.866  25.017  1.00  0.00     0.130 A 
ATOM     18  C   UNL A   1      34.937  19.750  24.987  1.00  0.00     0.034 A 
ATOM     19  N   UNL A   1      32.884  21.035  24.850  1.00  0.00    -0.226 NA
ATOM     20  C   UNL A   1      35.677  20.898  24.745  1.00  0.00     0.006 A 
ATOM     21  C   UNL A   1      35.008  22.103  24.545  1.00  0.00     0.047 A 
BRANCH  17  22
ATOM     22  C   UNL A   1      32.712  18.650  25.223  1.00  0.00     0.267 C 
ATOM     23  N   UNL A   1      32.755  18.079  26.470  1.00  0.00    -0.364 N 
ATOM     24  H   UNL A   1      32.220  17.275  26.662  1.00  0.00     0.160 HD
ATOM     25  H   UNL A   1      33.320  18.474  27.173  1.00  0.00     0.160 HD
ATOM     26  O   UNL A   1      32.017  18.171  24.336  1.00  0.00    -0.268 OA
ENDBRANCH  17  22
ENDBRANCH  13  16
ENDBRANCH   8  12
ENDBRANCH   4   7
ENDBRANCH   2   3
ENDBRANCH   1   2
BRANCH   1  27
ATOM     27  C   UNL A   1      32.159  29.470  26.987  1.00  0.00     0.023 C 
BRANCH  27  28
ATOM     28  C   UNL A   1      33.566  29.780  27.495  1.00  0.00     0.116 C 
BRANCH  28  29
ATOM     29  N   UNL A   1      34.009  31.133  27.167  1.00  0.00    -0.352 N 
ATOM     30  C   UNL A   1      35.121  31.802  27.646  1.00  0.00     0.251 C 
ATOM     31  H   UNL A   1      33.447  31.629  26.528  1.00  0.00     0.163 HD
ATOM     32  O   UNL A   1      35.188  33.018  27.625  1.00  0.00    -0.269 OA
BRANCH  30  33
ATOM     33  C   UNL A   1      36.239  31.005  28.183  1.00  0.00     0.039 A 
ATOM     34  C   UNL A   1      36.378  29.654  27.858  1.00  0.00     0.014 A 
ATOM     35  C   UNL A   1      37.178  31.651  28.985  1.00  0.00     0.014 A 
ATOM     36  C   UNL A   1      37.527  28.982  28.266  1.00  0.00     0.010 A 
ATOM     37  C   UNL A   1      38.362  31.021  29.288  1.00  0.00     0.010 A 
ATOM     38  C   UNL A   1      38.534  29.679  28.955  1.00  0.00    -0.014 A 
BRANCH  38  39
ATOM     39  C   UNL A   1      39.835  29.049  29.182  1.00  0.00     0.031 A 
ATOM     40  C   UNL A   1      40.142  28.746  30.609  1.00  0.00     0.074 A 
ATOM     41  C   UNL A   1      40.616  28.566  28.190  1.00  0.00     0.049 A 
ATOM     42  N   UNL A   1      41.105  29.225  31.325  1.00  0.00    -0.248 NA
ATOM     43  C   UNL A   1      39.206  27.894  31.364  1.00  0.00     0.031 C 
ATOM     44  C   UNL A   1      40.320  28.515  26.756  1.00  0.00     0.029 A 
ATOM     45  N   UNL A   1      41.808  27.907  28.273  1.00  0.00    -0.354 N 
ATOM     46  C   UNL A   1      41.019  28.591  32.562  1.00  0.00     0.074 A 
ATOM     47  C   UNL A   1      39.749  27.912  32.583  1.00  0.00     0.031 C 
ATOM     48  C   UNL A   1      41.173  27.666  26.146  1.00  0.00     0.029 A 
ATOM     49  C   UNL A   1      42.176  27.246  27.107  1.00  0.00     0.049 A 
ATOM     50  H   UNL A   1      42.360  27.901  29.088  1.00  0.00     0.167 HD
ATOM     51  C   UNL A   1      42.116  28.467  33.360  1.00  0.00     0.037 A 
ATOM     52  C   UNL A   1      43.219  26.396  26.939  1.00  0.00     0.037 A 
ATOM     53  C   UNL A   1      43.149  29.394  32.974  1.00  0.00     0.049 A 
ATOM     54  C   UNL A   1      44.187  26.667  28.026  1.00  0.00     0.074 A 
ATOM     55  C   UNL A   1      43.241  30.769  32.868  1.00  0.00     0.029 A 
ATOM     56  N   UNL A   1      44.211  28.898  32.261  1.00  0.00    -0.354 N 
ATOM     57  N   UNL A   1      44.880  27.766  28.125  1.00  0.00    -0.248 NA
ATOM     58  C   UNL A   1      44.090  25.878  29.242  1.00  0.00     0.031 C 
ATOM     59  C   UNL A   1      44.050  30.999  31.714  1.00  0.00     0.029 A 
ATOM     60  C   UNL A   1      44.460  29.759  31.225  1.00  0.00     0.049 A 
ATOM     61  H   UNL A   1      44.706  28.071  32.458  1.00  0.00     0.167 HD
ATOM     62  C   UNL A   1      44.899  28.038  29.483  1.00  0.00     0.074 A 
ATOM     63  C   UNL A   1      44.519  26.783  30.125  1.00  0.00     0.031 C 
ATOM     64  C   UNL A   1      44.937  29.328  29.931  1.00  0.00     0.037 A 
BRANCH  51  65
ATOM     65  C   UNL A   1      42.411  27.248  34.203  1.00  0.00     0.064 A 
ATOM     66  C   UNL A   1      42.091  27.267  35.577  1.00  0.00     0.173 A 
ATOM     67  C   UNL A   1      43.275  26.208  33.797  1.00  0.00     0.173 A 
ATOM     68  F   UNL A   1      41.303  28.229  36.080  1.00  0.00    -0.203 F 
ATOM     69  C   UNL A   1      42.656  26.361  36.480  1.00  0.00     0.198 A 
ATOM     70  C   UNL A   1      43.793  25.273  34.690  1.00  0.00     0.198 A 
ATOM     71  F   UNL A   1      43.750  26.125  32.548  1.00  0.00    -0.203 F 
ATOM     72  F   UNL A   1      42.429  26.500  37.793  1.00  0.00    -0.200 F 
ATOM     73  C   UNL A   1      43.510  25.367  36.036  1.00  0.00     0.200 A 
ATOM     74  F   UNL A   1      44.640  24.334  34.244  1.00  0.00    -0.200 F 
ATOM     75  F   UNL A   1      44.104  24.540  36.906  1.00  0.00    -0.200 F 
ENDBRANCH  51  65
BRANCH  52  76
ATOM     76  C   UNL A   1      43.321  25.201  26.069  1.00  0.00     0.064 A 
ATOM     77  C   UNL A   1      44.441  25.002  25.244  1.00  0.00     0.173 A 
ATOM     78  C   UNL A   1      42.470  24.093  26.246  1.00  0.00     0.173 A 
ATOM     79  F   UNL A   1      45.323  25.993  25.051  1.00  0.00    -0.203 F 
ATOM     80  C   UNL A   1      44.717  23.757  24.669  1.00  0.00     0.198 A 
ATOM     81  C   UNL A   1      42.742  22.854  25.665  1.00  0.00     0.198 A 
ATOM     82  F   UNL A   1      41.413  24.162  27.068  1.00  0.00    -0.203 F 
ATOM     83  F   UNL A   1      45.836  23.586  23.951  1.00  0.00    -0.200 F 
ATOM     84  C   UNL A   1      43.875  22.681  24.892  1.00  0.00     0.200 A 
ATOM     85  F   UNL A   1      41.936  21.812  25.916  1.00  0.00    -0.200 F 
ATOM     86  F   UNL A   1      44.176  21.471  24.400  1.00  0.00    -0.200 F 
ENDBRANCH  52  76
BRANCH  64  87
ATOM     87  C   UNL A   1      45.300  30.395  28.934  1.00  0.00     0.064 A 
ATOM     88  C   UNL A   1      44.382  31.055  28.096  1.00  0.00     0.173 A 
ATOM     89  C   UNL A   1      46.632  30.826  28.885  1.00  0.00     0.173 A 
ATOM     90  F   UNL A   1      43.073  30.784  28.154  1.00  0.00    -0.203 F 
ATOM     91  C   UNL A   1      44.794  32.045  27.206  1.00  0.00     0.198 A 
ATOM     92  C   UNL A   1      47.035  31.845  28.026  1.00  0.00     0.198 A 
ATOM     93  F   UNL A   1      47.547  30.276  29.699  1.00  0.00    -0.203 F 
ATOM     94  F   UNL A   1      43.902  32.633  26.393  1.00  0.00    -0.200 F 
ATOM     95  C   UNL A   1      46.120  32.441  27.173  1.00  0.00     0.200 A 
ATOM     96  F   UNL A   1      48.309  32.258  28.034  1.00  0.00    -0.200 F 
ATOM     97  F   UNL A   1      46.513  33.412  26.337  1.00  0.00    -0.200 F 
ENDBRANCH  64  87
ENDBRANCH  38  39
ENDBRANCH  30  33
ENDBRANCH  28  29
ENDBRANCH  27  28
ENDBRANCH   1  27
TORSDOF 14
ENDMDL
MODEL 2
REMARK VINA RESULT:     -13.7      3.106      9.092
REMARK SMILES NC(=O)c1cccc(N2CC(n3cc(C(=O)NCCCCNC(=O)c4ccc(-c5c6nc(c(-c7c(F)c(F)c(F)c(F)c7F)c7ccc([nH]7)c(-c7c(F)c(F)c(F)c(F)c7F)c7nc(c(-c8c(F)c(F)c(F)c(F)c8F)c8ccc5[nH]8)C=C7)C=C6)cc4)nn3)C2)n1
REMARK SMILES IDX 19 1 18 2 17 3 15 4 16 5 14 7 12 8 13 9 89 10 88 11 11 12
REMARK SMILES IDX 9 13 10 14 90 15 8 16 4 17 5 18 91 19 6 20 7 21 2 22 1 23
REMARK SMILES IDX 3 26 20 27 21 28 22 29 23 30 24 32 25 33 26 34 87 35 27 36
REMARK SMILES IDX 86 37 28 38 29 39 30 40 80 41 31 42 85 43 79 44 81 45 32 46
REMARK SMILES IDX 84 47 78 48 77 49 33 51 65 52 45 53 64 54 46 55 49 56 63 57
REMARK SMILES IDX 82 58 47 59 48 60 62 62 83 63 50 64 34 65 35 66 43 67 36 68
REMARK SMILES IDX 37 69 41 70 44 71 38 72 39 73 42 74 40 75 66 76 67 77 75 78
REMARK SMILES IDX 68 79 69 80 73 81 76 82 70 83 71 84 74 85 72 86 51 87 52 88
REMARK SMILES IDX 60 89 53 90 54 91 58 92 61 93 55 94 56 95 59 96 57 97
REMARK H PARENT 17 6 1 24 1 25 22 31 81 50 49 61
REMARK Flexibility Score: inf
ROOT
ATOM      1  C   UNL A   1      36.115  21.105  25.149  1.00  0.00     0.023 C 
ENDROOT
BRANCH   1   2
ATOM      2  C   UNL A   1      34.942  21.382  26.093  1.00  0.00     0.116 C 
BRANCH   2   3
ATOM      3  N   UNL A   1      33.954  20.322  26.055  1.00  0.00    -0.351 N 
ATOM      4  C   UNL A   1      32.798  20.169  25.321  1.00  0.00     0.273 C 
ATOM      5  O   UNL A   1      32.237  19.075  25.413  1.00  0.00    -0.267 OA
ATOM      6  H   UNL A   1      34.144  19.574  26.667  1.00  0.00     0.163 HD
BRANCH   4   7
ATOM      7  C   UNL A   1      32.285  21.227  24.457  1.00  0.00     0.170 A 
ATOM      8  N   UNL A   1      31.396  22.991  23.541  1.00  0.00    -0.245 N 
ATOM      9  C   UNL A   1      31.481  22.315  24.730  1.00  0.00     0.145 A 
ATOM     10  N   UNL A   1      32.044  22.336  22.568  1.00  0.00    -0.066 NA
ATOM     11  N   UNL A   1      32.565  21.240  23.104  1.00  0.00    -0.125 NA
BRANCH   8  12
ATOM     12  C   UNL A   1      30.780  24.273  23.411  1.00  0.00     0.148 C 
ATOM     13  N   UNL A   1      31.463  26.207  23.703  1.00  0.00    -0.352 N 
ATOM     14  C   UNL A   1      31.514  25.320  22.574  1.00  0.00     0.147 C 
ATOM     15  C   UNL A   1      31.122  25.161  24.620  1.00  0.00     0.147 C 
BRANCH  13  16
ATOM     16  C   UNL A   1      30.904  27.498  23.736  1.00  0.00     0.129 A 
ATOM     17  C   UNL A   1      29.314  29.034  23.059  1.00  0.00     0.130 A 
ATOM     18  C   UNL A   1      29.878  30.058  23.811  1.00  0.00     0.034 A 
ATOM     19  N   UNL A   1      29.811  27.772  22.999  1.00  0.00    -0.226 NA
ATOM     20  C   UNL A   1      31.004  29.762  24.565  1.00  0.00     0.006 A 
ATOM     21  C   UNL A   1      31.513  28.466  24.537  1.00  0.00     0.047 A 
BRANCH  17  22
ATOM     22  C   UNL A   1      28.072  29.291  22.271  1.00  0.00     0.267 C 
ATOM     23  N   UNL A   1      26.920  28.712  22.739  1.00  0.00    -0.364 N 
ATOM     24  H   UNL A   1      26.070  28.848  22.259  1.00  0.00     0.160 HD
ATOM     25  H   UNL A   1      26.941  28.161  23.555  1.00  0.00     0.160 HD
ATOM     26  O   UNL A   1      28.065  29.976  21.257  1.00  0.00    -0.268 OA
ENDBRANCH  17  22
ENDBRANCH  13  16
ENDBRANCH   8  12
ENDBRANCH   4   7
ENDBRANCH   2   3
ENDBRANCH   1   2
BRANCH   1  27
ATOM     27  C   UNL A   1      36.768  22.353  24.534  1.00  0.00     0.023 C 
BRANCH  27  28
ATOM     28  C   UNL A   1      37.790  23.058  25.423  1.00  0.00     0.116 C 
BRANCH  28  29
ATOM     29  N   UNL A   1      38.562  22.136  26.252  1.00  0.00    -0.352 N 
ATOM     30  C   UNL A   1      39.723  22.397  26.958  1.00  0.00     0.251 C 
ATOM     31  H   UNL A   1      38.215  21.216  26.315  1.00  0.00     0.163 HD
ATOM     32  O   UNL A   1      40.483  21.502  27.284  1.00  0.00    -0.269 OA
BRANCH  30  33
ATOM     33  C   UNL A   1      40.023  23.794  27.319  1.00  0.00     0.039 A 
ATOM     34  C   UNL A   1      39.054  24.791  27.192  1.00  0.00     0.014 A 
ATOM     35  C   UNL A   1      41.286  24.081  27.833  1.00  0.00     0.014 A 
ATOM     36  C   UNL A   1      39.334  26.064  27.683  1.00  0.00     0.010 A 
ATOM     37  C   UNL A   1      41.519  25.303  28.420  1.00  0.00     0.010 A 
ATOM     38  C   UNL A   1      40.559  26.308  28.327  1.00  0.00    -0.014 A 
BRANCH  38  39
ATOM     39  C   UNL A   1      40.768  27.564  29.047  1.00  0.00     0.031 A 
ATOM     40  C   UNL A   1      41.854  28.425  28.498  1.00  0.00     0.074 A 
ATOM     41  C   UNL A   1      39.923  28.036  29.990  1.00  0.00     0.049 A 
ATOM     42  N   UNL A   1      42.943  28.791  29.089  1.00  0.00    -0.248 NA
ATOM     43  C   UNL A   1      41.775  28.842  27.087  1.00  0.00     0.031 C 
ATOM     44  C   UNL A   1      38.651  27.456  30.430  1.00  0.00     0.029 A 
ATOM     45  N   UNL A   1      39.972  29.211  30.683  1.00  0.00    -0.354 N 
ATOM     46  C   UNL A   1      43.597  29.642  28.203  1.00  0.00     0.074 A 
ATOM     47  C   UNL A   1      42.922  29.509  26.938  1.00  0.00     0.031 C 
ATOM     48  C   UNL A   1      37.947  28.377  31.121  1.00  0.00     0.029 A 
ATOM     49  C   UNL A   1      38.782  29.548  31.318  1.00  0.00     0.049 A 
ATOM     50  H   UNL A   1      40.780  29.772  30.730  1.00  0.00     0.167 HD
ATOM     51  C   UNL A   1      44.478  30.577  28.656  1.00  0.00     0.037 A 
ATOM     52  C   UNL A   1      38.488  30.713  31.946  1.00  0.00     0.037 A 
ATOM     53  C   UNL A   1      44.922  30.273  29.992  1.00  0.00     0.049 A 
ATOM     54  C   UNL A   1      39.771  31.363  32.291  1.00  0.00     0.074 A 
ATOM     55  C   UNL A   1      45.570  29.209  30.589  1.00  0.00     0.029 A 
ATOM     56  N   UNL A   1      44.373  30.994  31.022  1.00  0.00    -0.354 N 
ATOM     57  N   UNL A   1      40.606  30.901  33.177  1.00  0.00    -0.248 NA
ATOM     58  C   UNL A   1      40.326  32.324  31.352  1.00  0.00     0.031 C 
ATOM     59  C   UNL A   1      44.970  29.084  31.878  1.00  0.00     0.029 A 
ATOM     60  C   UNL A   1      44.042  30.116  32.020  1.00  0.00     0.049 A 
ATOM     61  H   UNL A   1      44.239  31.969  31.040  1.00  0.00     0.167 HD
ATOM     62  C   UNL A   1      41.856  31.136  32.627  1.00  0.00     0.074 A 
ATOM     63  C   UNL A   1      41.627  32.127  31.580  1.00  0.00     0.031 C 
ATOM     64  C   UNL A   1      42.896  30.289  32.883  1.00  0.00     0.037 A 
BRANCH  51  65
ATOM     65  C   UNL A   1      44.613  31.963  28.065  1.00  0.00     0.064 A 
ATOM     66  C   UNL A   1      45.838  32.346  27.481  1.00  0.00     0.173 A 
ATOM     67  C   UNL A   1      43.715  33.017  28.336  1.00  0.00     0.173 A 
ATOM     68  F   UNL A   1      46.780  31.430  27.210  1.00  0.00    -0.203 F 
ATOM     69  C   UNL A   1      46.164  33.688  27.260  1.00  0.00     0.198 A 
ATOM     70  C   UNL A   1      44.021  34.349  28.064  1.00  0.00     0.198 A 
ATOM     71  F   UNL A   1      42.561  32.821  28.985  1.00  0.00    -0.203 F 
ATOM     72  F   UNL A   1      47.390  34.013  26.829  1.00  0.00    -0.200 F 
ATOM     73  C   UNL A   1      45.256  34.689  27.556  1.00  0.00     0.200 A 
ATOM     74  F   UNL A   1      43.137  35.307  28.383  1.00  0.00    -0.200 F 
ATOM     75  F   UNL A   1      45.589  35.978  27.408  1.00  0.00    -0.200 F 
ENDBRANCH  51  65
BRANCH  52  76
ATOM     76  C   UNL A   1      37.190  31.423  32.040  1.00  0.00     0.064 A 
ATOM     77  C   UNL A   1      36.727  31.920  33.270  1.00  0.00     0.173 A 
ATOM     78  C   UNL A   1      36.525  31.884  30.888  1.00  0.00     0.173 A 
ATOM     79  F   UNL A   1      37.327  31.561  34.414  1.00  0.00    -0.203 F 
ATOM     80  C   UNL A   1      35.691  32.857  33.339  1.00  0.00     0.198 A 
ATOM     81  C   UNL A   1      35.486  32.813  30.960  1.00  0.00     0.198 A 
ATOM     82  F   UNL A   1      36.935  31.522  29.665  1.00  0.00    -0.203 F 
ATOM     83  F   UNL A   1      35.328  33.366  34.525  1.00  0.00    -0.200 F 
ATOM     84  C   UNL A   1      35.081  33.313  32.183  1.00  0.00     0.200 A 
ATOM     85  F   UNL A   1      34.926  33.270  29.831  1.00  0.00    -0.200 F 
ATOM     86  F   UNL A   1      34.137  34.263  32.243  1.00  0.00    -0.200 F 
ENDBRANCH  52  76
BRANCH  64  87
ATOM     87  C   UNL A   1      42.736  29.322  34.025  1.00  0.00     0.064 A 
ATOM     88  C   UNL A   1      42.050  28.095  33.946  1.00  0.00     0.173 A 
ATOM     89  C   UNL A   1      43.378  29.617  35.235  1.00  0.00     0.173 A 
ATOM     90  F   UNL A   1      41.499  27.682  32.798  1.00  0.00    -0.203 F 
ATOM     91  C   UNL A   1      41.955  27.245  35.046  1.00  0.00     0.198 A 
ATOM     92  C   UNL A   1      43.318  28.747  36.320  1.00  0.00     0.198 A 
ATOM     93  F   UNL A   1      44.095  30.745  35.357  1.00  0.00    -0.203 F 
ATOM     94  F   UNL A   1      41.266  26.098  34.953  1.00  0.00    -0.200 F 
ATOM     95  C   UNL A   1      42.592  27.570  36.232  1.00  0.00     0.200 A 
ATOM     96  F   UNL A   1      43.977  29.043  37.448  1.00  0.00    -0.200 F 
ATOM     97  F   UNL A   1      42.525  26.741  37.282  1.00  0.00    -0.200 F 
ENDBRANCH  64  87
ENDBRANCH  38  39
ENDBRANCH  30  33
ENDBRANCH  28  29
ENDBRANCH  27  28
ENDBRANCH   1  27
TORSDOF 14
ENDMDL
MODEL 3
REMARK VINA RESULT:     -13.6      2.845      8.234
REMARK SMILES NC(=O)c1cccc(N2CC(n3cc(C(=O)NCCCCNC(=O)c4ccc(-c5c6nc(c(-c7c(F)c(F)c(F)c(F)c7F)c7ccc([nH]7)c(-c7c(F)c(F)c(F)c(F)c7F)c7nc(c(-c8c(F)c(F)c(F)c(F)c8F)c8ccc5[nH]8)C=C7)C=C6)cc4)nn3)C2)n1
REMARK SMILES IDX 19 1 18 2 17 3 15 4 16 5 14 7 12 8 13 9 89 10 88 11 11 12
REMARK SMILES IDX 9 13 10 14 90 15 8 16 4 17 5 18 91 19 6 20 7 21 2 22 1 23
REMARK SMILES IDX 3 26 20 27 21 28 22 29 23 30 24 32 25 33 26 34 87 35 27 36
REMARK SMILES IDX 86 37 28 38 29 39 30 40 80 41 31 42 85 43 79 44 81 45 32 46
REMARK SMILES IDX 84 47 78 48 77 49 33 51 65 52 45 53 64 54 46 55 49 56 63 57
REMARK SMILES IDX 82 58 47 59 48 60 62 62 83 63 50 64 34 65 35 66 43 67 36 68
REMARK SMILES IDX 37 69 41 70 44 71 38 72 39 73 42 74 40 75 66 76 67 77 75 78
REMARK SMILES IDX 68 79 69 80 73 81 76 82 70 83 71 84 74 85 72 86 51 87 52 88
REMARK SMILES IDX 60 89 53 90 54 91 58 92 61 93 55 94 56 95 59 96 57 97
REMARK H PARENT 17 6 1 24 1 25 22 31 81 50 49 61
REMARK Flexibility Score: inf
ROOT
ATOM      1  C   UNL A   1      37.671  20.767  24.668  1.00  0.00     0.023 C 
ENDROOT
BRANCH   1   2
ATOM      2  C   UNL A   1      36.293  20.976  25.300  1.00  0.00     0.116 C 
BRANCH   2   3
ATOM      3  N   UNL A   1      35.398  19.869  25.028  1.00  0.00    -0.351 N 
ATOM      4  C   UNL A   1      34.046  19.823  24.771  1.00  0.00     0.273 C 
ATOM      5  O   UNL A   1      33.593  18.726  24.436  1.00  0.00    -0.267 OA
ATOM      6  H   UNL A   1      35.838  18.988  25.026  1.00  0.00     0.163 HD
BRANCH   4   7
ATOM      7  C   UNL A   1      33.201  21.010  24.857  1.00  0.00     0.170 A 
ATOM      8  N   UNL A   1      32.256  22.968  24.751  1.00  0.00    -0.245 N 
ATOM      9  C   UNL A   1      33.441  22.325  24.510  1.00  0.00     0.145 A 
ATOM     10  N   UNL A   1      31.352  22.132  25.279  1.00  0.00    -0.066 NA
ATOM     11  N   UNL A   1      31.925  20.939  25.380  1.00  0.00    -0.125 NA
BRANCH   8  12
ATOM     12  C   UNL A   1      32.013  24.327  24.380  1.00  0.00     0.148 C 
ATOM     13  N   UNL A   1      32.004  26.103  25.445  1.00  0.00    -0.352 N 
ATOM     14  C   UNL A   1      33.054  25.363  24.803  1.00  0.00     0.147 C 
ATOM     15  C   UNL A   1      31.084  25.007  25.399  1.00  0.00     0.147 C 
BRANCH  13  16
ATOM     16  C   UNL A   1      31.646  27.442  25.202  1.00  0.00     0.129 A 
ATOM     17  C   UNL A   1      30.731  29.080  23.851  1.00  0.00     0.130 A 
ATOM     18  C   UNL A   1      31.006  30.090  24.766  1.00  0.00     0.034 A 
ATOM     19  N   UNL A   1      31.049  27.775  24.042  1.00  0.00    -0.226 NA
ATOM     20  C   UNL A   1      31.621  29.735  25.957  1.00  0.00     0.006 A 
ATOM     21  C   UNL A   1      31.932  28.396  26.182  1.00  0.00     0.047 A 
BRANCH  17  22
ATOM     22  C   UNL A   1      30.024  29.407  22.578  1.00  0.00     0.267 C 
ATOM     23  N   UNL A   1      30.774  30.003  21.596  1.00  0.00    -0.364 N 
ATOM     24  H   UNL A   1      30.359  30.240  20.735  1.00  0.00     0.160 HD
ATOM     25  H   UNL A   1      31.727  30.193  21.752  1.00  0.00     0.160 HD
ATOM     26  O   UNL A   1      28.836  29.165  22.403  1.00  0.00    -0.268 OA
ENDBRANCH  17  22
ENDBRANCH  13  16
ENDBRANCH   8  12
ENDBRANCH   4   7
ENDBRANCH   2   3
ENDBRANCH   1   2
BRANCH   1  27
ATOM     27  C   UNL A   1      38.442  19.535  25.170  1.00  0.00     0.023 C 
BRANCH  27  28
ATOM     28  C   UNL A   1      39.605  19.836  26.113  1.00  0.00     0.116 C 
BRANCH  28  29
ATOM     29  N   UNL A   1      40.827  19.115  25.765  1.00  0.00    -0.352 N 
ATOM     30  C   UNL A   1      42.111  19.620  25.661  1.00  0.00     0.251 C 
ATOM     31  H   UNL A   1      40.724  18.153  25.582  1.00  0.00     0.163 HD
ATOM     32  O   UNL A   1      42.965  19.052  25.004  1.00  0.00    -0.269 OA
BRANCH  30  33
ATOM     33  C   UNL A   1      42.431  20.870  26.373  1.00  0.00     0.039 A 
ATOM     34  C   UNL A   1      42.718  22.042  25.671  1.00  0.00     0.014 A 
ATOM     35  C   UNL A   1      42.393  20.858  27.766  1.00  0.00     0.014 A 
ATOM     36  C   UNL A   1      42.868  23.230  26.382  1.00  0.00     0.010 A 
ATOM     37  C   UNL A   1      42.426  22.047  28.457  1.00  0.00     0.010 A 
ATOM     38  C   UNL A   1      42.689  23.234  27.776  1.00  0.00    -0.014 A 
BRANCH  38  39
ATOM     39  C   UNL A   1      42.613  24.504  28.500  1.00  0.00     0.031 A 
ATOM     40  C   UNL A   1      41.358  25.276  28.275  1.00  0.00     0.074 A 
ATOM     41  C   UNL A   1      43.484  24.867  29.467  1.00  0.00     0.049 A 
ATOM     42  N   UNL A   1      41.240  26.448  27.745  1.00  0.00    -0.248 NA
ATOM     43  C   UNL A   1      40.070  24.627  28.575  1.00  0.00     0.031 C 
ATOM     44  C   UNL A   1      44.597  24.086  30.015  1.00  0.00     0.029 A 
ATOM     45  N   UNL A   1      43.486  25.983  30.252  1.00  0.00    -0.354 N 
ATOM     46  C   UNL A   1      39.889  26.772  27.819  1.00  0.00     0.074 A 
ATOM     47  C   UNL A   1      39.200  25.562  28.186  1.00  0.00     0.031 C 
ATOM     48  C   UNL A   1      45.006  24.635  31.179  1.00  0.00     0.029 A 
ATOM     49  C   UNL A   1      44.307  25.892  31.371  1.00  0.00     0.049 A 
ATOM     50  H   UNL A   1      42.953  26.785  30.044  1.00  0.00     0.167 HD
ATOM     51  C   UNL A   1      39.483  28.073  27.825  1.00  0.00     0.037 A 
ATOM     52  C   UNL A   1      44.395  26.773  32.398  1.00  0.00     0.037 A 
ATOM     53  C   UNL A   1      40.518  28.945  27.333  1.00  0.00     0.049 A 
ATOM     54  C   UNL A   1      43.874  28.070  31.911  1.00  0.00     0.074 A 
ATOM     55  C   UNL A   1      41.226  29.053  26.151  1.00  0.00     0.029 A 
ATOM     56  N   UNL A   1      41.229  29.669  28.256  1.00  0.00    -0.354 N 
ATOM     57  N   UNL A   1      44.468  28.800  31.011  1.00  0.00    -0.248 NA
ATOM     58  C   UNL A   1      42.470  28.370  32.132  1.00  0.00     0.031 C 
ATOM     59  C   UNL A   1      42.549  29.418  26.543  1.00  0.00     0.029 A 
ATOM     60  C   UNL A   1      42.556  29.577  27.929  1.00  0.00     0.049 A 
ATOM     61  H   UNL A   1      40.853  30.165  29.018  1.00  0.00     0.167 HD
ATOM     62  C   UNL A   1      43.433  29.305  30.241  1.00  0.00     0.074 A 
ATOM     63  C   UNL A   1      42.234  29.119  31.052  1.00  0.00     0.031 C 
ATOM     64  C   UNL A   1      43.616  29.552  28.910  1.00  0.00     0.037 A 
BRANCH  51  65
ATOM     65  C   UNL A   1      38.328  28.591  28.653  1.00  0.00     0.064 A 
ATOM     66  C   UNL A   1      37.460  29.555  28.097  1.00  0.00     0.173 A 
ATOM     67  C   UNL A   1      38.234  28.426  30.051  1.00  0.00     0.173 A 
ATOM     68  F   UNL A   1      37.486  29.817  26.781  1.00  0.00    -0.203 F 
ATOM     69  C   UNL A   1      36.624  30.342  28.893  1.00  0.00     0.198 A 
ATOM     70  C   UNL A   1      37.359  29.175  30.835  1.00  0.00     0.198 A 
ATOM     71  F   UNL A   1      39.065  27.628  30.731  1.00  0.00    -0.203 F 
ATOM     72  F   UNL A   1      35.917  31.336  28.337  1.00  0.00    -0.200 F 
ATOM     73  C   UNL A   1      36.577  30.155  30.263  1.00  0.00     0.200 A 
ATOM     74  F   UNL A   1      37.349  28.996  32.165  1.00  0.00    -0.200 F 
ATOM     75  F   UNL A   1      35.827  30.951  31.036  1.00  0.00    -0.200 F 
ENDBRANCH  51  65
BRANCH  52  76
ATOM     76  C   UNL A   1      44.654  26.512  33.833  1.00  0.00     0.064 A 
ATOM     77  C   UNL A   1      43.639  26.022  34.673  1.00  0.00     0.173 A 
ATOM     78  C   UNL A   1      45.966  26.457  34.341  1.00  0.00     0.173 A 
ATOM     79  F   UNL A   1      42.365  26.004  34.253  1.00  0.00    -0.203 F 
ATOM     80  C   UNL A   1      43.925  25.468  35.924  1.00  0.00     0.198 A 
ATOM     81  C   UNL A   1      46.249  25.911  35.594  1.00  0.00     0.198 A 
ATOM     82  F   UNL A   1      47.011  26.836  33.591  1.00  0.00    -0.203 F 
ATOM     83  F   UNL A   1      42.939  24.941  36.664  1.00  0.00    -0.200 F 
ATOM     84  C   UNL A   1      45.232  25.401  36.378  1.00  0.00     0.200 A 
ATOM     85  F   UNL A   1      47.522  25.823  36.007  1.00  0.00    -0.200 F 
ATOM     86  F   UNL A   1      45.515  24.807  37.546  1.00  0.00    -0.200 F 
ENDBRANCH  52  76
BRANCH  64  87
ATOM     87  C   UNL A   1      45.033  29.591  28.403  1.00  0.00     0.064 A 
ATOM     88  C   UNL A   1      45.884  30.709  28.486  1.00  0.00     0.173 A 
ATOM     89  C   UNL A   1      45.579  28.411  27.881  1.00  0.00     0.173 A 
ATOM     90  F   UNL A   1      45.481  31.844  29.068  1.00  0.00    -0.203 F 
ATOM     91  C   UNL A   1      47.191  30.663  28.004  1.00  0.00     0.198 A 
ATOM     92  C   UNL A   1      46.898  28.354  27.440  1.00  0.00     0.198 A 
ATOM     93  F   UNL A   1      44.836  27.293  27.827  1.00  0.00    -0.203 F 
ATOM     94  F   UNL A   1      47.969  31.754  28.063  1.00  0.00    -0.200 F 
ATOM     95  C   UNL A   1      47.698  29.484  27.484  1.00  0.00     0.200 A 
ATOM     96  F   UNL A   1      47.398  27.198  26.984  1.00  0.00    -0.200 F 
ATOM     97  F   UNL A   1      48.963  29.430  27.045  1.00  0.00    -0.200 F 
ENDBRANCH  64  87
ENDBRANCH  38  39
ENDBRANCH  30  33
ENDBRANCH  28  29
ENDBRANCH  27  28
ENDBRANCH   1  27
TORSDOF 14
ENDMDL
