MODEL 1
REMARK VINA RESULT:     -11.0      0.000      0.000
REMARK SMILES C[NH+](C)Cc1noc(CCCCC(=O)NCCCCNC(=O)c2ccc(-c3c4nc(c(-c5c(F)c(F)c(F)c(F)c5F)c5ccc([nH]5)c(-c5c(F)c(F)c(F)c(F)c5F)c5nc(c(-c6c(F)c(F)c(F)c(F)c6F)c6ccc3[nH]6)C=C5)C=C4)cc2)n1
REMARK SMILES IDX 13 1 14 2 15 3 12 5 11 6 10 7 9 8 8 9 5 10 6 11 86 12 7 13
REMARK SMILES IDX 4 14 2 15 1 16 3 17 16 19 17 20 18 21 19 22 20 23 21 24
REMARK SMILES IDX 22 26 23 27 24 28 85 29 25 30 84 31 26 32 27 33 28 34 78 35
REMARK SMILES IDX 29 36 83 37 77 38 79 39 30 40 82 41 76 42 75 43 31 45 63 46
REMARK SMILES IDX 43 47 62 48 44 49 47 50 61 51 80 52 45 53 46 54 60 56 81 57
REMARK SMILES IDX 48 58 32 59 33 60 41 61 34 62 35 63 39 64 42 65 36 66 37 67
REMARK SMILES IDX 40 68 38 69 64 70 65 71 73 72 66 73 67 74 71 75 74 76 68 77
REMARK SMILES IDX 69 78 72 79 70 80 49 81 50 82 58 83 51 84 52 85 56 86 59 87
REMARK SMILES IDX 53 88 54 89 57 90 55 91
REMARK H PARENT 15 4 2 18 20 25 79 44 47 55
REMARK Flexibility Score: inf
ROOT
ATOM      1  C   UNL A   1      32.035  27.010  26.216  1.00  0.00     0.219 C 
ATOM      2  O   UNL A   1      31.469  25.983  26.591  1.00  0.00    -0.275 OA
ATOM      3  N   UNL A   1      31.351  28.185  26.299  1.00  0.00    -0.356 N 
ATOM      4  H   UNL A   1      30.482  28.127  26.758  1.00  0.00     0.163 HD
ENDROOT
BRANCH   1   5
ATOM      5  C   UNL A   1      33.461  26.972  25.695  1.00  0.00     0.100 C 
BRANCH   5   6
ATOM      6  C   UNL A   1      33.583  26.508  24.241  1.00  0.00     0.010 C 
BRANCH   6   7
ATOM      7  C   UNL A   1      33.149  27.497  23.153  1.00  0.00     0.010 C 
BRANCH   7   8
ATOM      8  C   UNL A   1      31.955  27.088  22.294  1.00  0.00     0.100 C 
BRANCH   8   9
ATOM      9  C   UNL A   1      30.724  27.851  22.587  1.00  0.00     0.226 A 
ATOM     10  C   UNL A   1      29.032  29.079  22.590  1.00  0.00     0.226 A 
ATOM     11  N   UNL A   1      28.735  28.137  23.500  1.00  0.00    -0.056 NA
ATOM     12  N   UNL A   1      30.267  28.933  22.001  1.00  0.00    -0.191 NA
ATOM     13  O   UNL A   1      29.868  27.325  23.507  1.00  0.00    -0.339 OA
BRANCH  10  14
ATOM     14  C   UNL A   1      28.076  30.149  22.158  1.00  0.00     0.344 C 
BRANCH  14  15
ATOM     15  N   UNL A   1      28.684  31.411  21.688  1.00  0.00    -0.333 N 
ATOM     16  C   UNL A   1      28.028  31.947  20.499  1.00  0.00     0.332 C 
ATOM     17  C   UNL A   1      28.783  32.415  22.743  1.00  0.00     0.332 C 
ATOM     18  H   UNL A   1      29.636  31.170  21.416  1.00  0.00     0.348 HD
ENDBRANCH  14  15
ENDBRANCH  10  14
ENDBRANCH   8   9
ENDBRANCH   7   8
ENDBRANCH   6   7
ENDBRANCH   5   6
ENDBRANCH   1   5
BRANCH   3  19
ATOM     19  C   UNL A   1      31.705  29.504  25.819  1.00  0.00     0.116 C 
BRANCH  19  20
ATOM     20  C   UNL A   1      32.095  30.417  26.985  1.00  0.00     0.023 C 
BRANCH  20  21
ATOM     21  C   UNL A   1      31.891  31.903  26.721  1.00  0.00     0.023 C 
BRANCH  21  22
ATOM     22  C   UNL A   1      32.965  32.796  27.317  1.00  0.00     0.116 C 
BRANCH  22  23
ATOM     23  N   UNL A   1      32.515  34.147  27.626  1.00  0.00    -0.352 N 
ATOM     24  C   UNL A   1      33.029  35.002  28.578  1.00  0.00     0.251 C 
ATOM     25  H   UNL A   1      31.759  34.487  27.095  1.00  0.00     0.163 HD
ATOM     26  O   UNL A   1      32.530  36.095  28.790  1.00  0.00    -0.269 OA
BRANCH  24  27
ATOM     27  C   UNL A   1      34.174  34.527  29.382  1.00  0.00     0.039 A 
ATOM     28  C   UNL A   1      33.926  33.904  30.607  1.00  0.00     0.014 A 
ATOM     29  C   UNL A   1      35.463  34.570  28.847  1.00  0.00     0.014 A 
ATOM     30  C   UNL A   1      34.966  33.234  31.253  1.00  0.00     0.010 A 
ATOM     31  C   UNL A   1      36.471  33.827  29.446  1.00  0.00     0.010 A 
ATOM     32  C   UNL A   1      36.231  33.145  30.650  1.00  0.00    -0.014 A 
BRANCH  32  33
ATOM     33  C   UNL A   1      37.329  32.347  31.250  1.00  0.00     0.031 A 
ATOM     34  C   UNL A   1      37.811  32.679  32.634  1.00  0.00     0.074 A 
ATOM     35  C   UNL A   1      37.955  31.403  30.521  1.00  0.00     0.049 A 
ATOM     36  N   UNL A   1      38.844  32.211  33.286  1.00  0.00    -0.248 NA
ATOM     37  C   UNL A   1      37.054  33.707  33.365  1.00  0.00     0.031 C 
ATOM     38  C   UNL A   1      37.620  31.029  29.147  1.00  0.00     0.029 A 
ATOM     39  N   UNL A   1      39.021  30.595  30.833  1.00  0.00    -0.354 N 
ATOM     40  C   UNL A   1      38.880  32.914  34.484  1.00  0.00     0.074 A 
ATOM     41  C   UNL A   1      37.798  33.872  34.447  1.00  0.00     0.031 C 
ATOM     42  C   UNL A   1      38.447  30.051  28.741  1.00  0.00     0.029 A 
ATOM     43  C   UNL A   1      39.393  29.754  29.812  1.00  0.00     0.049 A 
ATOM     44  H   UNL A   1      39.475  30.616  31.706  1.00  0.00     0.167 HD
ATOM     45  C   UNL A   1      39.724  32.755  35.530  1.00  0.00     0.037 A 
ATOM     46  C   UNL A   1      40.390  28.851  29.748  1.00  0.00     0.037 A 
ATOM     47  C   UNL A   1      40.763  31.764  35.584  1.00  0.00     0.049 A 
ATOM     48  C   UNL A   1      41.287  28.663  30.943  1.00  0.00     0.074 A 
ATOM     49  C   UNL A   1      41.627  31.475  36.626  1.00  0.00     0.029 A 
ATOM     50  N   UNL A   1      41.071  30.889  34.553  1.00  0.00    -0.354 N 
ATOM     51  N   UNL A   1      41.276  29.293  32.092  1.00  0.00    -0.248 NA
ATOM     52  C   UNL A   1      42.331  27.634  30.833  1.00  0.00     0.031 C 
ATOM     53  C   UNL A   1      42.474  30.441  36.215  1.00  0.00     0.029 A 
ATOM     54  C   UNL A   1      42.115  30.063  34.932  1.00  0.00     0.049 A 
ATOM     55  H   UNL A   1      40.614  30.861  33.681  1.00  0.00     0.167 HD
ATOM     56  C   UNL A   1      42.285  28.719  32.852  1.00  0.00     0.074 A 
ATOM     57  C   UNL A   1      42.885  27.684  32.036  1.00  0.00     0.031 C 
ATOM     58  C   UNL A   1      42.681  29.022  34.112  1.00  0.00     0.037 A 
BRANCH  45  59
ATOM     59  C   UNL A   1      39.545  33.671  36.703  1.00  0.00     0.064 A 
ATOM     60  C   UNL A   1      38.754  33.308  37.804  1.00  0.00     0.173 A 
ATOM     61  C   UNL A   1      40.184  34.920  36.737  1.00  0.00     0.173 A 
ATOM     62  F   UNL A   1      38.109  32.131  37.812  1.00  0.00    -0.203 F 
ATOM     63  C   UNL A   1      38.583  34.174  38.881  1.00  0.00     0.198 A 
ATOM     64  C   UNL A   1      40.034  35.770  37.829  1.00  0.00     0.198 A 
ATOM     65  F   UNL A   1      40.953  35.314  35.711  1.00  0.00    -0.203 F 
ATOM     66  F   UNL A   1      37.778  33.828  39.894  1.00  0.00    -0.200 F 
ATOM     67  C   UNL A   1      39.228  35.401  38.894  1.00  0.00     0.200 A 
ATOM     68  F   UNL A   1      40.665  36.953  37.846  1.00  0.00    -0.200 F 
ATOM     69  F   UNL A   1      39.063  36.233  39.932  1.00  0.00    -0.200 F 
ENDBRANCH  45  59
BRANCH  46  70
ATOM     70  C   UNL A   1      40.572  28.028  28.525  1.00  0.00     0.064 A 
ATOM     71  C   UNL A   1      41.356  28.494  27.461  1.00  0.00     0.173 A 
ATOM     72  C   UNL A   1      39.972  26.770  28.392  1.00  0.00     0.173 A 
ATOM     73  F   UNL A   1      41.934  29.702  27.535  1.00  0.00    -0.203 F 
ATOM     74  C   UNL A   1      41.515  27.741  26.299  1.00  0.00     0.198 A 
ATOM     75  C   UNL A   1      40.152  26.006  27.240  1.00  0.00     0.198 A 
ATOM     76  F   UNL A   1      39.217  26.276  29.384  1.00  0.00    -0.203 F 
ATOM     77  F   UNL A   1      42.235  28.230  25.280  1.00  0.00    -0.200 F 
ATOM     78  C   UNL A   1      40.917  26.496  26.192  1.00  0.00     0.200 A 
ATOM     79  F   UNL A   1      39.580  24.797  27.143  1.00  0.00    -0.200 F 
ATOM     80  F   UNL A   1      41.072  25.770  25.076  1.00  0.00    -0.200 F 
ENDBRANCH  46  70
BRANCH  58  81
ATOM     81  C   UNL A   1      43.782  28.197  34.706  1.00  0.00     0.064 A 
ATOM     82  C   UNL A   1      43.518  27.000  35.385  1.00  0.00     0.173 A 
ATOM     83  C   UNL A   1      45.120  28.585  34.544  1.00  0.00     0.173 A 
ATOM     84  F   UNL A   1      42.253  26.597  35.576  1.00  0.00    -0.203 F 
ATOM     85  C   UNL A   1      44.558  26.228  35.896  1.00  0.00     0.198 A 
ATOM     86  C   UNL A   1      46.157  27.798  35.035  1.00  0.00     0.198 A 
ATOM     87  F   UNL A   1      45.422  29.721  33.896  1.00  0.00    -0.203 F 
ATOM     88  F   UNL A   1      44.283  25.103  36.573  1.00  0.00    -0.200 F 
ATOM     89  C   UNL A   1      45.875  26.622  35.714  1.00  0.00     0.200 A 
ATOM     90  F   UNL A   1      47.430  28.176  34.849  1.00  0.00    -0.200 F 
ATOM     91  F   UNL A   1      46.873  25.872  36.199  1.00  0.00    -0.200 F 
ENDBRANCH  58  81
ENDBRANCH  32  33
ENDBRANCH  24  27
ENDBRANCH  22  23
ENDBRANCH  21  22
ENDBRANCH  20  21
ENDBRANCH  19  20
ENDBRANCH   3  19
TORSDOF 17
ENDMDL
MODEL 2
REMARK VINA RESULT:     -10.8      1.792      3.197
REMARK SMILES C[NH+](C)Cc1noc(CCCCC(=O)NCCCCNC(=O)c2ccc(-c3c4nc(c(-c5c(F)c(F)c(F)c(F)c5F)c5ccc([nH]5)c(-c5c(F)c(F)c(F)c(F)c5F)c5nc(c(-c6c(F)c(F)c(F)c(F)c6F)c6ccc3[nH]6)C=C5)C=C4)cc2)n1
REMARK SMILES IDX 13 1 14 2 15 3 12 5 11 6 10 7 9 8 8 9 5 10 6 11 86 12 7 13
REMARK SMILES IDX 4 14 2 15 1 16 3 17 16 19 17 20 18 21 19 22 20 23 21 24
REMARK SMILES IDX 22 26 23 27 24 28 85 29 25 30 84 31 26 32 27 33 28 34 78 35
REMARK SMILES IDX 29 36 83 37 77 38 79 39 30 40 82 41 76 42 75 43 31 45 63 46
REMARK SMILES IDX 43 47 62 48 44 49 47 50 61 51 80 52 45 53 46 54 60 56 81 57
REMARK SMILES IDX 48 58 32 59 33 60 41 61 34 62 35 63 39 64 42 65 36 66 37 67
REMARK SMILES IDX 40 68 38 69 64 70 65 71 73 72 66 73 67 74 71 75 74 76 68 77
REMARK SMILES IDX 69 78 72 79 70 80 49 81 50 82 58 83 51 84 52 85 56 86 59 87
REMARK SMILES IDX 53 88 54 89 57 90 55 91
REMARK H PARENT 15 4 2 18 20 25 79 44 47 55
REMARK Flexibility Score: inf
ROOT
ATOM      1  C   UNL A   1      35.718  30.327  27.727  1.00  0.00     0.219 C 
ATOM      2  O   UNL A   1      36.440  29.343  27.888  1.00  0.00    -0.275 OA
ATOM      3  N   UNL A   1      36.271  31.561  27.892  1.00  0.00    -0.356 N 
ATOM      4  H   UNL A   1      37.247  31.564  28.027  1.00  0.00     0.163 HD
ENDROOT
BRANCH   1   5
ATOM      5  C   UNL A   1      34.259  30.172  27.337  1.00  0.00     0.100 C 
BRANCH   5   6
ATOM      6  C   UNL A   1      33.921  28.819  26.704  1.00  0.00     0.010 C 
BRANCH   6   7
ATOM      7  C   UNL A   1      33.246  28.841  25.328  1.00  0.00     0.010 C 
BRANCH   7   8
ATOM      8  C   UNL A   1      32.102  27.853  25.111  1.00  0.00     0.100 C 
BRANCH   8   9
ATOM      9  C   UNL A   1      31.170  28.249  24.036  1.00  0.00     0.226 A 
ATOM     10  C   UNL A   1      29.901  29.212  22.683  1.00  0.00     0.226 A 
ATOM     11  N   UNL A   1      30.321  28.134  22.001  1.00  0.00    -0.056 NA
ATOM     12  N   UNL A   1      30.409  29.315  23.957  1.00  0.00    -0.191 NA
ATOM     13  O   UNL A   1      31.158  27.484  22.908  1.00  0.00    -0.339 OA
BRANCH  10  14
ATOM     14  C   UNL A   1      29.034  30.283  22.093  1.00  0.00     0.344 C 
BRANCH  14  15
ATOM     15  N   UNL A   1      28.672  31.395  22.995  1.00  0.00    -0.333 N 
ATOM     16  C   UNL A   1      28.778  32.703  22.353  1.00  0.00     0.332 C 
ATOM     17  C   UNL A   1      27.367  31.212  23.620  1.00  0.00     0.332 C 
ATOM     18  H   UNL A   1      29.366  31.377  23.742  1.00  0.00     0.348 HD
ENDBRANCH  14  15
ENDBRANCH  10  14
ENDBRANCH   8   9
ENDBRANCH   7   8
ENDBRANCH   6   7
ENDBRANCH   5   6
ENDBRANCH   1   5
BRANCH   3  19
ATOM     19  C   UNL A   1      35.648  32.868  27.898  1.00  0.00     0.116 C 
BRANCH  19  20
ATOM     20  C   UNL A   1      34.896  33.102  29.210  1.00  0.00     0.023 C 
BRANCH  20  21
ATOM     21  C   UNL A   1      33.636  33.948  29.077  1.00  0.00     0.023 C 
BRANCH  21  22
ATOM     22  C   UNL A   1      33.805  35.392  29.515  1.00  0.00     0.116 C 
BRANCH  22  23
ATOM     23  N   UNL A   1      32.739  35.883  30.378  1.00  0.00    -0.352 N 
ATOM     24  C   UNL A   1      32.658  35.778  31.751  1.00  0.00     0.251 C 
ATOM     25  H   UNL A   1      31.991  36.341  29.929  1.00  0.00     0.163 HD
ATOM     26  O   UNL A   1      31.682  36.177  32.365  1.00  0.00    -0.269 OA
BRANCH  24  27
ATOM     27  C   UNL A   1      33.771  35.109  32.455  1.00  0.00     0.039 A 
ATOM     28  C   UNL A   1      33.586  33.808  32.926  1.00  0.00     0.014 A 
ATOM     29  C   UNL A   1      35.026  35.719  32.507  1.00  0.00     0.014 A 
ATOM     30  C   UNL A   1      34.691  33.078  33.366  1.00  0.00     0.010 A 
ATOM     31  C   UNL A   1      36.134  34.961  32.860  1.00  0.00     0.010 A 
ATOM     32  C   UNL A   1      35.979  33.631  33.284  1.00  0.00    -0.014 A 
BRANCH  32  33
ATOM     33  C   UNL A   1      37.190  32.847  33.635  1.00  0.00     0.031 A 
ATOM     34  C   UNL A   1      37.897  33.121  34.932  1.00  0.00     0.074 A 
ATOM     35  C   UNL A   1      37.708  31.973  32.751  1.00  0.00     0.049 A 
ATOM     36  N   UNL A   1      39.042  32.662  35.365  1.00  0.00    -0.248 NA
ATOM     37  C   UNL A   1      37.248  34.075  35.845  1.00  0.00     0.031 C 
ATOM     38  C   UNL A   1      37.150  31.661  31.434  1.00  0.00     0.029 A 
ATOM     39  N   UNL A   1      38.837  31.193  32.823  1.00  0.00    -0.354 N 
ATOM     40  C   UNL A   1      39.265  33.298  36.580  1.00  0.00     0.074 A 
ATOM     41  C   UNL A   1      38.164  34.210  36.790  1.00  0.00     0.031 C 
ATOM     42  C   UNL A   1      37.923  30.743  30.832  1.00  0.00     0.029 A 
ATOM     43  C   UNL A   1      39.051  30.427  31.703  1.00  0.00     0.049 A 
ATOM     44  H   UNL A   1      39.437  31.185  33.603  1.00  0.00     0.167 HD
ATOM     45  C   UNL A   1      40.284  33.117  37.452  1.00  0.00     0.037 A 
ATOM     46  C   UNL A   1      40.049  29.572  31.412  1.00  0.00     0.037 A 
ATOM     47  C   UNL A   1      41.347  32.169  37.264  1.00  0.00     0.049 A 
ATOM     48  C   UNL A   1      41.147  29.355  32.419  1.00  0.00     0.074 A 
ATOM     49  C   UNL A   1      42.388  31.858  38.121  1.00  0.00     0.029 A 
ATOM     50  N   UNL A   1      41.496  31.366  36.144  1.00  0.00    -0.354 N 
ATOM     51  N   UNL A   1      41.317  29.919  33.590  1.00  0.00    -0.248 NA
ATOM     52  C   UNL A   1      42.187  28.378  32.067  1.00  0.00     0.031 C 
ATOM     53  C   UNL A   1      43.183  30.885  37.507  1.00  0.00     0.029 A 
ATOM     54  C   UNL A   1      42.616  30.564  36.284  1.00  0.00     0.049 A 
ATOM     55  H   UNL A   1      40.895  31.367  35.363  1.00  0.00     0.167 HD
ATOM     56  C   UNL A   1      42.462  29.347  34.127  1.00  0.00     0.074 A 
ATOM     57  C   UNL A   1      42.942  28.384  33.157  1.00  0.00     0.031 C 
ATOM     58  C   UNL A   1      43.062  29.595  35.315  1.00  0.00     0.037 A 
BRANCH  45  59
ATOM     59  C   UNL A   1      40.284  33.957  38.694  1.00  0.00     0.064 A 
ATOM     60  C   UNL A   1      40.964  35.183  38.752  1.00  0.00     0.173 A 
ATOM     61  C   UNL A   1      39.583  33.540  39.836  1.00  0.00     0.173 A 
ATOM     62  F   UNL A   1      41.663  35.617  37.691  1.00  0.00    -0.203 F 
ATOM     63  C   UNL A   1      40.970  35.946  39.916  1.00  0.00     0.198 A 
ATOM     64  C   UNL A   1      39.566  34.320  40.989  1.00  0.00     0.198 A 
ATOM     65  F   UNL A   1      38.915  32.377  39.833  1.00  0.00    -0.203 F 
ATOM     66  F   UNL A   1      41.673  37.085  39.965  1.00  0.00    -0.200 F 
ATOM     67  C   UNL A   1      40.266  35.516  41.031  1.00  0.00     0.200 A 
ATOM     68  F   UNL A   1      38.879  33.909  42.064  1.00  0.00    -0.200 F 
ATOM     69  F   UNL A   1      40.272  36.253  42.151  1.00  0.00    -0.200 F 
ENDBRANCH  45  59
BRANCH  46  70
ATOM     70  C   UNL A   1      40.040  28.826  30.127  1.00  0.00     0.064 A 
ATOM     71  C   UNL A   1      39.439  27.563  30.039  1.00  0.00     0.173 A 
ATOM     72  C   UNL A   1      40.628  29.351  28.970  1.00  0.00     0.173 A 
ATOM     73  F   UNL A   1      38.881  27.010  31.126  1.00  0.00    -0.203 F 
ATOM     74  C   UNL A   1      39.444  26.843  28.845  1.00  0.00     0.198 A 
ATOM     75  C   UNL A   1      40.612  28.642  27.769  1.00  0.00     0.198 A 
ATOM     76  F   UNL A   1      41.211  30.558  29.000  1.00  0.00    -0.203 F 
ATOM     77  F   UNL A   1      38.899  25.620  28.800  1.00  0.00    -0.200 F 
ATOM     78  C   UNL A   1      40.026  27.386  27.711  1.00  0.00     0.200 A 
ATOM     79  F   UNL A   1      41.166  29.174  26.671  1.00  0.00    -0.200 F 
ATOM     80  F   UNL A   1      40.030  26.696  26.562  1.00  0.00    -0.200 F 
ENDBRANCH  46  70
BRANCH  58  81
ATOM     81  C   UNL A   1      44.276  28.786  35.658  1.00  0.00     0.064 A 
ATOM     82  C   UNL A   1      45.566  29.215  35.314  1.00  0.00     0.173 A 
ATOM     83  C   UNL A   1      44.147  27.594  36.385  1.00  0.00     0.173 A 
ATOM     84  F   UNL A   1      45.736  30.341  34.605  1.00  0.00    -0.203 F 
ATOM     85  C   UNL A   1      46.684  28.468  35.675  1.00  0.00     0.198 A 
ATOM     86  C   UNL A   1      45.269  26.863  36.765  1.00  0.00     0.198 A 
ATOM     87  F   UNL A   1      42.934  27.146  36.741  1.00  0.00    -0.203 F 
ATOM     88  F   UNL A   1      47.906  28.878  35.307  1.00  0.00    -0.200 F 
ATOM     89  C   UNL A   1      46.536  27.299  36.406  1.00  0.00     0.200 A 
ATOM     90  F   UNL A   1      45.125  25.739  37.480  1.00  0.00    -0.200 F 
ATOM     91  F   UNL A   1      47.615  26.587  36.760  1.00  0.00    -0.200 F 
ENDBRANCH  58  81
ENDBRANCH  32  33
ENDBRANCH  24  27
ENDBRANCH  22  23
ENDBRANCH  21  22
ENDBRANCH  20  21
ENDBRANCH  19  20
ENDBRANCH   3  19
TORSDOF 17
ENDMDL
MODEL 3
REMARK VINA RESULT:     -10.6      2.668      4.263
REMARK SMILES C[NH+](C)Cc1noc(CCCCC(=O)NCCCCNC(=O)c2ccc(-c3c4nc(c(-c5c(F)c(F)c(F)c(F)c5F)c5ccc([nH]5)c(-c5c(F)c(F)c(F)c(F)c5F)c5nc(c(-c6c(F)c(F)c(F)c(F)c6F)c6ccc3[nH]6)C=C5)C=C4)cc2)n1
REMARK SMILES IDX 13 1 14 2 15 3 12 5 11 6 10 7 9 8 8 9 5 10 6 11 86 12 7 13
REMARK SMILES IDX 4 14 2 15 1 16 3 17 16 19 17 20 18 21 19 22 20 23 21 24
REMARK SMILES IDX 22 26 23 27 24 28 85 29 25 30 84 31 26 32 27 33 28 34 78 35
REMARK SMILES IDX 29 36 83 37 77 38 79 39 30 40 82 41 76 42 75 43 31 45 63 46
REMARK SMILES IDX 43 47 62 48 44 49 47 50 61 51 80 52 45 53 46 54 60 56 81 57
REMARK SMILES IDX 48 58 32 59 33 60 41 61 34 62 35 63 39 64 42 65 36 66 37 67
REMARK SMILES IDX 40 68 38 69 64 70 65 71 73 72 66 73 67 74 71 75 74 76 68 77
REMARK SMILES IDX 69 78 72 79 70 80 49 81 50 82 58 83 51 84 52 85 56 86 59 87
REMARK SMILES IDX 53 88 54 89 57 90 55 91
REMARK H PARENT 15 4 2 18 20 25 79 44 47 55
REMARK Flexibility Score: inf
ROOT
ATOM      1  C   UNL A   1      35.395  30.365  27.915  1.00  0.00     0.219 C 
ATOM      2  O   UNL A   1      36.038  29.328  28.077  1.00  0.00    -0.275 OA
ATOM      3  N   UNL A   1      36.057  31.551  28.020  1.00  0.00    -0.356 N 
ATOM      4  H   UNL A   1      37.033  31.475  28.117  1.00  0.00     0.163 HD
ENDROOT
BRANCH   1   5
ATOM      5  C   UNL A   1      33.914  30.324  27.586  1.00  0.00     0.100 C 
BRANCH   5   6
ATOM      6  C   UNL A   1      33.554  29.378  26.436  1.00  0.00     0.010 C 
BRANCH   6   7
ATOM      7  C   UNL A   1      33.191  27.936  26.807  1.00  0.00     0.010 C 
BRANCH   7   8
ATOM      8  C   UNL A   1      32.825  27.005  25.653  1.00  0.00     0.100 C 
BRANCH   8   9
ATOM      9  C   UNL A   1      32.490  25.631  26.082  1.00  0.00     0.226 A 
ATOM     10  C   UNL A   1      32.449  23.619  26.645  1.00  0.00     0.226 A 
ATOM     11  N   UNL A   1      31.367  24.134  27.252  1.00  0.00    -0.056 NA
ATOM     12  N   UNL A   1      33.172  24.524  25.904  1.00  0.00    -0.191 NA
ATOM     13  O   UNL A   1      31.387  25.473  26.866  1.00  0.00    -0.339 OA
BRANCH  10  14
ATOM     14  C   UNL A   1      32.910  22.204  26.828  1.00  0.00     0.344 C 
BRANCH  14  15
ATOM     15  N   UNL A   1      33.755  21.653  25.748  1.00  0.00    -0.333 N 
ATOM     16  C   UNL A   1      35.158  21.533  26.132  1.00  0.00     0.332 C 
ATOM     17  C   UNL A   1      33.238  20.397  25.214  1.00  0.00     0.332 C 
ATOM     18  H   UNL A   1      33.713  22.337  24.993  1.00  0.00     0.348 HD
ENDBRANCH  14  15
ENDBRANCH  10  14
ENDBRANCH   8   9
ENDBRANCH   7   8
ENDBRANCH   6   7
ENDBRANCH   5   6
ENDBRANCH   1   5
BRANCH   3  19
ATOM     19  C   UNL A   1      35.546  32.906  28.010  1.00  0.00     0.116 C 
BRANCH  19  20
ATOM     20  C   UNL A   1      34.792  33.208  29.307  1.00  0.00     0.023 C 
BRANCH  20  21
ATOM     21  C   UNL A   1      33.556  34.083  29.133  1.00  0.00     0.023 C 
BRANCH  21  22
ATOM     22  C   UNL A   1      33.716  35.500  29.656  1.00  0.00     0.116 C 
BRANCH  22  23
ATOM     23  N   UNL A   1      32.625  35.947  30.512  1.00  0.00    -0.352 N 
ATOM     24  C   UNL A   1      32.519  35.796  31.879  1.00  0.00     0.251 C 
ATOM     25  H   UNL A   1      31.879  36.407  30.064  1.00  0.00     0.163 HD
ATOM     26  O   UNL A   1      31.525  36.160  32.486  1.00  0.00    -0.269 OA
BRANCH  24  27
ATOM     27  C   UNL A   1      33.629  35.121  32.584  1.00  0.00     0.039 A 
ATOM     28  C   UNL A   1      33.454  33.804  33.011  1.00  0.00     0.014 A 
ATOM     29  C   UNL A   1      34.873  35.747  32.679  1.00  0.00     0.014 A 
ATOM     30  C   UNL A   1      34.562  33.076  33.449  1.00  0.00     0.010 A 
ATOM     31  C   UNL A   1      35.986  34.995  33.029  1.00  0.00     0.010 A 
ATOM     32  C   UNL A   1      35.843  33.650  33.409  1.00  0.00    -0.014 A 
BRANCH  32  33
ATOM     33  C   UNL A   1      37.059  32.873  33.758  1.00  0.00     0.031 A 
ATOM     34  C   UNL A   1      37.777  33.166  35.045  1.00  0.00     0.074 A 
ATOM     35  C   UNL A   1      37.570  31.987  32.882  1.00  0.00     0.049 A 
ATOM     36  N   UNL A   1      38.928  32.715  35.473  1.00  0.00    -0.248 NA
ATOM     37  C   UNL A   1      37.135  34.131  35.951  1.00  0.00     0.031 C 
ATOM     38  C   UNL A   1      36.999  31.657  31.575  1.00  0.00     0.029 A 
ATOM     39  N   UNL A   1      38.700  31.211  32.953  1.00  0.00    -0.354 N 
ATOM     40  C   UNL A   1      39.161  33.367  36.677  1.00  0.00     0.074 A 
ATOM     41  C   UNL A   1      38.060  34.281  36.886  1.00  0.00     0.031 C 
ATOM     42  C   UNL A   1      37.768  30.732  30.978  1.00  0.00     0.029 A 
ATOM     43  C   UNL A   1      38.905  30.430  31.842  1.00  0.00     0.049 A 
ATOM     44  H   UNL A   1      39.308  31.214  33.728  1.00  0.00     0.167 HD
ATOM     45  C   UNL A   1      40.189  33.200  37.541  1.00  0.00     0.037 A 
ATOM     46  C   UNL A   1      39.902  29.572  31.553  1.00  0.00     0.037 A 
ATOM     47  C   UNL A   1      41.252  32.251  37.356  1.00  0.00     0.049 A 
ATOM     48  C   UNL A   1      41.010  29.371  32.552  1.00  0.00     0.074 A 
ATOM     49  C   UNL A   1      42.302  31.954  38.207  1.00  0.00     0.029 A 
ATOM     50  N   UNL A   1      41.392  31.433  36.245  1.00  0.00    -0.354 N 
ATOM     51  N   UNL A   1      41.190  29.951  33.713  1.00  0.00    -0.248 NA
ATOM     52  C   UNL A   1      42.048  28.391  32.203  1.00  0.00     0.031 C 
ATOM     53  C   UNL A   1      43.092  30.973  37.598  1.00  0.00     0.029 A 
ATOM     54  C   UNL A   1      42.514  30.635  36.385  1.00  0.00     0.049 A 
ATOM     55  H   UNL A   1      40.783  31.422  35.471  1.00  0.00     0.167 HD
ATOM     56  C   UNL A   1      42.341  29.388  34.247  1.00  0.00     0.074 A 
ATOM     57  C   UNL A   1      42.814  28.414  33.285  1.00  0.00     0.031 C 
ATOM     58  C   UNL A   1      42.952  29.654  35.426  1.00  0.00     0.037 A 
BRANCH  45  59
ATOM     59  C   UNL A   1      40.200  34.057  38.771  1.00  0.00     0.064 A 
ATOM     60  C   UNL A   1      40.807  35.321  38.782  1.00  0.00     0.173 A 
ATOM     61  C   UNL A   1      39.581  33.616  39.952  1.00  0.00     0.173 A 
ATOM     62  F   UNL A   1      41.426  35.780  37.682  1.00  0.00    -0.203 F 
ATOM     63  C   UNL A   1      40.824  36.100  39.935  1.00  0.00     0.198 A 
ATOM     64  C   UNL A   1      39.574  34.411  41.095  1.00  0.00     0.198 A 
ATOM     65  F   UNL A   1      38.984  32.416  39.995  1.00  0.00    -0.203 F 
ATOM     66  F   UNL A   1      41.460  37.279  39.935  1.00  0.00    -0.200 F 
ATOM     67  C   UNL A   1      40.203  35.646  41.088  1.00  0.00     0.200 A 
ATOM     68  F   UNL A   1      38.965  33.976  42.207  1.00  0.00    -0.200 F 
ATOM     69  F   UNL A   1      40.219  36.398  42.198  1.00  0.00    -0.200 F 
ENDBRANCH  45  59
BRANCH  46  70
ATOM     70  C   UNL A   1      39.882  28.809  30.278  1.00  0.00     0.064 A 
ATOM     71  C   UNL A   1      39.302  27.534  30.218  1.00  0.00     0.173 A 
ATOM     72  C   UNL A   1      40.438  29.329  29.103  1.00  0.00     0.173 A 
ATOM     73  F   UNL A   1      38.774  26.987  31.323  1.00  0.00    -0.203 F 
ATOM     74  C   UNL A   1      39.297  26.799  29.034  1.00  0.00     0.198 A 
ATOM     75  C   UNL A   1      40.412  28.604  27.912  1.00  0.00     0.198 A 
ATOM     76  F   UNL A   1      41.000  30.547  29.106  1.00  0.00    -0.203 F 
ATOM     77  F   UNL A   1      38.773  25.566  29.016  1.00  0.00    -0.200 F 
ATOM     78  C   UNL A   1      39.848  27.337  27.882  1.00  0.00     0.200 A 
ATOM     79  F   UNL A   1      40.935  29.131  26.797  1.00  0.00    -0.200 F 
ATOM     80  F   UNL A   1      39.842  26.631  26.742  1.00  0.00    -0.200 F 
ENDBRANCH  46  70
BRANCH  58  81
ATOM     81  C   UNL A   1      44.171  28.851  35.767  1.00  0.00     0.064 A 
ATOM     82  C   UNL A   1      44.080  27.641  36.469  1.00  0.00     0.173 A 
ATOM     83  C   UNL A   1      45.438  29.273  35.337  1.00  0.00     0.173 A 
ATOM     84  F   UNL A   1      42.891  27.206  36.913  1.00  0.00    -0.203 F 
ATOM     85  C   UNL A   1      45.220  26.890  36.744  1.00  0.00     0.198 A 
ATOM     86  C   UNL A   1      46.571  28.507  35.592  1.00  0.00     0.198 A 
ATOM     87  F   UNL A   1      45.573  30.422  34.657  1.00  0.00    -0.203 F 
ATOM     88  F   UNL A   1      45.116  25.753  37.446  1.00  0.00    -0.200 F 
ATOM     89  C   UNL A   1      46.462  27.318  36.298  1.00  0.00     0.200 A 
ATOM     90  F   UNL A   1      47.768  28.917  35.151  1.00  0.00    -0.200 F 
ATOM     91  F   UNL A   1      47.555  26.588  36.555  1.00  0.00    -0.200 F 
ENDBRANCH  58  81
ENDBRANCH  32  33
ENDBRANCH  24  27
ENDBRANCH  22  23
ENDBRANCH  21  22
ENDBRANCH  20  21
ENDBRANCH  19  20
ENDBRANCH   3  19
TORSDOF 17
ENDMDL
