MODEL 1
REMARK VINA RESULT:     -12.3      0.000      0.000
REMARK SMILES CCC[C@@H]1C[N@@H+](Cc2cc(OC)c3c(c2)OCO3)C[C@H]1C(=O)NCCCCNC(=O)c1ccc(-c2c3nc(c(-c4c(F)c(F)c(F)c(F)c4F)c4ccc([nH]4)c(-c4c(F)c(F)c(F)c(F)c4F)c4nc(c(-c5c(F)c(F)c(F)c(F)c5F)c5ccc2[nH]5)C=C4)C=C3)cc1
REMARK SMILES IDX 25 1 24 2 23 3 21 4 22 5 20 7 4 8 5 9 6 10 19 11 3 13 2 14
REMARK SMILES IDX 1 15 7 16 8 17 9 18 15 19 10 20 14 21 13 22 16 23 18 24
REMARK SMILES IDX 17 25 11 26 12 27 26 28 27 29 28 30 29 31 30 33 31 34 32 35
REMARK SMILES IDX 93 36 33 37 92 38 34 39 35 40 36 41 86 42 37 43 91 44 85 45
REMARK SMILES IDX 87 46 38 47 90 48 84 49 83 50 39 52 71 53 51 54 70 55 52 56
REMARK SMILES IDX 55 57 69 58 88 59 53 60 54 61 68 63 89 64 56 65 40 66 41 67
REMARK SMILES IDX 49 68 42 69 43 70 47 71 50 72 44 73 45 74 48 75 46 76 72 77
REMARK SMILES IDX 73 78 81 79 74 80 75 81 79 82 82 83 76 84 77 85 80 86 78 87
REMARK SMILES IDX 57 88 58 89 66 90 59 91 60 92 64 93 67 94 61 95 62 96 65 97
REMARK SMILES IDX 63 98
REMARK H PARENT 23 6 6 12 28 32 87 51 55 62
REMARK Flexibility Score: inf
ROOT
ATOM      1  C   UNL A   1      37.375  21.358  24.498  1.00  0.00     0.023 C 
ENDROOT
BRANCH   1   2
ATOM      2  C   UNL A   1      36.910  22.424  25.516  1.00  0.00     0.116 C 
BRANCH   2   3
ATOM      3  N   UNL A   1      36.113  23.588  25.061  1.00  0.00    -0.356 N 
ATOM      4  C   UNL A   1      34.967  23.882  24.358  1.00  0.00     0.229 C 
ATOM      5  O   UNL A   1      34.586  25.057  24.488  1.00  0.00    -0.275 OA
ATOM      6  H   UNL A   1      36.544  24.422  25.358  1.00  0.00     0.163 HD
BRANCH   4   7
ATOM      7  C   UNL A   1      34.149  22.966  23.384  1.00  0.00     0.142 C 
ATOM      8  C   UNL A   1      33.201  21.857  23.997  1.00  0.00     0.062 C 
ATOM      9  C   UNL A   1      32.022  21.834  23.025  1.00  0.00     0.267 C 
ATOM     10  N   UNL A   1      31.843  23.216  22.638  1.00  0.00    -0.330 N 
ATOM     11  C   UNL A   1      33.205  23.711  22.432  1.00  0.00     0.276 C 
ATOM     12  H   UNL A   1      31.339  23.362  21.761  1.00  0.00     0.348 HD
BRANCH   8  13
ATOM     13  C   UNL A   1      33.628  20.434  24.382  1.00  0.00     0.010 C 
BRANCH  13  14
ATOM     14  C   UNL A   1      32.498  19.395  24.067  1.00  0.00    -0.003 C 
ATOM     15  C   UNL A   1      32.912  18.126  23.319  1.00  0.00     0.004 C 
ENDBRANCH  13  14
ENDBRANCH   8  13
BRANCH  10  16
ATOM     16  C   UNL A   1      30.855  23.966  23.459  1.00  0.00     0.299 C 
BRANCH  16  17
ATOM     17  C   UNL A   1      31.190  25.281  24.183  1.00  0.00     0.014 A 
ATOM     18  C   UNL A   1      31.218  26.493  23.486  1.00  0.00     0.060 A 
ATOM     19  C   UNL A   1      31.326  25.415  25.562  1.00  0.00     0.060 A 
ATOM     20  C   UNL A   1      31.478  27.771  23.972  1.00  0.00     0.165 A 
ATOM     21  C   UNL A   1      31.489  26.703  26.092  1.00  0.00     0.170 A 
ATOM     22  C   UNL A   1      31.575  27.855  25.322  1.00  0.00     0.207 A 
ATOM     23  O   UNL A   1      31.543  26.994  27.425  1.00  0.00    -0.453 OA
ATOM     24  O   UNL A   1      31.711  28.979  26.069  1.00  0.00    -0.450 OA
ATOM     25  C   UNL A   1      31.527  28.436  27.387  1.00  0.00     0.468 C 
BRANCH  20  26
ATOM     26  O   UNL A   1      31.564  28.712  23.000  1.00  0.00    -0.493 OA
ATOM     27  C   UNL A   1      30.380  29.127  22.347  1.00  0.00     0.278 C 
ENDBRANCH  20  26
ENDBRANCH  16  17
ENDBRANCH  10  16
ENDBRANCH   4   7
ENDBRANCH   2   3
ENDBRANCH   1   2
BRANCH   1  28
ATOM     28  C   UNL A   1      38.048  20.098  25.055  1.00  0.00     0.023 C 
BRANCH  28  29
ATOM     29  C   UNL A   1      39.297  20.402  25.866  1.00  0.00     0.116 C 
BRANCH  29  30
ATOM     30  N   UNL A   1      40.216  19.269  25.954  1.00  0.00    -0.352 N 
ATOM     31  C   UNL A   1      41.584  19.281  26.133  1.00  0.00     0.251 C 
ATOM     32  H   UNL A   1      39.803  18.378  25.874  1.00  0.00     0.163 HD
ATOM     33  O   UNL A   1      42.241  18.255  26.059  1.00  0.00    -0.269 OA
BRANCH  31  34
ATOM     34  C   UNL A   1      42.251  20.578  26.379  1.00  0.00     0.039 A 
ATOM     35  C   UNL A   1      42.662  21.361  25.298  1.00  0.00     0.014 A 
ATOM     36  C   UNL A   1      42.401  21.041  27.686  1.00  0.00     0.014 A 
ATOM     37  C   UNL A   1      43.155  22.646  25.535  1.00  0.00     0.010 A 
ATOM     38  C   UNL A   1      42.762  22.357  27.908  1.00  0.00     0.010 A 
ATOM     39  C   UNL A   1      43.168  23.166  26.840  1.00  0.00    -0.014 A 
BRANCH  39  40
ATOM     40  C   UNL A   1      43.646  24.537  27.133  1.00  0.00     0.031 A 
ATOM     41  C   UNL A   1      42.675  25.550  27.676  1.00  0.00     0.074 A 
ATOM     42  C   UNL A   1      44.911  24.882  26.832  1.00  0.00     0.049 A 
ATOM     43  N   UNL A   1      42.845  26.828  27.896  1.00  0.00    -0.248 NA
ATOM     44  C   UNL A   1      41.309  25.074  27.959  1.00  0.00     0.031 C 
ATOM     45  C   UNL A   1      45.912  23.997  26.230  1.00  0.00     0.029 A 
ATOM     46  N   UNL A   1      45.571  26.075  26.977  1.00  0.00    -0.354 N 
ATOM     47  C   UNL A   1      41.608  27.302  28.315  1.00  0.00     0.074 A 
ATOM     48  C   UNL A   1      40.677  26.203  28.236  1.00  0.00     0.031 C 
ATOM     49  C   UNL A   1      47.067  24.667  26.091  1.00  0.00     0.029 A 
ATOM     50  C   UNL A   1      46.878  26.037  26.554  1.00  0.00     0.049 A 
ATOM     51  H   UNL A   1      45.149  26.882  27.350  1.00  0.00     0.167 HD
ATOM     52  C   UNL A   1      41.289  28.538  28.766  1.00  0.00     0.037 A 
ATOM     53  C   UNL A   1      47.811  27.008  26.542  1.00  0.00     0.037 A 
ATOM     54  C   UNL A   1      42.242  29.607  28.883  1.00  0.00     0.049 A 
ATOM     55  C   UNL A   1      47.439  28.366  27.072  1.00  0.00     0.074 A 
ATOM     56  C   UNL A   1      42.057  30.877  29.395  1.00  0.00     0.029 A 
ATOM     57  N   UNL A   1      43.569  29.521  28.484  1.00  0.00    -0.354 N 
ATOM     58  N   UNL A   1      46.288  28.784  27.543  1.00  0.00    -0.248 NA
ATOM     59  C   UNL A   1      48.495  29.386  27.078  1.00  0.00     0.031 C 
ATOM     60  C   UNL A   1      43.261  31.576  29.264  1.00  0.00     0.029 A 
ATOM     61  C   UNL A   1      44.211  30.725  28.718  1.00  0.00     0.049 A 
ATOM     62  H   UNL A   1      43.991  28.722  28.093  1.00  0.00     0.167 HD
ATOM     63  C   UNL A   1      46.483  30.105  27.918  1.00  0.00     0.074 A 
ATOM     64  C   UNL A   1      47.874  30.411  27.644  1.00  0.00     0.031 C 
ATOM     65  C   UNL A   1      45.598  30.993  28.434  1.00  0.00     0.037 A 
BRANCH  52  66
ATOM     66  C   UNL A   1      39.867  28.781  29.183  1.00  0.00     0.064 A 
ATOM     67  C   UNL A   1      39.428  28.524  30.492  1.00  0.00     0.173 A 
ATOM     68  C   UNL A   1      38.933  29.293  28.271  1.00  0.00     0.173 A 
ATOM     69  F   UNL A   1      40.275  28.019  31.402  1.00  0.00    -0.203 F 
ATOM     70  C   UNL A   1      38.102  28.736  30.861  1.00  0.00     0.198 A 
ATOM     71  C   UNL A   1      37.615  29.536  28.652  1.00  0.00     0.198 A 
ATOM     72  F   UNL A   1      39.295  29.557  27.007  1.00  0.00    -0.203 F 
ATOM     73  F   UNL A   1      37.695  28.423  32.100  1.00  0.00    -0.200 F 
ATOM     74  C   UNL A   1      37.199  29.249  29.943  1.00  0.00     0.200 A 
ATOM     75  F   UNL A   1      36.745  30.044  27.768  1.00  0.00    -0.200 F 
ATOM     76  F   UNL A   1      35.924  29.458  30.301  1.00  0.00    -0.200 F 
ENDBRANCH  52  66
BRANCH  53  77
ATOM     77  C   UNL A   1      49.182  26.721  26.042  1.00  0.00     0.064 A 
ATOM     78  C   UNL A   1      50.146  26.132  26.874  1.00  0.00     0.173 A 
ATOM     79  C   UNL A   1      49.561  27.026  24.726  1.00  0.00     0.173 A 
ATOM     80  F   UNL A   1      49.839  25.833  28.144  1.00  0.00    -0.203 F 
ATOM     81  C   UNL A   1      51.439  25.882  26.417  1.00  0.00     0.198 A 
ATOM     82  C   UNL A   1      50.845  26.748  24.261  1.00  0.00     0.198 A 
ATOM     83  F   UNL A   1      48.676  27.581  23.884  1.00  0.00    -0.203 F 
ATOM     84  F   UNL A   1      52.352  25.364  27.250  1.00  0.00    -0.200 F 
ATOM     85  C   UNL A   1      51.786  26.186  25.110  1.00  0.00     0.200 A 
ATOM     86  F   UNL A   1      51.170  27.024  22.991  1.00  0.00    -0.200 F 
ATOM     87  F   UNL A   1      53.028  25.942  24.670  1.00  0.00    -0.200 F 
ENDBRANCH  53  77
BRANCH  65  88
ATOM     88  C   UNL A   1      46.113  32.365  28.748  1.00  0.00     0.064 A 
ATOM     89  C   UNL A   1      46.055  33.402  27.807  1.00  0.00     0.173 A 
ATOM     90  C   UNL A   1      46.627  32.656  30.021  1.00  0.00     0.173 A 
ATOM     91  F   UNL A   1      45.585  33.168  26.572  1.00  0.00    -0.203 F 
ATOM     92  C   UNL A   1      46.522  34.676  28.119  1.00  0.00     0.198 A 
ATOM     93  C   UNL A   1      47.060  33.939  30.340  1.00  0.00     0.198 A 
ATOM     94  F   UNL A   1      46.694  31.700  30.960  1.00  0.00    -0.203 F 
ATOM     95  F   UNL A   1      46.506  35.639  27.187  1.00  0.00    -0.200 F 
ATOM     96  C   UNL A   1      47.016  34.945  29.387  1.00  0.00     0.200 A 
ATOM     97  F   UNL A   1      47.520  34.202  31.571  1.00  0.00    -0.200 F 
ATOM     98  F   UNL A   1      47.455  36.174  29.688  1.00  0.00    -0.200 F 
ENDBRANCH  65  88
ENDBRANCH  39  40
ENDBRANCH  31  34
ENDBRANCH  29  30
ENDBRANCH  28  29
ENDBRANCH   1  28
TORSDOF 16
ENDMDL
MODEL 2
REMARK VINA RESULT:     -12.2      5.581     11.211
REMARK SMILES CCC[C@@H]1C[N@@H+](Cc2cc(OC)c3c(c2)OCO3)C[C@H]1C(=O)NCCCCNC(=O)c1ccc(-c2c3nc(c(-c4c(F)c(F)c(F)c(F)c4F)c4ccc([nH]4)c(-c4c(F)c(F)c(F)c(F)c4F)c4nc(c(-c5c(F)c(F)c(F)c(F)c5F)c5ccc2[nH]5)C=C4)C=C3)cc1
REMARK SMILES IDX 25 1 24 2 23 3 21 4 22 5 20 7 4 8 5 9 6 10 19 11 3 13 2 14
REMARK SMILES IDX 1 15 7 16 8 17 9 18 15 19 10 20 14 21 13 22 16 23 18 24
REMARK SMILES IDX 17 25 11 26 12 27 26 28 27 29 28 30 29 31 30 33 31 34 32 35
REMARK SMILES IDX 93 36 33 37 92 38 34 39 35 40 36 41 86 42 37 43 91 44 85 45
REMARK SMILES IDX 87 46 38 47 90 48 84 49 83 50 39 52 71 53 51 54 70 55 52 56
REMARK SMILES IDX 55 57 69 58 88 59 53 60 54 61 68 63 89 64 56 65 40 66 41 67
REMARK SMILES IDX 49 68 42 69 43 70 47 71 50 72 44 73 45 74 48 75 46 76 72 77
REMARK SMILES IDX 73 78 81 79 74 80 75 81 79 82 82 83 76 84 77 85 80 86 78 87
REMARK SMILES IDX 57 88 58 89 66 90 59 91 60 92 64 93 67 94 61 95 62 96 65 97
REMARK SMILES IDX 63 98
REMARK H PARENT 23 6 6 12 28 32 87 51 55 62
REMARK Flexibility Score: inf
ROOT
ATOM      1  C   UNL A   1      32.135  30.459  26.990  1.00  0.00     0.023 C 
ENDROOT
BRANCH   1   2
ATOM      2  C   UNL A   1      33.419  29.964  26.284  1.00  0.00     0.116 C 
BRANCH   2   3
ATOM      3  N   UNL A   1      33.341  29.385  24.921  1.00  0.00    -0.356 N 
ATOM      4  C   UNL A   1      32.411  29.019  23.974  1.00  0.00     0.229 C 
ATOM      5  O   UNL A   1      32.896  28.819  22.848  1.00  0.00    -0.275 OA
ATOM      6  H   UNL A   1      34.248  29.204  24.585  1.00  0.00     0.163 HD
BRANCH   4   7
ATOM      7  C   UNL A   1      30.876  28.758  24.152  1.00  0.00     0.142 C 
ATOM      8  C   UNL A   1      29.968  28.648  22.861  1.00  0.00     0.062 C 
ATOM      9  C   UNL A   1      28.935  27.594  23.255  1.00  0.00     0.267 C 
ATOM     10  N   UNL A   1      29.672  26.642  24.056  1.00  0.00    -0.330 N 
ATOM     11  C   UNL A   1      30.521  27.474  24.911  1.00  0.00     0.276 C 
ATOM     12  H   UNL A   1      29.106  26.061  24.676  1.00  0.00     0.348 HD
BRANCH   8  13
ATOM     13  C   UNL A   1      29.306  29.827  22.135  1.00  0.00     0.010 C 
BRANCH  13  14
ATOM     14  C   UNL A   1      27.835  30.046  22.630  1.00  0.00    -0.003 C 
ATOM     15  C   UNL A   1      27.605  31.169  23.645  1.00  0.00     0.004 C 
ENDBRANCH  13  14
ENDBRANCH   8  13
BRANCH  10  16
ATOM     16  C   UNL A   1      30.222  25.488  23.296  1.00  0.00     0.299 C 
BRANCH  16  17
ATOM     17  C   UNL A   1      31.538  24.784  23.672  1.00  0.00     0.014 A 
ATOM     18  C   UNL A   1      31.561  23.795  24.660  1.00  0.00     0.060 A 
ATOM     19  C   UNL A   1      32.740  24.933  22.987  1.00  0.00     0.060 A 
ATOM     20  C   UNL A   1      32.641  23.043  25.115  1.00  0.00     0.165 A 
ATOM     21  C   UNL A   1      33.820  24.116  23.356  1.00  0.00     0.170 A 
ATOM     22  C   UNL A   1      33.782  23.201  24.399  1.00  0.00     0.207 A 
ATOM     23  O   UNL A   1      35.026  24.087  22.716  1.00  0.00    -0.453 OA
ATOM     24  O   UNL A   1      34.945  22.519  24.544  1.00  0.00    -0.450 OA
ATOM     25  C   UNL A   1      35.657  22.973  23.381  1.00  0.00     0.468 C 
BRANCH  20  26
ATOM     26  O   UNL A   1      32.346  22.265  26.185  1.00  0.00    -0.493 OA
ATOM     27  C   UNL A   1      32.432  22.827  27.480  1.00  0.00     0.278 C 
ENDBRANCH  20  26
ENDBRANCH  16  17
ENDBRANCH  10  16
ENDBRANCH   4   7
ENDBRANCH   2   3
ENDBRANCH   1   2
BRANCH   1  28
ATOM     28  C   UNL A   1      31.816  31.956  26.904  1.00  0.00     0.023 C 
BRANCH  28  29
ATOM     29  C   UNL A   1      32.980  32.835  27.329  1.00  0.00     0.116 C 
BRANCH  29  30
ATOM     30  N   UNL A   1      32.577  34.201  27.661  1.00  0.00    -0.352 N 
ATOM     31  C   UNL A   1      33.046  35.016  28.671  1.00  0.00     0.251 C 
ATOM     32  H   UNL A   1      31.877  34.590  27.088  1.00  0.00     0.163 HD
ATOM     33  O   UNL A   1      32.523  36.093  28.908  1.00  0.00    -0.269 OA
BRANCH  31  34
ATOM     34  C   UNL A   1      34.180  34.539  29.492  1.00  0.00     0.039 A 
ATOM     35  C   UNL A   1      33.933  33.921  30.720  1.00  0.00     0.014 A 
ATOM     36  C   UNL A   1      35.481  34.647  29.004  1.00  0.00     0.014 A 
ATOM     37  C   UNL A   1      34.994  33.342  31.419  1.00  0.00     0.010 A 
ATOM     38  C   UNL A   1      36.506  33.960  29.629  1.00  0.00     0.010 A 
ATOM     39  C   UNL A   1      36.281  33.323  30.855  1.00  0.00    -0.014 A 
BRANCH  39  40
ATOM     40  C   UNL A   1      37.429  32.688  31.542  1.00  0.00     0.031 A 
ATOM     41  C   UNL A   1      38.133  31.535  30.878  1.00  0.00     0.074 A 
ATOM     42  C   UNL A   1      37.771  33.088  32.781  1.00  0.00     0.049 A 
ATOM     43  N   UNL A   1      39.080  30.762  31.343  1.00  0.00    -0.248 NA
ATOM     44  C   UNL A   1      37.672  31.166  29.528  1.00  0.00     0.031 C 
ATOM     45  C   UNL A   1      37.104  34.144  33.546  1.00  0.00     0.029 A 
ATOM     46  N   UNL A   1      38.759  32.645  33.623  1.00  0.00    -0.354 N 
ATOM     47  C   UNL A   1      39.303  29.811  30.356  1.00  0.00     0.074 A 
ATOM     48  C   UNL A   1      38.339  30.046  29.307  1.00  0.00     0.031 C 
ATOM     49  C   UNL A   1      37.723  34.291  34.728  1.00  0.00     0.029 A 
ATOM     50  C   UNL A   1      38.802  33.314  34.822  1.00  0.00     0.049 A 
ATOM     51  H   UNL A   1      39.378  31.917  33.390  1.00  0.00     0.167 HD
ATOM     52  C   UNL A   1      40.258  28.853  30.310  1.00  0.00     0.037 A 
ATOM     53  C   UNL A   1      39.623  33.147  35.876  1.00  0.00     0.037 A 
ATOM     54  C   UNL A   1      41.240  28.666  31.342  1.00  0.00     0.049 A 
ATOM     55  C   UNL A   1      40.692  32.092  35.791  1.00  0.00     0.074 A 
ATOM     56  C   UNL A   1      42.300  27.781  31.375  1.00  0.00     0.029 A 
ATOM     57  N   UNL A   1      41.280  29.391  32.526  1.00  0.00    -0.354 N 
ATOM     58  N   UNL A   1      40.949  31.250  34.818  1.00  0.00    -0.248 NA
ATOM     59  C   UNL A   1      41.592  31.967  36.944  1.00  0.00     0.031 C 
ATOM     60  C   UNL A   1      42.956  27.938  32.600  1.00  0.00     0.029 A 
ATOM     61  C   UNL A   1      42.336  28.957  33.308  1.00  0.00     0.049 A 
ATOM     62  H   UNL A   1      40.651  30.106  32.772  1.00  0.00     0.167 HD
ATOM     63  C   UNL A   1      42.046  30.509  35.231  1.00  0.00     0.074 A 
ATOM     64  C   UNL A   1      42.425  31.021  36.533  1.00  0.00     0.031 C 
ATOM     65  C   UNL A   1      42.684  29.492  34.600  1.00  0.00     0.037 A 
BRANCH  52  66
ATOM     66  C   UNL A   1      40.293  27.961  29.101  1.00  0.00     0.064 A 
ATOM     67  C   UNL A   1      39.565  26.761  29.048  1.00  0.00     0.173 A 
ATOM     68  C   UNL A   1      41.047  28.317  27.974  1.00  0.00     0.173 A 
ATOM     69  F   UNL A   1      38.839  26.364  30.104  1.00  0.00    -0.203 F 
ATOM     70  C   UNL A   1      39.621  25.934  27.929  1.00  0.00     0.198 A 
ATOM     71  C   UNL A   1      41.074  27.504  26.842  1.00  0.00     0.198 A 
ATOM     72  F   UNL A   1      41.762  29.452  27.968  1.00  0.00    -0.203 F 
ATOM     73  F   UNL A   1      38.968  24.764  27.930  1.00  0.00    -0.200 F 
ATOM     74  C   UNL A   1      40.369  26.310  26.824  1.00  0.00     0.200 A 
ATOM     75  F   UNL A   1      41.787  27.874  25.770  1.00  0.00    -0.200 F 
ATOM     76  F   UNL A   1      40.418  25.516  25.745  1.00  0.00    -0.200 F 
ENDBRANCH  52  66
BRANCH  53  77
ATOM     77  C   UNL A   1      39.485  34.014  37.077  1.00  0.00     0.064 A 
ATOM     78  C   UNL A   1      40.088  35.280  37.127  1.00  0.00     0.173 A 
ATOM     79  C   UNL A   1      38.749  33.601  38.197  1.00  0.00     0.173 A 
ATOM     80  F   UNL A   1      40.813  35.716  36.088  1.00  0.00    -0.203 F 
ATOM     81  C   UNL A   1      39.981  36.086  38.259  1.00  0.00     0.198 A 
ATOM     82  C   UNL A   1      38.616  34.421  39.316  1.00  0.00     0.198 A 
ATOM     83  F   UNL A   1      38.142  32.404  38.199  1.00  0.00    -0.203 F 
ATOM     84  F   UNL A   1      40.608  37.270  38.297  1.00  0.00    -0.200 F 
ATOM     85  C   UNL A   1      39.241  35.658  39.350  1.00  0.00     0.200 A 
ATOM     86  F   UNL A   1      37.884  34.012  40.361  1.00  0.00    -0.200 F 
ATOM     87  F   UNL A   1      39.134  36.436  40.437  1.00  0.00    -0.200 F 
ENDBRANCH  53  77
BRANCH  65  88
ATOM     88  C   UNL A   1      43.860  28.884  35.304  1.00  0.00     0.064 A 
ATOM     89  C   UNL A   1      43.704  27.826  36.211  1.00  0.00     0.173 A 
ATOM     90  C   UNL A   1      45.161  29.335  35.032  1.00  0.00     0.173 A 
ATOM     91  F   UNL A   1      42.479  27.371  36.513  1.00  0.00    -0.203 F 
ATOM     92  C   UNL A   1      44.807  27.261  36.844  1.00  0.00     0.198 A 
ATOM     93  C   UNL A   1      46.263  28.744  35.641  1.00  0.00     0.198 A 
ATOM     94  F   UNL A   1      45.363  30.338  34.164  1.00  0.00    -0.203 F 
ATOM     95  F   UNL A   1      44.631  26.286  37.747  1.00  0.00    -0.200 F 
ATOM     96  C   UNL A   1      46.085  27.714  36.552  1.00  0.00     0.200 A 
ATOM     97  F   UNL A   1      47.498  29.171  35.345  1.00  0.00    -0.200 F 
ATOM     98  F   UNL A   1      47.146  27.161  37.155  1.00  0.00    -0.200 F 
ENDBRANCH  65  88
ENDBRANCH  39  40
ENDBRANCH  31  34
ENDBRANCH  29  30
ENDBRANCH  28  29
ENDBRANCH   1  28
TORSDOF 16
ENDMDL
MODEL 3
REMARK VINA RESULT:     -12.1      5.477     11.093
REMARK SMILES CCC[C@@H]1C[N@@H+](Cc2cc(OC)c3c(c2)OCO3)C[C@H]1C(=O)NCCCCNC(=O)c1ccc(-c2c3nc(c(-c4c(F)c(F)c(F)c(F)c4F)c4ccc([nH]4)c(-c4c(F)c(F)c(F)c(F)c4F)c4nc(c(-c5c(F)c(F)c(F)c(F)c5F)c5ccc2[nH]5)C=C4)C=C3)cc1
REMARK SMILES IDX 25 1 24 2 23 3 21 4 22 5 20 7 4 8 5 9 6 10 19 11 3 13 2 14
REMARK SMILES IDX 1 15 7 16 8 17 9 18 15 19 10 20 14 21 13 22 16 23 18 24
REMARK SMILES IDX 17 25 11 26 12 27 26 28 27 29 28 30 29 31 30 33 31 34 32 35
REMARK SMILES IDX 93 36 33 37 92 38 34 39 35 40 36 41 86 42 37 43 91 44 85 45
REMARK SMILES IDX 87 46 38 47 90 48 84 49 83 50 39 52 71 53 51 54 70 55 52 56
REMARK SMILES IDX 55 57 69 58 88 59 53 60 54 61 68 63 89 64 56 65 40 66 41 67
REMARK SMILES IDX 49 68 42 69 43 70 47 71 50 72 44 73 45 74 48 75 46 76 72 77
REMARK SMILES IDX 73 78 81 79 74 80 75 81 79 82 82 83 76 84 77 85 80 86 78 87
REMARK SMILES IDX 57 88 58 89 66 90 59 91 60 92 64 93 67 94 61 95 62 96 65 97
REMARK SMILES IDX 63 98
REMARK H PARENT 23 6 6 12 28 32 87 51 55 62
REMARK Flexibility Score: inf
ROOT
ATOM      1  C   UNL A   1      32.013  30.408  26.884  1.00  0.00     0.023 C 
ENDROOT
BRANCH   1   2
ATOM      2  C   UNL A   1      33.174  29.927  25.983  1.00  0.00     0.116 C 
BRANCH   2   3
ATOM      3  N   UNL A   1      33.361  28.481  25.721  1.00  0.00    -0.356 N 
ATOM      4  C   UNL A   1      32.690  27.402  25.190  1.00  0.00     0.229 C 
ATOM      5  O   UNL A   1      33.420  26.424  24.954  1.00  0.00    -0.275 OA
ATOM      6  H   UNL A   1      34.254  28.200  26.023  1.00  0.00     0.163 HD
BRANCH   4   7
ATOM      7  C   UNL A   1      31.155  27.233  24.923  1.00  0.00     0.142 C 
ATOM      8  C   UNL A   1      30.627  27.319  23.433  1.00  0.00     0.062 C 
ATOM      9  C   UNL A   1      29.484  26.306  23.412  1.00  0.00     0.267 C 
ATOM     10  N   UNL A   1      29.938  25.227  24.263  1.00  0.00    -0.330 N 
ATOM     11  C   UNL A   1      30.556  25.906  25.404  1.00  0.00     0.276 C 
ATOM     12  H   UNL A   1      29.202  24.628  24.638  1.00  0.00     0.348 HD
BRANCH   8  13
ATOM     13  C   UNL A   1      30.235  28.611  22.702  1.00  0.00     0.010 C 
BRANCH  13  14
ATOM     14  C   UNL A   1      30.042  29.798  23.707  1.00  0.00    -0.003 C 
ATOM     15  C   UNL A   1      28.806  30.678  23.512  1.00  0.00     0.004 C 
ENDBRANCH  13  14
ENDBRANCH   8  13
BRANCH  10  16
ATOM     16  C   UNL A   1      30.626  24.122  23.546  1.00  0.00     0.299 C 
BRANCH  16  17
ATOM     17  C   UNL A   1      32.064  23.678  23.866  1.00  0.00     0.014 A 
ATOM     18  C   UNL A   1      32.320  22.789  24.914  1.00  0.00     0.060 A 
ATOM     19  C   UNL A   1      33.177  23.970  23.083  1.00  0.00     0.060 A 
ATOM     20  C   UNL A   1      33.540  22.266  25.335  1.00  0.00     0.165 A 
ATOM     21  C   UNL A   1      34.402  23.376  23.423  1.00  0.00     0.170 A 
ATOM     22  C   UNL A   1      34.588  22.554  24.525  1.00  0.00     0.207 A 
ATOM     23  O   UNL A   1      35.552  23.497  22.696  1.00  0.00    -0.453 OA
ATOM     24  O   UNL A   1      35.859  22.089  24.627  1.00  0.00    -0.450 OA
ATOM     25  C   UNL A   1      36.406  22.560  23.384  1.00  0.00     0.468 C 
BRANCH  20  26
ATOM     26  O   UNL A   1      33.451  21.538  26.475  1.00  0.00    -0.493 OA
ATOM     27  C   UNL A   1      33.805  22.147  27.701  1.00  0.00     0.278 C 
ENDBRANCH  20  26
ENDBRANCH  16  17
ENDBRANCH  10  16
ENDBRANCH   4   7
ENDBRANCH   2   3
ENDBRANCH   1   2
BRANCH   1  28
ATOM     28  C   UNL A   1      31.706  31.910  26.897  1.00  0.00     0.023 C 
BRANCH  28  29
ATOM     29  C   UNL A   1      32.879  32.750  27.375  1.00  0.00     0.116 C 
BRANCH  29  30
ATOM     30  N   UNL A   1      32.513  34.136  27.663  1.00  0.00    -0.352 N 
ATOM     31  C   UNL A   1      33.018  34.976  28.635  1.00  0.00     0.251 C 
ATOM     32  H   UNL A   1      31.812  34.520  27.088  1.00  0.00     0.163 HD
ATOM     33  O   UNL A   1      32.524  36.073  28.841  1.00  0.00    -0.269 OA
BRANCH  31  34
ATOM     34  C   UNL A   1      34.155  34.503  29.453  1.00  0.00     0.039 A 
ATOM     35  C   UNL A   1      33.912  33.856  30.667  1.00  0.00     0.014 A 
ATOM     36  C   UNL A   1      35.458  34.644  28.976  1.00  0.00     0.014 A 
ATOM     37  C   UNL A   1      34.979  33.282  31.361  1.00  0.00     0.010 A 
ATOM     38  C   UNL A   1      36.490  33.963  29.593  1.00  0.00     0.010 A 
ATOM     39  C   UNL A   1      36.269  33.297  30.805  1.00  0.00    -0.014 A 
BRANCH  39  40
ATOM     40  C   UNL A   1      37.425  32.669  31.487  1.00  0.00     0.031 A 
ATOM     41  C   UNL A   1      38.137  31.525  30.816  1.00  0.00     0.074 A 
ATOM     42  C   UNL A   1      37.766  33.067  32.726  1.00  0.00     0.049 A 
ATOM     43  N   UNL A   1      39.091  30.758  31.275  1.00  0.00    -0.248 NA
ATOM     44  C   UNL A   1      37.675  31.158  29.465  1.00  0.00     0.031 C 
ATOM     45  C   UNL A   1      37.093  34.114  33.497  1.00  0.00     0.029 A 
ATOM     46  N   UNL A   1      38.760  32.628  33.564  1.00  0.00    -0.354 N 
ATOM     47  C   UNL A   1      39.320  29.813  30.284  1.00  0.00     0.074 A 
ATOM     48  C   UNL A   1      38.351  30.043  29.238  1.00  0.00     0.031 C 
ATOM     49  C   UNL A   1      37.713  34.261  34.678  1.00  0.00     0.029 A 
ATOM     50  C   UNL A   1      38.800  33.293  34.765  1.00  0.00     0.049 A 
ATOM     51  H   UNL A   1      39.385  31.907  33.326  1.00  0.00     0.167 HD
ATOM     52  C   UNL A   1      40.282  28.863  30.232  1.00  0.00     0.037 A 
ATOM     53  C   UNL A   1      39.626  33.129  35.816  1.00  0.00     0.037 A 
ATOM     54  C   UNL A   1      41.268  28.680  31.260  1.00  0.00     0.049 A 
ATOM     55  C   UNL A   1      40.704  32.083  35.724  1.00  0.00     0.074 A 
ATOM     56  C   UNL A   1      42.336  27.804  31.287  1.00  0.00     0.029 A 
ATOM     57  N   UNL A   1      41.306  29.400  32.447  1.00  0.00    -0.354 N 
ATOM     58  N   UNL A   1      40.965  31.247  34.747  1.00  0.00    -0.248 NA
ATOM     59  C   UNL A   1      41.607  31.961  36.875  1.00  0.00     0.031 C 
ATOM     60  C   UNL A   1      42.994  27.961  32.511  1.00  0.00     0.029 A 
ATOM     61  C   UNL A   1      42.368  28.972  33.225  1.00  0.00     0.049 A 
ATOM     62  H   UNL A   1      40.671  30.109  32.698  1.00  0.00     0.167 HD
ATOM     63  C   UNL A   1      42.069  30.514  35.154  1.00  0.00     0.074 A 
ATOM     64  C   UNL A   1      42.447  31.024  36.458  1.00  0.00     0.031 C 
ATOM     65  C   UNL A   1      42.714  29.504  34.518  1.00  0.00     0.037 A 
BRANCH  52  66
ATOM     66  C   UNL A   1      40.321  27.976  29.019  1.00  0.00     0.064 A 
ATOM     67  C   UNL A   1      39.635  26.752  28.978  1.00  0.00     0.173 A 
ATOM     68  C   UNL A   1      41.039  28.361  27.877  1.00  0.00     0.173 A 
ATOM     69  F   UNL A   1      38.945  26.327  30.048  1.00  0.00    -0.203 F 
ATOM     70  C   UNL A   1      39.695  25.931  27.854  1.00  0.00     0.198 A 
ATOM     71  C   UNL A   1      41.069  27.553  26.742  1.00  0.00     0.198 A 
ATOM     72  F   UNL A   1      41.714  29.520  27.860  1.00  0.00    -0.203 F 
ATOM     73  F   UNL A   1      39.082  24.739  27.865  1.00  0.00    -0.200 F 
ATOM     74  C   UNL A   1      40.405  26.336  26.735  1.00  0.00     0.200 A 
ATOM     75  F   UNL A   1      41.746  27.951  25.656  1.00  0.00    -0.200 F 
ATOM     76  F   UNL A   1      40.458  25.547  25.652  1.00  0.00    -0.200 F 
ENDBRANCH  52  66
BRANCH  53  77
ATOM     77  C   UNL A   1      39.483  33.989  37.021  1.00  0.00     0.064 A 
ATOM     78  C   UNL A   1      38.761  33.550  38.141  1.00  0.00     0.173 A 
ATOM     79  C   UNL A   1      40.062  35.265  37.084  1.00  0.00     0.173 A 
ATOM     80  F   UNL A   1      38.175  32.343  38.126  1.00  0.00    -0.203 F 
ATOM     81  C   UNL A   1      38.603  34.361  39.263  1.00  0.00     0.198 A 
ATOM     82  C   UNL A   1      39.931  36.063  38.219  1.00  0.00     0.198 A 
ATOM     83  F   UNL A   1      40.773  35.732  36.046  1.00  0.00    -0.203 F 
ATOM     84  F   UNL A   1      37.867  33.933  40.298  1.00  0.00    -0.200 F 
ATOM     85  C   UNL A   1      39.192  35.615  39.303  1.00  0.00     0.200 A 
ATOM     86  F   UNL A   1      40.519  37.266  38.262  1.00  0.00    -0.200 F 
ATOM     87  F   UNL A   1      39.045  36.393  40.385  1.00  0.00    -0.200 F 
ENDBRANCH  53  77
BRANCH  65  88
ATOM     88  C   UNL A   1      43.897  28.903  35.217  1.00  0.00     0.064 A 
ATOM     89  C   UNL A   1      45.192  29.406  35.028  1.00  0.00     0.173 A 
ATOM     90  C   UNL A   1      43.725  27.844  36.120  1.00  0.00     0.173 A 
ATOM     91  F   UNL A   1      45.407  30.409  34.163  1.00  0.00    -0.203 F 
ATOM     92  C   UNL A   1      46.278  28.849  35.696  1.00  0.00     0.198 A 
ATOM     93  C   UNL A   1      44.808  27.313  36.812  1.00  0.00     0.198 A 
ATOM     94  F   UNL A   1      42.504  27.335  36.343  1.00  0.00    -0.203 F 
ATOM     95  F   UNL A   1      47.514  29.310  35.461  1.00  0.00    -0.200 F 
ATOM     96  C   UNL A   1      46.084  27.810  36.594  1.00  0.00     0.200 A 
ATOM     97  F   UNL A   1      44.617  26.320  37.693  1.00  0.00    -0.200 F 
ATOM     98  F   UNL A   1      47.130  27.282  37.244  1.00  0.00    -0.200 F 
ENDBRANCH  65  88
ENDBRANCH  39  40
ENDBRANCH  31  34
ENDBRANCH  29  30
ENDBRANCH  28  29
ENDBRANCH   1  28
TORSDOF 16
ENDMDL
