MODEL 1
REMARK VINA RESULT:     -12.8      0.000      0.000
REMARK SMILES O=C(CCCc1nc(-c2ccc(Cl)c(Cl)c2)c(-c2ccccc2)o1)NCCCCNC(=O)c1ccc(-c2c3nc(c(-c4c(F)c(F)c(F)c(F)c4F)c4ccc([nH]4)c(-c4c(F)c(F)c(F)c(F)c4F)c4nc(c(-c5c(F)c(F)c(F)c(F)c5F)c5ccc2[nH]5)C=C4)C=C3)cc1
REMARK SMILES IDX 26 1 25 2 1 3 2 4 3 6 4 7 5 8 6 9 7 10 24 11 8 12 17 13 9 14
REMARK SMILES IDX 10 15 16 16 11 17 14 18 12 19 15 20 13 21 18 22 19 23 23 24
REMARK SMILES IDX 20 25 22 26 21 27 27 28 28 29 29 30 30 31 31 32 32 34 33 35
REMARK SMILES IDX 34 36 95 37 35 38 94 39 36 40 37 41 38 42 88 43 39 44 93 45
REMARK SMILES IDX 87 46 89 47 40 48 92 49 86 50 85 51 41 53 73 54 53 55 72 56
REMARK SMILES IDX 54 57 57 58 71 59 90 60 55 61 56 62 70 64 91 65 58 66 42 67
REMARK SMILES IDX 43 68 51 69 44 70 45 71 49 72 52 73 46 74 47 75 50 76 48 77
REMARK SMILES IDX 74 78 75 79 83 80 76 81 77 82 81 83 84 84 78 85 79 86 82 87
REMARK SMILES IDX 80 88 59 89 60 90 68 91 61 92 62 93 66 94 69 95 63 96 64 97
REMARK SMILES IDX 67 98 65 99
REMARK H PARENT 25 5 30 33 89 52 57 63
REMARK Flexibility Score: inf
ROOT
ATOM      1  C   UNL A   1      30.240  32.664  25.021  1.00  0.00     0.116 C 
ENDROOT
BRANCH   1   2
ATOM      2  N   UNL A   1      29.480  32.056  23.948  1.00  0.00    -0.356 N 
ATOM      3  O   UNL A   1      28.733  34.049  23.084  1.00  0.00    -0.275 OA
ATOM      4  C   UNL A   1      28.779  32.825  23.046  1.00  0.00     0.220 C 
ATOM      5  H   UNL A   1      29.464  31.075  23.862  1.00  0.00     0.163 HD
BRANCH   4   6
ATOM      6  C   UNL A   1      28.077  32.035  21.962  1.00  0.00     0.100 C 
BRANCH   6   7
ATOM      7  C   UNL A   1      28.238  30.523  22.142  1.00  0.00     0.020 C 
BRANCH   7   8
ATOM      8  C   UNL A   1      29.444  29.899  21.436  1.00  0.00     0.098 C 
BRANCH   8   9
ATOM      9  C   UNL A   1      30.126  28.881  22.275  1.00  0.00     0.195 A 
ATOM     10  N   UNL A   1      30.368  27.616  21.976  1.00  0.00    -0.213 NA
ATOM     11  O   UNL A   1      30.665  29.309  23.456  1.00  0.00    -0.440 OA
ATOM     12  C   UNL A   1      31.081  27.169  23.063  1.00  0.00     0.117 A 
ATOM     13  C   UNL A   1      31.308  28.205  23.947  1.00  0.00     0.162 A 
BRANCH  12  14
ATOM     14  C   UNL A   1      31.530  25.806  23.236  1.00  0.00     0.006 A 
ATOM     15  C   UNL A   1      30.601  24.768  23.357  1.00  0.00     0.012 A 
ATOM     16  C   UNL A   1      32.901  25.517  23.265  1.00  0.00     0.032 A 
ATOM     17  C   UNL A   1      31.041  23.447  23.484  1.00  0.00     0.023 A 
ATOM     18  C   UNL A   1      33.341  24.197  23.399  1.00  0.00     0.060 A 
ATOM     19  C   UNL A   1      32.410  23.158  23.504  1.00  0.00     0.059 A 
ATOM     20  Cl  UNL A   1      35.043  23.918  23.433  1.00  0.00    -0.083 Cl
ATOM     21  Cl  UNL A   1      32.883  21.504  23.659  1.00  0.00    -0.083 Cl
ENDBRANCH  12  14
BRANCH  13  22
ATOM     22  C   UNL A   1      32.070  28.372  25.169  1.00  0.00     0.020 A 
ATOM     23  C   UNL A   1      31.513  28.058  26.413  1.00  0.00     0.012 A 
ATOM     24  C   UNL A   1      33.400  28.814  25.109  1.00  0.00     0.012 A 
ATOM     25  C   UNL A   1      32.281  28.165  27.575  1.00  0.00     0.001 A 
ATOM     26  C   UNL A   1      34.164  28.930  26.272  1.00  0.00     0.001 A 
ATOM     27  C   UNL A   1      33.604  28.598  27.504  1.00  0.00     0.000 A 
ENDBRANCH  13  22
ENDBRANCH   8   9
ENDBRANCH   7   8
ENDBRANCH   6   7
ENDBRANCH   4   6
ENDBRANCH   1   2
BRANCH   1  28
ATOM     28  C   UNL A   1      30.995  31.642  25.868  1.00  0.00     0.023 C 
BRANCH  28  29
ATOM     29  C   UNL A   1      31.488  32.150  27.225  1.00  0.00     0.023 C 
BRANCH  29  30
ATOM     30  C   UNL A   1      32.731  33.031  27.188  1.00  0.00     0.116 C 
BRANCH  30  31
ATOM     31  N   UNL A   1      32.466  34.385  27.654  1.00  0.00    -0.352 N 
ATOM     32  C   UNL A   1      33.030  35.078  28.695  1.00  0.00     0.251 C 
ATOM     33  H   UNL A   1      31.778  34.875  27.147  1.00  0.00     0.163 HD
ATOM     34  O   UNL A   1      32.553  36.158  29.044  1.00  0.00    -0.269 OA
BRANCH  32  35
ATOM     35  C   UNL A   1      34.197  34.530  29.423  1.00  0.00     0.039 A 
ATOM     36  C   UNL A   1      33.989  33.905  30.657  1.00  0.00     0.014 A 
ATOM     37  C   UNL A   1      35.493  34.648  28.912  1.00  0.00     0.014 A 
ATOM     38  C   UNL A   1      35.068  33.343  31.344  1.00  0.00     0.010 A 
ATOM     39  C   UNL A   1      36.558  34.032  29.567  1.00  0.00     0.010 A 
ATOM     40  C   UNL A   1      36.357  33.372  30.789  1.00  0.00    -0.014 A 
BRANCH  40  41
ATOM     41  C   UNL A   1      37.502  32.713  31.469  1.00  0.00     0.031 A 
ATOM     42  C   UNL A   1      38.206  31.551  30.822  1.00  0.00     0.074 A 
ATOM     43  C   UNL A   1      37.870  33.117  32.700  1.00  0.00     0.049 A 
ATOM     44  N   UNL A   1      39.170  30.798  31.292  1.00  0.00    -0.248 NA
ATOM     45  C   UNL A   1      37.749  31.169  29.477  1.00  0.00     0.031 C 
ATOM     46  C   UNL A   1      37.239  34.196  33.461  1.00  0.00     0.029 A 
ATOM     47  N   UNL A   1      38.858  32.655  33.535  1.00  0.00    -0.354 N 
ATOM     48  C   UNL A   1      39.422  29.848  30.312  1.00  0.00     0.074 A 
ATOM     49  C   UNL A   1      38.479  30.089  29.240  1.00  0.00     0.031 C 
ATOM     50  C   UNL A   1      37.863  34.323  34.643  1.00  0.00     0.029 A 
ATOM     51  C   UNL A   1      38.916  33.316  34.737  1.00  0.00     0.049 A 
ATOM     52  H   UNL A   1      39.466  31.919  33.295  1.00  0.00     0.167 HD
ATOM     53  C   UNL A   1      40.365  28.876  30.298  1.00  0.00     0.037 A 
ATOM     54  C   UNL A   1      39.721  33.127  35.799  1.00  0.00     0.037 A 
ATOM     55  C   UNL A   1      41.317  28.649  31.354  1.00  0.00     0.049 A 
ATOM     56  C   UNL A   1      40.763  32.044  35.757  1.00  0.00     0.074 A 
ATOM     57  C   UNL A   1      42.346  27.723  31.405  1.00  0.00     0.029 A 
ATOM     58  N   UNL A   1      41.359  29.356  32.547  1.00  0.00    -0.354 N 
ATOM     59  N   UNL A   1      41.023  31.183  34.805  1.00  0.00    -0.248 NA
ATOM     60  C   UNL A   1      41.623  31.911  36.941  1.00  0.00     0.031 C 
ATOM     61  C   UNL A   1      42.982  27.842  32.646  1.00  0.00     0.029 A 
ATOM     62  C   UNL A   1      42.382  28.874  33.349  1.00  0.00     0.049 A 
ATOM     63  H   UNL A   1      40.750  30.091  32.788  1.00  0.00     0.167 HD
ATOM     64  C   UNL A   1      42.087  30.418  35.264  1.00  0.00     0.074 A 
ATOM     65  C   UNL A   1      42.433  30.928  36.575  1.00  0.00     0.031 C 
ATOM     66  C   UNL A   1      42.716  29.387  34.652  1.00  0.00     0.037 A 
BRANCH  53  67
ATOM     67  C   UNL A   1      40.417  27.979  29.095  1.00  0.00     0.064 A 
ATOM     68  C   UNL A   1      39.653  26.803  29.021  1.00  0.00     0.173 A 
ATOM     69  C   UNL A   1      41.208  28.317  27.985  1.00  0.00     0.173 A 
ATOM     70  F   UNL A   1      38.888  26.430  30.057  1.00  0.00    -0.203 F 
ATOM     71  C   UNL A   1      39.703  25.985  27.896  1.00  0.00     0.198 A 
ATOM     72  C   UNL A   1      41.231  27.512  26.850  1.00  0.00     0.198 A 
ATOM     73  F   UNL A   1      41.951  29.433  28.000  1.00  0.00    -0.203 F 
ATOM     74  F   UNL A   1      39.003  24.843  27.868  1.00  0.00    -0.200 F 
ATOM     75  C   UNL A   1      40.486  26.344  26.808  1.00  0.00     0.200 A 
ATOM     76  F   UNL A   1      41.979  27.866  25.794  1.00  0.00    -0.200 F 
ATOM     77  F   UNL A   1      40.528  25.558  25.723  1.00  0.00    -0.200 F 
ENDBRANCH  53  67
BRANCH  54  78
ATOM     78  C   UNL A   1      39.578  33.992  36.995  1.00  0.00     0.064 A 
ATOM     79  C   UNL A   1      38.802  33.589  38.089  1.00  0.00     0.173 A 
ATOM     80  C   UNL A   1      40.210  35.241  37.064  1.00  0.00     0.173 A 
ATOM     81  F   UNL A   1      38.147  32.419  38.049  1.00  0.00    -0.203 F 
ATOM     82  C   UNL A   1      38.658  34.407  39.207  1.00  0.00     0.198 A 
ATOM     83  C   UNL A   1      40.089  36.046  38.193  1.00  0.00     0.198 A 
ATOM     84  F   UNL A   1      40.939  35.677  36.026  1.00  0.00    -0.203 F 
ATOM     85  F   UNL A   1      37.873  34.020  40.222  1.00  0.00    -0.200 F 
ATOM     86  C   UNL A   1      39.309  35.631  39.262  1.00  0.00     0.200 A 
ATOM     87  F   UNL A   1      40.715  37.229  38.243  1.00  0.00    -0.200 F 
ATOM     88  F   UNL A   1      39.171  36.416  40.339  1.00  0.00    -0.200 F 
ENDBRANCH  54  78
BRANCH  66  89
ATOM     89  C   UNL A   1      43.863  28.753  35.383  1.00  0.00     0.064 A 
ATOM     90  C   UNL A   1      45.186  29.175  35.184  1.00  0.00     0.173 A 
ATOM     91  C   UNL A   1      43.633  27.733  36.319  1.00  0.00     0.173 A 
ATOM     92  F   UNL A   1      45.460  30.135  34.288  1.00  0.00    -0.203 F 
ATOM     93  C   UNL A   1      46.238  28.583  35.878  1.00  0.00     0.198 A 
ATOM     94  C   UNL A   1      44.683  27.162  37.031  1.00  0.00     0.198 A 
ATOM     95  F   UNL A   1      42.385  27.297  36.550  1.00  0.00    -0.203 F 
ATOM     96  F   UNL A   1      47.499  28.970  35.638  1.00  0.00    -0.200 F 
ATOM     97  C   UNL A   1      45.985  27.582  36.804  1.00  0.00     0.200 A 
ATOM     98  F   UNL A   1      44.436  26.203  37.935  1.00  0.00    -0.200 F 
ATOM     99  F   UNL A   1      46.999  27.017  37.476  1.00  0.00    -0.200 F 
ENDBRANCH  66  89
ENDBRANCH  40  41
ENDBRANCH  32  35
ENDBRANCH  30  31
ENDBRANCH  29  30
ENDBRANCH  28  29
ENDBRANCH   1  28
TORSDOF 16
ENDMDL
MODEL 2
REMARK VINA RESULT:     -12.5      4.709     10.812
REMARK SMILES O=C(CCCc1nc(-c2ccc(Cl)c(Cl)c2)c(-c2ccccc2)o1)NCCCCNC(=O)c1ccc(-c2c3nc(c(-c4c(F)c(F)c(F)c(F)c4F)c4ccc([nH]4)c(-c4c(F)c(F)c(F)c(F)c4F)c4nc(c(-c5c(F)c(F)c(F)c(F)c5F)c5ccc2[nH]5)C=C4)C=C3)cc1
REMARK SMILES IDX 26 1 25 2 1 3 2 4 3 6 4 7 5 8 6 9 7 10 24 11 8 12 17 13 9 14
REMARK SMILES IDX 10 15 16 16 11 17 14 18 12 19 15 20 13 21 18 22 19 23 23 24
REMARK SMILES IDX 20 25 22 26 21 27 27 28 28 29 29 30 30 31 31 32 32 34 33 35
REMARK SMILES IDX 34 36 95 37 35 38 94 39 36 40 37 41 38 42 88 43 39 44 93 45
REMARK SMILES IDX 87 46 89 47 40 48 92 49 86 50 85 51 41 53 73 54 53 55 72 56
REMARK SMILES IDX 54 57 57 58 71 59 90 60 55 61 56 62 70 64 91 65 58 66 42 67
REMARK SMILES IDX 43 68 51 69 44 70 45 71 49 72 52 73 46 74 47 75 50 76 48 77
REMARK SMILES IDX 74 78 75 79 83 80 76 81 77 82 81 83 84 84 78 85 79 86 82 87
REMARK SMILES IDX 80 88 59 89 60 90 68 91 61 92 62 93 66 94 69 95 63 96 64 97
REMARK SMILES IDX 67 98 65 99
REMARK H PARENT 25 5 30 33 89 52 57 63
REMARK Flexibility Score: inf
ROOT
ATOM      1  C   UNL A   1      32.911  35.914  29.086  1.00  0.00     0.116 C 
ENDROOT
BRANCH   1   2
ATOM      2  N   UNL A   1      33.662  36.416  30.219  1.00  0.00    -0.356 N 
ATOM      3  O   UNL A   1      31.861  36.453  31.645  1.00  0.00    -0.275 OA
ATOM      4  C   UNL A   1      33.054  36.642  31.434  1.00  0.00     0.220 C 
ATOM      5  H   UNL A   1      34.624  36.600  30.118  1.00  0.00     0.163 HD
BRANCH   4   6
ATOM      6  C   UNL A   1      33.990  37.123  32.522  1.00  0.00     0.100 C 
BRANCH   6   7
ATOM      7  C   UNL A   1      34.256  36.050  33.581  1.00  0.00     0.020 C 
BRANCH   7   8
ATOM      8  C   UNL A   1      34.424  34.625  33.049  1.00  0.00     0.098 C 
BRANCH   8   9
ATOM      9  C   UNL A   1      35.682  33.990  33.518  1.00  0.00     0.195 A 
ATOM     10  N   UNL A   1      36.196  32.833  33.137  1.00  0.00    -0.213 NA
ATOM     11  O   UNL A   1      36.465  34.719  34.370  1.00  0.00    -0.440 OA
ATOM     12  C   UNL A   1      37.386  32.779  33.824  1.00  0.00     0.117 A 
ATOM     13  C   UNL A   1      37.580  33.944  34.539  1.00  0.00     0.162 A 
BRANCH  12  14
ATOM     14  C   UNL A   1      38.297  31.658  33.785  1.00  0.00     0.006 A 
ATOM     15  C   UNL A   1      39.590  31.782  34.302  1.00  0.00     0.012 A 
ATOM     16  C   UNL A   1      37.881  30.434  33.244  1.00  0.00     0.032 A 
ATOM     17  C   UNL A   1      40.454  30.684  34.297  1.00  0.00     0.023 A 
ATOM     18  C   UNL A   1      38.747  29.337  33.233  1.00  0.00     0.060 A 
ATOM     19  C   UNL A   1      40.035  29.459  33.765  1.00  0.00     0.059 A 
ATOM     20  Cl  UNL A   1      38.168  27.864  32.545  1.00  0.00    -0.083 Cl
ATOM     21  Cl  UNL A   1      41.152  28.142  33.795  1.00  0.00    -0.083 Cl
ENDBRANCH  12  14
BRANCH  13  22
ATOM     22  C   UNL A   1      38.659  34.501  35.332  1.00  0.00     0.020 A 
ATOM     23  C   UNL A   1      39.636  35.314  34.749  1.00  0.00     0.012 A 
ATOM     24  C   UNL A   1      38.708  34.260  36.714  1.00  0.00     0.012 A 
ATOM     25  C   UNL A   1      40.633  35.893  35.539  1.00  0.00     0.001 A 
ATOM     26  C   UNL A   1      39.710  34.831  37.500  1.00  0.00     0.001 A 
ATOM     27  C   UNL A   1      40.668  35.653  36.911  1.00  0.00     0.000 A 
ENDBRANCH  13  22
ENDBRANCH   8   9
ENDBRANCH   7   8
ENDBRANCH   6   7
ENDBRANCH   4   6
ENDBRANCH   1   2
BRANCH   1  28
ATOM     28  C   UNL A   1      33.274  34.476  28.722  1.00  0.00     0.023 C 
BRANCH  28  29
ATOM     29  C   UNL A   1      34.642  33.999  29.214  1.00  0.00     0.023 C 
BRANCH  29  30
ATOM     30  C   UNL A   1      34.716  32.539  29.648  1.00  0.00     0.116 C 
BRANCH  30  31
ATOM     31  N   UNL A   1      34.078  31.643  28.694  1.00  0.00    -0.352 N 
ATOM     32  C   UNL A   1      34.606  30.584  28.001  1.00  0.00     0.251 C 
ATOM     33  H   UNL A   1      33.126  31.826  28.520  1.00  0.00     0.163 HD
ATOM     34  O   UNL A   1      33.952  30.048  27.107  1.00  0.00    -0.269 OA
BRANCH  32  35
ATOM     35  C   UNL A   1      35.969  30.089  28.301  1.00  0.00     0.039 A 
ATOM     36  C   UNL A   1      36.972  30.252  27.340  1.00  0.00     0.014 A 
ATOM     37  C   UNL A   1      36.260  29.447  29.508  1.00  0.00     0.014 A 
ATOM     38  C   UNL A   1      38.276  29.831  27.614  1.00  0.00     0.010 A 
ATOM     39  C   UNL A   1      37.573  29.086  29.806  1.00  0.00     0.010 A 
ATOM     40  C   UNL A   1      38.595  29.275  28.863  1.00  0.00    -0.014 A 
BRANCH  40  41
ATOM     41  C   UNL A   1      39.991  28.893  29.201  1.00  0.00     0.031 A 
ATOM     42  C   UNL A   1      40.872  29.833  29.979  1.00  0.00     0.074 A 
ATOM     43  C   UNL A   1      40.490  27.725  28.754  1.00  0.00     0.049 A 
ATOM     44  N   UNL A   1      42.136  29.712  30.299  1.00  0.00    -0.248 NA
ATOM     45  C   UNL A   1      40.255  31.089  30.434  1.00  0.00     0.031 C 
ATOM     46  C   UNL A   1      39.760  26.746  27.947  1.00  0.00     0.029 A 
ATOM     47  N   UNL A   1      41.737  27.170  28.902  1.00  0.00    -0.354 N 
ATOM     48  C   UNL A   1      42.469  30.877  30.977  1.00  0.00     0.074 A 
ATOM     49  C   UNL A   1      41.287  31.713  30.982  1.00  0.00     0.031 C 
ATOM     50  C   UNL A   1      40.566  25.705  27.684  1.00  0.00     0.029 A 
ATOM     51  C   UNL A   1      41.877  25.956  28.276  1.00  0.00     0.049 A 
ATOM     52  H   UNL A   1      42.462  27.602  29.409  1.00  0.00     0.167 HD
ATOM     53  C   UNL A   1      43.646  31.211  31.560  1.00  0.00     0.037 A 
ATOM     54  C   UNL A   1      42.944  25.142  28.181  1.00  0.00     0.037 A 
ATOM     55  C   UNL A   1      44.815  30.370  31.574  1.00  0.00     0.049 A 
ATOM     56  C   UNL A   1      44.238  25.532  28.839  1.00  0.00     0.074 A 
ATOM     57  C   UNL A   1      46.036  30.599  32.186  1.00  0.00     0.029 A 
ATOM     58  N   UNL A   1      44.909  29.136  30.947  1.00  0.00    -0.354 N 
ATOM     59  N   UNL A   1      44.526  26.614  29.519  1.00  0.00    -0.248 NA
ATOM     60  C   UNL A   1      45.354  24.583  28.716  1.00  0.00     0.031 C 
ATOM     61  C   UNL A   1      46.882  29.524  31.893  1.00  0.00     0.029 A 
ATOM     62  C   UNL A   1      46.174  28.602  31.141  1.00  0.00     0.049 A 
ATOM     63  H   UNL A   1      44.186  28.705  30.439  1.00  0.00     0.167 HD
ATOM     64  C   UNL A   1      45.847  26.471  29.920  1.00  0.00     0.074 A 
ATOM     65  C   UNL A   1      46.299  25.189  29.420  1.00  0.00     0.031 C 
ATOM     66  C   UNL A   1      46.614  27.327  30.637  1.00  0.00     0.037 A 
BRANCH  53  67
ATOM     67  C   UNL A   1      43.728  32.549  32.236  1.00  0.00     0.064 A 
ATOM     68  C   UNL A   1      43.931  33.730  31.505  1.00  0.00     0.173 A 
ATOM     69  C   UNL A   1      43.564  32.658  33.626  1.00  0.00     0.173 A 
ATOM     70  F   UNL A   1      44.103  33.681  30.176  1.00  0.00    -0.203 F 
ATOM     71  C   UNL A   1      43.996  34.966  32.144  1.00  0.00     0.198 A 
ATOM     72  C   UNL A   1      43.600  33.898  34.257  1.00  0.00     0.198 A 
ATOM     73  F   UNL A   1      43.361  31.562  34.371  1.00  0.00    -0.203 F 
ATOM     74  F   UNL A   1      44.239  36.074  31.431  1.00  0.00    -0.200 F 
ATOM     75  C   UNL A   1      43.823  35.049  33.518  1.00  0.00     0.200 A 
ATOM     76  F   UNL A   1      43.420  33.979  35.583  1.00  0.00    -0.200 F 
ATOM     77  F   UNL A   1      43.880  36.241  34.130  1.00  0.00    -0.200 F 
ENDBRANCH  53  67
BRANCH  54  78
ATOM     78  C   UNL A   1      42.832  23.864  27.435  1.00  0.00     0.064 A 
ATOM     79  C   UNL A   1      42.371  22.700  28.064  1.00  0.00     0.173 A 
ATOM     80  C   UNL A   1      43.189  23.782  26.083  1.00  0.00     0.173 A 
ATOM     81  F   UNL A   1      42.056  22.724  29.367  1.00  0.00    -0.203 F 
ATOM     82  C   UNL A   1      42.278  21.497  27.367  1.00  0.00     0.198 A 
ATOM     83  C   UNL A   1      43.069  22.587  25.379  1.00  0.00     0.198 A 
ATOM     84  F   UNL A   1      43.662  24.867  25.452  1.00  0.00    -0.203 F 
ATOM     85  F   UNL A   1      41.878  20.387  28.002  1.00  0.00    -0.200 F 
ATOM     86  C   UNL A   1      42.617  21.444  26.023  1.00  0.00     0.200 A 
ATOM     87  F   UNL A   1      43.402  22.535  24.083  1.00  0.00    -0.200 F 
ATOM     88  F   UNL A   1      42.525  20.287  25.353  1.00  0.00    -0.200 F 
ENDBRANCH  54  78
BRANCH  66  89
ATOM     89  C   UNL A   1      48.017  26.895  30.948  1.00  0.00     0.064 A 
ATOM     90  C   UNL A   1      49.100  27.277  30.142  1.00  0.00     0.173 A 
ATOM     91  C   UNL A   1      48.285  26.116  32.084  1.00  0.00     0.173 A 
ATOM     92  F   UNL A   1      48.893  28.007  29.036  1.00  0.00    -0.203 F 
ATOM     93  C   UNL A   1      50.397  26.875  30.450  1.00  0.00     0.198 A 
ATOM     94  C   UNL A   1      49.586  25.739  32.404  1.00  0.00     0.198 A 
ATOM     95  F   UNL A   1      47.285  25.729  32.889  1.00  0.00    -0.203 F 
ATOM     96  F   UNL A   1      51.411  27.212  29.641  1.00  0.00    -0.200 F 
ATOM     97  C   UNL A   1      50.639  26.113  31.583  1.00  0.00     0.200 A 
ATOM     98  F   UNL A   1      49.820  25.013  33.506  1.00  0.00    -0.200 F 
ATOM     99  F   UNL A   1      51.890  25.732  31.881  1.00  0.00    -0.200 F 
ENDBRANCH  66  89
ENDBRANCH  40  41
ENDBRANCH  32  35
ENDBRANCH  30  31
ENDBRANCH  29  30
ENDBRANCH  28  29
ENDBRANCH   1  28
TORSDOF 16
ENDMDL
MODEL 3
REMARK VINA RESULT:     -12.5      4.707     10.886
REMARK SMILES O=C(CCCc1nc(-c2ccc(Cl)c(Cl)c2)c(-c2ccccc2)o1)NCCCCNC(=O)c1ccc(-c2c3nc(c(-c4c(F)c(F)c(F)c(F)c4F)c4ccc([nH]4)c(-c4c(F)c(F)c(F)c(F)c4F)c4nc(c(-c5c(F)c(F)c(F)c(F)c5F)c5ccc2[nH]5)C=C4)C=C3)cc1
REMARK SMILES IDX 26 1 25 2 1 3 2 4 3 6 4 7 5 8 6 9 7 10 24 11 8 12 17 13 9 14
REMARK SMILES IDX 10 15 16 16 11 17 14 18 12 19 15 20 13 21 18 22 19 23 23 24
REMARK SMILES IDX 20 25 22 26 21 27 27 28 28 29 29 30 30 31 31 32 32 34 33 35
REMARK SMILES IDX 34 36 95 37 35 38 94 39 36 40 37 41 38 42 88 43 39 44 93 45
REMARK SMILES IDX 87 46 89 47 40 48 92 49 86 50 85 51 41 53 73 54 53 55 72 56
REMARK SMILES IDX 54 57 57 58 71 59 90 60 55 61 56 62 70 64 91 65 58 66 42 67
REMARK SMILES IDX 43 68 51 69 44 70 45 71 49 72 52 73 46 74 47 75 50 76 48 77
REMARK SMILES IDX 74 78 75 79 83 80 76 81 77 82 81 83 84 84 78 85 79 86 82 87
REMARK SMILES IDX 80 88 59 89 60 90 68 91 61 92 62 93 66 94 69 95 63 96 64 97
REMARK SMILES IDX 67 98 65 99
REMARK H PARENT 25 5 30 33 89 52 57 63
REMARK Flexibility Score: inf
ROOT
ATOM      1  C   UNL A   1      32.939  35.964  29.136  1.00  0.00     0.116 C 
ENDROOT
BRANCH   1   2
ATOM      2  N   UNL A   1      33.693  36.430  30.281  1.00  0.00    -0.356 N 
ATOM      3  O   UNL A   1      31.890  36.463  31.703  1.00  0.00    -0.275 OA
ATOM      4  C   UNL A   1      33.086  36.639  31.500  1.00  0.00     0.220 C 
ATOM      5  H   UNL A   1      34.658  36.602  30.187  1.00  0.00     0.163 HD
BRANCH   4   6
ATOM      6  C   UNL A   1      34.026  37.081  32.600  1.00  0.00     0.100 C 
BRANCH   6   7
ATOM      7  C   UNL A   1      34.335  35.958  33.593  1.00  0.00     0.020 C 
BRANCH   7   8
ATOM      8  C   UNL A   1      34.469  34.559  32.985  1.00  0.00     0.098 C 
BRANCH   8   9
ATOM      9  C   UNL A   1      35.577  33.782  33.596  1.00  0.00     0.195 A 
ATOM     10  N   UNL A   1      36.316  32.844  33.029  1.00  0.00    -0.213 NA
ATOM     11  O   UNL A   1      35.959  34.134  34.861  1.00  0.00    -0.440 OA
ATOM     12  C   UNL A   1      37.225  32.525  34.011  1.00  0.00     0.117 A 
ATOM     13  C   UNL A   1      37.045  33.339  35.112  1.00  0.00     0.162 A 
BRANCH  12  14
ATOM     14  C   UNL A   1      38.225  31.489  33.889  1.00  0.00     0.006 A 
ATOM     15  C   UNL A   1      39.528  31.711  34.342  1.00  0.00     0.012 A 
ATOM     16  C   UNL A   1      37.886  30.248  33.332  1.00  0.00     0.032 A 
ATOM     17  C   UNL A   1      40.481  30.692  34.258  1.00  0.00     0.023 A 
ATOM     18  C   UNL A   1      38.841  29.232  33.241  1.00  0.00     0.060 A 
ATOM     19  C   UNL A   1      40.140  29.451  33.710  1.00  0.00     0.059 A 
ATOM     20  Cl  UNL A   1      38.353  27.733  32.538  1.00  0.00    -0.083 Cl
ATOM     21  Cl  UNL A   1      41.366  28.236  33.640  1.00  0.00    -0.083 Cl
ENDBRANCH  12  14
BRANCH  13  22
ATOM     22  C   UNL A   1      37.744  33.550  36.365  1.00  0.00     0.020 A 
ATOM     23  C   UNL A   1      37.412  32.812  37.507  1.00  0.00     0.012 A 
ATOM     24  C   UNL A   1      38.796  34.475  36.432  1.00  0.00     0.012 A 
ATOM     25  C   UNL A   1      38.137  32.983  38.689  1.00  0.00     0.001 A 
ATOM     26  C   UNL A   1      39.513  34.652  37.617  1.00  0.00     0.001 A 
ATOM     27  C   UNL A   1      39.186  33.900  38.743  1.00  0.00     0.000 A 
ENDBRANCH  13  22
ENDBRANCH   8   9
ENDBRANCH   7   8
ENDBRANCH   6   7
ENDBRANCH   4   6
ENDBRANCH   1   2
BRANCH   1  28
ATOM     28  C   UNL A   1      33.277  34.527  28.745  1.00  0.00     0.023 C 
BRANCH  28  29
ATOM     29  C   UNL A   1      34.646  34.024  29.210  1.00  0.00     0.023 C 
BRANCH  29  30
ATOM     30  C   UNL A   1      34.702  32.562  29.638  1.00  0.00     0.116 C 
BRANCH  30  31
ATOM     31  N   UNL A   1      34.080  31.675  28.665  1.00  0.00    -0.352 N 
ATOM     32  C   UNL A   1      34.622  30.628  27.964  1.00  0.00     0.251 C 
ATOM     33  H   UNL A   1      33.129  31.855  28.482  1.00  0.00     0.163 HD
ATOM     34  O   UNL A   1      33.982  30.100  27.055  1.00  0.00    -0.269 OA
BRANCH  32  35
ATOM     35  C   UNL A   1      35.985  30.137  28.273  1.00  0.00     0.039 A 
ATOM     36  C   UNL A   1      36.988  30.282  27.310  1.00  0.00     0.014 A 
ATOM     37  C   UNL A   1      36.273  29.516  29.492  1.00  0.00     0.014 A 
ATOM     38  C   UNL A   1      38.291  29.864  27.592  1.00  0.00     0.010 A 
ATOM     39  C   UNL A   1      37.586  29.158  29.796  1.00  0.00     0.010 A 
ATOM     40  C   UNL A   1      38.609  29.330  28.851  1.00  0.00    -0.014 A 
BRANCH  40  41
ATOM     41  C   UNL A   1      40.004  28.952  29.196  1.00  0.00     0.031 A 
ATOM     42  C   UNL A   1      40.878  29.894  29.979  1.00  0.00     0.074 A 
ATOM     43  C   UNL A   1      40.509  27.786  28.751  1.00  0.00     0.049 A 
ATOM     44  N   UNL A   1      42.140  29.777  30.306  1.00  0.00    -0.248 NA
ATOM     45  C   UNL A   1      40.255  31.147  30.432  1.00  0.00     0.031 C 
ATOM     46  C   UNL A   1      39.787  26.805  27.939  1.00  0.00     0.029 A 
ATOM     47  N   UNL A   1      41.758  27.235  28.905  1.00  0.00    -0.354 N 
ATOM     48  C   UNL A   1      42.466  30.942  30.987  1.00  0.00     0.074 A 
ATOM     49  C   UNL A   1      41.282  31.775  30.986  1.00  0.00     0.031 C 
ATOM     50  C   UNL A   1      40.598  25.766  27.680  1.00  0.00     0.029 A 
ATOM     51  C   UNL A   1      41.905  26.021  28.279  1.00  0.00     0.049 A 
ATOM     52  H   UNL A   1      42.479  27.668  29.416  1.00  0.00     0.167 HD
ATOM     53  C   UNL A   1      43.638  31.280  31.577  1.00  0.00     0.037 A 
ATOM     54  C   UNL A   1      42.975  25.211  28.189  1.00  0.00     0.037 A 
ATOM     55  C   UNL A   1      44.810  30.442  31.596  1.00  0.00     0.049 A 
ATOM     56  C   UNL A   1      44.264  25.605  28.855  1.00  0.00     0.074 A 
ATOM     57  C   UNL A   1      46.027  30.675  32.216  1.00  0.00     0.029 A 
ATOM     58  N   UNL A   1      44.912  29.209  30.969  1.00  0.00    -0.354 N 
ATOM     59  N   UNL A   1      44.545  26.687  29.537  1.00  0.00    -0.248 NA
ATOM     60  C   UNL A   1      45.383  24.660  28.737  1.00  0.00     0.031 C 
ATOM     61  C   UNL A   1      46.878  29.603  31.927  1.00  0.00     0.029 A 
ATOM     62  C   UNL A   1      46.178  28.679  31.169  1.00  0.00     0.049 A 
ATOM     63  H   UNL A   1      44.193  28.776  30.457  1.00  0.00     0.167 HD
ATOM     64  C   UNL A   1      45.864  26.548  29.945  1.00  0.00     0.074 A 
ATOM     65  C   UNL A   1      46.323  25.268  29.447  1.00  0.00     0.031 C 
ATOM     66  C   UNL A   1      46.624  27.406  30.667  1.00  0.00     0.037 A 
BRANCH  53  67
ATOM     67  C   UNL A   1      43.713  32.617  32.254  1.00  0.00     0.064 A 
ATOM     68  C   UNL A   1      43.903  33.801  31.524  1.00  0.00     0.173 A 
ATOM     69  C   UNL A   1      43.553  32.723  33.645  1.00  0.00     0.173 A 
ATOM     70  F   UNL A   1      44.071  33.755  30.194  1.00  0.00    -0.203 F 
ATOM     71  C   UNL A   1      43.961  35.036  32.165  1.00  0.00     0.198 A 
ATOM     72  C   UNL A   1      43.581  33.963  34.277  1.00  0.00     0.198 A 
ATOM     73  F   UNL A   1      43.361  31.624  34.389  1.00  0.00    -0.203 F 
ATOM     74  F   UNL A   1      44.193  36.148  31.452  1.00  0.00    -0.200 F 
ATOM     75  C   UNL A   1      43.793  35.117  33.539  1.00  0.00     0.200 A 
ATOM     76  F   UNL A   1      43.406  34.041  35.605  1.00  0.00    -0.200 F 
ATOM     77  F   UNL A   1      43.843  36.308  34.152  1.00  0.00    -0.200 F 
ENDBRANCH  53  67
BRANCH  54  78
ATOM     78  C   UNL A   1      42.871  23.933  27.442  1.00  0.00     0.064 A 
ATOM     79  C   UNL A   1      43.159  23.873  26.072  1.00  0.00     0.173 A 
ATOM     80  C   UNL A   1      42.476  22.751  28.082  1.00  0.00     0.173 A 
ATOM     81  F   UNL A   1      43.503  24.988  25.411  1.00  0.00    -0.203 F 
ATOM     82  C   UNL A   1      43.049  22.676  25.368  1.00  0.00     0.198 A 
ATOM     83  C   UNL A   1      42.393  21.550  27.385  1.00  0.00     0.198 A 
ATOM     84  F   UNL A   1      42.163  22.773  29.386  1.00  0.00    -0.203 F 
ATOM     85  F   UNL A   1      43.285  22.652  24.050  1.00  0.00    -0.200 F 
ATOM     86  C   UNL A   1      42.675  21.513  26.027  1.00  0.00     0.200 A 
ATOM     87  F   UNL A   1      42.027  20.429  28.020  1.00  0.00    -0.200 F 
ATOM     88  F   UNL A   1      42.572  20.362  25.349  1.00  0.00    -0.200 F 
ENDBRANCH  54  78
BRANCH  66  89
ATOM     89  C   UNL A   1      48.027  26.978  30.985  1.00  0.00     0.064 A 
ATOM     90  C   UNL A   1      48.319  26.187  32.106  1.00  0.00     0.173 A 
ATOM     91  C   UNL A   1      49.087  27.336  30.139  1.00  0.00     0.173 A 
ATOM     92  F   UNL A   1      47.342  25.833  32.954  1.00  0.00    -0.203 F 
ATOM     93  C   UNL A   1      49.625  25.792  32.381  1.00  0.00     0.198 A 
ATOM     94  C   UNL A   1      50.388  26.916  30.401  1.00  0.00     0.198 A 
ATOM     95  F   UNL A   1      48.860  28.087  29.050  1.00  0.00    -0.203 F 
ATOM     96  F   UNL A   1      49.889  25.075  33.483  1.00  0.00    -0.200 F 
ATOM     97  C   UNL A   1      50.656  26.150  31.526  1.00  0.00     0.200 A 
ATOM     98  F   UNL A   1      51.382  27.253  29.567  1.00  0.00    -0.200 F 
ATOM     99  F   UNL A   1      51.913  25.763  31.789  1.00  0.00    -0.200 F 
ENDBRANCH  66  89
ENDBRANCH  40  41
ENDBRANCH  32  35
ENDBRANCH  30  31
ENDBRANCH  29  30
ENDBRANCH  28  29
ENDBRANCH   1  28
TORSDOF 16
ENDMDL
