MODEL 1
REMARK VINA RESULT:     -13.1      0.000      0.000
REMARK SMILES O=C(NCCCCNC(=O)[C@H]1CCCN(C(=O)c2cccc3[nH]ccc23)C1)c1ccc(-c2c3nc(c(-c4c(F)c(F)c(F)c(F)c4F)c4ccc([nH]4)c(-c4c(F)c(F)c(F)c(F)c4F)c4nc(c(-c5c(F)c(F)c(F)c(F)c5F)c5ccc2[nH]5)C=C4)C=C3)cc1
REMARK SMILES IDX 5 1 4 2 3 3 1 4 2 5 28 7 29 8 90 9 30 10 89 11 31 12 32 13
REMARK SMILES IDX 33 14 83 15 34 16 88 17 82 18 84 19 35 20 87 21 81 22 80 23
REMARK SMILES IDX 36 25 68 26 48 27 67 28 49 29 52 30 66 31 85 32 50 33 51 34
REMARK SMILES IDX 65 36 86 37 53 38 37 39 38 40 46 41 39 42 40 43 44 44 47 45
REMARK SMILES IDX 41 46 42 47 45 48 43 49 69 50 70 51 78 52 71 53 72 54 76 55
REMARK SMILES IDX 79 56 73 57 74 58 77 59 75 60 54 61 55 62 63 63 56 64 57 65
REMARK SMILES IDX 61 66 64 67 58 68 59 69 62 70 60 71 6 72 7 73 8 74 9 75
REMARK SMILES IDX 10 77 11 78 12 79 27 80 13 81 15 82 14 83 16 84 17 85 18 86
REMARK SMILES IDX 19 87 26 88 20 89 22 90 25 91 21 92 23 93 24 94
REMARK H PARENT 3 6 84 24 52 35 8 76 23 95
REMARK Flexibility Score: inf
ROOT
ATOM      1  C   UNL A   1      37.885  19.766  24.995  1.00  0.00     0.023 C 
ENDROOT
BRANCH   1   2
ATOM      2  C   UNL A   1      39.100  20.224  25.783  1.00  0.00     0.116 C 
BRANCH   2   3
ATOM      3  N   UNL A   1      40.131  19.203  25.884  1.00  0.00    -0.352 N 
ATOM      4  O   UNL A   1      42.255  18.445  26.056  1.00  0.00    -0.269 OA
ATOM      5  C   UNL A   1      41.474  19.382  26.114  1.00  0.00     0.251 C 
ATOM      6  H   UNL A   1      39.831  18.272  25.774  1.00  0.00     0.163 HD
BRANCH   5   7
ATOM      7  C   UNL A   1      41.959  20.746  26.410  1.00  0.00     0.039 A 
ATOM      8  C   UNL A   1      42.182  21.650  25.369  1.00  0.00     0.014 A 
ATOM      9  C   UNL A   1      42.212  21.103  27.735  1.00  0.00     0.014 A 
ATOM     10  C   UNL A   1      42.756  22.883  25.643  1.00  0.00     0.010 A 
ATOM     11  C   UNL A   1      42.718  22.372  28.018  1.00  0.00     0.010 A 
ATOM     12  C   UNL A   1      43.000  23.266  26.972  1.00  0.00    -0.014 A 
BRANCH  12  13
ATOM     13  C   UNL A   1      43.420  24.658  27.252  1.00  0.00     0.031 A 
ATOM     14  C   UNL A   1      42.463  25.668  27.806  1.00  0.00     0.074 A 
ATOM     15  C   UNL A   1      44.697  24.990  26.983  1.00  0.00     0.049 A 
ATOM     16  N   UNL A   1      42.672  26.931  28.077  1.00  0.00    -0.248 NA
ATOM     17  C   UNL A   1      41.093  25.213  28.088  1.00  0.00     0.031 C 
ATOM     18  C   UNL A   1      45.700  24.081  26.419  1.00  0.00     0.029 A 
ATOM     19  N   UNL A   1      45.373  26.169  27.144  1.00  0.00    -0.354 N 
ATOM     20  C   UNL A   1      41.461  27.427  28.541  1.00  0.00     0.074 A 
ATOM     21  C   UNL A   1      40.514  26.332  28.506  1.00  0.00     0.031 C 
ATOM     22  C   UNL A   1      46.867  24.727  26.305  1.00  0.00     0.029 A 
ATOM     23  C   UNL A   1      46.680  26.109  26.724  1.00  0.00     0.049 A 
ATOM     24  H   UNL A   1      44.964  26.980  27.523  1.00  0.00     0.167 HD
ATOM     25  C   UNL A   1      41.179  28.684  28.956  1.00  0.00     0.037 A 
ATOM     26  C   UNL A   1      47.616  27.073  26.651  1.00  0.00     0.037 A 
ATOM     27  C   UNL A   1      42.143  29.755  29.010  1.00  0.00     0.049 A 
ATOM     28  C   UNL A   1      47.260  28.459  27.100  1.00  0.00     0.074 A 
ATOM     29  C   UNL A   1      41.976  31.040  29.496  1.00  0.00     0.029 A 
ATOM     30  N   UNL A   1      43.449  29.668  28.552  1.00  0.00    -0.354 N 
ATOM     31  N   UNL A   1      46.129  28.899  27.594  1.00  0.00    -0.248 NA
ATOM     32  C   UNL A   1      48.303  29.482  26.972  1.00  0.00     0.031 C 
ATOM     33  C   UNL A   1      43.165  31.746  29.285  1.00  0.00     0.029 A 
ATOM     34  C   UNL A   1      44.087  30.888  28.707  1.00  0.00     0.049 A 
ATOM     35  H   UNL A   1      43.862  28.858  28.174  1.00  0.00     0.167 HD
ATOM     36  C   UNL A   1      46.322  30.249  27.838  1.00  0.00     0.074 A 
ATOM     37  C   UNL A   1      47.692  30.549  27.468  1.00  0.00     0.031 C 
ATOM     38  C   UNL A   1      45.445  31.164  28.316  1.00  0.00     0.037 A 
BRANCH  25  39
ATOM     39  C   UNL A   1      39.774  28.996  29.377  1.00  0.00     0.064 A 
ATOM     40  C   UNL A   1      38.808  29.430  28.459  1.00  0.00     0.173 A 
ATOM     41  C   UNL A   1      39.365  28.758  30.699  1.00  0.00     0.173 A 
ATOM     42  F   UNL A   1      39.150  29.679  27.186  1.00  0.00    -0.203 F 
ATOM     43  C   UNL A   1      37.484  29.616  28.848  1.00  0.00     0.198 A 
ATOM     44  C   UNL A   1      38.037  28.926  31.081  1.00  0.00     0.198 A 
ATOM     45  F   UNL A   1      40.251  28.336  31.614  1.00  0.00    -0.203 F 
ATOM     46  F   UNL A   1      36.578  30.045  27.958  1.00  0.00    -0.200 F 
ATOM     47  C   UNL A   1      37.097  29.354  30.155  1.00  0.00     0.200 A 
ATOM     48  F   UNL A   1      37.663  28.660  32.339  1.00  0.00    -0.200 F 
ATOM     49  F   UNL A   1      35.818  29.513  30.522  1.00  0.00    -0.200 F 
ENDBRANCH  25  39
BRANCH  26  50
ATOM     50  C   UNL A   1      48.955  26.760  26.095  1.00  0.00     0.064 A 
ATOM     51  C   UNL A   1      49.260  27.010  24.752  1.00  0.00     0.173 A 
ATOM     52  C   UNL A   1      49.962  26.206  26.902  1.00  0.00     0.173 A 
ATOM     53  F   UNL A   1      48.325  27.522  23.937  1.00  0.00    -0.203 F 
ATOM     54  C   UNL A   1      50.514  26.702  24.231  1.00  0.00     0.198 A 
ATOM     55  C   UNL A   1      51.225  25.928  26.388  1.00  0.00     0.198 A 
ATOM     56  F   UNL A   1      49.722  25.954  28.197  1.00  0.00    -0.203 F 
ATOM     57  F   UNL A   1      50.766  26.909  22.931  1.00  0.00    -0.200 F 
ATOM     58  C   UNL A   1      51.498  26.167  25.050  1.00  0.00     0.200 A 
ATOM     59  F   UNL A   1      52.177  25.429  27.188  1.00  0.00    -0.200 F 
ATOM     60  F   UNL A   1      52.705  25.875  24.548  1.00  0.00    -0.200 F 
ENDBRANCH  26  50
BRANCH  38  61
ATOM     61  C   UNL A   1      45.943  32.571  28.454  1.00  0.00     0.064 A 
ATOM     62  C   UNL A   1      46.587  33.000  29.624  1.00  0.00     0.173 A 
ATOM     63  C   UNL A   1      45.794  33.488  27.406  1.00  0.00     0.173 A 
ATOM     64  F   UNL A   1      46.733  32.161  30.661  1.00  0.00    -0.203 F 
ATOM     65  C   UNL A   1      47.045  34.308  29.747  1.00  0.00     0.198 A 
ATOM     66  C   UNL A   1      46.277  34.789  27.522  1.00  0.00     0.198 A 
ATOM     67  F   UNL A   1      45.187  33.124  26.268  1.00  0.00    -0.203 F 
ATOM     68  F   UNL A   1      47.614  34.711  30.892  1.00  0.00    -0.200 F 
ATOM     69  C   UNL A   1      46.896  35.199  28.694  1.00  0.00     0.200 A 
ATOM     70  F   UNL A   1      46.142  35.646  26.501  1.00  0.00    -0.200 F 
ATOM     71  F   UNL A   1      47.339  36.457  28.814  1.00  0.00    -0.200 F 
ENDBRANCH  38  61
ENDBRANCH  12  13
ENDBRANCH   5   7
ENDBRANCH   2   3
ENDBRANCH   1   2
BRANCH   1  72
ATOM     72  C   UNL A   1      36.920  20.885  24.611  1.00  0.00     0.023 C 
BRANCH  72  73
ATOM     73  C   UNL A   1      35.927  21.266  25.709  1.00  0.00     0.116 C 
BRANCH  73  74
ATOM     74  N   UNL A   1      34.705  20.488  25.612  1.00  0.00    -0.356 N 
ATOM     75  C   UNL A   1      33.430  20.860  25.310  1.00  0.00     0.224 C 
ATOM     76  H   UNL A   1      34.818  19.527  25.794  1.00  0.00     0.163 HD
ATOM     77  O   UNL A   1      32.554  19.997  25.394  1.00  0.00    -0.275 OA
BRANCH  75  78
ATOM     78  C   UNL A   1      33.089  22.272  24.855  1.00  0.00     0.098 C 
ATOM     79  C   UNL A   1      33.206  22.457  23.332  1.00  0.00     0.017 C 
ATOM     80  C   UNL A   1      31.755  22.705  25.477  1.00  0.00     0.133 C 
ATOM     81  C   UNL A   1      32.533  23.726  22.818  1.00  0.00     0.022 C 
ATOM     82  N   UNL A   1      31.226  23.916  24.860  1.00  0.00    -0.338 N 
ATOM     83  C   UNL A   1      31.138  23.882  23.403  1.00  0.00     0.120 C 
BRANCH  82  84
ATOM     84  C   UNL A   1      30.971  25.023  25.665  1.00  0.00     0.254 C 
ATOM     85  O   UNL A   1      30.070  25.068  26.499  1.00  0.00    -0.269 OA
BRANCH  84  86
ATOM     86  C   UNL A   1      31.831  26.209  25.522  1.00  0.00     0.049 A 
ATOM     87  C   UNL A   1      33.090  26.246  26.142  1.00  0.00     0.014 A 
ATOM     88  C   UNL A   1      31.393  27.299  24.742  1.00  0.00     0.012 A 
ATOM     89  C   UNL A   1      33.890  27.379  26.033  1.00  0.00     0.003 A 
ATOM     90  C   UNL A   1      32.225  28.417  24.649  1.00  0.00     0.046 A 
ATOM     91  C   UNL A   1      30.230  27.582  23.968  1.00  0.00     0.029 A 
ATOM     92  C   UNL A   1      33.470  28.489  25.290  1.00  0.00     0.027 A 
ATOM     93  N   UNL A   1      31.584  29.334  23.845  1.00  0.00    -0.361 N 
ATOM     94  C   UNL A   1      30.379  28.837  23.427  1.00  0.00     0.083 A 
ATOM     95  H   UNL A   1      31.942  30.219  23.605  1.00  0.00     0.166 HD
ENDBRANCH  84  86
ENDBRANCH  82  84
ENDBRANCH  75  78
ENDBRANCH  73  74
ENDBRANCH  72  73
ENDBRANCH   1  72
TORSDOF 13
ENDMDL
MODEL 2
REMARK VINA RESULT:     -13.1      0.109      1.125
REMARK SMILES O=C(NCCCCNC(=O)[C@H]1CCCN(C(=O)c2cccc3[nH]ccc23)C1)c1ccc(-c2c3nc(c(-c4c(F)c(F)c(F)c(F)c4F)c4ccc([nH]4)c(-c4c(F)c(F)c(F)c(F)c4F)c4nc(c(-c5c(F)c(F)c(F)c(F)c5F)c5ccc2[nH]5)C=C4)C=C3)cc1
REMARK SMILES IDX 5 1 4 2 3 3 1 4 2 5 28 7 29 8 90 9 30 10 89 11 31 12 32 13
REMARK SMILES IDX 33 14 83 15 34 16 88 17 82 18 84 19 35 20 87 21 81 22 80 23
REMARK SMILES IDX 36 25 68 26 48 27 67 28 49 29 52 30 66 31 85 32 50 33 51 34
REMARK SMILES IDX 65 36 86 37 53 38 37 39 38 40 46 41 39 42 40 43 44 44 47 45
REMARK SMILES IDX 41 46 42 47 45 48 43 49 69 50 70 51 78 52 71 53 72 54 76 55
REMARK SMILES IDX 79 56 73 57 74 58 77 59 75 60 54 61 55 62 63 63 56 64 57 65
REMARK SMILES IDX 61 66 64 67 58 68 59 69 62 70 60 71 6 72 7 73 8 74 9 75
REMARK SMILES IDX 10 77 11 78 12 79 27 80 13 81 15 82 14 83 16 84 17 85 18 86
REMARK SMILES IDX 19 87 26 88 20 89 22 90 25 91 21 92 23 93 24 94
REMARK H PARENT 3 6 84 24 52 35 8 76 23 95
REMARK Flexibility Score: inf
ROOT
ATOM      1  C   UNL A   1      37.993  19.880  25.002  1.00  0.00     0.023 C 
ENDROOT
BRANCH   1   2
ATOM      2  C   UNL A   1      39.116  20.199  25.974  1.00  0.00     0.116 C 
BRANCH   2   3
ATOM      3  N   UNL A   1      40.165  19.192  25.982  1.00  0.00    -0.352 N 
ATOM      4  O   UNL A   1      42.306  18.464  25.993  1.00  0.00    -0.269 OA
ATOM      5  C   UNL A   1      41.519  19.387  26.125  1.00  0.00     0.251 C 
ATOM      6  H   UNL A   1      39.871  18.259  25.872  1.00  0.00     0.163 HD
BRANCH   5   7
ATOM      7  C   UNL A   1      42.003  20.751  26.417  1.00  0.00     0.039 A 
ATOM      8  C   UNL A   1      42.208  21.660  25.377  1.00  0.00     0.014 A 
ATOM      9  C   UNL A   1      42.275  21.105  27.740  1.00  0.00     0.014 A 
ATOM     10  C   UNL A   1      42.782  22.893  25.646  1.00  0.00     0.010 A 
ATOM     11  C   UNL A   1      42.781  22.375  28.019  1.00  0.00     0.010 A 
ATOM     12  C   UNL A   1      43.045  23.273  26.972  1.00  0.00    -0.014 A 
BRANCH  12  13
ATOM     13  C   UNL A   1      43.464  24.665  27.250  1.00  0.00     0.031 A 
ATOM     14  C   UNL A   1      42.507  25.676  27.804  1.00  0.00     0.074 A 
ATOM     15  C   UNL A   1      44.741  24.998  26.978  1.00  0.00     0.049 A 
ATOM     16  N   UNL A   1      42.716  26.939  28.073  1.00  0.00    -0.248 NA
ATOM     17  C   UNL A   1      41.138  25.220  28.088  1.00  0.00     0.031 C 
ATOM     18  C   UNL A   1      45.743  24.088  26.415  1.00  0.00     0.029 A 
ATOM     19  N   UNL A   1      45.417  26.177  27.138  1.00  0.00    -0.354 N 
ATOM     20  C   UNL A   1      41.506  27.435  28.538  1.00  0.00     0.074 A 
ATOM     21  C   UNL A   1      40.559  26.340  28.505  1.00  0.00     0.031 C 
ATOM     22  C   UNL A   1      46.910  24.735  26.298  1.00  0.00     0.029 A 
ATOM     23  C   UNL A   1      46.723  26.118  26.717  1.00  0.00     0.049 A 
ATOM     24  H   UNL A   1      45.007  26.989  27.516  1.00  0.00     0.167 HD
ATOM     25  C   UNL A   1      41.223  28.693  28.952  1.00  0.00     0.037 A 
ATOM     26  C   UNL A   1      47.658  27.082  26.641  1.00  0.00     0.037 A 
ATOM     27  C   UNL A   1      42.186  29.764  29.004  1.00  0.00     0.049 A 
ATOM     28  C   UNL A   1      47.302  28.468  27.089  1.00  0.00     0.074 A 
ATOM     29  C   UNL A   1      42.020  31.050  29.489  1.00  0.00     0.029 A 
ATOM     30  N   UNL A   1      43.493  29.676  28.544  1.00  0.00    -0.354 N 
ATOM     31  N   UNL A   1      46.171  28.909  27.584  1.00  0.00    -0.248 NA
ATOM     32  C   UNL A   1      48.345  29.492  26.959  1.00  0.00     0.031 C 
ATOM     33  C   UNL A   1      43.208  31.755  29.275  1.00  0.00     0.029 A 
ATOM     34  C   UNL A   1      44.130  30.897  28.698  1.00  0.00     0.049 A 
ATOM     35  H   UNL A   1      43.905  28.866  28.166  1.00  0.00     0.167 HD
ATOM     36  C   UNL A   1      46.365  30.259  27.826  1.00  0.00     0.074 A 
ATOM     37  C   UNL A   1      47.733  30.559  27.454  1.00  0.00     0.031 C 
ATOM     38  C   UNL A   1      45.487  31.174  28.304  1.00  0.00     0.037 A 
BRANCH  25  39
ATOM     39  C   UNL A   1      39.818  29.004  29.375  1.00  0.00     0.064 A 
ATOM     40  C   UNL A   1      38.851  29.437  28.457  1.00  0.00     0.173 A 
ATOM     41  C   UNL A   1      39.411  28.767  30.697  1.00  0.00     0.173 A 
ATOM     42  F   UNL A   1      39.192  29.685  27.184  1.00  0.00    -0.203 F 
ATOM     43  C   UNL A   1      37.527  29.622  28.848  1.00  0.00     0.198 A 
ATOM     44  C   UNL A   1      38.083  28.935  31.080  1.00  0.00     0.198 A 
ATOM     45  F   UNL A   1      40.299  28.347  31.612  1.00  0.00    -0.203 F 
ATOM     46  F   UNL A   1      36.620  30.050  27.958  1.00  0.00    -0.200 F 
ATOM     47  C   UNL A   1      37.142  29.362  30.156  1.00  0.00     0.200 A 
ATOM     48  F   UNL A   1      37.712  28.670  32.340  1.00  0.00    -0.200 F 
ATOM     49  F   UNL A   1      35.863  29.521  30.524  1.00  0.00    -0.200 F 
ENDBRANCH  25  39
BRANCH  26  50
ATOM     50  C   UNL A   1      48.997  26.769  26.084  1.00  0.00     0.064 A 
ATOM     51  C   UNL A   1      50.004  26.216  26.885  1.00  0.00     0.173 A 
ATOM     52  C   UNL A   1      49.295  27.012  24.734  1.00  0.00     0.173 A 
ATOM     53  F   UNL A   1      49.772  25.982  28.186  1.00  0.00    -0.203 F 
ATOM     54  C   UNL A   1      51.265  25.936  26.363  1.00  0.00     0.198 A 
ATOM     55  C   UNL A   1      50.545  26.703  24.205  1.00  0.00     0.198 A 
ATOM     56  F   UNL A   1      48.362  27.534  23.925  1.00  0.00    -0.203 F 
ATOM     57  F   UNL A   1      52.225  25.451  27.161  1.00  0.00    -0.200 F 
ATOM     58  C   UNL A   1      51.533  26.175  25.023  1.00  0.00     0.200 A 
ATOM     59  F   UNL A   1      50.792  26.918  22.907  1.00  0.00    -0.200 F 
ATOM     60  F   UNL A   1      52.744  25.901  24.520  1.00  0.00    -0.200 F 
ENDBRANCH  26  50
BRANCH  38  61
ATOM     61  C   UNL A   1      45.985  32.581  28.441  1.00  0.00     0.064 A 
ATOM     62  C   UNL A   1      46.630  33.012  29.610  1.00  0.00     0.173 A 
ATOM     63  C   UNL A   1      45.835  33.497  27.391  1.00  0.00     0.173 A 
ATOM     64  F   UNL A   1      46.776  32.174  30.647  1.00  0.00    -0.203 F 
ATOM     65  C   UNL A   1      47.086  34.320  29.731  1.00  0.00     0.198 A 
ATOM     66  C   UNL A   1      46.318  34.797  27.506  1.00  0.00     0.198 A 
ATOM     67  F   UNL A   1      45.228  33.131  26.254  1.00  0.00    -0.203 F 
ATOM     68  F   UNL A   1      47.657  34.725  30.874  1.00  0.00    -0.200 F 
ATOM     69  C   UNL A   1      46.937  35.210  28.677  1.00  0.00     0.200 A 
ATOM     70  F   UNL A   1      46.182  35.654  26.483  1.00  0.00    -0.200 F 
ATOM     71  F   UNL A   1      47.380  36.469  28.794  1.00  0.00    -0.200 F 
ENDBRANCH  38  61
ENDBRANCH  12  13
ENDBRANCH   5   7
ENDBRANCH   2   3
ENDBRANCH   1   2
BRANCH   1  72
ATOM     72  C   UNL A   1      37.132  21.079  24.613  1.00  0.00     0.023 C 
BRANCH  72  73
ATOM     73  C   UNL A   1      36.164  21.541  25.701  1.00  0.00     0.116 C 
BRANCH  73  74
ATOM     74  N   UNL A   1      34.981  20.702  25.748  1.00  0.00    -0.356 N 
ATOM     75  C   UNL A   1      33.670  20.992  25.511  1.00  0.00     0.224 C 
ATOM     76  H   UNL A   1      35.155  19.764  25.993  1.00  0.00     0.163 HD
ATOM     77  O   UNL A   1      32.847  20.098  25.721  1.00  0.00    -0.275 OA
BRANCH  75  78
ATOM     78  C   UNL A   1      33.228  22.347  24.979  1.00  0.00     0.098 C 
ATOM     79  C   UNL A   1      33.271  22.432  23.443  1.00  0.00     0.017 C 
ATOM     80  C   UNL A   1      31.897  22.746  25.630  1.00  0.00     0.133 C 
ATOM     81  C   UNL A   1      32.504  23.623  22.877  1.00  0.00     0.022 C 
ATOM     82  N   UNL A   1      31.273  23.880  24.958  1.00  0.00    -0.338 N 
ATOM     83  C   UNL A   1      31.127  23.740  23.512  1.00  0.00     0.120 C 
BRANCH  82  84
ATOM     84  C   UNL A   1      30.985  25.024  25.698  1.00  0.00     0.254 C 
ATOM     85  O   UNL A   1      30.059  25.103  26.501  1.00  0.00    -0.269 OA
BRANCH  84  86
ATOM     86  C   UNL A   1      31.842  26.208  25.521  1.00  0.00     0.049 A 
ATOM     87  C   UNL A   1      33.108  26.258  26.124  1.00  0.00     0.014 A 
ATOM     88  C   UNL A   1      31.391  27.283  24.727  1.00  0.00     0.012 A 
ATOM     89  C   UNL A   1      33.905  27.391  25.983  1.00  0.00     0.003 A 
ATOM     90  C   UNL A   1      32.220  28.400  24.603  1.00  0.00     0.046 A 
ATOM     91  C   UNL A   1      30.217  27.549  23.964  1.00  0.00     0.029 A 
ATOM     92  C   UNL A   1      33.474  28.485  25.225  1.00  0.00     0.027 A 
ATOM     93  N   UNL A   1      31.567  29.301  23.790  1.00  0.00    -0.361 N 
ATOM     94  C   UNL A   1      30.357  28.794  23.397  1.00  0.00     0.083 A 
ATOM     95  H   UNL A   1      31.920  30.182  23.529  1.00  0.00     0.166 HD
ENDBRANCH  84  86
ENDBRANCH  82  84
ENDBRANCH  75  78
ENDBRANCH  73  74
ENDBRANCH  72  73
ENDBRANCH   1  72
TORSDOF 13
ENDMDL
MODEL 3
REMARK VINA RESULT:     -13.1      5.423     11.056
REMARK SMILES O=C(NCCCCNC(=O)[C@H]1CCCN(C(=O)c2cccc3[nH]ccc23)C1)c1ccc(-c2c3nc(c(-c4c(F)c(F)c(F)c(F)c4F)c4ccc([nH]4)c(-c4c(F)c(F)c(F)c(F)c4F)c4nc(c(-c5c(F)c(F)c(F)c(F)c5F)c5ccc2[nH]5)C=C4)C=C3)cc1
REMARK SMILES IDX 5 1 4 2 3 3 1 4 2 5 28 7 29 8 90 9 30 10 89 11 31 12 32 13
REMARK SMILES IDX 33 14 83 15 34 16 88 17 82 18 84 19 35 20 87 21 81 22 80 23
REMARK SMILES IDX 36 25 68 26 48 27 67 28 49 29 52 30 66 31 85 32 50 33 51 34
REMARK SMILES IDX 65 36 86 37 53 38 37 39 38 40 46 41 39 42 40 43 44 44 47 45
REMARK SMILES IDX 41 46 42 47 45 48 43 49 69 50 70 51 78 52 71 53 72 54 76 55
REMARK SMILES IDX 79 56 73 57 74 58 77 59 75 60 54 61 55 62 63 63 56 64 57 65
REMARK SMILES IDX 61 66 64 67 58 68 59 69 62 70 60 71 6 72 7 73 8 74 9 75
REMARK SMILES IDX 10 77 11 78 12 79 27 80 13 81 15 82 14 83 16 84 17 85 18 86
REMARK SMILES IDX 19 87 26 88 20 89 22 90 25 91 21 92 23 93 24 94
REMARK H PARENT 3 6 84 24 52 35 8 76 23 95
REMARK Flexibility Score: inf
ROOT
ATOM      1  C   UNL A   1      31.429  31.878  26.503  1.00  0.00     0.023 C 
ENDROOT
BRANCH   1   2
ATOM      2  C   UNL A   1      32.659  32.570  27.064  1.00  0.00     0.116 C 
BRANCH   2   3
ATOM      3  N   UNL A   1      32.402  33.941  27.476  1.00  0.00    -0.352 N 
ATOM      4  O   UNL A   1      32.642  35.763  28.794  1.00  0.00    -0.269 OA
ATOM      5  C   UNL A   1      33.035  34.655  28.465  1.00  0.00     0.251 C 
ATOM      6  H   UNL A   1      31.689  34.414  26.989  1.00  0.00     0.163 HD
BRANCH   5   7
ATOM      7  C   UNL A   1      34.194  34.039  29.143  1.00  0.00     0.039 A 
ATOM      8  C   UNL A   1      33.994  33.153  30.204  1.00  0.00     0.014 A 
ATOM      9  C   UNL A   1      35.482  34.375  28.725  1.00  0.00     0.014 A 
ATOM     10  C   UNL A   1      35.086  32.677  30.916  1.00  0.00     0.010 A 
ATOM     11  C   UNL A   1      36.582  33.836  29.393  1.00  0.00     0.010 A 
ATOM     12  C   UNL A   1      36.389  32.990  30.497  1.00  0.00    -0.014 A 
BRANCH  12  13
ATOM     13  C   UNL A   1      37.533  32.309  31.144  1.00  0.00     0.031 A 
ATOM     14  C   UNL A   1      38.237  31.162  30.486  1.00  0.00     0.074 A 
ATOM     15  C   UNL A   1      37.919  32.754  32.356  1.00  0.00     0.049 A 
ATOM     16  N   UNL A   1      39.234  30.446  30.938  1.00  0.00    -0.248 NA
ATOM     17  C   UNL A   1      37.761  30.757  29.155  1.00  0.00     0.031 C 
ATOM     18  C   UNL A   1      37.281  33.852  33.089  1.00  0.00     0.029 A 
ATOM     19  N   UNL A   1      38.931  32.347  33.183  1.00  0.00    -0.354 N 
ATOM     20  C   UNL A   1      39.494  29.495  29.961  1.00  0.00     0.074 A 
ATOM     21  C   UNL A   1      38.542  29.716  28.892  1.00  0.00     0.031 C 
ATOM     22  C   UNL A   1      37.930  34.047  34.244  1.00  0.00     0.029 A 
ATOM     23  C   UNL A   1      38.986  33.050  34.362  1.00  0.00     0.049 A 
ATOM     24  H   UNL A   1      39.557  31.622  32.956  1.00  0.00     0.167 HD
ATOM     25  C   UNL A   1      40.444  28.531  29.966  1.00  0.00     0.037 A 
ATOM     26  C   UNL A   1      39.777  32.885  35.438  1.00  0.00     0.037 A 
ATOM     27  C   UNL A   1      41.402  28.344  31.027  1.00  0.00     0.049 A 
ATOM     28  C   UNL A   1      40.804  31.793  35.416  1.00  0.00     0.074 A 
ATOM     29  C   UNL A   1      42.459  27.452  31.087  1.00  0.00     0.029 A 
ATOM     30  N   UNL A   1      41.412  29.055  32.219  1.00  0.00    -0.354 N 
ATOM     31  N   UNL A   1      41.080  30.940  34.460  1.00  0.00    -0.248 NA
ATOM     32  C   UNL A   1      41.623  31.632  36.624  1.00  0.00     0.031 C 
ATOM     33  C   UNL A   1      43.075  27.586  32.336  1.00  0.00     0.029 A 
ATOM     34  C   UNL A   1      42.431  28.594  33.036  1.00  0.00     0.049 A 
ATOM     35  H   UNL A   1      40.788  29.781  32.448  1.00  0.00     0.167 HD
ATOM     36  C   UNL A   1      42.102  30.142  34.948  1.00  0.00     0.074 A 
ATOM     37  C   UNL A   1      42.421  30.635  36.273  1.00  0.00     0.031 C 
ATOM     38  C   UNL A   1      42.717  29.089  34.357  1.00  0.00     0.037 A 
BRANCH  25  39
ATOM     39  C   UNL A   1      40.505  27.584  28.805  1.00  0.00     0.064 A 
ATOM     40  C   UNL A   1      39.717  26.426  28.756  1.00  0.00     0.173 A 
ATOM     41  C   UNL A   1      41.287  27.896  27.682  1.00  0.00     0.173 A 
ATOM     42  F   UNL A   1      38.959  26.081  29.807  1.00  0.00    -0.203 F 
ATOM     43  C   UNL A   1      39.710  25.613  27.625  1.00  0.00     0.198 A 
ATOM     44  C   UNL A   1      41.263  27.093  26.545  1.00  0.00     0.198 A 
ATOM     45  F   UNL A   1      42.054  28.997  27.678  1.00  0.00    -0.203 F 
ATOM     46  F   UNL A   1      38.961  24.502  27.603  1.00  0.00    -0.200 F 
ATOM     47  C   UNL A   1      40.475  25.952  26.517  1.00  0.00     0.200 A 
ATOM     48  F   UNL A   1      41.992  27.428  25.472  1.00  0.00    -0.200 F 
ATOM     49  F   UNL A   1      40.450  25.180  25.422  1.00  0.00    -0.200 F 
ENDBRANCH  25  39
BRANCH  26  50
ATOM     50  C   UNL A   1      39.594  33.752  36.628  1.00  0.00     0.064 A 
ATOM     51  C   UNL A   1      38.777  33.355  37.695  1.00  0.00     0.173 A 
ATOM     52  C   UNL A   1      40.238  34.995  36.725  1.00  0.00     0.173 A 
ATOM     53  F   UNL A   1      38.127  32.184  37.640  1.00  0.00    -0.203 F 
ATOM     54  C   UNL A   1      38.597  34.178  38.804  1.00  0.00     0.198 A 
ATOM     55  C   UNL A   1      40.082  35.803  37.848  1.00  0.00     0.198 A 
ATOM     56  F   UNL A   1      41.036  35.417  35.732  1.00  0.00    -0.203 F 
ATOM     57  F   UNL A   1      37.774  33.796  39.791  1.00  0.00    -0.200 F 
ATOM     58  C   UNL A   1      39.253  35.398  38.883  1.00  0.00     0.200 A 
ATOM     59  F   UNL A   1      40.733  36.970  37.927  1.00  0.00    -0.200 F 
ATOM     60  F   UNL A   1      39.082  36.185  39.953  1.00  0.00    -0.200 F 
ENDBRANCH  26  50
BRANCH  38  61
ATOM     61  C   UNL A   1      43.788  28.402  35.149  1.00  0.00     0.064 A 
ATOM     62  C   UNL A   1      45.123  28.827  35.087  1.00  0.00     0.173 A 
ATOM     63  C   UNL A   1      43.475  27.324  35.989  1.00  0.00     0.173 A 
ATOM     64  F   UNL A   1      45.470  29.841  34.280  1.00  0.00    -0.203 F 
ATOM     65  C   UNL A   1      46.112  28.182  35.822  1.00  0.00     0.198 A 
ATOM     66  C   UNL A   1      44.463  26.698  36.744  1.00  0.00     0.198 A 
ATOM     67  F   UNL A   1      42.213  26.883  36.083  1.00  0.00    -0.203 F 
ATOM     68  F   UNL A   1      47.389  28.574  35.711  1.00  0.00    -0.200 F 
ATOM     69  C   UNL A   1      45.781  27.123  36.655  1.00  0.00     0.200 A 
ATOM     70  F   UNL A   1      44.141  25.682  37.556  1.00  0.00    -0.200 F 
ATOM     71  F   UNL A   1      46.734  26.505  37.365  1.00  0.00    -0.200 F 
ENDBRANCH  38  61
ENDBRANCH  12  13
ENDBRANCH   5   7
ENDBRANCH   2   3
ENDBRANCH   1   2
BRANCH   1  72
ATOM     72  C   UNL A   1      31.498  30.353  26.515  1.00  0.00     0.023 C 
BRANCH  72  73
ATOM     73  C   UNL A   1      32.334  29.750  25.387  1.00  0.00     0.116 C 
BRANCH  73  74
ATOM     74  N   UNL A   1      31.579  29.678  24.149  1.00  0.00    -0.356 N 
ATOM     75  C   UNL A   1      31.226  28.612  23.378  1.00  0.00     0.224 C 
ATOM     76  H   UNL A   1      31.268  30.549  23.810  1.00  0.00     0.163 HD
ATOM     77  O   UNL A   1      30.658  28.850  22.310  1.00  0.00    -0.275 OA
BRANCH  75  78
ATOM     78  C   UNL A   1      31.488  27.178  23.817  1.00  0.00     0.098 C 
ATOM     79  C   UNL A   1      30.361  26.604  24.693  1.00  0.00     0.017 C 
ATOM     80  C   UNL A   1      31.880  26.331  22.598  1.00  0.00     0.133 C 
ATOM     81  C   UNL A   1      30.417  25.087  24.841  1.00  0.00     0.022 C 
ATOM     82  N   UNL A   1      31.859  24.903  22.891  1.00  0.00    -0.338 N 
ATOM     83  C   UNL A   1      30.623  24.412  23.494  1.00  0.00     0.120 C 
BRANCH  82  84
ATOM     84  C   UNL A   1      33.020  24.160  22.698  1.00  0.00     0.254 C 
ATOM     85  O   UNL A   1      33.461  23.856  21.592  1.00  0.00    -0.269 OA
BRANCH  84  86
ATOM     86  C   UNL A   1      33.776  23.717  23.881  1.00  0.00     0.049 A 
ATOM     87  C   UNL A   1      34.599  24.621  24.571  1.00  0.00     0.014 A 
ATOM     88  C   UNL A   1      33.653  22.386  24.330  1.00  0.00     0.012 A 
ATOM     89  C   UNL A   1      35.337  24.195  25.671  1.00  0.00     0.003 A 
ATOM     90  C   UNL A   1      34.404  21.995  25.440  1.00  0.00     0.046 A 
ATOM     91  C   UNL A   1      32.908  21.245  23.909  1.00  0.00     0.029 A 
ATOM     92  C   UNL A   1      35.259  22.872  26.123  1.00  0.00     0.027 A 
ATOM     93  N   UNL A   1      34.116  20.669  25.678  1.00  0.00    -0.361 N 
ATOM     94  C   UNL A   1      33.211  20.208  24.759  1.00  0.00     0.083 A 
ATOM     95  H   UNL A   1      34.504  20.130  26.405  1.00  0.00     0.166 HD
ENDBRANCH  84  86
ENDBRANCH  82  84
ENDBRANCH  75  78
ENDBRANCH  73  74
ENDBRANCH  72  73
ENDBRANCH   1  72
TORSDOF 13
ENDMDL
