MODEL 1
REMARK VINA RESULT:     -10.1      0.000      0.000
REMARK SMILES C[C@@H]1CN(S(=O)(=O)c2cccc(C(=O)N3CCC[C@@H]3C(=O)NCCCCNC(=O)c3ccc(-c4c5nc(c(-c6c(F)c(F)c(F)c(F)c6F)c6ccc([nH]6)c(-c6c(F)c(F)c(F)c(F)c6F)c6nc(c(-c7c(F)c(F)c(F)c(F)c7F)c7ccc4[nH]7)C=C6)C=C5)cc3)c2)C[C@H](C)O1
REMARK SMILES IDX 23 1 22 2 20 3 21 4 19 6 15 7 16 8 17 9 18 10 13 11 14 12
REMARK SMILES IDX 12 13 8 14 9 15 93 16 10 17 11 18 5 19 6 20 7 21 4 22 1 23
REMARK SMILES IDX 2 24 3 25 97 26 95 27 94 28 96 29 24 30 25 31 26 32 27 33
REMARK SMILES IDX 28 34 29 36 30 37 31 38 92 39 32 40 91 41 33 42 34 43 35 44
REMARK SMILES IDX 85 45 36 46 90 47 84 48 86 49 37 50 89 51 83 52 82 53 38 55
REMARK SMILES IDX 70 56 50 57 69 58 51 59 54 60 68 61 87 62 52 63 53 64 67 66
REMARK SMILES IDX 88 67 55 68 39 69 40 70 48 71 41 72 42 73 46 74 49 75 43 76
REMARK SMILES IDX 44 77 47 78 45 79 71 80 72 81 80 82 73 83 74 84 78 85 81 86
REMARK SMILES IDX 75 87 76 88 79 89 77 90 56 91 57 92 65 93 58 94 59 95 63 96
REMARK SMILES IDX 66 97 60 98 61 99 64 100 62 101
REMARK H PARENT 22 5 27 35 86 54 54 65
REMARK Flexibility Score: inf
ROOT
ATOM      1  C   UNL A   1      35.860  31.731  31.959  1.00  0.00     0.116 C 
ENDROOT
BRANCH   1   2
ATOM      2  N   UNL A   1      35.554  32.448  33.166  1.00  0.00    -0.354 N 
ATOM      3  C   UNL A   1      36.397  33.081  34.033  1.00  0.00     0.242 C 
ATOM      4  O   UNL A   1      35.909  33.448  35.108  1.00  0.00    -0.273 OA
ATOM      5  H   UNL A   1      34.599  32.490  33.402  1.00  0.00     0.163 HD
BRANCH   3   6
ATOM      6  C   UNL A   1      37.927  33.157  33.808  1.00  0.00     0.174 C 
ATOM      7  N   UNL A   1      38.827  32.559  34.795  1.00  0.00    -0.327 N 
ATOM      8  C   UNL A   1      40.107  33.236  34.707  1.00  0.00     0.121 C 
ATOM      9  C   UNL A   1      39.681  34.685  34.606  1.00  0.00     0.024 C 
ATOM     10  C   UNL A   1      38.396  34.629  33.765  1.00  0.00     0.037 C 
BRANCH   7  11
ATOM     11  C   UNL A   1      38.670  31.241  35.177  1.00  0.00     0.254 C 
ATOM     12  O   UNL A   1      38.185  30.930  36.260  1.00  0.00    -0.269 OA
BRANCH  11  13
ATOM     13  C   UNL A   1      39.383  30.202  34.352  1.00  0.00     0.041 A 
ATOM     14  C   UNL A   1      41.250  28.691  33.922  1.00  0.00     0.083 A 
ATOM     15  C   UNL A   1      40.499  28.031  32.946  1.00  0.00     0.022 A 
ATOM     16  C   UNL A   1      40.690  29.766  34.619  1.00  0.00     0.035 A 
ATOM     17  C   UNL A   1      39.198  28.456  32.666  1.00  0.00     0.002 A 
ATOM     18  C   UNL A   1      38.647  29.538  33.359  1.00  0.00     0.014 A 
BRANCH  14  19
ATOM     19  S   UNL A   1      43.008  28.411  34.035  1.00  0.00     0.243 S 
ATOM     20  O   UNL A   1      43.373  28.704  35.406  1.00  0.00    -0.207 OA
ATOM     21  O   UNL A   1      43.619  29.152  32.948  1.00  0.00    -0.207 OA
BRANCH  19  22
ATOM     22  N   UNL A   1      43.320  26.713  33.777  1.00  0.00    -0.193 NA
ATOM     23  C   UNL A   1      43.229  23.405  34.370  1.00  0.00     0.040 C 
ATOM     24  C   UNL A   1      44.199  24.516  34.762  1.00  0.00     0.130 C 
ATOM     25  C   UNL A   1      43.588  25.915  35.018  1.00  0.00     0.134 C 
ATOM     26  O   UNL A   1      45.318  24.551  33.874  1.00  0.00    -0.373 OA
ATOM     27  C   UNL A   1      45.076  25.216  32.633  1.00  0.00     0.130 C 
ATOM     28  C   UNL A   1      44.494  26.619  32.818  1.00  0.00     0.134 C 
ATOM     29  C   UNL A   1      44.325  24.351  31.629  1.00  0.00     0.040 C 
ENDBRANCH  19  22
ENDBRANCH  14  19
ENDBRANCH  11  13
ENDBRANCH   7  11
ENDBRANCH   3   6
ENDBRANCH   1   2
BRANCH   1  30
ATOM     30  C   UNL A   1      35.969  32.649  30.756  1.00  0.00     0.023 C 
BRANCH  30  31
ATOM     31  C   UNL A   1      34.683  32.949  30.000  1.00  0.00     0.023 C 
BRANCH  31  32
ATOM     32  C   UNL A   1      34.730  32.848  28.477  1.00  0.00     0.116 C 
BRANCH  32  33
ATOM     33  N   UNL A   1      34.007  31.725  27.892  1.00  0.00    -0.352 N 
ATOM     34  C   UNL A   1      34.379  30.405  27.766  1.00  0.00     0.251 C 
ATOM     35  H   UNL A   1      33.118  31.944  27.531  1.00  0.00     0.163 HD
ATOM     36  O   UNL A   1      33.597  29.558  27.347  1.00  0.00    -0.269 OA
BRANCH  34  37
ATOM     37  C   UNL A   1      35.748  29.986  28.089  1.00  0.00     0.039 A 
ATOM     38  C   UNL A   1      36.757  30.178  27.137  1.00  0.00     0.014 A 
ATOM     39  C   UNL A   1      36.029  29.400  29.318  1.00  0.00     0.014 A 
ATOM     40  C   UNL A   1      38.077  29.869  27.456  1.00  0.00     0.010 A 
ATOM     41  C   UNL A   1      37.347  29.163  29.665  1.00  0.00     0.010 A 
ATOM     42  C   UNL A   1      38.376  29.395  28.736  1.00  0.00    -0.014 A 
BRANCH  42  43
ATOM     43  C   UNL A   1      39.745  29.034  29.148  1.00  0.00     0.031 A 
ATOM     44  C   UNL A   1      40.570  30.092  29.810  1.00  0.00     0.074 A 
ATOM     45  C   UNL A   1      40.267  27.851  28.783  1.00  0.00     0.049 A 
ATOM     46  N   UNL A   1      41.865  30.177  29.938  1.00  0.00    -0.248 NA
ATOM     47  C   UNL A   1      39.827  31.246  30.346  1.00  0.00     0.031 C 
ATOM     48  C   UNL A   1      39.536  26.760  28.138  1.00  0.00     0.029 A 
ATOM     49  N   UNL A   1      41.556  27.392  28.860  1.00  0.00    -0.354 N 
ATOM     50  C   UNL A   1      42.097  31.418  30.514  1.00  0.00     0.074 A 
ATOM     51  C   UNL A   1      40.813  32.059  30.690  1.00  0.00     0.031 C 
ATOM     52  C   UNL A   1      40.392  25.764  27.861  1.00  0.00     0.029 A 
ATOM     53  C   UNL A   1      41.737  26.174  28.255  1.00  0.00     0.049 A 
ATOM     54  H   UNL A   1      42.281  27.888  29.306  1.00  0.00     0.167 HD
ATOM     55  C   UNL A   1      43.286  31.964  30.860  1.00  0.00     0.037 A 
ATOM     56  C   UNL A   1      42.872  25.494  28.012  1.00  0.00     0.037 A 
ATOM     57  C   UNL A   1      44.540  31.282  30.705  1.00  0.00     0.049 A 
ATOM     58  C   UNL A   1      44.180  26.111  28.430  1.00  0.00     0.074 A 
ATOM     59  C   UNL A   1      45.807  31.706  31.057  1.00  0.00     0.029 A 
ATOM     60  N   UNL A   1      44.675  30.011  30.160  1.00  0.00    -0.354 N 
ATOM     61  N   UNL A   1      44.404  27.284  28.975  1.00  0.00    -0.248 NA
ATOM     62  C   UNL A   1      45.391  25.317  28.195  1.00  0.00     0.031 C 
ATOM     63  C   UNL A   1      46.715  30.700  30.701  1.00  0.00     0.029 A 
ATOM     64  C   UNL A   1      46.006  29.634  30.165  1.00  0.00     0.049 A 
ATOM     65  H   UNL A   1      43.934  29.459  29.821  1.00  0.00     0.167 HD
ATOM     66  C   UNL A   1      45.775  27.360  29.171  1.00  0.00     0.074 A 
ATOM     67  C   UNL A   1      46.330  26.108  28.696  1.00  0.00     0.031 C 
ATOM     68  C   UNL A   1      46.513  28.370  29.695  1.00  0.00     0.037 A 
BRANCH  55  69
ATOM     69  C   UNL A   1      43.269  33.358  31.413  1.00  0.00     0.064 A 
ATOM     70  C   UNL A   1      43.319  34.485  30.577  1.00  0.00     0.173 A 
ATOM     71  C   UNL A   1      43.215  33.572  32.798  1.00  0.00     0.173 A 
ATOM     72  F   UNL A   1      43.395  34.336  29.247  1.00  0.00    -0.203 F 
ATOM     73  C   UNL A   1      43.348  35.771  31.111  1.00  0.00     0.198 A 
ATOM     74  C   UNL A   1      43.213  34.861  33.325  1.00  0.00     0.198 A 
ATOM     75  F   UNL A   1      43.170  32.531  33.643  1.00  0.00    -0.203 F 
ATOM     76  F   UNL A   1      43.458  36.829  30.295  1.00  0.00    -0.200 F 
ATOM     77  C   UNL A   1      43.290  35.959  32.483  1.00  0.00     0.200 A 
ATOM     78  F   UNL A   1      43.149  35.040  34.653  1.00  0.00    -0.200 F 
ATOM     79  F   UNL A   1      43.320  37.197  32.994  1.00  0.00    -0.200 F 
ENDBRANCH  55  69
BRANCH  56  80
ATOM     80  C   UNL A   1      42.820  24.166  27.347  1.00  0.00     0.064 A 
ATOM     81  C   UNL A   1      43.108  24.042  25.981  1.00  0.00     0.173 A 
ATOM     82  C   UNL A   1      42.500  22.999  28.054  1.00  0.00     0.173 A 
ATOM     83  F   UNL A   1      43.403  25.133  25.259  1.00  0.00    -0.203 F 
ATOM     84  C   UNL A   1      43.063  22.804  25.344  1.00  0.00     0.198 A 
ATOM     85  C   UNL A   1      42.479  21.756  27.421  1.00  0.00     0.198 A 
ATOM     86  F   UNL A   1      42.223  23.061  29.365  1.00  0.00    -0.203 F 
ATOM     87  F   UNL A   1      43.308  22.720  24.029  1.00  0.00    -0.200 F 
ATOM     88  C   UNL A   1      42.755  21.661  26.066  1.00  0.00     0.200 A 
ATOM     89  F   UNL A   1      42.196  20.652  28.127  1.00  0.00    -0.200 F 
ATOM     90  F   UNL A   1      42.720  20.469  25.454  1.00  0.00    -0.200 F 
ENDBRANCH  56  80
BRANCH  68  91
ATOM     91  C   UNL A   1      47.988  28.139  29.817  1.00  0.00     0.064 A 
ATOM     92  C   UNL A   1      48.544  27.532  30.950  1.00  0.00     0.173 A 
ATOM     93  C   UNL A   1      48.844  28.484  28.761  1.00  0.00     0.173 A 
ATOM     94  F   UNL A   1      47.764  27.201  31.990  1.00  0.00    -0.203 F 
ATOM     95  C   UNL A   1      49.912  27.291  31.030  1.00  0.00     0.198 A 
ATOM     96  C   UNL A   1      50.208  28.219  28.833  1.00  0.00     0.198 A 
ATOM     97  F   UNL A   1      48.354  29.062  27.654  1.00  0.00    -0.203 F 
ATOM     98  F   UNL A   1      50.431  26.743  32.136  1.00  0.00    -0.200 F 
ATOM     99  C   UNL A   1      50.740  27.628  29.968  1.00  0.00     0.200 A 
ATOM    100  F   UNL A   1      51.005  28.533  27.802  1.00  0.00    -0.200 F 
ATOM    101  F   UNL A   1      52.057  27.387  30.042  1.00  0.00    -0.200 F 
ENDBRANCH  68  91
ENDBRANCH  42  43
ENDBRANCH  34  37
ENDBRANCH  32  33
ENDBRANCH  31  32
ENDBRANCH  30  31
ENDBRANCH   1  30
TORSDOF 15
ENDMDL
MODEL 2
REMARK VINA RESULT:      -9.8      5.225     11.332
REMARK SMILES C[C@@H]1CN(S(=O)(=O)c2cccc(C(=O)N3CCC[C@@H]3C(=O)NCCCCNC(=O)c3ccc(-c4c5nc(c(-c6c(F)c(F)c(F)c(F)c6F)c6ccc([nH]6)c(-c6c(F)c(F)c(F)c(F)c6F)c6nc(c(-c7c(F)c(F)c(F)c(F)c7F)c7ccc4[nH]7)C=C6)C=C5)cc3)c2)C[C@H](C)O1
REMARK SMILES IDX 23 1 22 2 20 3 21 4 19 6 15 7 16 8 17 9 18 10 13 11 14 12
REMARK SMILES IDX 12 13 8 14 9 15 93 16 10 17 11 18 5 19 6 20 7 21 4 22 1 23
REMARK SMILES IDX 2 24 3 25 97 26 95 27 94 28 96 29 24 30 25 31 26 32 27 33
REMARK SMILES IDX 28 34 29 36 30 37 31 38 92 39 32 40 91 41 33 42 34 43 35 44
REMARK SMILES IDX 85 45 36 46 90 47 84 48 86 49 37 50 89 51 83 52 82 53 38 55
REMARK SMILES IDX 70 56 50 57 69 58 51 59 54 60 68 61 87 62 52 63 53 64 67 66
REMARK SMILES IDX 88 67 55 68 39 69 40 70 48 71 41 72 42 73 46 74 49 75 43 76
REMARK SMILES IDX 44 77 47 78 45 79 71 80 72 81 80 82 73 83 74 84 78 85 81 86
REMARK SMILES IDX 75 87 76 88 79 89 77 90 56 91 57 92 65 93 58 94 59 95 63 96
REMARK SMILES IDX 66 97 60 98 61 99 64 100 62 101
REMARK H PARENT 22 5 27 35 86 54 54 65
REMARK Flexibility Score: inf
ROOT
ATOM      1  C   UNL A   1      33.283  29.832  26.593  1.00  0.00     0.116 C 
ENDROOT
BRANCH   1   2
ATOM      2  N   UNL A   1      33.523  29.696  25.182  1.00  0.00    -0.354 N 
ATOM      3  C   UNL A   1      32.748  29.105  24.227  1.00  0.00     0.242 C 
ATOM      4  O   UNL A   1      33.271  28.936  23.120  1.00  0.00    -0.273 OA
ATOM      5  H   UNL A   1      34.368  30.085  24.858  1.00  0.00     0.163 HD
BRANCH   3   6
ATOM      6  C   UNL A   1      31.368  28.475  24.539  1.00  0.00     0.174 C 
ATOM      7  N   UNL A   1      31.224  27.019  24.519  1.00  0.00    -0.327 N 
ATOM      8  C   UNL A   1      29.834  26.707  24.247  1.00  0.00     0.121 C 
ATOM      9  C   UNL A   1      29.513  27.681  23.134  1.00  0.00     0.024 C 
ATOM     10  C   UNL A   1      30.315  28.938  23.508  1.00  0.00     0.037 C 
BRANCH   7  11
ATOM     11  C   UNL A   1      32.067  26.222  25.269  1.00  0.00     0.254 C 
ATOM     12  O   UNL A   1      32.333  26.475  26.439  1.00  0.00    -0.269 OA
BRANCH  11  13
ATOM     13  C   UNL A   1      32.885  25.201  24.521  1.00  0.00     0.041 A 
ATOM     14  C   UNL A   1      33.841  22.973  24.255  1.00  0.00     0.083 A 
ATOM     15  C   UNL A   1      34.139  23.253  22.919  1.00  0.00     0.022 A 
ATOM     16  C   UNL A   1      33.215  23.942  25.045  1.00  0.00     0.035 A 
ATOM     17  C   UNL A   1      33.820  24.504  22.385  1.00  0.00     0.002 A 
ATOM     18  C   UNL A   1      33.203  25.473  23.182  1.00  0.00     0.014 A 
BRANCH  14  19
ATOM     19  S   UNL A   1      34.561  21.546  25.048  1.00  0.00     0.243 S 
ATOM     20  O   UNL A   1      34.027  21.525  26.395  1.00  0.00    -0.207 OA
ATOM     21  O   UNL A   1      35.992  21.629  24.836  1.00  0.00    -0.207 OA
BRANCH  19  22
ATOM     22  N   UNL A   1      33.976  20.108  24.247  1.00  0.00    -0.193 NA
ATOM     23  C   UNL A   1      32.208  18.260  22.067  1.00  0.00     0.040 C 
ATOM     24  C   UNL A   1      31.940  18.750  23.487  1.00  0.00     0.130 C 
ATOM     25  C   UNL A   1      32.526  20.131  23.868  1.00  0.00     0.134 C 
ATOM     26  O   UNL A   1      32.246  17.733  24.442  1.00  0.00    -0.373 OA
ATOM     27  C   UNL A   1      33.634  17.608  24.759  1.00  0.00     0.130 C 
ATOM     28  C   UNL A   1      34.268  18.939  25.170  1.00  0.00     0.134 C 
ATOM     29  C   UNL A   1      34.419  16.835  23.707  1.00  0.00     0.040 C 
ENDBRANCH  19  22
ENDBRANCH  14  19
ENDBRANCH  11  13
ENDBRANCH   7  11
ENDBRANCH   3   6
ENDBRANCH   1   2
BRANCH   1  30
ATOM     30  C   UNL A   1      31.915  30.416  26.890  1.00  0.00     0.023 C 
BRANCH  30  31
ATOM     31  C   UNL A   1      31.748  31.916  26.691  1.00  0.00     0.023 C 
BRANCH  31  32
ATOM     32  C   UNL A   1      32.844  32.820  27.249  1.00  0.00     0.116 C 
BRANCH  32  33
ATOM     33  N   UNL A   1      32.395  34.086  27.817  1.00  0.00    -0.352 N 
ATOM     34  C   UNL A   1      33.007  34.905  28.740  1.00  0.00     0.251 C 
ATOM     35  H   UNL A   1      31.523  34.404  27.491  1.00  0.00     0.163 HD
ATOM     36  O   UNL A   1      32.542  36.003  29.027  1.00  0.00    -0.269 OA
BRANCH  34  37
ATOM     37  C   UNL A   1      34.214  34.458  29.444  1.00  0.00     0.039 A 
ATOM     38  C   UNL A   1      34.076  33.768  30.655  1.00  0.00     0.014 A 
ATOM     39  C   UNL A   1      35.473  34.726  28.915  1.00  0.00     0.014 A 
ATOM     40  C   UNL A   1      35.203  33.259  31.294  1.00  0.00     0.010 A 
ATOM     41  C   UNL A   1      36.586  34.156  29.507  1.00  0.00     0.010 A 
ATOM     42  C   UNL A   1      36.456  33.422  30.698  1.00  0.00    -0.014 A 
BRANCH  42  43
ATOM     43  C   UNL A   1      37.699  32.923  31.316  1.00  0.00     0.031 A 
ATOM     44  C   UNL A   1      38.404  31.792  30.636  1.00  0.00     0.074 A 
ATOM     45  C   UNL A   1      38.073  33.366  32.528  1.00  0.00     0.049 A 
ATOM     46  N   UNL A   1      39.268  30.942  31.118  1.00  0.00    -0.248 NA
ATOM     47  C   UNL A   1      38.030  31.553  29.231  1.00  0.00     0.031 C 
ATOM     48  C   UNL A   1      37.447  34.466  33.263  1.00  0.00     0.029 A 
ATOM     49  N   UNL A   1      39.045  32.905  33.377  1.00  0.00    -0.354 N 
ATOM     50  C   UNL A   1      39.497  30.032  30.095  1.00  0.00     0.074 A 
ATOM     51  C   UNL A   1      38.666  30.419  28.977  1.00  0.00     0.031 C 
ATOM     52  C   UNL A   1      38.038  34.583  34.462  1.00  0.00     0.029 A 
ATOM     53  C   UNL A   1      39.041  33.531  34.599  1.00  0.00     0.049 A 
ATOM     54  H   UNL A   1      39.683  32.195  33.134  1.00  0.00     0.167 HD
ATOM     55  C   UNL A   1      40.331  28.966  30.103  1.00  0.00     0.037 A 
ATOM     56  C   UNL A   1      39.743  33.249  35.712  1.00  0.00     0.037 A 
ATOM     57  C   UNL A   1      41.171  28.632  31.219  1.00  0.00     0.049 A 
ATOM     58  C   UNL A   1      40.683  32.074  35.687  1.00  0.00     0.074 A 
ATOM     59  C   UNL A   1      42.091  27.608  31.337  1.00  0.00     0.029 A 
ATOM     60  N   UNL A   1      41.199  29.340  32.415  1.00  0.00    -0.354 N 
ATOM     61  N   UNL A   1      40.903  31.211  34.723  1.00  0.00    -0.248 NA
ATOM     62  C   UNL A   1      41.469  31.829  36.902  1.00  0.00     0.031 C 
ATOM     63  C   UNL A   1      42.658  27.680  32.615  1.00  0.00     0.029 A 
ATOM     64  C   UNL A   1      42.120  28.774  33.277  1.00  0.00     0.049 A 
ATOM     65  H   UNL A   1      40.645  30.128  32.618  1.00  0.00     0.167 HD
ATOM     66  C   UNL A   1      41.866  30.336  35.203  1.00  0.00     0.074 A 
ATOM     67  C   UNL A   1      42.197  30.781  36.543  1.00  0.00     0.031 C 
ATOM     68  C   UNL A   1      42.429  29.261  34.598  1.00  0.00     0.037 A 
BRANCH  55  69
ATOM     69  C   UNL A   1      40.348  28.095  28.883  1.00  0.00     0.064 A 
ATOM     70  C   UNL A   1      39.624  26.893  28.821  1.00  0.00     0.173 A 
ATOM     71  C   UNL A   1      41.107  28.459  27.760  1.00  0.00     0.173 A 
ATOM     72  F   UNL A   1      38.901  26.488  29.875  1.00  0.00    -0.203 F 
ATOM     73  C   UNL A   1      39.688  26.075  27.697  1.00  0.00     0.198 A 
ATOM     74  C   UNL A   1      41.143  27.653  26.626  1.00  0.00     0.198 A 
ATOM     75  F   UNL A   1      41.820  29.595  27.766  1.00  0.00    -0.203 F 
ATOM     76  F   UNL A   1      39.038  24.902  27.687  1.00  0.00    -0.200 F 
ATOM     77  C   UNL A   1      40.443  26.457  26.598  1.00  0.00     0.200 A 
ATOM     78  F   UNL A   1      41.868  28.028  25.562  1.00  0.00    -0.200 F 
ATOM     79  F   UNL A   1      40.504  25.667  25.518  1.00  0.00    -0.200 F 
ENDBRANCH  55  69
BRANCH  56  80
ATOM     80  C   UNL A   1      39.582  34.086  36.928  1.00  0.00     0.064 A 
ATOM     81  C   UNL A   1      40.244  35.317  37.039  1.00  0.00     0.173 A 
ATOM     82  C   UNL A   1      38.758  33.692  37.992  1.00  0.00     0.173 A 
ATOM     83  F   UNL A   1      41.057  35.729  36.054  1.00  0.00    -0.203 F 
ATOM     84  C   UNL A   1      40.103  36.113  38.173  1.00  0.00     0.198 A 
ATOM     85  C   UNL A   1      38.597  34.502  39.116  1.00  0.00     0.198 A 
ATOM     86  F   UNL A   1      38.095  32.528  37.933  1.00  0.00    -0.203 F 
ATOM     87  F   UNL A   1      40.777  37.267  38.268  1.00  0.00    -0.200 F 
ATOM     88  C   UNL A   1      39.274  35.707  39.209  1.00  0.00     0.200 A 
ATOM     89  F   UNL A   1      37.783  34.113  40.108  1.00  0.00    -0.200 F 
ATOM     90  F   UNL A   1      39.131  36.478  40.296  1.00  0.00    -0.200 F 
ENDBRANCH  56  80
BRANCH  68  91
ATOM     91  C   UNL A   1      43.485  28.526  35.365  1.00  0.00     0.064 A 
ATOM     92  C   UNL A   1      44.843  28.843  35.230  1.00  0.00     0.173 A 
ATOM     93  C   UNL A   1      43.123  27.530  36.284  1.00  0.00     0.173 A 
ATOM     94  F   UNL A   1      45.234  29.777  34.350  1.00  0.00    -0.203 F 
ATOM     95  C   UNL A   1      45.807  28.175  35.979  1.00  0.00     0.198 A 
ATOM     96  C   UNL A   1      44.088  26.883  37.050  1.00  0.00     0.198 A 
ATOM     97  F   UNL A   1      41.834  27.199  36.450  1.00  0.00    -0.203 F 
ATOM     98  F   UNL A   1      47.104  28.466  35.810  1.00  0.00    -0.200 F 
ATOM     99  C   UNL A   1      45.427  27.203  36.893  1.00  0.00     0.200 A 
ATOM    100  F   UNL A   1      43.719  25.952  37.941  1.00  0.00    -0.200 F 
ATOM    101  F   UNL A   1      46.357  26.567  37.620  1.00  0.00    -0.200 F 
ENDBRANCH  68  91
ENDBRANCH  42  43
ENDBRANCH  34  37
ENDBRANCH  32  33
ENDBRANCH  31  32
ENDBRANCH  30  31
ENDBRANCH   1  30
TORSDOF 15
ENDMDL
MODEL 3
REMARK VINA RESULT:      -9.8      4.896     10.979
REMARK SMILES C[C@@H]1CN(S(=O)(=O)c2cccc(C(=O)N3CCC[C@@H]3C(=O)NCCCCNC(=O)c3ccc(-c4c5nc(c(-c6c(F)c(F)c(F)c(F)c6F)c6ccc([nH]6)c(-c6c(F)c(F)c(F)c(F)c6F)c6nc(c(-c7c(F)c(F)c(F)c(F)c7F)c7ccc4[nH]7)C=C6)C=C5)cc3)c2)C[C@H](C)O1
REMARK SMILES IDX 23 1 22 2 20 3 21 4 19 6 15 7 16 8 17 9 18 10 13 11 14 12
REMARK SMILES IDX 12 13 8 14 9 15 93 16 10 17 11 18 5 19 6 20 7 21 4 22 1 23
REMARK SMILES IDX 2 24 3 25 97 26 95 27 94 28 96 29 24 30 25 31 26 32 27 33
REMARK SMILES IDX 28 34 29 36 30 37 31 38 92 39 32 40 91 41 33 42 34 43 35 44
REMARK SMILES IDX 85 45 36 46 90 47 84 48 86 49 37 50 89 51 83 52 82 53 38 55
REMARK SMILES IDX 70 56 50 57 69 58 51 59 54 60 68 61 87 62 52 63 53 64 67 66
REMARK SMILES IDX 88 67 55 68 39 69 40 70 48 71 41 72 42 73 46 74 49 75 43 76
REMARK SMILES IDX 44 77 47 78 45 79 71 80 72 81 80 82 73 83 74 84 78 85 81 86
REMARK SMILES IDX 75 87 76 88 79 89 77 90 56 91 57 92 65 93 58 94 59 95 63 96
REMARK SMILES IDX 66 97 60 98 61 99 64 100 62 101
REMARK H PARENT 22 5 27 35 86 54 54 65
REMARK Flexibility Score: inf
ROOT
ATOM      1  C   UNL A   1      33.527  29.652  26.912  1.00  0.00     0.116 C 
ENDROOT
BRANCH   1   2
ATOM      2  N   UNL A   1      33.750  28.232  26.882  1.00  0.00    -0.354 N 
ATOM      3  C   UNL A   1      33.510  27.341  25.876  1.00  0.00     0.242 C 
ATOM      4  O   UNL A   1      33.593  26.144  26.170  1.00  0.00    -0.273 OA
ATOM      5  H   UNL A   1      34.130  27.847  27.704  1.00  0.00     0.163 HD
BRANCH   3   6
ATOM      6  C   UNL A   1      32.952  27.766  24.496  1.00  0.00     0.174 C 
ATOM      7  N   UNL A   1      31.992  26.898  23.813  1.00  0.00    -0.327 N 
ATOM      8  C   UNL A   1      32.079  27.163  22.389  1.00  0.00     0.121 C 
ATOM      9  C   UNL A   1      33.576  27.228  22.179  1.00  0.00     0.024 C 
ATOM     10  C   UNL A   1      34.095  27.892  23.464  1.00  0.00     0.037 C 
BRANCH   7  11
ATOM     11  C   UNL A   1      30.844  26.480  24.457  1.00  0.00     0.254 C 
ATOM     12  O   UNL A   1      29.972  27.267  24.810  1.00  0.00    -0.269 OA
BRANCH  11  13
ATOM     13  C   UNL A   1      30.831  25.067  24.980  1.00  0.00     0.041 A 
ATOM     14  C   UNL A   1      31.664  22.775  25.034  1.00  0.00     0.083 A 
ATOM     15  C   UNL A   1      30.978  22.547  26.229  1.00  0.00     0.022 A 
ATOM     16  C   UNL A   1      31.591  24.029  24.419  1.00  0.00     0.035 A 
ATOM     17  C   UNL A   1      30.213  23.570  26.796  1.00  0.00     0.002 A 
ATOM     18  C   UNL A   1      30.135  24.819  26.172  1.00  0.00     0.014 A 
BRANCH  14  19
ATOM     19  S   UNL A   1      32.332  21.401  24.113  1.00  0.00     0.243 S 
ATOM     20  O   UNL A   1      31.966  21.631  22.729  1.00  0.00    -0.207 OA
ATOM     21  O   UNL A   1      31.894  20.195  24.787  1.00  0.00    -0.207 OA
BRANCH  19  22
ATOM     22  N   UNL A   1      34.075  21.467  24.195  1.00  0.00    -0.193 NA
ATOM     23  C   UNL A   1      37.197  20.467  24.936  1.00  0.00     0.040 C 
ATOM     24  C   UNL A   1      36.163  21.313  25.673  1.00  0.00     0.130 C 
ATOM     25  C   UNL A   1      34.677  20.936  25.461  1.00  0.00     0.134 C 
ATOM     26  O   UNL A   1      36.416  22.706  25.482  1.00  0.00    -0.373 OA
ATOM     27  C   UNL A   1      35.947  23.234  24.239  1.00  0.00     0.130 C 
ATOM     28  C   UNL A   1      34.472  22.917  23.982  1.00  0.00     0.134 C 
ATOM     29  C   UNL A   1      36.872  22.920  23.070  1.00  0.00     0.040 C 
ENDBRANCH  19  22
ENDBRANCH  14  19
ENDBRANCH  11  13
ENDBRANCH   7  11
ENDBRANCH   3   6
ENDBRANCH   1   2
BRANCH   1  30
ATOM     30  C   UNL A   1      32.056  30.007  26.817  1.00  0.00     0.023 C 
BRANCH  30  31
ATOM     31  C   UNL A   1      31.699  31.486  26.853  1.00  0.00     0.023 C 
BRANCH  31  32
ATOM     32  C   UNL A   1      32.823  32.467  27.176  1.00  0.00     0.116 C 
BRANCH  32  33
ATOM     33  N   UNL A   1      32.404  33.772  27.674  1.00  0.00    -0.352 N 
ATOM     34  C   UNL A   1      33.043  34.634  28.537  1.00  0.00     0.251 C 
ATOM     35  H   UNL A   1      31.531  34.084  27.343  1.00  0.00     0.163 HD
ATOM     36  O   UNL A   1      32.600  35.754  28.765  1.00  0.00    -0.269 OA
BRANCH  34  37
ATOM     37  C   UNL A   1      34.255  34.210  29.248  1.00  0.00     0.039 A 
ATOM     38  C   UNL A   1      34.125  33.416  30.394  1.00  0.00     0.014 A 
ATOM     39  C   UNL A   1      35.508  34.601  28.789  1.00  0.00     0.014 A 
ATOM     40  C   UNL A   1      35.262  32.930  31.033  1.00  0.00     0.010 A 
ATOM     41  C   UNL A   1      36.638  34.058  29.375  1.00  0.00     0.010 A 
ATOM     42  C   UNL A   1      36.520  33.222  30.499  1.00  0.00    -0.014 A 
BRANCH  42  43
ATOM     43  C   UNL A   1      37.773  32.755  31.121  1.00  0.00     0.031 A 
ATOM     44  C   UNL A   1      38.509  31.642  30.444  1.00  0.00     0.074 A 
ATOM     45  C   UNL A   1      38.133  33.210  32.333  1.00  0.00     0.049 A 
ATOM     46  N   UNL A   1      39.393  30.814  30.930  1.00  0.00    -0.248 NA
ATOM     47  C   UNL A   1      38.145  31.391  29.039  1.00  0.00     0.031 C 
ATOM     48  C   UNL A   1      37.476  34.294  33.064  1.00  0.00     0.029 A 
ATOM     49  N   UNL A   1      39.113  32.775  33.185  1.00  0.00    -0.354 N 
ATOM     50  C   UNL A   1      39.647  29.909  29.909  1.00  0.00     0.074 A 
ATOM     51  C   UNL A   1      38.810  30.274  28.789  1.00  0.00     0.031 C 
ATOM     52  C   UNL A   1      38.061  34.429  34.265  1.00  0.00     0.029 A 
ATOM     53  C   UNL A   1      39.090  33.402  34.406  1.00  0.00     0.049 A 
ATOM     54  H   UNL A   1      39.769  32.081  32.945  1.00  0.00     0.167 HD
ATOM     55  C   UNL A   1      40.507  28.864  29.921  1.00  0.00     0.037 A 
ATOM     56  C   UNL A   1      39.795  33.139  35.522  1.00  0.00     0.037 A 
ATOM     57  C   UNL A   1      41.353  28.554  31.041  1.00  0.00     0.049 A 
ATOM     58  C   UNL A   1      40.765  31.989  35.501  1.00  0.00     0.074 A 
ATOM     59  C   UNL A   1      42.298  27.553  31.162  1.00  0.00     0.029 A 
ATOM     60  N   UNL A   1      41.359  29.264  32.235  1.00  0.00    -0.354 N 
ATOM     61  N   UNL A   1      41.009  31.130  34.539  1.00  0.00    -0.248 NA
ATOM     62  C   UNL A   1      41.553  31.765  36.719  1.00  0.00     0.031 C 
ATOM     63  C   UNL A   1      42.860  27.642  32.442  1.00  0.00     0.029 A 
ATOM     64  C   UNL A   1      42.292  28.722  33.101  1.00  0.00     0.049 A 
ATOM     65  H   UNL A   1      40.785  30.038  32.436  1.00  0.00     0.167 HD
ATOM     66  C   UNL A   1      41.993  30.280  35.024  1.00  0.00     0.074 A 
ATOM     67  C   UNL A   1      42.309  30.736  36.364  1.00  0.00     0.031 C 
ATOM     68  C   UNL A   1      42.584  29.219  34.422  1.00  0.00     0.037 A 
BRANCH  55  69
ATOM     69  C   UNL A   1      40.550  27.992  28.702  1.00  0.00     0.064 A 
ATOM     70  C   UNL A   1      39.831  26.789  28.629  1.00  0.00     0.173 A 
ATOM     71  C   UNL A   1      41.330  28.357  27.594  1.00  0.00     0.173 A 
ATOM     72  F   UNL A   1      39.089  26.382  29.669  1.00  0.00    -0.203 F 
ATOM     73  C   UNL A   1      39.919  25.969  27.506  1.00  0.00     0.198 A 
ATOM     74  C   UNL A   1      41.389  27.550  26.462  1.00  0.00     0.198 A 
ATOM     75  F   UNL A   1      42.040  29.496  27.612  1.00  0.00    -0.203 F 
ATOM     76  F   UNL A   1      39.272  24.795  27.485  1.00  0.00    -0.200 F 
ATOM     77  C   UNL A   1      40.693  26.353  26.422  1.00  0.00     0.200 A 
ATOM     78  F   UNL A   1      42.133  27.926  25.411  1.00  0.00    -0.200 F 
ATOM     79  F   UNL A   1      40.777  25.561  25.344  1.00  0.00    -0.200 F 
ENDBRANCH  55  69
BRANCH  56  80
ATOM     80  C   UNL A   1      39.610  33.974  36.736  1.00  0.00     0.064 A 
ATOM     81  C   UNL A   1      40.231  35.227  36.842  1.00  0.00     0.173 A 
ATOM     82  C   UNL A   1      38.803  33.556  37.803  1.00  0.00     0.173 A 
ATOM     83  F   UNL A   1      41.026  35.663  35.854  1.00  0.00    -0.203 F 
ATOM     84  C   UNL A   1      40.066  36.021  37.975  1.00  0.00     0.198 A 
ATOM     85  C   UNL A   1      38.618  34.362  38.926  1.00  0.00     0.198 A 
ATOM     86  F   UNL A   1      38.179  32.370  37.750  1.00  0.00    -0.203 F 
ATOM     87  F   UNL A   1      40.701  37.197  38.064  1.00  0.00    -0.200 F 
ATOM     88  C   UNL A   1      39.254  35.590  39.013  1.00  0.00     0.200 A 
ATOM     89  F   UNL A   1      37.820  33.949  39.921  1.00  0.00    -0.200 F 
ATOM     90  F   UNL A   1      39.089  36.359  40.099  1.00  0.00    -0.200 F 
ENDBRANCH  56  80
BRANCH  68  91
ATOM     91  C   UNL A   1      43.657  28.512  35.193  1.00  0.00     0.064 A 
ATOM     92  C   UNL A   1      43.358  27.461  36.069  1.00  0.00     0.173 A 
ATOM     93  C   UNL A   1      45.003  28.861  35.008  1.00  0.00     0.173 A 
ATOM     94  F   UNL A   1      42.083  27.106  36.288  1.00  0.00    -0.203 F 
ATOM     95  C   UNL A   1      44.371  26.791  36.748  1.00  0.00     0.198 A 
ATOM     96  C   UNL A   1      46.014  28.173  35.670  1.00  0.00     0.198 A 
ATOM     97  F   UNL A   1      45.335  29.858  34.175  1.00  0.00    -0.203 F 
ATOM     98  F   UNL A   1      44.064  25.812  37.610  1.00  0.00    -0.200 F 
ATOM     99  C   UNL A   1      45.697  27.143  36.542  1.00  0.00     0.200 A 
ATOM    100  F   UNL A   1      47.296  28.505  35.460  1.00  0.00    -0.200 F 
ATOM    101  F   UNL A   1      46.673  26.490  37.190  1.00  0.00    -0.200 F 
ENDBRANCH  68  91
ENDBRANCH  42  43
ENDBRANCH  34  37
ENDBRANCH  32  33
ENDBRANCH  31  32
ENDBRANCH  30  31
ENDBRANCH   1  30
TORSDOF 15
ENDMDL
