MODEL 1
REMARK VINA RESULT:     -13.2      0.000      0.000
REMARK SMILES C[C@@H](c1ccncc1)N1C[C@@H](C(=O)NCCCCNC(=O)c2ccc(-c3c4nc(c(-c5c(F)c(F)c(F)c(F)c5F)c5ccc([nH]5)c(-c5c(F)c(F)c(F)c(F)c5F)c5nc(c(-c6c(F)c(F)c(F)c(F)c6F)c6ccc3[nH]6)C=C5)C=C4)cc2)CC1=O
REMARK SMILES IDX 16 1 15 2 14 3 12 4 13 5 11 7 9 8 10 9 86 10 85 11 87 12
REMARK SMILES IDX 2 13 1 14 3 15 4 16 8 17 5 18 7 19 6 20 17 21 18 22 19 23
REMARK SMILES IDX 20 24 21 26 22 27 23 28 84 29 24 30 83 31 25 32 26 33 27 34
REMARK SMILES IDX 77 35 28 36 82 37 76 38 78 39 29 40 81 41 75 42 74 43 30 45
REMARK SMILES IDX 62 46 42 47 61 48 43 49 46 50 60 51 79 52 44 53 45 54 59 56
REMARK SMILES IDX 80 57 47 58 31 59 32 60 40 61 33 62 34 63 38 64 41 65 35 66
REMARK SMILES IDX 36 67 39 68 37 69 63 70 64 71 72 72 65 73 66 74 70 75 73 76
REMARK SMILES IDX 67 77 68 78 71 79 69 80 48 81 49 82 57 83 50 84 51 85 55 86
REMARK SMILES IDX 58 87 52 88 53 89 56 90 54 91
REMARK H PARENT 14 6 19 25 78 44 46 55
REMARK Flexibility Score: inf
ROOT
ATOM      1  C   UNL A   1      31.758  30.551  26.680  1.00  0.00     0.023 C 
ENDROOT
BRANCH   1   2
ATOM      2  C   UNL A   1      31.427  29.917  25.331  1.00  0.00     0.116 C 
BRANCH   2   3
ATOM      3  N   UNL A   1      32.623  29.644  24.553  1.00  0.00    -0.356 N 
ATOM      4  C   UNL A   1      32.819  28.889  23.441  1.00  0.00     0.225 C 
ATOM      5  O   UNL A   1      33.963  28.847  22.980  1.00  0.00    -0.275 OA
ATOM      6  H   UNL A   1      33.435  30.086  24.891  1.00  0.00     0.163 HD
BRANCH   4   7
ATOM      7  C   UNL A   1      31.697  28.144  22.747  1.00  0.00     0.107 C 
ATOM      8  N   UNL A   1      29.338  28.365  22.800  1.00  0.00    -0.335 N 
ATOM      9  C   UNL A   1      30.542  29.056  22.391  1.00  0.00     0.134 C 
ATOM     10  C   UNL A   1      29.618  27.190  23.478  1.00  0.00     0.223 C 
ATOM     11  C   UNL A   1      31.109  26.991  23.542  1.00  0.00     0.115 C 
ATOM     12  O   UNL A   1      28.820  26.404  23.969  1.00  0.00    -0.275 OA
BRANCH   8  13
ATOM     13  C   UNL A   1      28.004  28.915  22.485  1.00  0.00     0.112 C 
ATOM     14  C   UNL A   1      26.893  28.509  23.465  1.00  0.00     0.036 C 
BRANCH  13  15
ATOM     15  C   UNL A   1      28.052  30.416  22.211  1.00  0.00    -0.023 A 
ATOM     16  C   UNL A   1      28.181  31.313  23.283  1.00  0.00     0.026 A 
ATOM     17  C   UNL A   1      27.979  30.960  20.924  1.00  0.00     0.026 A 
ATOM     18  C   UNL A   1      28.201  32.677  23.034  1.00  0.00     0.111 A 
ATOM     19  C   UNL A   1      28.038  32.340  20.773  1.00  0.00     0.111 A 
ATOM     20  N   UNL A   1      28.132  33.210  21.799  1.00  0.00    -0.265 NA
ENDBRANCH  13  15
ENDBRANCH   8  13
ENDBRANCH   4   7
ENDBRANCH   2   3
ENDBRANCH   1   2
BRANCH   1  21
ATOM     21  C   UNL A   1      31.560  32.065  26.739  1.00  0.00     0.023 C 
BRANCH  21  22
ATOM     22  C   UNL A   1      32.784  32.859  27.177  1.00  0.00     0.116 C 
BRANCH  22  23
ATOM     23  N   UNL A   1      32.461  34.212  27.601  1.00  0.00    -0.352 N 
ATOM     24  C   UNL A   1      32.995  34.950  28.629  1.00  0.00     0.251 C 
ATOM     25  H   UNL A   1      31.760  34.663  27.076  1.00  0.00     0.163 HD
ATOM     26  O   UNL A   1      32.499  36.026  28.944  1.00  0.00    -0.269 OA
BRANCH  24  27
ATOM     27  C   UNL A   1      34.156  34.426  29.378  1.00  0.00     0.039 A 
ATOM     28  C   UNL A   1      33.936  33.746  30.578  1.00  0.00     0.014 A 
ATOM     29  C   UNL A   1      35.457  34.590  28.891  1.00  0.00     0.014 A 
ATOM     30  C   UNL A   1      35.015  33.177  31.259  1.00  0.00     0.010 A 
ATOM     31  C   UNL A   1      36.516  33.948  29.521  1.00  0.00     0.010 A 
ATOM     32  C   UNL A   1      36.309  33.244  30.718  1.00  0.00    -0.014 A 
BRANCH  32  33
ATOM     33  C   UNL A   1      37.464  32.603  31.398  1.00  0.00     0.031 A 
ATOM     34  C   UNL A   1      38.183  31.457  30.741  1.00  0.00     0.074 A 
ATOM     35  C   UNL A   1      37.831  33.013  32.629  1.00  0.00     0.049 A 
ATOM     36  N   UNL A   1      39.167  30.723  31.196  1.00  0.00    -0.248 NA
ATOM     37  C   UNL A   1      37.712  31.062  29.403  1.00  0.00     0.031 C 
ATOM     38  C   UNL A   1      37.185  34.082  33.391  1.00  0.00     0.029 A 
ATOM     39  N   UNL A   1      38.830  32.569  33.458  1.00  0.00    -0.354 N 
ATOM     40  C   UNL A   1      39.420  29.777  30.211  1.00  0.00     0.074 A 
ATOM     41  C   UNL A   1      38.446  29.987  29.162  1.00  0.00     0.031 C 
ATOM     42  C   UNL A   1      37.821  34.230  34.565  1.00  0.00     0.029 A 
ATOM     43  C   UNL A   1      38.889  33.239  34.657  1.00  0.00     0.049 A 
ATOM     44  H   UNL A   1      39.446  31.841  33.219  1.00  0.00     0.167 HD
ATOM     45  C   UNL A   1      40.393  28.837  30.170  1.00  0.00     0.037 A 
ATOM     46  C   UNL A   1      39.709  33.068  35.712  1.00  0.00     0.037 A 
ATOM     47  C   UNL A   1      41.373  28.645  31.208  1.00  0.00     0.049 A 
ATOM     48  C   UNL A   1      40.774  32.006  35.648  1.00  0.00     0.074 A 
ATOM     49  C   UNL A   1      42.431  27.753  31.240  1.00  0.00     0.029 A 
ATOM     50  N   UNL A   1      41.411  29.355  32.399  1.00  0.00    -0.354 N 
ATOM     51  N   UNL A   1      41.046  31.162  34.683  1.00  0.00    -0.248 NA
ATOM     52  C   UNL A   1      41.653  31.881  36.819  1.00  0.00     0.031 C 
ATOM     53  C   UNL A   1      43.075  27.885  32.475  1.00  0.00     0.029 A 
ATOM     54  C   UNL A   1      42.463  28.906  33.183  1.00  0.00     0.049 A 
ATOM     55  H   UNL A   1      40.785  30.072  32.650  1.00  0.00     0.167 HD
ATOM     56  C   UNL A   1      42.149  30.434  35.112  1.00  0.00     0.074 A 
ATOM     57  C   UNL A   1      42.502  30.944  36.419  1.00  0.00     0.031 C 
ATOM     58  C   UNL A   1      42.812  29.436  34.477  1.00  0.00     0.037 A 
BRANCH  45  59
ATOM     59  C   UNL A   1      40.445  27.940  28.965  1.00  0.00     0.064 A 
ATOM     60  C   UNL A   1      39.713  26.744  28.904  1.00  0.00     0.173 A 
ATOM     61  C   UNL A   1      41.211  28.295  27.845  1.00  0.00     0.173 A 
ATOM     62  F   UNL A   1      38.972  26.350  29.951  1.00  0.00    -0.203 F 
ATOM     63  C   UNL A   1      39.773  25.922  27.782  1.00  0.00     0.198 A 
ATOM     64  C   UNL A   1      41.241  27.488  26.711  1.00  0.00     0.198 A 
ATOM     65  F   UNL A   1      41.926  29.430  27.846  1.00  0.00    -0.203 F 
ATOM     66  F   UNL A   1      39.110  24.757  27.771  1.00  0.00    -0.200 F 
ATOM     67  C   UNL A   1      40.530  26.298  26.683  1.00  0.00     0.200 A 
ATOM     68  F   UNL A   1      41.960  27.863  25.643  1.00  0.00    -0.200 F 
ATOM     69  F   UNL A   1      40.581  25.510  25.600  1.00  0.00    -0.200 F 
ENDBRANCH  45  59
BRANCH  46  70
ATOM     70  C   UNL A   1      39.573  33.938  36.911  1.00  0.00     0.064 A 
ATOM     71  C   UNL A   1      38.810  33.530  38.015  1.00  0.00     0.173 A 
ATOM     72  C   UNL A   1      40.186  35.198  36.974  1.00  0.00     0.173 A 
ATOM     73  F   UNL A   1      38.187  32.342  37.995  1.00  0.00    -0.203 F 
ATOM     74  C   UNL A   1      38.643  34.360  39.122  1.00  0.00     0.198 A 
ATOM     75  C   UNL A   1      40.045  36.012  38.096  1.00  0.00     0.198 A 
ATOM     76  F   UNL A   1      40.931  35.636  35.949  1.00  0.00    -0.203 F 
ATOM     77  F   UNL A   1      37.863  33.967  40.139  1.00  0.00    -0.200 F 
ATOM     78  C   UNL A   1      39.265  35.597  39.165  1.00  0.00     0.200 A 
ATOM     79  F   UNL A   1      40.662  37.202  38.140  1.00  0.00    -0.200 F 
ATOM     80  F   UNL A   1      39.105  36.394  40.230  1.00  0.00    -0.200 F 
ENDBRANCH  46  70
BRANCH  58  81
ATOM     81  C   UNL A   1      44.024  28.866  35.160  1.00  0.00     0.064 A 
ATOM     82  C   UNL A   1      45.310  29.383  34.947  1.00  0.00     0.173 A 
ATOM     83  C   UNL A   1      43.885  27.807  36.072  1.00  0.00     0.173 A 
ATOM     84  F   UNL A   1      45.500  30.386  34.076  1.00  0.00    -0.203 F 
ATOM     85  C   UNL A   1      46.417  28.839  35.595  1.00  0.00     0.198 A 
ATOM     86  C   UNL A   1      44.989  27.291  36.745  1.00  0.00     0.198 A 
ATOM     87  F   UNL A   1      42.677  27.281  36.320  1.00  0.00    -0.203 F 
ATOM     88  F   UNL A   1      47.642  29.312  35.332  1.00  0.00    -0.200 F 
ATOM     89  C   UNL A   1      46.254  27.800  36.500  1.00  0.00     0.200 A 
ATOM     90  F   UNL A   1      44.826  26.299  37.632  1.00  0.00    -0.200 F 
ATOM     91  F   UNL A   1      47.319  27.285  37.128  1.00  0.00    -0.200 F 
ENDBRANCH  58  81
ENDBRANCH  32  33
ENDBRANCH  24  27
ENDBRANCH  22  23
ENDBRANCH  21  22
ENDBRANCH   1  21
TORSDOF 13
ENDMDL
MODEL 2
REMARK VINA RESULT:     -13.0      0.710      7.599
REMARK SMILES C[C@@H](c1ccncc1)N1C[C@@H](C(=O)NCCCCNC(=O)c2ccc(-c3c4nc(c(-c5c(F)c(F)c(F)c(F)c5F)c5ccc([nH]5)c(-c5c(F)c(F)c(F)c(F)c5F)c5nc(c(-c6c(F)c(F)c(F)c(F)c6F)c6ccc3[nH]6)C=C5)C=C4)cc2)CC1=O
REMARK SMILES IDX 16 1 15 2 14 3 12 4 13 5 11 7 9 8 10 9 86 10 85 11 87 12
REMARK SMILES IDX 2 13 1 14 3 15 4 16 8 17 5 18 7 19 6 20 17 21 18 22 19 23
REMARK SMILES IDX 20 24 21 26 22 27 23 28 84 29 24 30 83 31 25 32 26 33 27 34
REMARK SMILES IDX 77 35 28 36 82 37 76 38 78 39 29 40 81 41 75 42 74 43 30 45
REMARK SMILES IDX 62 46 42 47 61 48 43 49 46 50 60 51 79 52 44 53 45 54 59 56
REMARK SMILES IDX 80 57 47 58 31 59 32 60 40 61 33 62 34 63 38 64 41 65 35 66
REMARK SMILES IDX 36 67 39 68 37 69 63 70 64 71 72 72 65 73 66 74 70 75 73 76
REMARK SMILES IDX 67 77 68 78 71 79 69 80 48 81 49 82 57 83 50 84 51 85 55 86
REMARK SMILES IDX 58 87 52 88 53 89 56 90 54 91
REMARK H PARENT 14 6 19 25 78 44 46 55
REMARK Flexibility Score: inf
ROOT
ATOM      1  C   UNL A   1      31.139  31.094  25.559  1.00  0.00     0.023 C 
ENDROOT
BRANCH   1   2
ATOM      2  C   UNL A   1      31.680  29.669  25.491  1.00  0.00     0.116 C 
BRANCH   2   3
ATOM      3  N   UNL A   1      32.783  29.552  24.552  1.00  0.00    -0.356 N 
ATOM      4  C   UNL A   1      32.887  28.904  23.363  1.00  0.00     0.225 C 
ATOM      5  O   UNL A   1      33.963  28.989  22.764  1.00  0.00    -0.275 OA
ATOM      6  H   UNL A   1      33.600  30.029  24.827  1.00  0.00     0.163 HD
BRANCH   4   7
ATOM      7  C   UNL A   1      31.739  28.130  22.748  1.00  0.00     0.107 C 
ATOM      8  N   UNL A   1      29.385  28.379  22.853  1.00  0.00    -0.335 N 
ATOM      9  C   UNL A   1      30.582  29.032  22.369  1.00  0.00     0.134 C 
ATOM     10  C   UNL A   1      29.673  27.245  23.593  1.00  0.00     0.223 C 
ATOM     11  C   UNL A   1      31.164  27.035  23.628  1.00  0.00     0.115 C 
ATOM     12  O   UNL A   1      28.883  26.499  24.154  1.00  0.00    -0.275 OA
BRANCH   8  13
ATOM     13  C   UNL A   1      28.046  28.923  22.541  1.00  0.00     0.112 C 
ATOM     14  C   UNL A   1      26.941  28.511  23.525  1.00  0.00     0.036 C 
BRANCH  13  15
ATOM     15  C   UNL A   1      28.087  30.424  22.268  1.00  0.00    -0.023 A 
ATOM     16  C   UNL A   1      28.233  31.321  23.338  1.00  0.00     0.026 A 
ATOM     17  C   UNL A   1      27.990  30.969  20.983  1.00  0.00     0.026 A 
ATOM     18  C   UNL A   1      28.246  32.685  23.089  1.00  0.00     0.111 A 
ATOM     19  C   UNL A   1      28.043  32.350  20.831  1.00  0.00     0.111 A 
ATOM     20  N   UNL A   1      28.153  33.218  21.856  1.00  0.00    -0.265 NA
ENDBRANCH  13  15
ENDBRANCH   8  13
ENDBRANCH   4   7
ENDBRANCH   2   3
ENDBRANCH   1   2
BRANCH   1  21
ATOM     21  C   UNL A   1      31.343  31.790  26.905  1.00  0.00     0.023 C 
BRANCH  21  22
ATOM     22  C   UNL A   1      32.638  32.581  27.033  1.00  0.00     0.116 C 
BRANCH  22  23
ATOM     23  N   UNL A   1      32.425  33.955  27.457  1.00  0.00    -0.352 N 
ATOM     24  C   UNL A   1      33.051  34.662  28.455  1.00  0.00     0.251 C 
ATOM     25  H   UNL A   1      31.734  34.449  26.959  1.00  0.00     0.163 HD
ATOM     26  O   UNL A   1      32.642  35.771  28.781  1.00  0.00    -0.269 OA
BRANCH  24  27
ATOM     27  C   UNL A   1      34.207  34.066  29.158  1.00  0.00     0.039 A 
ATOM     28  C   UNL A   1      33.974  33.120  30.159  1.00  0.00     0.014 A 
ATOM     29  C   UNL A   1      35.515  34.426  28.821  1.00  0.00     0.014 A 
ATOM     30  C   UNL A   1      35.056  32.491  30.779  1.00  0.00     0.010 A 
ATOM     31  C   UNL A   1      36.586  33.736  29.374  1.00  0.00     0.010 A 
ATOM     32  C   UNL A   1      36.370  32.768  30.368  1.00  0.00    -0.014 A 
BRANCH  32  33
ATOM     33  C   UNL A   1      37.533  32.073  30.978  1.00  0.00     0.031 A 
ATOM     34  C   UNL A   1      38.007  32.465  32.350  1.00  0.00     0.074 A 
ATOM     35  C   UNL A   1      38.197  31.133  30.276  1.00  0.00     0.049 A 
ATOM     36  N   UNL A   1      39.040  32.029  33.027  1.00  0.00    -0.248 NA
ATOM     37  C   UNL A   1      37.236  33.509  33.043  1.00  0.00     0.031 C 
ATOM     38  C   UNL A   1      37.863  30.697  28.920  1.00  0.00     0.029 A 
ATOM     39  N   UNL A   1      39.297  30.382  30.606  1.00  0.00    -0.354 N 
ATOM     40  C   UNL A   1      39.047  32.753  34.212  1.00  0.00     0.074 A 
ATOM     41  C   UNL A   1      37.958  33.701  34.136  1.00  0.00     0.031 C 
ATOM     42  C   UNL A   1      38.724  29.737  28.543  1.00  0.00     0.029 A 
ATOM     43  C   UNL A   1      39.694  29.520  29.611  1.00  0.00     0.049 A 
ATOM     44  H   UNL A   1      39.758  30.452  31.472  1.00  0.00     0.167 HD
ATOM     45  C   UNL A   1      39.870  32.621  35.280  1.00  0.00     0.037 A 
ATOM     46  C   UNL A   1      40.728  28.658  29.566  1.00  0.00     0.037 A 
ATOM     47  C   UNL A   1      40.941  31.662  35.359  1.00  0.00     0.049 A 
ATOM     48  C   UNL A   1      41.637  28.541  30.761  1.00  0.00     0.074 A 
ATOM     49  C   UNL A   1      41.800  31.414  36.415  1.00  0.00     0.029 A 
ATOM     50  N   UNL A   1      41.300  30.794  34.338  1.00  0.00    -0.354 N 
ATOM     51  N   UNL A   1      41.594  29.183  31.902  1.00  0.00    -0.248 NA
ATOM     52  C   UNL A   1      42.734  27.568  30.662  1.00  0.00     0.031 C 
ATOM     53  C   UNL A   1      42.716  30.436  36.013  1.00  0.00     0.029 A 
ATOM     54  C   UNL A   1      42.384  30.024  34.733  1.00  0.00     0.049 A 
ATOM     55  H   UNL A   1      40.853  30.733  33.464  1.00  0.00     0.167 HD
ATOM     56  C   UNL A   1      42.629  28.667  32.671  1.00  0.00     0.074 A 
ATOM     57  C   UNL A   1      43.276  27.650  31.870  1.00  0.00     0.031 C 
ATOM     58  C   UNL A   1      43.007  29.003  33.929  1.00  0.00     0.037 A 
BRANCH  45  59
ATOM     59  C   UNL A   1      39.646  33.539  36.448  1.00  0.00     0.064 A 
ATOM     60  C   UNL A   1      40.228  34.815  36.506  1.00  0.00     0.173 A 
ATOM     61  C   UNL A   1      38.815  33.152  37.510  1.00  0.00     0.173 A 
ATOM     62  F   UNL A   1      41.041  35.233  35.523  1.00  0.00    -0.203 F 
ATOM     63  C   UNL A   1      40.015  35.654  37.597  1.00  0.00     0.198 A 
ATOM     64  C   UNL A   1      38.575  34.007  38.582  1.00  0.00     0.198 A 
ATOM     65  F   UNL A   1      38.228  31.945  37.505  1.00  0.00    -0.203 F 
ATOM     66  F   UNL A   1      40.627  36.844  37.655  1.00  0.00    -0.200 F 
ATOM     67  C   UNL A   1      39.181  35.253  38.630  1.00  0.00     0.200 A 
ATOM     68  F   UNL A   1      37.756  33.623  39.572  1.00  0.00    -0.200 F 
ATOM     69  F   UNL A   1      38.970  36.063  39.676  1.00  0.00    -0.200 F 
ENDBRANCH  45  59
BRANCH  46  70
ATOM     70  C   UNL A   1      40.947  27.820  28.358  1.00  0.00     0.064 A 
ATOM     71  C   UNL A   1      41.767  28.264  27.310  1.00  0.00     0.173 A 
ATOM     72  C   UNL A   1      40.333  26.567  28.215  1.00  0.00     0.173 A 
ATOM     73  F   UNL A   1      42.361  29.464  27.389  1.00  0.00    -0.203 F 
ATOM     74  C   UNL A   1      41.940  27.502  26.157  1.00  0.00     0.198 A 
ATOM     75  C   UNL A   1      40.534  25.791  27.076  1.00  0.00     0.198 A 
ATOM     76  F   UNL A   1      39.544  26.090  29.189  1.00  0.00    -0.203 F 
ATOM     77  F   UNL A   1      42.685  27.977  25.148  1.00  0.00    -0.200 F 
ATOM     78  C   UNL A   1      41.329  26.264  26.042  1.00  0.00     0.200 A 
ATOM     79  F   UNL A   1      39.954  24.586  26.976  1.00  0.00    -0.200 F 
ATOM     80  F   UNL A   1      41.497  25.530  24.934  1.00  0.00    -0.200 F 
ENDBRANCH  46  70
BRANCH  58  81
ATOM     81  C   UNL A   1      44.137  28.224  34.544  1.00  0.00     0.064 A 
ATOM     82  C   UNL A   1      43.922  27.027  35.241  1.00  0.00     0.173 A 
ATOM     83  C   UNL A   1      45.461  28.670  34.398  1.00  0.00     0.173 A 
ATOM     84  F   UNL A   1      42.677  26.563  35.420  1.00  0.00    -0.203 F 
ATOM     85  C   UNL A   1      44.987  26.322  35.798  1.00  0.00     0.198 A 
ATOM     86  C   UNL A   1      46.525  27.944  34.924  1.00  0.00     0.198 A 
ATOM     87  F   UNL A   1      45.723  29.805  33.732  1.00  0.00    -0.203 F 
ATOM     88  F   UNL A   1      44.752  25.210  36.509  1.00  0.00    -0.200 F 
ATOM     89  C   UNL A   1      46.287  26.776  35.631  1.00  0.00     0.200 A 
ATOM     90  F   UNL A   1      47.781  28.376  34.746  1.00  0.00    -0.200 F 
ATOM     91  F   UNL A   1      47.310  26.092  36.161  1.00  0.00    -0.200 F 
ENDBRANCH  58  81
ENDBRANCH  32  33
ENDBRANCH  24  27
ENDBRANCH  22  23
ENDBRANCH  21  22
ENDBRANCH   1  21
TORSDOF 13
ENDMDL
MODEL 3
REMARK VINA RESULT:     -12.9      2.120      3.757
REMARK SMILES C[C@@H](c1ccncc1)N1C[C@@H](C(=O)NCCCCNC(=O)c2ccc(-c3c4nc(c(-c5c(F)c(F)c(F)c(F)c5F)c5ccc([nH]5)c(-c5c(F)c(F)c(F)c(F)c5F)c5nc(c(-c6c(F)c(F)c(F)c(F)c6F)c6ccc3[nH]6)C=C5)C=C4)cc2)CC1=O
REMARK SMILES IDX 16 1 15 2 14 3 12 4 13 5 11 7 9 8 10 9 86 10 85 11 87 12
REMARK SMILES IDX 2 13 1 14 3 15 4 16 8 17 5 18 7 19 6 20 17 21 18 22 19 23
REMARK SMILES IDX 20 24 21 26 22 27 23 28 84 29 24 30 83 31 25 32 26 33 27 34
REMARK SMILES IDX 77 35 28 36 82 37 76 38 78 39 29 40 81 41 75 42 74 43 30 45
REMARK SMILES IDX 62 46 42 47 61 48 43 49 46 50 60 51 79 52 44 53 45 54 59 56
REMARK SMILES IDX 80 57 47 58 31 59 32 60 40 61 33 62 34 63 38 64 41 65 35 66
REMARK SMILES IDX 36 67 39 68 37 69 63 70 64 71 72 72 65 73 66 74 70 75 73 76
REMARK SMILES IDX 67 77 68 78 71 79 69 80 48 81 49 82 57 83 50 84 51 85 55 86
REMARK SMILES IDX 58 87 52 88 53 89 56 90 54 91
REMARK H PARENT 14 6 19 25 78 44 46 55
REMARK Flexibility Score: inf
ROOT
ATOM      1  C   UNL A   1      31.527  30.669  26.281  1.00  0.00     0.023 C 
ENDROOT
BRANCH   1   2
ATOM      2  C   UNL A   1      32.957  30.139  26.225  1.00  0.00     0.116 C 
BRANCH   2   3
ATOM      3  N   UNL A   1      33.191  29.336  25.036  1.00  0.00    -0.356 N 
ATOM      4  C   UNL A   1      33.360  27.999  24.874  1.00  0.00     0.225 C 
ATOM      5  O   UNL A   1      33.535  27.586  23.723  1.00  0.00    -0.275 OA
ATOM      6  H   UNL A   1      33.234  29.855  24.200  1.00  0.00     0.163 HD
BRANCH   4   7
ATOM      7  C   UNL A   1      33.307  27.019  26.028  1.00  0.00     0.107 C 
ATOM      8  N   UNL A   1      33.280  24.653  26.137  1.00  0.00    -0.335 N 
ATOM      9  C   UNL A   1      34.116  25.769  25.752  1.00  0.00     0.134 C 
ATOM     10  C   UNL A   1      32.007  25.057  26.501  1.00  0.00     0.223 C 
ATOM     11  C   UNL A   1      31.912  26.558  26.410  1.00  0.00     0.115 C 
ATOM     12  O   UNL A   1      31.070  24.352  26.847  1.00  0.00    -0.275 OA
BRANCH   8  13
ATOM     13  C   UNL A   1      33.804  23.271  26.121  1.00  0.00     0.112 C 
ATOM     14  C   UNL A   1      33.743  22.546  27.474  1.00  0.00     0.036 C 
BRANCH  13  15
ATOM     15  C   UNL A   1      33.231  22.453  24.967  1.00  0.00    -0.023 A 
ATOM     16  C   UNL A   1      33.029  23.061  23.718  1.00  0.00     0.026 A 
ATOM     17  C   UNL A   1      32.892  21.101  25.085  1.00  0.00     0.026 A 
ATOM     18  C   UNL A   1      32.486  22.321  22.678  1.00  0.00     0.111 A 
ATOM     19  C   UNL A   1      32.381  20.435  23.977  1.00  0.00     0.111 A 
ATOM     20  N   UNL A   1      32.157  21.020  22.782  1.00  0.00    -0.265 NA
ENDBRANCH  13  15
ENDBRANCH   8  13
ENDBRANCH   4   7
ENDBRANCH   2   3
ENDBRANCH   1   2
BRANCH   1  21
ATOM     21  C   UNL A   1      31.413  32.176  26.506  1.00  0.00     0.023 C 
BRANCH  21  22
ATOM     22  C   UNL A   1      32.573  32.805  27.265  1.00  0.00     0.116 C 
BRANCH  22  23
ATOM     23  N   UNL A   1      32.344  34.202  27.598  1.00  0.00    -0.352 N 
ATOM     24  C   UNL A   1      32.954  34.978  28.554  1.00  0.00     0.251 C 
ATOM     25  H   UNL A   1      31.653  34.656  27.064  1.00  0.00     0.163 HD
ATOM     26  O   UNL A   1      32.532  36.101  28.804  1.00  0.00    -0.269 OA
BRANCH  24  27
ATOM     27  C   UNL A   1      34.108  34.439  29.305  1.00  0.00     0.039 A 
ATOM     28  C   UNL A   1      33.879  33.773  30.511  1.00  0.00     0.014 A 
ATOM     29  C   UNL A   1      35.409  34.576  28.813  1.00  0.00     0.014 A 
ATOM     30  C   UNL A   1      34.949  33.191  31.193  1.00  0.00     0.010 A 
ATOM     31  C   UNL A   1      36.459  33.921  29.446  1.00  0.00     0.010 A 
ATOM     32  C   UNL A   1      36.243  33.230  30.649  1.00  0.00    -0.014 A 
BRANCH  32  33
ATOM     33  C   UNL A   1      37.388  32.574  31.331  1.00  0.00     0.031 A 
ATOM     34  C   UNL A   1      38.105  31.431  30.667  1.00  0.00     0.074 A 
ATOM     35  C   UNL A   1      37.747  32.968  32.569  1.00  0.00     0.049 A 
ATOM     36  N   UNL A   1      39.080  30.685  31.122  1.00  0.00    -0.248 NA
ATOM     37  C   UNL A   1      37.643  31.054  29.322  1.00  0.00     0.031 C 
ATOM     38  C   UNL A   1      37.103  34.034  33.338  1.00  0.00     0.029 A 
ATOM     39  N   UNL A   1      38.737  32.509  33.402  1.00  0.00    -0.354 N 
ATOM     40  C   UNL A   1      39.335  29.749  30.129  1.00  0.00     0.074 A 
ATOM     41  C   UNL A   1      38.372  29.976  29.075  1.00  0.00     0.031 C 
ATOM     42  C   UNL A   1      37.730  34.165  34.518  1.00  0.00     0.029 A 
ATOM     43  C   UNL A   1      38.791  33.166  34.608  1.00  0.00     0.049 A 
ATOM     44  H   UNL A   1      39.351  31.779  33.159  1.00  0.00     0.167 HD
ATOM     45  C   UNL A   1      40.303  28.802  30.086  1.00  0.00     0.037 A 
ATOM     46  C   UNL A   1      39.601  32.978  35.668  1.00  0.00     0.037 A 
ATOM     47  C   UNL A   1      41.273  28.593  31.130  1.00  0.00     0.049 A 
ATOM     48  C   UNL A   1      40.659  31.910  35.601  1.00  0.00     0.074 A 
ATOM     49  C   UNL A   1      42.325  27.694  31.161  1.00  0.00     0.029 A 
ATOM     50  N   UNL A   1      41.306  29.290  32.328  1.00  0.00    -0.354 N 
ATOM     51  N   UNL A   1      40.934  31.074  34.630  1.00  0.00    -0.248 NA
ATOM     52  C   UNL A   1      41.527  31.766  36.777  1.00  0.00     0.031 C 
ATOM     53  C   UNL A   1      42.960  27.809  32.402  1.00  0.00     0.029 A 
ATOM     54  C   UNL A   1      42.348  28.826  33.116  1.00  0.00     0.049 A 
ATOM     55  H   UNL A   1      40.683  30.008  32.582  1.00  0.00     0.167 HD
ATOM     56  C   UNL A   1      42.029  30.335  35.059  1.00  0.00     0.074 A 
ATOM     57  C   UNL A   1      42.374  30.829  36.375  1.00  0.00     0.031 C 
ATOM     58  C   UNL A   1      42.690  29.339  34.419  1.00  0.00     0.037 A 
BRANCH  45  59
ATOM     59  C   UNL A   1      40.359  27.919  28.872  1.00  0.00     0.064 A 
ATOM     60  C   UNL A   1      39.639  26.715  28.802  1.00  0.00     0.173 A 
ATOM     61  C   UNL A   1      41.115  28.293  27.752  1.00  0.00     0.173 A 
ATOM     62  F   UNL A   1      38.908  26.302  29.849  1.00  0.00    -0.203 F 
ATOM     63  C   UNL A   1      39.704  25.905  27.672  1.00  0.00     0.198 A 
ATOM     64  C   UNL A   1      41.149  27.498  26.609  1.00  0.00     0.198 A 
ATOM     65  F   UNL A   1      41.818  29.436  27.761  1.00  0.00    -0.203 F 
ATOM     66  F   UNL A   1      39.054  24.732  27.652  1.00  0.00    -0.200 F 
ATOM     67  C   UNL A   1      40.451  26.301  26.573  1.00  0.00     0.200 A 
ATOM     68  F   UNL A   1      41.859  27.891  25.542  1.00  0.00    -0.200 F 
ATOM     69  F   UNL A   1      40.506  25.524  25.482  1.00  0.00    -0.200 F 
ENDBRANCH  45  59
BRANCH  46  70
ATOM     70  C   UNL A   1      39.460  33.836  36.875  1.00  0.00     0.064 A 
ATOM     71  C   UNL A   1      38.712  33.407  37.981  1.00  0.00     0.173 A 
ATOM     72  C   UNL A   1      40.054  35.104  36.944  1.00  0.00     0.173 A 
ATOM     73  F   UNL A   1      38.107  32.210  37.956  1.00  0.00    -0.203 F 
ATOM     74  C   UNL A   1      38.541  34.225  39.096  1.00  0.00     0.198 A 
ATOM     75  C   UNL A   1      39.910  35.907  38.074  1.00  0.00     0.198 A 
ATOM     76  F   UNL A   1      40.786  35.562  35.917  1.00  0.00    -0.203 F 
ATOM     77  F   UNL A   1      37.774  33.812  40.115  1.00  0.00    -0.200 F 
ATOM     78  C   UNL A   1      39.144  35.471  39.145  1.00  0.00     0.200 A 
ATOM     79  F   UNL A   1      40.509  37.105  38.123  1.00  0.00    -0.200 F 
ATOM     80  F   UNL A   1      38.981  36.257  40.218  1.00  0.00    -0.200 F 
ENDBRANCH  46  70
BRANCH  58  81
ATOM     81  C   UNL A   1      43.893  28.754  35.105  1.00  0.00     0.064 A 
ATOM     82  C   UNL A   1      43.791  27.672  35.991  1.00  0.00     0.173 A 
ATOM     83  C   UNL A   1      45.174  29.266  34.839  1.00  0.00     0.173 A 
ATOM     84  F   UNL A   1      42.590  27.155  36.290  1.00  0.00    -0.203 F 
ATOM     85  C   UNL A   1      44.922  27.146  36.612  1.00  0.00     0.198 A 
ATOM     86  C   UNL A   1      46.305  28.713  35.433  1.00  0.00     0.198 A 
ATOM     87  F   UNL A   1      45.329  30.295  33.992  1.00  0.00    -0.203 F 
ATOM     88  F   UNL A   1      44.793  26.150  37.499  1.00  0.00    -0.200 F 
ATOM     89  C   UNL A   1      46.178  27.661  36.325  1.00  0.00     0.200 A 
ATOM     90  F   UNL A   1      47.519  29.201  35.141  1.00  0.00    -0.200 F 
ATOM     91  F   UNL A   1      47.265  27.148  36.917  1.00  0.00    -0.200 F 
ENDBRANCH  58  81
ENDBRANCH  32  33
ENDBRANCH  24  27
ENDBRANCH  22  23
ENDBRANCH  21  22
ENDBRANCH   1  21
TORSDOF 13
ENDMDL
