MODEL 1
REMARK VINA RESULT:     -13.2      0.000      0.000
REMARK SMILES CCc1nn(C)c(C[C@@H](C(=O)NCCCCNC(=O)c2ccc(-c3c4nc(c(-c5c(F)c(F)c(F)c(F)c5F)c5ccc([nH]5)c(-c5c(F)c(F)c(F)c(F)c5F)c5nc(c(-c6c(F)c(F)c(F)c(F)c6F)c6ccc3[nH]6)C=C5)C=C4)cc2)c2cccc(C)c2)c1Br
REMARK SMILES IDX 14 1 13 2 12 3 10 4 11 5 9 7 8 8 7 9 3 10 4 11 90 12 5 13
REMARK SMILES IDX 91 14 6 15 2 16 1 17 83 18 84 19 89 20 85 21 87 22 86 23
REMARK SMILES IDX 88 24 15 25 16 26 17 27 18 28 19 30 20 31 21 32 82 33 22 34
REMARK SMILES IDX 81 35 23 36 24 37 25 38 75 39 26 40 80 41 74 42 76 43 27 44
REMARK SMILES IDX 79 45 73 46 72 47 28 49 60 50 40 51 59 52 41 53 44 54 58 55
REMARK SMILES IDX 77 56 42 57 43 58 57 60 78 61 45 62 29 63 30 64 38 65 31 66
REMARK SMILES IDX 32 67 36 68 39 69 33 70 34 71 37 72 35 73 61 74 62 75 70 76
REMARK SMILES IDX 63 77 64 78 68 79 71 80 65 81 66 82 69 83 67 84 46 85 47 86
REMARK SMILES IDX 55 87 48 88 49 89 53 90 56 91 50 92 51 93 54 94 52 95
REMARK H PARENT 12 6 17 29 76 48 44 59
REMARK Flexibility Score: inf
ROOT
ATOM      1  C   UNL A   1      37.260  22.447  24.973  1.00  0.00     0.023 C 
ENDROOT
BRANCH   1   2
ATOM      2  C   UNL A   1      36.482  23.234  26.034  1.00  0.00     0.116 C 
BRANCH   2   3
ATOM      3  N   UNL A   1      35.459  22.443  26.692  1.00  0.00    -0.356 N 
ATOM      4  C   UNL A   1      34.288  21.869  26.308  1.00  0.00     0.227 C 
ATOM      5  O   UNL A   1      33.752  21.227  27.221  1.00  0.00    -0.274 OA
ATOM      6  H   UNL A   1      35.662  22.284  27.643  1.00  0.00     0.163 HD
BRANCH   4   7
ATOM      7  C   UNL A   1      33.675  21.952  24.877  1.00  0.00     0.114 C 
BRANCH   7   8
ATOM      8  C   UNL A   1      32.211  22.437  24.773  1.00  0.00     0.075 C 
BRANCH   8   9
ATOM      9  C   UNL A   1      31.839  23.760  25.326  1.00  0.00     0.054 A 
ATOM     10  C   UNL A   1      31.509  25.898  25.865  1.00  0.00     0.077 A 
ATOM     11  N   UNL A   1      30.591  25.208  26.561  1.00  0.00    -0.177 NA
ATOM     12  C   UNL A   1      32.261  25.036  25.039  1.00  0.00     0.062 A 
ATOM     13  N   UNL A   1      30.815  23.919  26.229  1.00  0.00    -0.271 N 
ATOM     14  Br  UNL A   1      33.593  25.552  23.828  1.00  0.00    -0.047 Br
ATOM     15  C   UNL A   1      30.159  22.867  26.980  1.00  0.00     0.174 C 
BRANCH  10  16
ATOM     16  C   UNL A   1      31.645  27.370  26.071  1.00  0.00     0.056 C 
ATOM     17  C   UNL A   1      32.902  27.732  26.855  1.00  0.00     0.011 C 
ENDBRANCH  10  16
ENDBRANCH   8   9
ENDBRANCH   7   8
BRANCH   7  18
ATOM     18  C   UNL A   1      33.562  20.547  24.209  1.00  0.00    -0.035 A 
ATOM     19  C   UNL A   1      32.431  20.191  23.461  1.00  0.00     0.004 A 
ATOM     20  C   UNL A   1      34.453  19.520  24.593  1.00  0.00     0.008 A 
ATOM     21  C   UNL A   1      32.193  18.847  23.144  1.00  0.00     0.001 A 
ATOM     22  C   UNL A   1      34.212  18.175  24.298  1.00  0.00    -0.051 A 
ATOM     23  C   UNL A   1      33.069  17.844  23.571  1.00  0.00     0.003 A 
ATOM     24  C   UNL A   1      35.129  17.112  24.828  1.00  0.00     0.044 C 
ENDBRANCH   7  18
ENDBRANCH   4   7
ENDBRANCH   2   3
ENDBRANCH   1   2
BRANCH   1  25
ATOM     25  C   UNL A   1      38.342  21.434  25.365  1.00  0.00     0.023 C 
BRANCH  25  26
ATOM     26  C   UNL A   1      39.284  21.874  26.479  1.00  0.00     0.116 C 
BRANCH  26  27
ATOM     27  N   UNL A   1      40.687  22.012  26.057  1.00  0.00    -0.352 N 
ATOM     28  C   UNL A   1      41.517  23.119  26.160  1.00  0.00     0.251 C 
ATOM     29  H   UNL A   1      41.091  21.213  25.645  1.00  0.00     0.163 HD
ATOM     30  O   UNL A   1      42.549  23.232  25.511  1.00  0.00    -0.269 OA
BRANCH  28  31
ATOM     31  C   UNL A   1      41.112  24.163  27.110  1.00  0.00     0.039 A 
ATOM     32  C   UNL A   1      41.877  24.472  28.238  1.00  0.00     0.014 A 
ATOM     33  C   UNL A   1      40.106  25.003  26.658  1.00  0.00     0.014 A 
ATOM     34  C   UNL A   1      41.724  25.733  28.813  1.00  0.00     0.010 A 
ATOM     35  C   UNL A   1      40.137  26.304  27.080  1.00  0.00     0.010 A 
ATOM     36  C   UNL A   1      40.899  26.679  28.182  1.00  0.00    -0.014 A 
BRANCH  36  37
ATOM     37  C   UNL A   1      40.904  28.090  28.576  1.00  0.00     0.031 A 
ATOM     38  C   UNL A   1      41.993  28.926  28.002  1.00  0.00     0.074 A 
ATOM     39  C   UNL A   1      39.899  28.680  29.262  1.00  0.00     0.049 A 
ATOM     40  N   UNL A   1      43.058  29.337  28.609  1.00  0.00    -0.248 NA
ATOM     41  C   UNL A   1      41.959  29.272  26.573  1.00  0.00     0.031 C 
ATOM     42  C   UNL A   1      38.595  28.114  29.642  1.00  0.00     0.029 A 
ATOM     43  N   UNL A   1      39.801  29.967  29.705  1.00  0.00    -0.354 N 
ATOM     44  C   UNL A   1      43.712  30.179  27.713  1.00  0.00     0.074 A 
ATOM     45  C   UNL A   1      43.105  29.947  26.429  1.00  0.00     0.031 C 
ATOM     46  C   UNL A   1      37.758  29.098  30.022  1.00  0.00     0.029 A 
ATOM     47  C   UNL A   1      38.538  30.309  30.158  1.00  0.00     0.049 A 
ATOM     48  H   UNL A   1      40.560  30.596  29.703  1.00  0.00     0.167 HD
ATOM     49  C   UNL A   1      44.492  31.200  28.173  1.00  0.00     0.037 A 
ATOM     50  C   UNL A   1      38.140  31.478  30.702  1.00  0.00     0.037 A 
ATOM     51  C   UNL A   1      44.678  31.091  29.598  1.00  0.00     0.049 A 
ATOM     52  C   UNL A   1      39.333  32.125  31.284  1.00  0.00     0.074 A 
ATOM     53  C   UNL A   1      45.449  30.346  30.461  1.00  0.00     0.029 A 
ATOM     54  N   UNL A   1      43.650  31.627  30.327  1.00  0.00    -0.354 N 
ATOM     55  N   UNL A   1      40.006  31.619  32.282  1.00  0.00    -0.248 NA
ATOM     56  C   UNL A   1      40.013  33.179  30.540  1.00  0.00     0.031 C 
ATOM     57  C   UNL A   1      44.741  30.313  31.702  1.00  0.00     0.029 A 
ATOM     58  C   UNL A   1      43.575  31.065  31.573  1.00  0.00     0.049 A 
ATOM     59  H   UNL A   1      43.042  32.327  29.997  1.00  0.00     0.167 HD
ATOM     60  C   UNL A   1      41.315  31.970  32.018  1.00  0.00     0.074 A 
ATOM     61  C   UNL A   1      41.236  33.068  31.065  1.00  0.00     0.031 C 
ATOM     62  C   UNL A   1      42.345  31.133  32.331  1.00  0.00     0.037 A 
BRANCH  49  63
ATOM     63  C   UNL A   1      44.702  32.538  27.495  1.00  0.00     0.064 A 
ATOM     64  C   UNL A   1      45.902  32.766  26.785  1.00  0.00     0.173 A 
ATOM     65  C   UNL A   1      43.942  33.691  27.783  1.00  0.00     0.173 A 
ATOM     66  F   UNL A   1      46.715  31.745  26.474  1.00  0.00    -0.203 F 
ATOM     67  C   UNL A   1      46.335  34.054  26.452  1.00  0.00     0.198 A 
ATOM     68  C   UNL A   1      44.353  34.970  27.403  1.00  0.00     0.198 A 
ATOM     69  F   UNL A   1      42.841  33.644  28.541  1.00  0.00    -0.203 F 
ATOM     70  F   UNL A   1      47.537  34.228  25.885  1.00  0.00    -0.200 F 
ATOM     71  C   UNL A   1      45.563  35.156  26.766  1.00  0.00     0.200 A 
ATOM     72  F   UNL A   1      43.602  36.028  27.738  1.00  0.00    -0.200 F 
ATOM     73  F   UNL A   1      46.000  36.393  26.503  1.00  0.00    -0.200 F 
ENDBRANCH  49  63
BRANCH  50  74
ATOM     74  C   UNL A   1      36.823  32.126  30.575  1.00  0.00     0.064 A 
ATOM     75  C   UNL A   1      35.905  32.121  31.631  1.00  0.00     0.173 A 
ATOM     76  C   UNL A   1      36.560  33.003  29.504  1.00  0.00     0.173 A 
ATOM     77  F   UNL A   1      36.102  31.327  32.692  1.00  0.00    -0.203 F 
ATOM     78  C   UNL A   1      34.807  32.987  31.641  1.00  0.00     0.198 A 
ATOM     79  C   UNL A   1      35.464  33.863  29.514  1.00  0.00     0.198 A 
ATOM     80  F   UNL A   1      37.417  33.104  28.476  1.00  0.00    -0.203 F 
ATOM     81  F   UNL A   1      33.986  33.007  32.700  1.00  0.00    -0.200 F 
ATOM     82  C   UNL A   1      34.599  33.868  30.593  1.00  0.00     0.200 A 
ATOM     83  F   UNL A   1      35.291  34.732  28.508  1.00  0.00    -0.200 F 
ATOM     84  F   UNL A   1      33.591  34.750  30.640  1.00  0.00    -0.200 F 
ENDBRANCH  50  74
BRANCH  62  85
ATOM     85  C   UNL A   1      42.110  30.126  33.413  1.00  0.00     0.064 A 
ATOM     86  C   UNL A   1      41.722  28.794  33.195  1.00  0.00     0.173 A 
ATOM     87  C   UNL A   1      42.345  30.520  34.737  1.00  0.00     0.173 A 
ATOM     88  F   UNL A   1      41.549  28.320  31.957  1.00  0.00    -0.203 F 
ATOM     89  C   UNL A   1      41.534  27.913  34.261  1.00  0.00     0.198 A 
ATOM     90  C   UNL A   1      42.188  29.631  35.796  1.00  0.00     0.198 A 
ATOM     91  F   UNL A   1      42.756  31.770  35.001  1.00  0.00    -0.203 F 
ATOM     92  F   UNL A   1      41.138  26.652  34.029  1.00  0.00    -0.200 F 
ATOM     93  C   UNL A   1      41.771  28.332  35.559  1.00  0.00     0.200 A 
ATOM     94  F   UNL A   1      42.457  30.033  37.046  1.00  0.00    -0.200 F 
ATOM     95  F   UNL A   1      41.615  27.481  36.582  1.00  0.00    -0.200 F 
ENDBRANCH  62  85
ENDBRANCH  36  37
ENDBRANCH  28  31
ENDBRANCH  26  27
ENDBRANCH  25  26
ENDBRANCH   1  25
TORSDOF 15
ENDMDL
MODEL 2
REMARK VINA RESULT:     -12.9      2.281      3.134
REMARK SMILES CCc1nn(C)c(C[C@@H](C(=O)NCCCCNC(=O)c2ccc(-c3c4nc(c(-c5c(F)c(F)c(F)c(F)c5F)c5ccc([nH]5)c(-c5c(F)c(F)c(F)c(F)c5F)c5nc(c(-c6c(F)c(F)c(F)c(F)c6F)c6ccc3[nH]6)C=C5)C=C4)cc2)c2cccc(C)c2)c1Br
REMARK SMILES IDX 14 1 13 2 12 3 10 4 11 5 9 7 8 8 7 9 3 10 4 11 90 12 5 13
REMARK SMILES IDX 91 14 6 15 2 16 1 17 83 18 84 19 89 20 85 21 87 22 86 23
REMARK SMILES IDX 88 24 15 25 16 26 17 27 18 28 19 30 20 31 21 32 82 33 22 34
REMARK SMILES IDX 81 35 23 36 24 37 25 38 75 39 26 40 80 41 74 42 76 43 27 44
REMARK SMILES IDX 79 45 73 46 72 47 28 49 60 50 40 51 59 52 41 53 44 54 58 55
REMARK SMILES IDX 77 56 42 57 43 58 57 60 78 61 45 62 29 63 30 64 38 65 31 66
REMARK SMILES IDX 32 67 36 68 39 69 33 70 34 71 37 72 35 73 61 74 62 75 70 76
REMARK SMILES IDX 63 77 64 78 68 79 71 80 65 81 66 82 69 83 67 84 46 85 47 86
REMARK SMILES IDX 55 87 48 88 49 89 53 90 56 91 50 92 51 93 54 94 52 95
REMARK H PARENT 12 6 17 29 76 48 44 59
REMARK Flexibility Score: inf
ROOT
ATOM      1  C   UNL A   1      38.526  22.160  26.065  1.00  0.00     0.023 C 
ENDROOT
BRANCH   1   2
ATOM      2  C   UNL A   1      37.101  22.212  25.499  1.00  0.00     0.116 C 
BRANCH   2   3
ATOM      3  N   UNL A   1      36.087  21.868  26.478  1.00  0.00    -0.356 N 
ATOM      4  C   UNL A   1      34.736  21.713  26.454  1.00  0.00     0.227 C 
ATOM      5  O   UNL A   1      34.281  21.355  27.548  1.00  0.00    -0.274 OA
ATOM      6  H   UNL A   1      36.468  21.707  27.372  1.00  0.00     0.163 HD
BRANCH   4   7
ATOM      7  C   UNL A   1      33.832  21.915  25.201  1.00  0.00     0.114 C 
BRANCH   7   8
ATOM      8  C   UNL A   1      32.361  22.313  25.460  1.00  0.00     0.075 C 
BRANCH   8   9
ATOM      9  C   UNL A   1      32.039  23.706  25.847  1.00  0.00     0.054 A 
ATOM     10  C   UNL A   1      31.868  25.900  26.203  1.00  0.00     0.077 A 
ATOM     11  N   UNL A   1      30.718  25.374  26.654  1.00  0.00    -0.177 NA
ATOM     12  C   UNL A   1      32.687  24.900  25.638  1.00  0.00     0.062 A 
ATOM     13  N   UNL A   1      30.846  24.048  26.439  1.00  0.00    -0.271 N 
ATOM     14  Br  UNL A   1      34.343  25.168  24.807  1.00  0.00    -0.047 Br
ATOM     15  C   UNL A   1      29.884  23.137  27.025  1.00  0.00     0.174 C 
BRANCH  10  16
ATOM     16  C   UNL A   1      32.141  27.357  26.386  1.00  0.00     0.056 C 
ATOM     17  C   UNL A   1      31.492  27.913  27.649  1.00  0.00     0.011 C 
ENDBRANCH  10  16
ENDBRANCH   8   9
ENDBRANCH   7   8
BRANCH   7  18
ATOM     18  C   UNL A   1      33.636  20.589  24.403  1.00  0.00    -0.035 A 
ATOM     19  C   UNL A   1      32.504  20.387  23.603  1.00  0.00     0.004 A 
ATOM     20  C   UNL A   1      34.441  19.468  24.708  1.00  0.00     0.008 A 
ATOM     21  C   UNL A   1      32.178  19.099  23.158  1.00  0.00     0.001 A 
ATOM     22  C   UNL A   1      34.113  18.178  24.285  1.00  0.00    -0.051 A 
ATOM     23  C   UNL A   1      32.969  17.999  23.507  1.00  0.00     0.003 A 
ATOM     24  C   UNL A   1      34.936  17.006  24.732  1.00  0.00     0.044 C 
ENDBRANCH   7  18
ENDBRANCH   4   7
ENDBRANCH   2   3
ENDBRANCH   1   2
BRANCH   1  25
ATOM     25  C   UNL A   1      39.417  20.929  25.866  1.00  0.00     0.023 C 
BRANCH  25  26
ATOM     26  C   UNL A   1      40.638  20.845  26.774  1.00  0.00     0.116 C 
BRANCH  26  27
ATOM     27  N   UNL A   1      41.684  19.931  26.287  1.00  0.00    -0.352 N 
ATOM     28  C   UNL A   1      42.876  20.241  25.649  1.00  0.00     0.251 C 
ATOM     29  H   UNL A   1      41.514  18.971  26.431  1.00  0.00     0.163 HD
ATOM     30  O   UNL A   1      43.521  19.414  25.018  1.00  0.00    -0.269 OA
BRANCH  28  31
ATOM     31  C   UNL A   1      43.356  21.623  25.779  1.00  0.00     0.039 A 
ATOM     32  C   UNL A   1      42.982  22.623  24.880  1.00  0.00     0.014 A 
ATOM     33  C   UNL A   1      43.946  21.921  26.998  1.00  0.00     0.014 A 
ATOM     34  C   UNL A   1      43.057  23.951  25.300  1.00  0.00     0.010 A 
ATOM     35  C   UNL A   1      43.792  23.194  27.476  1.00  0.00     0.010 A 
ATOM     36  C   UNL A   1      43.397  24.230  26.634  1.00  0.00    -0.014 A 
BRANCH  36  37
ATOM     37  C   UNL A   1      43.235  25.567  27.207  1.00  0.00     0.031 A 
ATOM     38  C   UNL A   1      44.225  26.591  26.773  1.00  0.00     0.074 A 
ATOM     39  C   UNL A   1      42.161  25.945  27.938  1.00  0.00     0.049 A 
ATOM     40  N   UNL A   1      45.228  27.037  27.453  1.00  0.00    -0.248 NA
ATOM     41  C   UNL A   1      44.164  27.114  25.400  1.00  0.00     0.031 C 
ATOM     42  C   UNL A   1      40.928  25.189  28.209  1.00  0.00     0.029 A 
ATOM     43  N   UNL A   1      41.910  27.143  28.541  1.00  0.00    -0.354 N 
ATOM     44  C   UNL A   1      45.789  28.058  26.690  1.00  0.00     0.074 A 
ATOM     45  C   UNL A   1      45.226  27.928  25.372  1.00  0.00     0.031 C 
ATOM     46  C   UNL A   1      39.979  26.013  28.692  1.00  0.00     0.029 A 
ATOM     47  C   UNL A   1      40.612  27.277  29.003  1.00  0.00     0.049 A 
ATOM     48  H   UNL A   1      42.590  27.849  28.639  1.00  0.00     0.167 HD
ATOM     49  C   UNL A   1      46.440  29.092  27.297  1.00  0.00     0.037 A 
ATOM     50  C   UNL A   1      40.075  28.311  29.682  1.00  0.00     0.037 A 
ATOM     51  C   UNL A   1      46.624  28.819  28.701  1.00  0.00     0.049 A 
ATOM     52  C   UNL A   1      41.179  29.007  30.372  1.00  0.00     0.074 A 
ATOM     53  C   UNL A   1      47.468  28.060  29.480  1.00  0.00     0.029 A 
ATOM     54  N   UNL A   1      45.534  29.134  29.467  1.00  0.00    -0.354 N 
ATOM     55  N   UNL A   1      41.897  28.455  31.313  1.00  0.00    -0.248 NA
ATOM     56  C   UNL A   1      41.740  30.220  29.788  1.00  0.00     0.031 C 
ATOM     57  C   UNL A   1      46.756  27.784  30.687  1.00  0.00     0.029 A 
ATOM     58  C   UNL A   1      45.513  28.409  30.628  1.00  0.00     0.049 A 
ATOM     59  H   UNL A   1      44.851  29.798  29.215  1.00  0.00     0.167 HD
ATOM     60  C   UNL A   1      43.159  28.985  31.130  1.00  0.00     0.074 A 
ATOM     61  C   UNL A   1      42.962  30.182  30.324  1.00  0.00     0.031 C 
ATOM     62  C   UNL A   1      44.276  28.236  31.357  1.00  0.00     0.037 A 
BRANCH  49  63
ATOM     63  C   UNL A   1      46.500  30.523  26.803  1.00  0.00     0.064 A 
ATOM     64  C   UNL A   1      47.734  31.210  26.842  1.00  0.00     0.173 A 
ATOM     65  C   UNL A   1      45.363  31.334  26.608  1.00  0.00     0.173 A 
ATOM     66  F   UNL A   1      48.881  30.543  27.043  1.00  0.00    -0.203 F 
ATOM     67  C   UNL A   1      47.810  32.605  26.760  1.00  0.00     0.198 A 
ATOM     68  C   UNL A   1      45.449  32.721  26.474  1.00  0.00     0.198 A 
ATOM     69  F   UNL A   1      44.122  30.838  26.658  1.00  0.00    -0.203 F 
ATOM     70  F   UNL A   1      48.990  33.219  26.922  1.00  0.00    -0.200 F 
ATOM     71  C   UNL A   1      46.667  33.359  26.582  1.00  0.00     0.200 A 
ATOM     72  F   UNL A   1      44.326  33.437  26.326  1.00  0.00    -0.200 F 
ATOM     73  F   UNL A   1      46.727  34.697  26.562  1.00  0.00    -0.200 F 
ENDBRANCH  49  63
BRANCH  50  74
ATOM     74  C   UNL A   1      38.693  28.816  29.608  1.00  0.00     0.064 A 
ATOM     75  C   UNL A   1      37.920  28.995  30.761  1.00  0.00     0.173 A 
ATOM     76  C   UNL A   1      38.208  29.394  28.418  1.00  0.00     0.173 A 
ATOM     77  F   UNL A   1      38.330  28.489  31.932  1.00  0.00    -0.203 F 
ATOM     78  C   UNL A   1      36.749  29.758  30.737  1.00  0.00     0.198 A 
ATOM     79  C   UNL A   1      37.040  30.152  28.395  1.00  0.00     0.198 A 
ATOM     80  F   UNL A   1      38.914  29.311  27.279  1.00  0.00    -0.203 F 
ATOM     81  F   UNL A   1      36.070  29.969  31.873  1.00  0.00    -0.200 F 
ATOM     82  C   UNL A   1      36.321  30.351  29.560  1.00  0.00     0.200 A 
ATOM     83  F   UNL A   1      36.653  30.746  27.257  1.00  0.00    -0.200 F 
ATOM     84  F   UNL A   1      35.242  31.145  29.556  1.00  0.00    -0.200 F 
ENDBRANCH  50  74
BRANCH  62  85
ATOM     85  C   UNL A   1      44.149  27.076  32.294  1.00  0.00     0.064 A 
ATOM     86  C   UNL A   1      44.142  25.728  31.901  1.00  0.00     0.173 A 
ATOM     87  C   UNL A   1      44.085  27.347  33.667  1.00  0.00     0.173 A 
ATOM     88  F   UNL A   1      44.273  25.385  30.616  1.00  0.00    -0.203 F 
ATOM     89  C   UNL A   1      44.031  24.703  32.840  1.00  0.00     0.198 A 
ATOM     90  C   UNL A   1      44.007  26.322  34.605  1.00  0.00     0.198 A 
ATOM     91  F   UNL A   1      44.127  28.616  34.103  1.00  0.00    -0.203 F 
ATOM     92  F   UNL A   1      44.002  23.423  32.438  1.00  0.00    -0.200 F 
ATOM     93  C   UNL A   1      43.968  25.001  34.191  1.00  0.00     0.200 A 
ATOM     94  F   UNL A   1      43.984  26.617  35.912  1.00  0.00    -0.200 F 
ATOM     95  F   UNL A   1      43.885  24.017  35.096  1.00  0.00    -0.200 F 
ENDBRANCH  62  85
ENDBRANCH  36  37
ENDBRANCH  28  31
ENDBRANCH  26  27
ENDBRANCH  25  26
ENDBRANCH   1  25
TORSDOF 15
ENDMDL
MODEL 3
REMARK VINA RESULT:     -12.8      3.718      9.403
REMARK SMILES CCc1nn(C)c(C[C@@H](C(=O)NCCCCNC(=O)c2ccc(-c3c4nc(c(-c5c(F)c(F)c(F)c(F)c5F)c5ccc([nH]5)c(-c5c(F)c(F)c(F)c(F)c5F)c5nc(c(-c6c(F)c(F)c(F)c(F)c6F)c6ccc3[nH]6)C=C5)C=C4)cc2)c2cccc(C)c2)c1Br
REMARK SMILES IDX 14 1 13 2 12 3 10 4 11 5 9 7 8 8 7 9 3 10 4 11 90 12 5 13
REMARK SMILES IDX 91 14 6 15 2 16 1 17 83 18 84 19 89 20 85 21 87 22 86 23
REMARK SMILES IDX 88 24 15 25 16 26 17 27 18 28 19 30 20 31 21 32 82 33 22 34
REMARK SMILES IDX 81 35 23 36 24 37 25 38 75 39 26 40 80 41 74 42 76 43 27 44
REMARK SMILES IDX 79 45 73 46 72 47 28 49 60 50 40 51 59 52 41 53 44 54 58 55
REMARK SMILES IDX 77 56 42 57 43 58 57 60 78 61 45 62 29 63 30 64 38 65 31 66
REMARK SMILES IDX 32 67 36 68 39 69 33 70 34 71 37 72 35 73 61 74 62 75 70 76
REMARK SMILES IDX 63 77 64 78 68 79 71 80 65 81 66 82 69 83 67 84 46 85 47 86
REMARK SMILES IDX 55 87 48 88 49 89 53 90 56 91 50 92 51 93 54 94 52 95
REMARK H PARENT 12 6 17 29 76 48 44 59
REMARK Flexibility Score: inf
ROOT
ATOM      1  C   UNL A   1      32.567  30.002  26.636  1.00  0.00     0.023 C 
ENDROOT
BRANCH   1   2
ATOM      2  C   UNL A   1      33.685  29.284  25.869  1.00  0.00     0.116 C 
BRANCH   2   3
ATOM      3  N   UNL A   1      33.472  29.270  24.434  1.00  0.00    -0.356 N 
ATOM      4  C   UNL A   1      32.550  28.716  23.602  1.00  0.00     0.227 C 
ATOM      5  O   UNL A   1      32.739  29.018  22.416  1.00  0.00    -0.274 OA
ATOM      6  H   UNL A   1      34.156  29.785  23.948  1.00  0.00     0.163 HD
BRANCH   4   7
ATOM      7  C   UNL A   1      31.351  27.828  24.054  1.00  0.00     0.114 C 
BRANCH   7   8
ATOM      8  C   UNL A   1      31.117  26.519  23.266  1.00  0.00     0.075 C 
BRANCH   8   9
ATOM      9  C   UNL A   1      32.206  25.518  23.174  1.00  0.00     0.054 A 
ATOM     10  C   UNL A   1      33.760  23.939  23.420  1.00  0.00     0.077 A 
ATOM     11  N   UNL A   1      33.664  24.144  22.097  1.00  0.00    -0.177 NA
ATOM     12  C   UNL A   1      32.823  24.731  24.117  1.00  0.00     0.062 A 
ATOM     13  N   UNL A   1      32.729  25.109  21.971  1.00  0.00    -0.271 N 
ATOM     14  Br  UNL A   1      32.526  24.721  25.966  1.00  0.00    -0.047 Br
ATOM     15  C   UNL A   1      32.539  25.752  20.687  1.00  0.00     0.174 C 
BRANCH  10  16
ATOM     16  C   UNL A   1      34.797  23.008  23.955  1.00  0.00     0.056 C 
ATOM     17  C   UNL A   1      35.993  23.749  24.542  1.00  0.00     0.011 C 
ENDBRANCH  10  16
ENDBRANCH   8   9
ENDBRANCH   7   8
BRANCH   7  18
ATOM     18  C   UNL A   1      29.982  28.543  23.839  1.00  0.00    -0.035 A 
ATOM     19  C   UNL A   1      28.878  27.851  23.323  1.00  0.00     0.004 A 
ATOM     20  C   UNL A   1      29.920  29.955  23.879  1.00  0.00     0.008 A 
ATOM     21  C   UNL A   1      27.770  28.558  22.835  1.00  0.00     0.001 A 
ATOM     22  C   UNL A   1      28.828  30.667  23.376  1.00  0.00    -0.051 A 
ATOM     23  C   UNL A   1      27.750  29.956  22.848  1.00  0.00     0.003 A 
ATOM     24  C   UNL A   1      28.861  32.167  23.336  1.00  0.00     0.044 C 
ENDBRANCH   7  18
ENDBRANCH   4   7
ENDBRANCH   2   3
ENDBRANCH   1   2
BRANCH   1  25
ATOM     25  C   UNL A   1      32.800  31.369  27.288  1.00  0.00     0.023 C 
BRANCH  25  26
ATOM     26  C   UNL A   1      34.239  31.675  27.687  1.00  0.00     0.116 C 
BRANCH  26  27
ATOM     27  N   UNL A   1      34.388  32.149  29.072  1.00  0.00    -0.352 N 
ATOM     28  C   UNL A   1      35.350  31.795  30.007  1.00  0.00     0.251 C 
ATOM     29  H   UNL A   1      33.716  32.801  29.376  1.00  0.00     0.163 HD
ATOM     30  O   UNL A   1      35.211  32.003  31.206  1.00  0.00    -0.269 OA
BRANCH  28  31
ATOM     31  C   UNL A   1      36.575  31.169  29.493  1.00  0.00     0.039 A 
ATOM     32  C   UNL A   1      37.809  31.823  29.525  1.00  0.00     0.014 A 
ATOM     33  C   UNL A   1      36.477  29.805  29.261  1.00  0.00     0.014 A 
ATOM     34  C   UNL A   1      38.967  31.048  29.485  1.00  0.00     0.010 A 
ATOM     35  C   UNL A   1      37.602  29.052  29.460  1.00  0.00     0.010 A 
ATOM     36  C   UNL A   1      38.858  29.648  29.526  1.00  0.00    -0.014 A 
BRANCH  36  37
ATOM     37  C   UNL A   1      40.023  28.791  29.757  1.00  0.00     0.031 A 
ATOM     38  C   UNL A   1      40.439  28.619  31.175  1.00  0.00     0.074 A 
ATOM     39  C   UNL A   1      40.599  28.034  28.795  1.00  0.00     0.049 A 
ATOM     40  N   UNL A   1      41.443  29.181  31.763  1.00  0.00    -0.248 NA
ATOM     41  C   UNL A   1      39.603  27.815  32.079  1.00  0.00     0.031 C 
ATOM     42  C   UNL A   1      40.148  27.813  27.412  1.00  0.00     0.029 A 
ATOM     43  N   UNL A   1      41.693  27.223  28.881  1.00  0.00    -0.354 N 
ATOM     44  C   UNL A   1      41.502  28.628  33.040  1.00  0.00     0.074 A 
ATOM     45  C   UNL A   1      40.248  27.954  33.242  1.00  0.00     0.031 C 
ATOM     46  C   UNL A   1      40.794  26.759  26.879  1.00  0.00     0.029 A 
ATOM     47  C   UNL A   1      41.871  26.404  27.778  1.00  0.00     0.049 A 
ATOM     48  H   UNL A   1      42.301  27.221  29.656  1.00  0.00     0.167 HD
ATOM     49  C   UNL A   1      42.697  28.531  33.692  1.00  0.00     0.037 A 
ATOM     50  C   UNL A   1      42.878  25.539  27.541  1.00  0.00     0.037 A 
ATOM     51  C   UNL A   1      43.721  29.255  32.982  1.00  0.00     0.049 A 
ATOM     52  C   UNL A   1      44.048  25.999  28.316  1.00  0.00     0.074 A 
ATOM     53  C   UNL A   1      44.110  30.567  32.830  1.00  0.00     0.029 A 
ATOM     54  N   UNL A   1      44.289  28.540  31.961  1.00  0.00    -0.354 N 
ATOM     55  N   UNL A   1      44.656  27.133  28.090  1.00  0.00    -0.248 NA
ATOM     56  C   UNL A   1      44.358  25.367  29.593  1.00  0.00     0.031 C 
ATOM     57  C   UNL A   1      44.788  30.639  31.574  1.00  0.00     0.029 A 
ATOM     58  C   UNL A   1      44.826  29.366  31.010  1.00  0.00     0.049 A 
ATOM     59  H   UNL A   1      44.307  27.557  31.915  1.00  0.00     0.167 HD
ATOM     60  C   UNL A   1      45.060  27.554  29.341  1.00  0.00     0.074 A 
ATOM     61  C   UNL A   1      45.025  26.364  30.180  1.00  0.00     0.031 C 
ATOM     62  C   UNL A   1      45.064  28.877  29.670  1.00  0.00     0.037 A 
BRANCH  49  63
ATOM     63  C   UNL A   1      43.095  27.443  34.669  1.00  0.00     0.064 A 
ATOM     64  C   UNL A   1      43.345  27.789  36.016  1.00  0.00     0.173 A 
ATOM     65  C   UNL A   1      43.553  26.168  34.278  1.00  0.00     0.173 A 
ATOM     66  F   UNL A   1      42.973  28.987  36.492  1.00  0.00    -0.203 F 
ATOM     67  C   UNL A   1      44.056  26.949  36.879  1.00  0.00     0.198 A 
ATOM     68  C   UNL A   1      44.216  25.310  35.158  1.00  0.00     0.198 A 
ATOM     69  F   UNL A   1      43.485  25.748  33.010  1.00  0.00    -0.203 F 
ATOM     70  F   UNL A   1      44.372  27.370  38.111  1.00  0.00    -0.200 F 
ATOM     71  C   UNL A   1      44.495  25.712  36.447  1.00  0.00     0.200 A 
ATOM     72  F   UNL A   1      44.656  24.125  34.713  1.00  0.00    -0.200 F 
ATOM     73  F   UNL A   1      45.227  24.929  37.250  1.00  0.00    -0.200 F 
ENDBRANCH  49  63
BRANCH  50  74
ATOM     74  C   UNL A   1      42.809  24.251  26.829  1.00  0.00     0.064 A 
ATOM     75  C   UNL A   1      43.352  24.098  25.548  1.00  0.00     0.173 A 
ATOM     76  C   UNL A   1      42.450  23.075  27.516  1.00  0.00     0.173 A 
ATOM     77  F   UNL A   1      43.734  25.173  24.845  1.00  0.00    -0.203 F 
ATOM     78  C   UNL A   1      43.575  22.831  25.002  1.00  0.00     0.198 A 
ATOM     79  C   UNL A   1      42.670  21.812  26.970  1.00  0.00     0.198 A 
ATOM     80  F   UNL A   1      41.968  23.132  28.768  1.00  0.00    -0.203 F 
ATOM     81  F   UNL A   1      44.162  22.716  23.803  1.00  0.00    -0.200 F 
ATOM     82  C   UNL A   1      43.252  21.691  25.720  1.00  0.00     0.200 A 
ATOM     83  F   UNL A   1      42.381  20.717  27.687  1.00  0.00    -0.200 F 
ATOM     84  F   UNL A   1      43.537  20.477  25.228  1.00  0.00    -0.200 F 
ENDBRANCH  50  74
BRANCH  62  85
ATOM     85  C   UNL A   1      45.159  29.866  28.550  1.00  0.00     0.064 A 
ATOM     86  C   UNL A   1      44.059  30.472  27.923  1.00  0.00     0.173 A 
ATOM     87  C   UNL A   1      46.437  30.258  28.129  1.00  0.00     0.173 A 
ATOM     88  F   UNL A   1      42.809  30.206  28.317  1.00  0.00    -0.203 F 
ATOM     89  C   UNL A   1      44.233  31.394  26.891  1.00  0.00     0.198 A 
ATOM     90  C   UNL A   1      46.609  31.202  27.121  1.00  0.00     0.198 A 
ATOM     91  F   UNL A   1      47.525  29.740  28.719  1.00  0.00    -0.203 F 
ATOM     92  F   UNL A   1      43.165  31.941  26.291  1.00  0.00    -0.200 F 
ATOM     93  C   UNL A   1      45.507  31.760  26.495  1.00  0.00     0.200 A 
ATOM     94  F   UNL A   1      47.845  31.580  26.769  1.00  0.00    -0.200 F 
ATOM     95  F   UNL A   1      45.678  32.664  25.519  1.00  0.00    -0.200 F 
ENDBRANCH  62  85
ENDBRANCH  36  37
ENDBRANCH  28  31
ENDBRANCH  26  27
ENDBRANCH  25  26
ENDBRANCH   1  25
TORSDOF 15
ENDMDL
