MODEL 1
REMARK VINA RESULT:     -13.4      0.000      0.000
REMARK SMILES Cc1ccnc(C(=O)c2[nH]c3ccc(F)cc3c2CC(=O)NCCCCNC(=O)c2ccc(-c3c4nc(c(-c5c(F)c(F)c(F)c(F)c5F)c5ccc([nH]5)c(-c5c(F)c(F)c(F)c(F)c5F)c5nc(c(-c6c(F)c(F)c(F)c(F)c6F)c6ccc3[nH]6)C=C5)C=C4)cc2)c1
REMARK SMILES IDX 24 1 23 2 22 3 20 4 21 5 19 7 18 8 9 9 10 10 11 11 17 13
REMARK SMILES IDX 12 14 16 15 13 16 14 17 15 18 7 19 8 20 6 21 1 22 2 23 3 24
REMARK SMILES IDX 93 25 4 26 5 27 25 28 26 29 27 30 28 31 29 33 30 34 31 35
REMARK SMILES IDX 92 36 32 37 91 38 33 39 34 40 35 41 85 42 36 43 90 44 84 45
REMARK SMILES IDX 86 46 37 47 89 48 83 49 82 50 38 52 70 53 50 54 69 55 51 56
REMARK SMILES IDX 54 57 68 58 87 59 52 60 53 61 67 63 88 64 55 65 39 66 40 67
REMARK SMILES IDX 48 68 41 69 42 70 46 71 49 72 43 73 44 74 47 75 45 76 71 77
REMARK SMILES IDX 72 78 80 79 73 80 74 81 78 82 81 83 75 84 76 85 79 86 77 87
REMARK SMILES IDX 56 88 57 89 65 90 58 91 59 92 63 93 66 94 60 95 61 96 64 97
REMARK SMILES IDX 62 98
REMARK H PARENT 22 6 10 12 27 32 86 51 54 62
REMARK Flexibility Score: inf
ROOT
ATOM      1  C   UNL A   1      31.461  30.824  25.972  1.00  0.00     0.023 C 
ENDROOT
BRANCH   1   2
ATOM      2  C   UNL A   1      32.146  29.803  26.883  1.00  0.00     0.116 C 
BRANCH   2   3
ATOM      3  N   UNL A   1      31.553  28.483  26.864  1.00  0.00    -0.356 N 
ATOM      4  C   UNL A   1      32.104  27.261  26.611  1.00  0.00     0.224 C 
ATOM      5  O   UNL A   1      31.404  26.278  26.871  1.00  0.00    -0.275 OA
ATOM      6  H   UNL A   1      30.590  28.463  27.067  1.00  0.00     0.163 HD
BRANCH   4   7
ATOM      7  C   UNL A   1      33.522  27.077  26.101  1.00  0.00     0.138 C 
BRANCH   7   8
ATOM      8  C   UNL A   1      33.699  26.241  24.863  1.00  0.00    -0.002 A 
ATOM      9  C   UNL A   1      33.423  26.553  23.527  1.00  0.00     0.093 A 
ATOM     10  N   UNL A   1      33.649  25.401  22.797  1.00  0.00    -0.352 N 
ATOM     11  C   UNL A   1      34.139  24.391  23.579  1.00  0.00     0.046 A 
ATOM     12  H   UNL A   1      33.478  25.319  21.831  1.00  0.00     0.167 HD
ATOM     13  C   UNL A   1      34.106  24.852  24.890  1.00  0.00     0.007 A 
ATOM     14  C   UNL A   1      34.577  23.108  23.223  1.00  0.00     0.030 A 
ATOM     15  C   UNL A   1      34.477  23.953  25.915  1.00  0.00     0.049 A 
ATOM     16  C   UNL A   1      34.997  22.261  24.252  1.00  0.00     0.041 A 
ATOM     17  C   UNL A   1      34.933  22.680  25.572  1.00  0.00     0.123 A 
ATOM     18  F   UNL A   1      35.337  21.852  26.544  1.00  0.00    -0.207 F 
BRANCH   9  19
ATOM     19  C   UNL A   1      32.885  27.712  22.818  1.00  0.00     0.227 C 
ATOM     20  O   UNL A   1      33.665  28.501  22.284  1.00  0.00    -0.285 OA
BRANCH  19  21
ATOM     21  C   UNL A   1      31.427  28.070  22.841  1.00  0.00     0.113 A 
ATOM     22  C   UNL A   1      28.039  26.706  23.876  1.00  0.00     0.044 C 
ATOM     23  C   UNL A   1      29.130  27.615  23.396  1.00  0.00    -0.047 A 
ATOM     24  C   UNL A   1      28.815  28.903  22.965  1.00  0.00     0.023 A 
ATOM     25  C   UNL A   1      30.472  27.216  23.381  1.00  0.00     0.036 A 
ATOM     26  C   UNL A   1      29.836  29.712  22.496  1.00  0.00     0.112 A 
ATOM     27  N   UNL A   1      31.126  29.326  22.418  1.00  0.00    -0.253 NA
ENDBRANCH  19  21
ENDBRANCH   9  19
ENDBRANCH   7   8
ENDBRANCH   4   7
ENDBRANCH   2   3
ENDBRANCH   1   2
BRANCH   1  28
ATOM     28  C   UNL A   1      31.314  32.251  26.502  1.00  0.00     0.023 C 
BRANCH  28  29
ATOM     29  C   UNL A   1      32.526  32.828  27.214  1.00  0.00     0.116 C 
BRANCH  29  30
ATOM     30  N   UNL A   1      32.322  34.203  27.627  1.00  0.00    -0.352 N 
ATOM     31  C   UNL A   1      32.961  34.917  28.609  1.00  0.00     0.251 C 
ATOM     32  H   UNL A   1      31.628  34.694  27.131  1.00  0.00     0.163 HD
ATOM     33  O   UNL A   1      32.553  36.032  28.915  1.00  0.00    -0.269 OA
BRANCH  31  34
ATOM     34  C   UNL A   1      34.119  34.337  29.326  1.00  0.00     0.039 A 
ATOM     35  C   UNL A   1      33.887  33.677  30.536  1.00  0.00     0.014 A 
ATOM     36  C   UNL A   1      35.423  34.459  28.837  1.00  0.00     0.014 A 
ATOM     37  C   UNL A   1      34.952  33.100  31.230  1.00  0.00     0.010 A 
ATOM     38  C   UNL A   1      36.479  33.835  29.501  1.00  0.00     0.010 A 
ATOM     39  C   UNL A   1      36.254  33.152  30.705  1.00  0.00    -0.014 A 
BRANCH  39  40
ATOM     40  C   UNL A   1      37.378  32.486  31.407  1.00  0.00     0.031 A 
ATOM     41  C   UNL A   1      38.099  31.330  30.774  1.00  0.00     0.074 A 
ATOM     42  C   UNL A   1      37.724  32.901  32.642  1.00  0.00     0.049 A 
ATOM     43  N   UNL A   1      39.094  30.618  31.243  1.00  0.00    -0.248 NA
ATOM     44  C   UNL A   1      37.628  30.902  29.448  1.00  0.00     0.031 C 
ATOM     45  C   UNL A   1      37.068  33.978  33.383  1.00  0.00     0.029 A 
ATOM     46  N   UNL A   1      38.709  32.462  33.491  1.00  0.00    -0.354 N 
ATOM     47  C   UNL A   1      39.363  29.659  30.277  1.00  0.00     0.074 A 
ATOM     48  C   UNL A   1      38.396  29.846  29.216  1.00  0.00     0.031 C 
ATOM     49  C   UNL A   1      37.682  34.132  34.568  1.00  0.00     0.029 A 
ATOM     50  C   UNL A   1      38.755  33.149  34.679  1.00  0.00     0.049 A 
ATOM     51  H   UNL A   1      39.324  31.726  33.269  1.00  0.00     0.167 HD
ATOM     52  C   UNL A   1      40.340  28.720  30.265  1.00  0.00     0.037 A 
ATOM     53  C   UNL A   1      39.574  33.004  35.737  1.00  0.00     0.037 A 
ATOM     54  C   UNL A   1      41.315  28.548  31.311  1.00  0.00     0.049 A 
ATOM     55  C   UNL A   1      40.656  31.961  35.694  1.00  0.00     0.074 A 
ATOM     56  C   UNL A   1      42.382  27.668  31.361  1.00  0.00     0.029 A 
ATOM     57  N   UNL A   1      41.340  29.271  32.495  1.00  0.00    -0.354 N 
ATOM     58  N   UNL A   1      40.945  31.107  34.743  1.00  0.00    -0.248 NA
ATOM     59  C   UNL A   1      41.532  31.870  36.871  1.00  0.00     0.031 C 
ATOM     60  C   UNL A   1      43.028  27.830  32.592  1.00  0.00     0.029 A 
ATOM     61  C   UNL A   1      42.390  28.841  33.290  1.00  0.00     0.049 A 
ATOM     62  H   UNL A   1      40.704  29.985  32.735  1.00  0.00     0.167 HD
ATOM     63  C   UNL A   1      42.045  30.391  35.195  1.00  0.00     0.074 A 
ATOM     64  C   UNL A   1      42.384  30.926  36.498  1.00  0.00     0.031 C 
ATOM     65  C   UNL A   1      42.712  29.379  34.587  1.00  0.00     0.037 A 
BRANCH  52  66
ATOM     66  C   UNL A   1      40.409  27.806  29.078  1.00  0.00     0.064 A 
ATOM     67  C   UNL A   1      39.661  26.620  29.020  1.00  0.00     0.173 A 
ATOM     68  C   UNL A   1      41.200  28.138  27.967  1.00  0.00     0.173 A 
ATOM     69  F   UNL A   1      38.900  26.251  30.061  1.00  0.00    -0.203 F 
ATOM     70  C   UNL A   1      39.722  25.788  27.905  1.00  0.00     0.198 A 
ATOM     71  C   UNL A   1      41.237  27.318  26.842  1.00  0.00     0.198 A 
ATOM     72  F   UNL A   1      41.930  29.264  27.970  1.00  0.00    -0.203 F 
ATOM     73  F   UNL A   1      39.033  24.639  27.890  1.00  0.00    -0.200 F 
ATOM     74  C   UNL A   1      40.504  26.140  26.815  1.00  0.00     0.200 A 
ATOM     75  F   UNL A   1      41.984  27.665  25.786  1.00  0.00    -0.200 F 
ATOM     76  F   UNL A   1      40.556  25.343  25.739  1.00  0.00    -0.200 F 
ENDBRANCH  52  66
BRANCH  53  77
ATOM     77  C   UNL A   1      39.420  33.891  36.917  1.00  0.00     0.064 A 
ATOM     78  C   UNL A   1      38.692  33.473  38.040  1.00  0.00     0.173 A 
ATOM     79  C   UNL A   1      39.993  35.170  36.949  1.00  0.00     0.173 A 
ATOM     80  F   UNL A   1      38.109  32.266  38.047  1.00  0.00    -0.203 F 
ATOM     81  C   UNL A   1      38.529  34.308  39.143  1.00  0.00     0.198 A 
ATOM     82  C   UNL A   1      39.851  35.994  38.062  1.00  0.00     0.198 A 
ATOM     83  F   UNL A   1      40.703  35.613  35.900  1.00  0.00    -0.203 F 
ATOM     84  F   UNL A   1      37.794  33.900  40.187  1.00  0.00    -0.200 F 
ATOM     85  C   UNL A   1      39.114  35.566  39.155  1.00  0.00     0.200 A 
ATOM     86  F   UNL A   1      40.429  37.203  38.076  1.00  0.00    -0.200 F 
ATOM     87  F   UNL A   1      38.961  36.367  40.219  1.00  0.00    -0.200 F 
ENDBRANCH  53  77
BRANCH  65  88
ATOM     88  C   UNL A   1      43.883  28.798  35.322  1.00  0.00     0.064 A 
ATOM     89  C   UNL A   1      43.725  27.755  36.247  1.00  0.00     0.173 A 
ATOM     90  C   UNL A   1      45.181  29.279  35.088  1.00  0.00     0.173 A 
ATOM     91  F   UNL A   1      42.503  27.273  36.517  1.00  0.00    -0.203 F 
ATOM     92  C   UNL A   1      44.820  27.235  36.932  1.00  0.00     0.198 A 
ATOM     93  C   UNL A   1      46.277  28.737  35.756  1.00  0.00     0.198 A 
ATOM     94  F   UNL A   1      45.386  30.271  34.210  1.00  0.00    -0.203 F 
ATOM     95  F   UNL A   1      44.639  26.275  37.850  1.00  0.00    -0.200 F 
ATOM     96  C   UNL A   1      46.094  27.722  36.683  1.00  0.00     0.200 A 
ATOM     97  F   UNL A   1      47.508  29.202  35.507  1.00  0.00    -0.200 F 
ATOM     98  F   UNL A   1      47.146  27.221  37.345  1.00  0.00    -0.200 F 
ENDBRANCH  65  88
ENDBRANCH  39  40
ENDBRANCH  31  34
ENDBRANCH  29  30
ENDBRANCH  28  29
ENDBRANCH   1  28
TORSDOF 14
ENDMDL
MODEL 2
REMARK VINA RESULT:     -13.4      0.640      7.253
REMARK SMILES Cc1ccnc(C(=O)c2[nH]c3ccc(F)cc3c2CC(=O)NCCCCNC(=O)c2ccc(-c3c4nc(c(-c5c(F)c(F)c(F)c(F)c5F)c5ccc([nH]5)c(-c5c(F)c(F)c(F)c(F)c5F)c5nc(c(-c6c(F)c(F)c(F)c(F)c6F)c6ccc3[nH]6)C=C5)C=C4)cc2)c1
REMARK SMILES IDX 24 1 23 2 22 3 20 4 21 5 19 7 18 8 9 9 10 10 11 11 17 13
REMARK SMILES IDX 12 14 16 15 13 16 14 17 15 18 7 19 8 20 6 21 1 22 2 23 3 24
REMARK SMILES IDX 93 25 4 26 5 27 25 28 26 29 27 30 28 31 29 33 30 34 31 35
REMARK SMILES IDX 92 36 32 37 91 38 33 39 34 40 35 41 85 42 36 43 90 44 84 45
REMARK SMILES IDX 86 46 37 47 89 48 83 49 82 50 38 52 70 53 50 54 69 55 51 56
REMARK SMILES IDX 54 57 68 58 87 59 52 60 53 61 67 63 88 64 55 65 39 66 40 67
REMARK SMILES IDX 48 68 41 69 42 70 46 71 49 72 43 73 44 74 47 75 45 76 71 77
REMARK SMILES IDX 72 78 80 79 73 80 74 81 78 82 81 83 75 84 76 85 79 86 77 87
REMARK SMILES IDX 56 88 57 89 65 90 58 91 59 92 63 93 66 94 60 95 61 96 64 97
REMARK SMILES IDX 62 98
REMARK H PARENT 22 6 10 12 27 32 86 51 54 62
REMARK Flexibility Score: inf
ROOT
ATOM      1  C   UNL A   1      31.394  30.864  25.906  1.00  0.00     0.023 C 
ENDROOT
BRANCH   1   2
ATOM      2  C   UNL A   1      32.201  29.833  26.699  1.00  0.00     0.116 C 
BRANCH   2   3
ATOM      3  N   UNL A   1      31.608  28.513  26.750  1.00  0.00    -0.356 N 
ATOM      4  C   UNL A   1      32.167  27.278  26.602  1.00  0.00     0.224 C 
ATOM      5  O   UNL A   1      31.458  26.314  26.906  1.00  0.00    -0.275 OA
ATOM      6  H   UNL A   1      30.638  28.506  26.921  1.00  0.00     0.163 HD
BRANCH   4   7
ATOM      7  C   UNL A   1      33.602  27.061  26.156  1.00  0.00     0.138 C 
BRANCH   7   8
ATOM      8  C   UNL A   1      33.813  26.251  24.906  1.00  0.00    -0.002 A 
ATOM      9  C   UNL A   1      33.547  26.579  23.573  1.00  0.00     0.093 A 
ATOM     10  N   UNL A   1      33.808  25.445  22.827  1.00  0.00    -0.352 N 
ATOM     11  C   UNL A   1      34.310  24.433  23.598  1.00  0.00     0.046 A 
ATOM     12  H   UNL A   1      33.651  25.375  21.858  1.00  0.00     0.167 HD
ATOM     13  C   UNL A   1      34.251  24.871  24.916  1.00  0.00     0.007 A 
ATOM     14  C   UNL A   1      34.782  23.166  23.227  1.00  0.00     0.030 A 
ATOM     15  C   UNL A   1      34.629  23.963  25.931  1.00  0.00     0.049 A 
ATOM     16  C   UNL A   1      35.208  22.312  24.246  1.00  0.00     0.041 A 
ATOM     17  C   UNL A   1      35.118  22.707  25.573  1.00  0.00     0.123 A 
ATOM     18  F   UNL A   1      35.528  21.871  26.536  1.00  0.00    -0.207 F 
BRANCH   9  19
ATOM     19  C   UNL A   1      32.992  27.737  22.876  1.00  0.00     0.227 C 
ATOM     20  O   UNL A   1      33.761  28.562  22.382  1.00  0.00    -0.285 OA
BRANCH  19  21
ATOM     21  C   UNL A   1      31.524  28.050  22.867  1.00  0.00     0.113 A 
ATOM     22  C   UNL A   1      28.166  26.623  23.918  1.00  0.00     0.044 C 
ATOM     23  C   UNL A   1      29.234  27.546  23.414  1.00  0.00    -0.047 A 
ATOM     24  C   UNL A   1      28.886  28.804  22.927  1.00  0.00     0.023 A 
ATOM     25  C   UNL A   1      30.588  27.189  23.430  1.00  0.00     0.036 A 
ATOM     26  C   UNL A   1      29.887  29.626  22.437  1.00  0.00     0.112 A 
ATOM     27  N   UNL A   1      31.189  29.277  22.389  1.00  0.00    -0.253 NA
ENDBRANCH  19  21
ENDBRANCH   9  19
ENDBRANCH   7   8
ENDBRANCH   4   7
ENDBRANCH   2   3
ENDBRANCH   1   2
BRANCH   1  28
ATOM     28  C   UNL A   1      31.269  32.267  26.503  1.00  0.00     0.023 C 
BRANCH  28  29
ATOM     29  C   UNL A   1      32.524  32.835  27.145  1.00  0.00     0.116 C 
BRANCH  29  30
ATOM     30  N   UNL A   1      32.330  34.183  27.640  1.00  0.00    -0.352 N 
ATOM     31  C   UNL A   1      33.006  34.848  28.632  1.00  0.00     0.251 C 
ATOM     32  H   UNL A   1      31.612  34.695  27.202  1.00  0.00     0.163 HD
ATOM     33  O   UNL A   1      32.605  35.942  29.015  1.00  0.00    -0.269 OA
BRANCH  31  34
ATOM     34  C   UNL A   1      34.198  34.240  29.266  1.00  0.00     0.039 A 
ATOM     35  C   UNL A   1      34.004  33.367  30.341  1.00  0.00     0.014 A 
ATOM     36  C   UNL A   1      35.494  34.539  28.835  1.00  0.00     0.014 A 
ATOM     37  C   UNL A   1      35.102  32.760  30.951  1.00  0.00     0.010 A 
ATOM     38  C   UNL A   1      36.587  33.888  29.408  1.00  0.00     0.010 A 
ATOM     39  C   UNL A   1      36.401  32.995  30.473  1.00  0.00    -0.014 A 
BRANCH  39  40
ATOM     40  C   UNL A   1      37.566  32.301  31.077  1.00  0.00     0.031 A 
ATOM     41  C   UNL A   1      38.060  32.683  32.443  1.00  0.00     0.074 A 
ATOM     42  C   UNL A   1      38.205  31.349  30.370  1.00  0.00     0.049 A 
ATOM     43  N   UNL A   1      39.069  32.197  33.123  1.00  0.00    -0.248 NA
ATOM     44  C   UNL A   1      37.342  33.768  33.128  1.00  0.00     0.031 C 
ATOM     45  C   UNL A   1      37.853  30.925  29.015  1.00  0.00     0.029 A 
ATOM     46  N   UNL A   1      39.288  30.570  30.693  1.00  0.00    -0.354 N 
ATOM     47  C   UNL A   1      39.109  32.917  34.308  1.00  0.00     0.074 A 
ATOM     48  C   UNL A   1      38.056  33.908  34.236  1.00  0.00     0.031 C 
ATOM     49  C   UNL A   1      38.689  29.947  28.630  1.00  0.00     0.029 A 
ATOM     50  C   UNL A   1      39.650  29.694  29.699  1.00  0.00     0.049 A 
ATOM     51  H   UNL A   1      39.759  30.632  31.555  1.00  0.00     0.167 HD
ATOM     52  C   UNL A   1      39.937  32.755  35.369  1.00  0.00     0.037 A 
ATOM     53  C   UNL A   1      40.644  28.788  29.656  1.00  0.00     0.037 A 
ATOM     54  C   UNL A   1      40.971  31.756  35.450  1.00  0.00     0.049 A 
ATOM     55  C   UNL A   1      41.542  28.622  30.851  1.00  0.00     0.074 A 
ATOM     56  C   UNL A   1      41.817  31.472  36.507  1.00  0.00     0.029 A 
ATOM     57  N   UNL A   1      41.301  30.877  34.428  1.00  0.00    -0.354 N 
ATOM     58  N   UNL A   1      41.524  29.262  31.995  1.00  0.00    -0.248 NA
ATOM     59  C   UNL A   1      42.592  27.599  30.750  1.00  0.00     0.031 C 
ATOM     60  C   UNL A   1      42.687  30.449  36.111  1.00  0.00     0.029 A 
ATOM     61  C   UNL A   1      42.353  30.066  34.823  1.00  0.00     0.049 A 
ATOM     62  H   UNL A   1      40.854  30.836  33.551  1.00  0.00     0.167 HD
ATOM     63  C   UNL A   1      42.544  28.708  32.756  1.00  0.00     0.074 A 
ATOM     64  C   UNL A   1      43.147  27.665  31.953  1.00  0.00     0.031 C 
ATOM     65  C   UNL A   1      42.947  29.037  34.009  1.00  0.00     0.037 A 
BRANCH  52  66
ATOM     66  C   UNL A   1      39.754  33.678  36.538  1.00  0.00     0.064 A 
ATOM     67  C   UNL A   1      40.388  34.928  36.592  1.00  0.00     0.173 A 
ATOM     68  C   UNL A   1      38.904  33.326  37.598  1.00  0.00     0.173 A 
ATOM     69  F   UNL A   1      41.220  35.306  35.611  1.00  0.00    -0.203 F 
ATOM     70  C   UNL A   1      40.197  35.782  37.676  1.00  0.00     0.198 A 
ATOM     71  C   UNL A   1      38.694  34.194  38.667  1.00  0.00     0.198 A 
ATOM     72  F   UNL A   1      38.270  32.143  37.592  1.00  0.00    -0.203 F 
ATOM     73  F   UNL A   1      40.846  36.953  37.726  1.00  0.00    -0.200 F 
ATOM     74  C   UNL A   1      39.345  35.418  38.708  1.00  0.00     0.200 A 
ATOM     75  F   UNL A   1      37.862  33.845  39.657  1.00  0.00    -0.200 F 
ATOM     76  F   UNL A   1      39.157  36.244  39.747  1.00  0.00    -0.200 F 
ENDBRANCH  52  66
BRANCH  53  77
ATOM     77  C   UNL A   1      40.824  27.946  28.447  1.00  0.00     0.064 A 
ATOM     78  C   UNL A   1      41.621  28.383  27.379  1.00  0.00     0.173 A 
ATOM     79  C   UNL A   1      40.208  26.692  28.333  1.00  0.00     0.173 A 
ATOM     80  F   UNL A   1      42.214  29.584  27.436  1.00  0.00    -0.203 F 
ATOM     81  C   UNL A   1      41.780  27.604  26.235  1.00  0.00     0.198 A 
ATOM     82  C   UNL A   1      40.387  25.904  27.199  1.00  0.00     0.198 A 
ATOM     83  F   UNL A   1      39.440  26.228  29.330  1.00  0.00    -0.203 F 
ATOM     84  F   UNL A   1      42.513  28.064  25.212  1.00  0.00    -0.200 F 
ATOM     85  C   UNL A   1      41.167  26.363  26.148  1.00  0.00     0.200 A 
ATOM     86  F   UNL A   1      39.806  24.700  27.124  1.00  0.00    -0.200 F 
ATOM     87  F   UNL A   1      41.323  25.613  25.049  1.00  0.00    -0.200 F 
ENDBRANCH  53  77
BRANCH  65  88
ATOM     88  C   UNL A   1      44.084  28.247  34.587  1.00  0.00     0.064 A 
ATOM     89  C   UNL A   1      43.870  27.021  35.235  1.00  0.00     0.173 A 
ATOM     90  C   UNL A   1      45.403  28.712  34.477  1.00  0.00     0.173 A 
ATOM     91  F   UNL A   1      42.625  26.542  35.379  1.00  0.00    -0.203 F 
ATOM     92  C   UNL A   1      44.932  26.304  35.779  1.00  0.00     0.198 A 
ATOM     93  C   UNL A   1      46.466  27.979  34.998  1.00  0.00     0.198 A 
ATOM     94  F   UNL A   1      45.661  29.875  33.862  1.00  0.00    -0.203 F 
ATOM     95  F   UNL A   1      44.700  25.162  36.440  1.00  0.00    -0.200 F 
ATOM     96  C   UNL A   1      46.229  26.781  35.656  1.00  0.00     0.200 A 
ATOM     97  F   UNL A   1      47.719  28.435  34.871  1.00  0.00    -0.200 F 
ATOM     98  F   UNL A   1      47.251  26.091  36.181  1.00  0.00    -0.200 F 
ENDBRANCH  65  88
ENDBRANCH  39  40
ENDBRANCH  31  34
ENDBRANCH  29  30
ENDBRANCH  28  29
ENDBRANCH   1  28
TORSDOF 14
ENDMDL
MODEL 3
REMARK VINA RESULT:     -13.3      5.648     11.129
REMARK SMILES Cc1ccnc(C(=O)c2[nH]c3ccc(F)cc3c2CC(=O)NCCCCNC(=O)c2ccc(-c3c4nc(c(-c5c(F)c(F)c(F)c(F)c5F)c5ccc([nH]5)c(-c5c(F)c(F)c(F)c(F)c5F)c5nc(c(-c6c(F)c(F)c(F)c(F)c6F)c6ccc3[nH]6)C=C5)C=C4)cc2)c1
REMARK SMILES IDX 24 1 23 2 22 3 20 4 21 5 19 7 18 8 9 9 10 10 11 11 17 13
REMARK SMILES IDX 12 14 16 15 13 16 14 17 15 18 7 19 8 20 6 21 1 22 2 23 3 24
REMARK SMILES IDX 93 25 4 26 5 27 25 28 26 29 27 30 28 31 29 33 30 34 31 35
REMARK SMILES IDX 92 36 32 37 91 38 33 39 34 40 35 41 85 42 36 43 90 44 84 45
REMARK SMILES IDX 86 46 37 47 89 48 83 49 82 50 38 52 70 53 50 54 69 55 51 56
REMARK SMILES IDX 54 57 68 58 87 59 52 60 53 61 67 63 88 64 55 65 39 66 40 67
REMARK SMILES IDX 48 68 41 69 42 70 46 71 49 72 43 73 44 74 47 75 45 76 71 77
REMARK SMILES IDX 72 78 80 79 73 80 74 81 78 82 81 83 75 84 76 85 79 86 77 87
REMARK SMILES IDX 56 88 57 89 65 90 58 91 59 92 63 93 66 94 60 95 61 96 64 97
REMARK SMILES IDX 62 98
REMARK H PARENT 22 6 10 12 27 32 86 51 54 62
REMARK Flexibility Score: inf
ROOT
ATOM      1  C   UNL A   1      36.770  20.323  24.961  1.00  0.00     0.023 C 
ENDROOT
BRANCH   1   2
ATOM      2  C   UNL A   1      36.989  21.825  24.761  1.00  0.00     0.116 C 
BRANCH   2   3
ATOM      3  N   UNL A   1      36.067  22.451  23.838  1.00  0.00    -0.356 N 
ATOM      4  C   UNL A   1      35.384  23.629  23.921  1.00  0.00     0.224 C 
ATOM      5  O   UNL A   1      34.828  24.016  22.888  1.00  0.00    -0.275 OA
ATOM      6  H   UNL A   1      35.907  21.942  23.010  1.00  0.00     0.163 HD
BRANCH   4   7
ATOM      7  C   UNL A   1      35.341  24.479  25.177  1.00  0.00     0.138 C 
BRANCH   7   8
ATOM      8  C   UNL A   1      33.984  24.779  25.753  1.00  0.00    -0.002 A 
ATOM      9  C   UNL A   1      33.073  23.927  26.387  1.00  0.00     0.093 A 
ATOM     10  N   UNL A   1      31.931  24.669  26.617  1.00  0.00    -0.352 N 
ATOM     11  C   UNL A   1      32.088  25.976  26.244  1.00  0.00     0.046 A 
ATOM     12  H   UNL A   1      31.104  24.301  27.003  1.00  0.00     0.167 HD
ATOM     13  C   UNL A   1      33.330  26.065  25.623  1.00  0.00     0.007 A 
ATOM     14  C   UNL A   1      31.218  27.066  26.386  1.00  0.00     0.030 A 
ATOM     15  C   UNL A   1      33.697  27.306  25.056  1.00  0.00     0.049 A 
ATOM     16  C   UNL A   1      31.634  28.295  25.871  1.00  0.00     0.041 A 
ATOM     17  C   UNL A   1      32.848  28.402  25.208  1.00  0.00     0.123 A 
ATOM     18  F   UNL A   1      33.226  29.589  24.718  1.00  0.00    -0.207 F 
BRANCH   9  19
ATOM     19  C   UNL A   1      33.041  22.506  26.728  1.00  0.00     0.227 C 
ATOM     20  O   UNL A   1      33.307  22.162  27.881  1.00  0.00    -0.285 OA
BRANCH  19  21
ATOM     21  C   UNL A   1      32.847  21.431  25.699  1.00  0.00     0.113 A 
ATOM     22  C   UNL A   1      31.890  20.925  22.060  1.00  0.00     0.044 C 
ATOM     23  C   UNL A   1      32.356  20.683  23.465  1.00  0.00    -0.047 A 
ATOM     24  C   UNL A   1      32.674  19.389  23.873  1.00  0.00     0.023 A 
ATOM     25  C   UNL A   1      32.498  21.727  24.386  1.00  0.00     0.036 A 
ATOM     26  C   UNL A   1      33.071  19.188  25.185  1.00  0.00     0.112 A 
ATOM     27  N   UNL A   1      33.158  20.171  26.103  1.00  0.00    -0.253 NA
ENDBRANCH  19  21
ENDBRANCH   9  19
ENDBRANCH   7   8
ENDBRANCH   4   7
ENDBRANCH   2   3
ENDBRANCH   1   2
BRANCH   1  28
ATOM     28  C   UNL A   1      38.010  19.428  24.978  1.00  0.00     0.023 C 
BRANCH  28  29
ATOM     29  C   UNL A   1      39.205  19.957  25.753  1.00  0.00     0.116 C 
BRANCH  29  30
ATOM     30  N   UNL A   1      40.267  18.977  25.870  1.00  0.00    -0.352 N 
ATOM     31  C   UNL A   1      41.605  19.171  26.103  1.00  0.00     0.251 C 
ATOM     32  H   UNL A   1      39.987  18.038  25.771  1.00  0.00     0.163 HD
ATOM     33  O   UNL A   1      42.380  18.225  26.026  1.00  0.00    -0.269 OA
BRANCH  31  34
ATOM     34  C   UNL A   1      42.124  20.522  26.414  1.00  0.00     0.039 A 
ATOM     35  C   UNL A   1      42.524  21.340  25.352  1.00  0.00     0.014 A 
ATOM     36  C   UNL A   1      42.247  20.979  27.730  1.00  0.00     0.014 A 
ATOM     37  C   UNL A   1      43.000  22.627  25.605  1.00  0.00     0.010 A 
ATOM     38  C   UNL A   1      42.669  22.285  27.979  1.00  0.00     0.010 A 
ATOM     39  C   UNL A   1      43.052  23.120  26.919  1.00  0.00    -0.014 A 
BRANCH  39  40
ATOM     40  C   UNL A   1      43.497  24.509  27.187  1.00  0.00     0.031 A 
ATOM     41  C   UNL A   1      42.537  25.531  27.726  1.00  0.00     0.074 A 
ATOM     42  C   UNL A   1      44.766  24.862  26.904  1.00  0.00     0.049 A 
ATOM     43  N   UNL A   1      42.743  26.793  28.009  1.00  0.00    -0.248 NA
ATOM     44  C   UNL A   1      41.156  25.082  27.960  1.00  0.00     0.031 C 
ATOM     45  C   UNL A   1      45.779  23.976  26.329  1.00  0.00     0.029 A 
ATOM     46  N   UNL A   1      45.418  26.060  27.055  1.00  0.00    -0.354 N 
ATOM     47  C   UNL A   1      41.523  27.289  28.446  1.00  0.00     0.074 A 
ATOM     48  C   UNL A   1      40.567  26.206  28.345  1.00  0.00     0.031 C 
ATOM     49  C   UNL A   1      46.931  24.654  26.197  1.00  0.00     0.029 A 
ATOM     50  C   UNL A   1      46.730  26.026  26.653  1.00  0.00     0.049 A 
ATOM     51  H   UNL A   1      44.986  26.867  27.418  1.00  0.00     0.167 HD
ATOM     52  C   UNL A   1      41.230  28.529  28.907  1.00  0.00     0.037 A 
ATOM     53  C   UNL A   1      47.667  26.992  26.653  1.00  0.00     0.037 A 
ATOM     54  C   UNL A   1      42.185  29.600  29.027  1.00  0.00     0.049 A 
ATOM     55  C   UNL A   1      47.317  28.357  27.181  1.00  0.00     0.074 A 
ATOM     56  C   UNL A   1      41.999  30.870  29.543  1.00  0.00     0.029 A 
ATOM     57  N   UNL A   1      43.510  29.525  28.621  1.00  0.00    -0.354 N 
ATOM     58  N   UNL A   1      46.178  28.792  27.657  1.00  0.00    -0.248 NA
ATOM     59  C   UNL A   1      48.391  29.360  27.177  1.00  0.00     0.031 C 
ATOM     60  C   UNL A   1      43.199  31.578  29.413  1.00  0.00     0.029 A 
ATOM     61  C   UNL A   1      44.146  30.734  28.856  1.00  0.00     0.049 A 
ATOM     62  H   UNL A   1      43.936  28.730  28.225  1.00  0.00     0.167 HD
ATOM     63  C   UNL A   1      46.400  30.111  28.029  1.00  0.00     0.074 A 
ATOM     64  C   UNL A   1      47.790  30.398  27.741  1.00  0.00     0.031 C 
ATOM     65  C   UNL A   1      45.528  31.006  28.558  1.00  0.00     0.037 A 
BRANCH  52  66
ATOM     66  C   UNL A   1      39.814  28.796  29.327  1.00  0.00     0.064 A 
ATOM     67  C   UNL A   1      38.863  29.295  28.424  1.00  0.00     0.173 A 
ATOM     68  C   UNL A   1      39.392  28.511  30.634  1.00  0.00     0.173 A 
ATOM     69  F   UNL A   1      39.219  29.595  27.166  1.00  0.00    -0.203 F 
ATOM     70  C   UNL A   1      37.548  29.523  28.822  1.00  0.00     0.198 A 
ATOM     71  C   UNL A   1      38.070  28.714  31.021  1.00  0.00     0.198 A 
ATOM     72  F   UNL A   1      40.261  28.028  31.535  1.00  0.00    -0.203 F 
ATOM     73  F   UNL A   1      36.668  30.040  27.955  1.00  0.00    -0.200 F 
ATOM     74  C   UNL A   1      37.151  29.226  30.117  1.00  0.00     0.200 A 
ATOM     75  F   UNL A   1      37.686  28.417  32.270  1.00  0.00    -0.200 F 
ATOM     76  F   UNL A   1      35.883  29.439  30.497  1.00  0.00    -0.200 F 
ENDBRANCH  52  66
BRANCH  53  77
ATOM     77  C   UNL A   1      49.036  26.694  26.164  1.00  0.00     0.064 A 
ATOM     78  C   UNL A   1      49.395  26.951  24.833  1.00  0.00     0.173 A 
ATOM     79  C   UNL A   1      50.011  26.150  27.011  1.00  0.00     0.173 A 
ATOM     80  F   UNL A   1      48.489  27.453  23.981  1.00  0.00    -0.203 F 
ATOM     81  C   UNL A   1      50.673  26.657  24.364  1.00  0.00     0.198 A 
ATOM     82  C   UNL A   1      51.296  25.880  26.547  1.00  0.00     0.198 A 
ATOM     83  F   UNL A   1      49.718  25.892  28.294  1.00  0.00    -0.203 F 
ATOM     84  F   UNL A   1      50.978  26.873  23.077  1.00  0.00    -0.200 F 
ATOM     85  C   UNL A   1      51.624  26.126  25.222  1.00  0.00     0.200 A 
ATOM     86  F   UNL A   1      52.217  25.381  27.383  1.00  0.00    -0.200 F 
ATOM     87  F   UNL A   1      52.855  25.848  24.772  1.00  0.00    -0.200 F 
ENDBRANCH  53  77
BRANCH  65  88
ATOM     88  C   UNL A   1      46.063  32.372  28.872  1.00  0.00     0.064 A 
ATOM     89  C   UNL A   1      46.639  32.666  30.117  1.00  0.00     0.173 A 
ATOM     90  C   UNL A   1      46.015  33.394  27.912  1.00  0.00     0.173 A 
ATOM     91  F   UNL A   1      46.694  31.726  31.073  1.00  0.00    -0.203 F 
ATOM     92  C   UNL A   1      47.119  33.942  30.400  1.00  0.00     0.198 A 
ATOM     93  C   UNL A   1      46.521  34.662  28.189  1.00  0.00     0.198 A 
ATOM     94  F   UNL A   1      45.479  33.163  26.704  1.00  0.00    -0.203 F 
ATOM     95  F   UNL A   1      47.617  34.214  31.614  1.00  0.00    -0.200 F 
ATOM     96  C   UNL A   1      47.065  34.936  29.435  1.00  0.00     0.200 A 
ATOM     97  F   UNL A   1      46.476  35.619  27.252  1.00  0.00    -0.200 F 
ATOM     98  F   UNL A   1      47.526  36.164  29.709  1.00  0.00    -0.200 F 
ENDBRANCH  65  88
ENDBRANCH  39  40
ENDBRANCH  31  34
ENDBRANCH  29  30
ENDBRANCH  28  29
ENDBRANCH   1  28
TORSDOF 14
ENDMDL
