MODEL 1
REMARK VINA RESULT:     -11.9      0.000      0.000
REMARK SMILES CC(C)[C@H](NC(N)=O)C(=O)N[C@H](C)C(=O)NCCCCNC(=O)c1ccc(-c2c3nc(c(-c4c(F)c(F)c(F)c(F)c4F)c4ccc([nH]4)c(-c4c(F)c(F)c(F)c(F)c4F)c4nc(c(-c5c(F)c(F)c(F)c(F)c5F)c5ccc2[nH]5)C=C4)C=C3)cc1
REMARK SMILES IDX 18 1 17 2 16 3 14 4 15 5 12 7 13 8 11 9 9 10 10 11 4 13 2 14
REMARK SMILES IDX 1 15 3 16 5 17 6 18 7 20 8 21 19 24 20 25 21 26 22 27 23 29
REMARK SMILES IDX 24 30 25 31 86 32 26 33 85 34 27 35 28 36 29 37 79 38 30 39
REMARK SMILES IDX 84 40 78 41 80 42 31 43 83 44 77 45 76 46 32 48 64 49 44 50
REMARK SMILES IDX 63 51 45 52 48 53 62 54 81 55 46 56 47 57 61 59 82 60 49 61
REMARK SMILES IDX 33 62 34 63 42 64 35 65 36 66 40 67 43 68 37 69 38 70 41 71
REMARK SMILES IDX 39 72 65 73 66 74 74 75 67 76 68 77 72 78 75 79 69 80 70 81
REMARK SMILES IDX 73 82 71 83 50 84 51 85 59 86 52 87 53 88 57 89 60 90 54 91
REMARK SMILES IDX 55 92 58 93 56 94
REMARK H PARENT 16 6 11 12 5 19 7 22 7 23 21 28 80 47 48 58
REMARK Flexibility Score: inf
ROOT
ATOM      1  C   UNL A   1      35.418  23.204  23.761  1.00  0.00     0.023 C 
ENDROOT
BRANCH   1   2
ATOM      2  C   UNL A   1      33.949  22.820  23.579  1.00  0.00     0.116 C 
BRANCH   2   3
ATOM      3  N   UNL A   1      33.477  21.606  24.192  1.00  0.00    -0.354 N 
ATOM      4  C   UNL A   1      32.340  21.473  24.949  1.00  0.00     0.242 C 
ATOM      5  O   UNL A   1      31.854  20.337  25.012  1.00  0.00    -0.273 OA
ATOM      6  H   UNL A   1      34.020  20.796  24.057  1.00  0.00     0.163 HD
BRANCH   4   7
ATOM      7  C   UNL A   1      31.623  22.663  25.663  1.00  0.00     0.168 C 
ATOM      8  C   UNL A   1      32.382  23.318  26.823  1.00  0.00     0.041 C 
BRANCH   7   9
ATOM      9  N   UNL A   1      30.652  23.574  25.021  1.00  0.00    -0.343 N 
ATOM     10  C   UNL A   1      30.690  24.866  24.619  1.00  0.00     0.243 C 
ATOM     11  O   UNL A   1      29.760  25.578  25.030  1.00  0.00    -0.273 OA
ATOM     12  H   UNL A   1      29.784  23.144  24.845  1.00  0.00     0.164 HD
BRANCH  10  13
ATOM     13  C   UNL A   1      31.687  25.469  23.592  1.00  0.00     0.175 C 
BRANCH  13  14
ATOM     14  C   UNL A   1      32.473  26.712  24.148  1.00  0.00     0.015 C 
ATOM     15  C   UNL A   1      31.671  28.005  23.955  1.00  0.00     0.010 C 
ATOM     16  C   UNL A   1      33.062  26.713  25.558  1.00  0.00     0.010 C 
ENDBRANCH  13  14
BRANCH  13  17
ATOM     17  N   UNL A   1      31.477  25.329  22.143  1.00  0.00    -0.326 N 
ATOM     18  C   UNL A   1      32.461  25.563  21.224  1.00  0.00     0.312 C 
ATOM     19  H   UNL A   1      30.589  25.055  21.820  1.00  0.00     0.166 HD
ATOM     20  N   UNL A   1      32.033  25.578  19.941  1.00  0.00    -0.352 N 
ATOM     21  O   UNL A   1      33.654  25.631  21.458  1.00  0.00    -0.249 OA
ATOM     22  H   UNL A   1      31.070  25.523  19.743  1.00  0.00     0.161 HD
ATOM     23  H   UNL A   1      32.684  25.645  19.206  1.00  0.00     0.161 HD
ENDBRANCH  13  17
ENDBRANCH  10  13
ENDBRANCH   7   9
ENDBRANCH   4   7
ENDBRANCH   2   3
ENDBRANCH   1   2
BRANCH   1  24
ATOM     24  C   UNL A   1      36.483  22.105  23.912  1.00  0.00     0.023 C 
BRANCH  24  25
ATOM     25  C   UNL A   1      36.927  21.622  25.297  1.00  0.00     0.116 C 
BRANCH  25  26
ATOM     26  N   UNL A   1      38.128  20.810  25.375  1.00  0.00    -0.352 N 
ATOM     27  C   UNL A   1      39.312  21.049  26.051  1.00  0.00     0.251 C 
ATOM     28  H   UNL A   1      38.095  19.964  24.873  1.00  0.00     0.163 HD
ATOM     29  O   UNL A   1      40.137  20.141  26.140  1.00  0.00    -0.269 OA
BRANCH  27  30
ATOM     30  C   UNL A   1      39.652  22.396  26.594  1.00  0.00     0.039 A 
ATOM     31  C   UNL A   1      40.620  22.467  27.604  1.00  0.00     0.014 A 
ATOM     32  C   UNL A   1      39.070  23.581  26.135  1.00  0.00     0.014 A 
ATOM     33  C   UNL A   1      41.091  23.708  28.053  1.00  0.00     0.010 A 
ATOM     34  C   UNL A   1      39.581  24.825  26.544  1.00  0.00     0.010 A 
ATOM     35  C   UNL A   1      40.625  24.904  27.480  1.00  0.00    -0.014 A 
BRANCH  35  36
ATOM     36  C   UNL A   1      41.312  26.199  27.783  1.00  0.00     0.031 A 
ATOM     37  C   UNL A   1      42.714  26.492  27.322  1.00  0.00     0.074 A 
ATOM     38  C   UNL A   1      40.667  27.123  28.528  1.00  0.00     0.049 A 
ATOM     39  N   UNL A   1      43.417  27.592  27.459  1.00  0.00    -0.248 NA
ATOM     40  C   UNL A   1      43.430  25.408  26.639  1.00  0.00     0.031 C 
ATOM     41  C   UNL A   1      39.336  26.951  29.113  1.00  0.00     0.029 A 
ATOM     42  N   UNL A   1      41.037  28.388  28.919  1.00  0.00    -0.354 N 
ATOM     43  C   UNL A   1      44.652  27.335  26.879  1.00  0.00     0.074 A 
ATOM     44  C   UNL A   1      44.621  25.956  26.436  1.00  0.00     0.031 C 
ATOM     45  C   UNL A   1      38.989  28.077  29.755  1.00  0.00     0.029 A 
ATOM     46  C   UNL A   1      40.077  29.044  29.652  1.00  0.00     0.049 A 
ATOM     47  H   UNL A   1      41.909  28.788  28.695  1.00  0.00     0.167 HD
ATOM     48  C   UNL A   1      45.708  28.172  26.712  1.00  0.00     0.037 A 
ATOM     49  C   UNL A   1      40.062  30.285  30.176  1.00  0.00     0.037 A 
ATOM     50  C   UNL A   1      45.746  29.548  27.144  1.00  0.00     0.049 A 
ATOM     51  C   UNL A   1      41.236  31.201  29.958  1.00  0.00     0.074 A 
ATOM     52  C   UNL A   1      46.746  30.488  26.951  1.00  0.00     0.029 A 
ATOM     53  N   UNL A   1      44.748  30.180  27.872  1.00  0.00    -0.354 N 
ATOM     54  N   UNL A   1      42.353  30.976  29.313  1.00  0.00    -0.248 NA
ATOM     55  C   UNL A   1      41.138  32.551  30.532  1.00  0.00     0.031 C 
ATOM     56  C   UNL A   1      46.375  31.670  27.602  1.00  0.00     0.029 A 
ATOM     57  C   UNL A   1      45.121  31.486  28.156  1.00  0.00     0.049 A 
ATOM     58  H   UNL A   1      43.900  29.763  28.146  1.00  0.00     0.167 HD
ATOM     59  C   UNL A   1      43.080  32.158  29.383  1.00  0.00     0.074 A 
ATOM     60  C   UNL A   1      42.264  33.107  30.111  1.00  0.00     0.031 C 
ATOM     61  C   UNL A   1      44.313  32.428  28.890  1.00  0.00     0.037 A 
BRANCH  48  62
ATOM     62  C   UNL A   1      46.923  27.626  26.015  1.00  0.00     0.064 A 
ATOM     63  C   UNL A   1      47.059  27.688  24.620  1.00  0.00     0.173 A 
ATOM     64  C   UNL A   1      47.986  27.081  26.752  1.00  0.00     0.173 A 
ATOM     65  F   UNL A   1      46.071  28.197  23.868  1.00  0.00    -0.203 F 
ATOM     66  C   UNL A   1      48.197  27.195  23.986  1.00  0.00     0.198 A 
ATOM     67  C   UNL A   1      49.136  26.617  26.116  1.00  0.00     0.198 A 
ATOM     68  F   UNL A   1      47.917  27.009  28.089  1.00  0.00    -0.203 F 
ATOM     69  F   UNL A   1      48.282  27.223  22.648  1.00  0.00    -0.200 F 
ATOM     70  C   UNL A   1      49.237  26.666  24.734  1.00  0.00     0.200 A 
ATOM     71  F   UNL A   1      50.148  26.121  26.842  1.00  0.00    -0.200 F 
ATOM     72  F   UNL A   1      50.335  26.199  24.123  1.00  0.00    -0.200 F 
ENDBRANCH  48  62
BRANCH  49  73
ATOM     73  C   UNL A   1      38.870  30.757  30.931  1.00  0.00     0.064 A 
ATOM     74  C   UNL A   1      38.800  30.619  32.325  1.00  0.00     0.173 A 
ATOM     75  C   UNL A   1      37.776  31.341  30.277  1.00  0.00     0.173 A 
ATOM     76  F   UNL A   1      39.812  30.045  32.993  1.00  0.00    -0.203 F 
ATOM     77  C   UNL A   1      37.672  31.029  33.033  1.00  0.00     0.198 A 
ATOM     78  C   UNL A   1      36.662  31.778  30.990  1.00  0.00     0.198 A 
ATOM     79  F   UNL A   1      37.796  31.498  28.946  1.00  0.00    -0.203 F 
ATOM     80  F   UNL A   1      37.612  30.842  34.359  1.00  0.00    -0.200 F 
ATOM     81  C   UNL A   1      36.606  31.614  32.366  1.00  0.00     0.200 A 
ATOM     82  F   UNL A   1      35.640  32.355  30.343  1.00  0.00    -0.200 F 
ATOM     83  F   UNL A   1      35.524  32.013  33.047  1.00  0.00    -0.200 F 
ENDBRANCH  49  73
BRANCH  61  84
ATOM     84  C   UNL A   1      44.850  33.816  29.108  1.00  0.00     0.064 A 
ATOM     85  C   UNL A   1      45.628  34.137  30.232  1.00  0.00     0.173 A 
ATOM     86  C   UNL A   1      44.585  34.837  28.183  1.00  0.00     0.173 A 
ATOM     87  F   UNL A   1      45.898  33.202  31.155  1.00  0.00    -0.203 F 
ATOM     88  C   UNL A   1      46.088  35.436  30.439  1.00  0.00     0.198 A 
ATOM     89  C   UNL A   1      45.074  36.127  28.377  1.00  0.00     0.198 A 
ATOM     90  F   UNL A   1      43.852  34.586  27.089  1.00  0.00    -0.203 F 
ATOM     91  F   UNL A   1      46.776  35.731  31.550  1.00  0.00    -0.200 F 
ATOM     92  C   UNL A   1      45.814  36.428  29.511  1.00  0.00     0.200 A 
ATOM     93  F   UNL A   1      44.818  37.082  27.473  1.00  0.00    -0.200 F 
ATOM     94  F   UNL A   1      46.254  37.678  29.714  1.00  0.00    -0.200 F 
ENDBRANCH  61  84
ENDBRANCH  35  36
ENDBRANCH  27  30
ENDBRANCH  25  26
ENDBRANCH  24  25
ENDBRANCH   1  24
TORSDOF 15
ENDMDL
MODEL 2
REMARK VINA RESULT:     -11.8      4.234      9.648
REMARK SMILES CC(C)[C@H](NC(N)=O)C(=O)N[C@H](C)C(=O)NCCCCNC(=O)c1ccc(-c2c3nc(c(-c4c(F)c(F)c(F)c(F)c4F)c4ccc([nH]4)c(-c4c(F)c(F)c(F)c(F)c4F)c4nc(c(-c5c(F)c(F)c(F)c(F)c5F)c5ccc2[nH]5)C=C4)C=C3)cc1
REMARK SMILES IDX 18 1 17 2 16 3 14 4 15 5 12 7 13 8 11 9 9 10 10 11 4 13 2 14
REMARK SMILES IDX 1 15 3 16 5 17 6 18 7 20 8 21 19 24 20 25 21 26 22 27 23 29
REMARK SMILES IDX 24 30 25 31 86 32 26 33 85 34 27 35 28 36 29 37 79 38 30 39
REMARK SMILES IDX 84 40 78 41 80 42 31 43 83 44 77 45 76 46 32 48 64 49 44 50
REMARK SMILES IDX 63 51 45 52 48 53 62 54 81 55 46 56 47 57 61 59 82 60 49 61
REMARK SMILES IDX 33 62 34 63 42 64 35 65 36 66 40 67 43 68 37 69 38 70 41 71
REMARK SMILES IDX 39 72 65 73 66 74 74 75 67 76 68 77 72 78 75 79 69 80 70 81
REMARK SMILES IDX 73 82 71 83 50 84 51 85 59 86 52 87 53 88 57 89 60 90 54 91
REMARK SMILES IDX 55 92 58 93 56 94
REMARK H PARENT 16 6 11 12 5 19 7 22 7 23 21 28 80 47 48 58
REMARK Flexibility Score: inf
ROOT
ATOM      1  C   UNL A   1      31.218  27.710  26.504  1.00  0.00     0.023 C 
ENDROOT
BRANCH   1   2
ATOM      2  C   UNL A   1      32.070  26.443  26.412  1.00  0.00     0.116 C 
BRANCH   2   3
ATOM      3  N   UNL A   1      31.415  25.167  26.533  1.00  0.00    -0.354 N 
ATOM      4  C   UNL A   1      32.031  23.964  26.771  1.00  0.00     0.242 C 
ATOM      5  O   UNL A   1      31.329  23.082  27.282  1.00  0.00    -0.273 OA
ATOM      6  H   UNL A   1      30.436  25.155  26.436  1.00  0.00     0.163 HD
BRANCH   4   7
ATOM      7  C   UNL A   1      33.542  23.686  26.491  1.00  0.00     0.168 C 
ATOM      8  C   UNL A   1      34.188  22.556  27.302  1.00  0.00     0.041 C 
BRANCH   7   9
ATOM      9  N   UNL A   1      34.224  23.936  25.204  1.00  0.00    -0.343 N 
ATOM     10  C   UNL A   1      34.180  23.355  23.981  1.00  0.00     0.243 C 
ATOM     11  O   UNL A   1      35.281  23.039  23.503  1.00  0.00    -0.273 OA
ATOM     12  H   UNL A   1      34.850  24.695  25.244  1.00  0.00     0.164 HD
BRANCH  10  13
ATOM     13  C   UNL A   1      32.914  23.202  23.094  1.00  0.00     0.175 C 
BRANCH  13  14
ATOM     14  C   UNL A   1      32.159  21.841  23.322  1.00  0.00     0.015 C 
ATOM     15  C   UNL A   1      31.885  21.131  21.990  1.00  0.00     0.010 C 
ATOM     16  C   UNL A   1      32.671  20.808  24.325  1.00  0.00     0.010 C 
ENDBRANCH  13  14
BRANCH  13  17
ATOM     17  N   UNL A   1      32.790  23.896  21.803  1.00  0.00    -0.326 N 
ATOM     18  C   UNL A   1      32.500  25.227  21.700  1.00  0.00     0.312 C 
ATOM     19  H   UNL A   1      32.921  23.378  20.977  1.00  0.00     0.166 HD
ATOM     20  N   UNL A   1      32.231  25.643  20.442  1.00  0.00    -0.352 N 
ATOM     21  O   UNL A   1      32.585  26.047  22.596  1.00  0.00    -0.249 OA
ATOM     22  H   UNL A   1      32.161  24.987  19.711  1.00  0.00     0.161 HD
ATOM     23  H   UNL A   1      32.104  26.601  20.256  1.00  0.00     0.161 HD
ENDBRANCH  13  17
ENDBRANCH  10  13
ENDBRANCH   7   9
ENDBRANCH   4   7
ENDBRANCH   2   3
ENDBRANCH   1   2
BRANCH   1  24
ATOM     24  C   UNL A   1      31.793  28.972  27.169  1.00  0.00     0.023 C 
BRANCH  24  25
ATOM     25  C   UNL A   1      32.355  30.121  26.326  1.00  0.00     0.116 C 
BRANCH  25  26
ATOM     26  N   UNL A   1      32.312  31.457  26.892  1.00  0.00    -0.352 N 
ATOM     27  C   UNL A   1      33.325  32.207  27.463  1.00  0.00     0.251 C 
ATOM     28  H   UNL A   1      31.430  31.894  26.865  1.00  0.00     0.163 HD
ATOM     29  O   UNL A   1      33.117  33.393  27.711  1.00  0.00    -0.269 OA
BRANCH  27  30
ATOM     30  C   UNL A   1      34.625  31.598  27.867  1.00  0.00     0.039 A 
ATOM     31  C   UNL A   1      35.725  32.451  28.023  1.00  0.00     0.014 A 
ATOM     32  C   UNL A   1      34.792  30.232  28.113  1.00  0.00     0.014 A 
ATOM     33  C   UNL A   1      36.934  31.966  28.541  1.00  0.00     0.010 A 
ATOM     34  C   UNL A   1      35.985  29.756  28.684  1.00  0.00     0.010 A 
ATOM     35  C   UNL A   1      37.058  30.625  28.942  1.00  0.00    -0.014 A 
BRANCH  35  36
ATOM     36  C   UNL A   1      38.256  30.183  29.723  1.00  0.00     0.031 A 
ATOM     37  C   UNL A   1      38.515  30.648  31.131  1.00  0.00     0.074 A 
ATOM     38  C   UNL A   1      39.158  29.369  29.132  1.00  0.00     0.049 A 
ATOM     39  N   UNL A   1      39.479  30.303  31.952  1.00  0.00    -0.248 NA
ATOM     40  C   UNL A   1      37.587  31.642  31.683  1.00  0.00     0.031 C 
ATOM     41  C   UNL A   1      39.086  28.899  27.748  1.00  0.00     0.029 A 
ATOM     42  N   UNL A   1      40.307  28.790  29.618  1.00  0.00    -0.354 N 
ATOM     43  C   UNL A   1      39.274  31.034  33.115  1.00  0.00     0.074 A 
ATOM     44  C   UNL A   1      38.122  31.880  32.873  1.00  0.00     0.031 C 
ATOM     45  C   UNL A   1      40.121  28.079  27.507  1.00  0.00     0.029 A 
ATOM     46  C   UNL A   1      40.946  27.982  28.707  1.00  0.00     0.049 A 
ATOM     47  H   UNL A   1      40.642  28.941  30.531  1.00  0.00     0.167 HD
ATOM     48  C   UNL A   1      39.965  30.991  34.283  1.00  0.00     0.037 A 
ATOM     49  C   UNL A   1      42.063  27.236  28.821  1.00  0.00     0.037 A 
ATOM     50  C   UNL A   1      41.108  30.148  34.535  1.00  0.00     0.049 A 
ATOM     51  C   UNL A   1      42.798  27.189  30.133  1.00  0.00     0.074 A 
ATOM     52  C   UNL A   1      41.823  29.988  35.712  1.00  0.00     0.029 A 
ATOM     53  N   UNL A   1      41.717  29.333  33.592  1.00  0.00    -0.354 N 
ATOM     54  N   UNL A   1      42.526  27.804  31.256  1.00  0.00    -0.248 NA
ATOM     55  C   UNL A   1      43.990  26.330  30.193  1.00  0.00     0.031 C 
ATOM     56  C   UNL A   1      42.890  29.116  35.467  1.00  0.00     0.029 A 
ATOM     57  C   UNL A   1      42.811  28.689  34.153  1.00  0.00     0.049 A 
ATOM     58  H   UNL A   1      41.416  29.225  32.661  1.00  0.00     0.167 HD
ATOM     59  C   UNL A   1      43.496  27.391  32.162  1.00  0.00     0.074 A 
ATOM     60  C   UNL A   1      44.347  26.452  31.463  1.00  0.00     0.031 C 
ATOM     61  C   UNL A   1      43.665  27.762  33.455  1.00  0.00     0.037 A 
BRANCH  48  62
ATOM     62  C   UNL A   1      39.496  31.883  35.399  1.00  0.00     0.064 A 
ATOM     63  C   UNL A   1      39.945  33.207  35.518  1.00  0.00     0.173 A 
ATOM     64  C   UNL A   1      38.549  31.427  36.329  1.00  0.00     0.173 A 
ATOM     65  F   UNL A   1      40.852  33.691  34.657  1.00  0.00    -0.203 F 
ATOM     66  C   UNL A   1      39.491  34.030  36.546  1.00  0.00     0.198 A 
ATOM     67  C   UNL A   1      38.073  32.264  37.338  1.00  0.00     0.198 A 
ATOM     68  F   UNL A   1      38.073  30.176  36.255  1.00  0.00    -0.203 F 
ATOM     69  F   UNL A   1      39.971  35.276  36.666  1.00  0.00    -0.200 F 
ATOM     70  C   UNL A   1      38.551  33.561  37.450  1.00  0.00     0.200 A 
ATOM     71  F   UNL A   1      37.152  31.814  38.201  1.00  0.00    -0.200 F 
ATOM     72  F   UNL A   1      38.108  34.356  38.434  1.00  0.00    -0.200 F 
ENDBRANCH  48  62
BRANCH  49  73
ATOM     73  C   UNL A   1      42.538  26.432  27.662  1.00  0.00     0.064 A 
ATOM     74  C   UNL A   1      43.516  26.933  26.792  1.00  0.00     0.173 A 
ATOM     75  C   UNL A   1      42.018  25.157  27.397  1.00  0.00     0.173 A 
ATOM     76  F   UNL A   1      44.026  28.158  26.991  1.00  0.00    -0.203 F 
ATOM     77  C   UNL A   1      43.941  26.198  25.687  1.00  0.00     0.198 A 
ATOM     78  C   UNL A   1      42.466  24.411  26.309  1.00  0.00     0.198 A 
ATOM     79  F   UNL A   1      41.083  24.632  28.202  1.00  0.00    -0.203 F 
ATOM     80  F   UNL A   1      44.842  26.721  24.844  1.00  0.00    -0.200 F 
ATOM     81  C   UNL A   1      43.420  24.935  25.449  1.00  0.00     0.200 A 
ATOM     82  F   UNL A   1      41.971  23.185  26.091  1.00  0.00    -0.200 F 
ATOM     83  F   UNL A   1      43.832  24.226  24.391  1.00  0.00    -0.200 F 
ENDBRANCH  49  73
BRANCH  61  84
ATOM     84  C   UNL A   1      44.807  27.135  34.204  1.00  0.00     0.064 A 
ATOM     85  C   UNL A   1      46.075  27.737  34.255  1.00  0.00     0.173 A 
ATOM     86  C   UNL A   1      44.635  25.918  34.882  1.00  0.00     0.173 A 
ATOM     87  F   UNL A   1      46.299  28.893  33.612  1.00  0.00    -0.203 F 
ATOM     88  C   UNL A   1      47.133  27.126  34.923  1.00  0.00     0.198 A 
ATOM     89  C   UNL A   1      45.688  25.326  35.576  1.00  0.00     0.198 A 
ATOM     90  F   UNL A   1      43.444  25.301  34.872  1.00  0.00    -0.203 F 
ATOM     91  F   UNL A   1      48.349  27.690  34.904  1.00  0.00    -0.200 F 
ATOM     92  C   UNL A   1      46.939  25.924  35.585  1.00  0.00     0.200 A 
ATOM     93  F   UNL A   1      45.494  24.170  36.225  1.00  0.00    -0.200 F 
ATOM     94  F   UNL A   1      47.960  25.336  36.225  1.00  0.00    -0.200 F 
ENDBRANCH  61  84
ENDBRANCH  35  36
ENDBRANCH  27  30
ENDBRANCH  25  26
ENDBRANCH  24  25
ENDBRANCH   1  24
TORSDOF 15
ENDMDL
MODEL 3
REMARK VINA RESULT:     -11.8      5.313      8.757
REMARK SMILES CC(C)[C@H](NC(N)=O)C(=O)N[C@H](C)C(=O)NCCCCNC(=O)c1ccc(-c2c3nc(c(-c4c(F)c(F)c(F)c(F)c4F)c4ccc([nH]4)c(-c4c(F)c(F)c(F)c(F)c4F)c4nc(c(-c5c(F)c(F)c(F)c(F)c5F)c5ccc2[nH]5)C=C4)C=C3)cc1
REMARK SMILES IDX 18 1 17 2 16 3 14 4 15 5 12 7 13 8 11 9 9 10 10 11 4 13 2 14
REMARK SMILES IDX 1 15 3 16 5 17 6 18 7 20 8 21 19 24 20 25 21 26 22 27 23 29
REMARK SMILES IDX 24 30 25 31 86 32 26 33 85 34 27 35 28 36 29 37 79 38 30 39
REMARK SMILES IDX 84 40 78 41 80 42 31 43 83 44 77 45 76 46 32 48 64 49 44 50
REMARK SMILES IDX 63 51 45 52 48 53 62 54 81 55 46 56 47 57 61 59 82 60 49 61
REMARK SMILES IDX 33 62 34 63 42 64 35 65 36 66 40 67 43 68 37 69 38 70 41 71
REMARK SMILES IDX 39 72 65 73 66 74 74 75 67 76 68 77 72 78 75 79 69 80 70 81
REMARK SMILES IDX 73 82 71 83 50 84 51 85 59 86 52 87 53 88 57 89 60 90 54 91
REMARK SMILES IDX 55 92 58 93 56 94
REMARK H PARENT 16 6 11 12 5 19 7 22 7 23 21 28 80 47 48 58
REMARK Flexibility Score: inf
ROOT
ATOM      1  C   UNL A   1      31.718  30.754  25.932  1.00  0.00     0.023 C 
ENDROOT
BRANCH   1   2
ATOM      2  C   UNL A   1      31.835  29.453  26.728  1.00  0.00     0.116 C 
BRANCH   2   3
ATOM      3  N   UNL A   1      33.090  29.149  27.364  1.00  0.00    -0.354 N 
ATOM      4  C   UNL A   1      34.215  28.671  26.742  1.00  0.00     0.242 C 
ATOM      5  O   UNL A   1      35.291  28.890  27.313  1.00  0.00    -0.273 OA
ATOM      6  H   UNL A   1      33.146  29.298  28.336  1.00  0.00     0.163 HD
BRANCH   4   7
ATOM      7  C   UNL A   1      34.205  27.939  25.362  1.00  0.00     0.168 C 
ATOM      8  C   UNL A   1      33.526  26.564  25.326  1.00  0.00     0.041 C 
BRANCH   7   9
ATOM      9  N   UNL A   1      34.215  28.612  24.046  1.00  0.00    -0.343 N 
ATOM     10  C   UNL A   1      33.517  28.454  22.897  1.00  0.00     0.243 C 
ATOM     11  O   UNL A   1      34.204  28.346  21.869  1.00  0.00    -0.273 OA
ATOM     12  H   UNL A   1      34.878  29.339  23.995  1.00  0.00     0.164 HD
BRANCH  10  13
ATOM     13  C   UNL A   1      31.974  28.552  22.752  1.00  0.00     0.175 C 
BRANCH  13  14
ATOM     14  C   UNL A   1      31.268  27.148  22.687  1.00  0.00     0.015 C 
ATOM     15  C   UNL A   1      32.191  26.092  22.067  1.00  0.00     0.010 C 
ATOM     16  C   UNL A   1      30.596  26.541  23.919  1.00  0.00     0.010 C 
ENDBRANCH  13  14
BRANCH  13  17
ATOM     17  N   UNL A   1      31.331  29.719  22.127  1.00  0.00    -0.326 N 
ATOM     18  C   UNL A   1      30.062  30.120  22.433  1.00  0.00     0.312 C 
ATOM     19  H   UNL A   1      31.839  30.233  21.459  1.00  0.00     0.166 HD
ATOM     20  N   UNL A   1      29.571  31.083  21.621  1.00  0.00    -0.352 N 
ATOM     21  O   UNL A   1      29.422  29.777  23.411  1.00  0.00    -0.249 OA
ATOM     22  H   UNL A   1      30.083  31.367  20.829  1.00  0.00     0.161 HD
ATOM     23  H   UNL A   1      28.703  31.501  21.821  1.00  0.00     0.161 HD
ENDBRANCH  13  17
ENDBRANCH  10  13
ENDBRANCH   7   9
ENDBRANCH   4   7
ENDBRANCH   2   3
ENDBRANCH   1   2
BRANCH   1  24
ATOM     24  C   UNL A   1      31.387  32.069  26.659  1.00  0.00     0.023 C 
BRANCH  24  25
ATOM     25  C   UNL A   1      32.495  32.934  27.268  1.00  0.00     0.116 C 
BRANCH  25  26
ATOM     26  N   UNL A   1      32.130  34.251  27.759  1.00  0.00    -0.352 N 
ATOM     27  C   UNL A   1      32.861  35.140  28.527  1.00  0.00     0.251 C 
ATOM     28  H   UNL A   1      31.229  34.556  27.507  1.00  0.00     0.163 HD
ATOM     29  O   UNL A   1      32.436  36.284  28.676  1.00  0.00    -0.269 OA
BRANCH  27  30
ATOM     30  C   UNL A   1      34.098  34.725  29.250  1.00  0.00     0.039 A 
ATOM     31  C   UNL A   1      33.994  34.455  30.621  1.00  0.00     0.014 A 
ATOM     32  C   UNL A   1      35.341  34.575  28.628  1.00  0.00     0.014 A 
ATOM     33  C   UNL A   1      35.080  33.920  31.326  1.00  0.00     0.010 A 
ATOM     34  C   UNL A   1      36.414  33.988  29.321  1.00  0.00     0.010 A 
ATOM     35  C   UNL A   1      36.285  33.617  30.669  1.00  0.00    -0.014 A 
BRANCH  35  36
ATOM     36  C   UNL A   1      37.341  32.818  31.368  1.00  0.00     0.031 A 
ATOM     37  C   UNL A   1      37.997  31.622  30.733  1.00  0.00     0.074 A 
ATOM     38  C   UNL A   1      37.691  33.158  32.628  1.00  0.00     0.049 A 
ATOM     39  N   UNL A   1      38.967  30.869  31.194  1.00  0.00    -0.248 NA
ATOM     40  C   UNL A   1      37.487  31.202  29.422  1.00  0.00     0.031 C 
ATOM     41  C   UNL A   1      37.088  34.242  33.404  1.00  0.00     0.029 A 
ATOM     42  N   UNL A   1      38.638  32.633  33.475  1.00  0.00    -0.354 N 
ATOM     43  C   UNL A   1      39.186  29.890  30.233  1.00  0.00     0.074 A 
ATOM     44  C   UNL A   1      38.209  30.115  29.186  1.00  0.00     0.031 C 
ATOM     45  C   UNL A   1      37.701  34.324  34.596  1.00  0.00     0.029 A 
ATOM     46  C   UNL A   1      38.723  33.286  34.682  1.00  0.00     0.049 A 
ATOM     47  H   UNL A   1      39.202  31.861  33.241  1.00  0.00     0.167 HD
ATOM     48  C   UNL A   1      40.123  28.909  30.212  1.00  0.00     0.037 A 
ATOM     49  C   UNL A   1      39.535  33.085  35.739  1.00  0.00     0.037 A 
ATOM     50  C   UNL A   1      41.103  28.681  31.246  1.00  0.00     0.049 A 
ATOM     51  C   UNL A   1      40.580  32.004  35.682  1.00  0.00     0.074 A 
ATOM     52  C   UNL A   1      42.135  27.756  31.272  1.00  0.00     0.029 A 
ATOM     53  N   UNL A   1      41.165  29.372  32.447  1.00  0.00    -0.354 N 
ATOM     54  N   UNL A   1      40.843  31.157  34.718  1.00  0.00    -0.248 NA
ATOM     55  C   UNL A   1      41.451  31.862  36.858  1.00  0.00     0.031 C 
ATOM     56  C   UNL A   1      42.789  27.855  32.505  1.00  0.00     0.029 A 
ATOM     57  C   UNL A   1      42.200  28.878  33.229  1.00  0.00     0.049 A 
ATOM     58  H   UNL A   1      40.564  30.107  32.706  1.00  0.00     0.167 HD
ATOM     59  C   UNL A   1      41.921  30.399  35.160  1.00  0.00     0.074 A 
ATOM     60  C   UNL A   1      42.279  30.905  36.467  1.00  0.00     0.031 C 
ATOM     61  C   UNL A   1      42.551  29.374  34.535  1.00  0.00     0.037 A 
BRANCH  48  62
ATOM     62  C   UNL A   1      40.147  27.998  29.016  1.00  0.00     0.064 A 
ATOM     63  C   UNL A   1      40.863  28.329  27.855  1.00  0.00     0.173 A 
ATOM     64  C   UNL A   1      39.491  26.757  29.047  1.00  0.00     0.173 A 
ATOM     65  F   UNL A   1      41.505  29.504  27.771  1.00  0.00    -0.203 F 
ATOM     66  C   UNL A   1      40.893  27.470  26.759  1.00  0.00     0.198 A 
ATOM     67  C   UNL A   1      39.549  25.887  27.961  1.00  0.00     0.198 A 
ATOM     68  F   UNL A   1      38.804  26.382  30.136  1.00  0.00    -0.203 F 
ATOM     69  F   UNL A   1      41.544  27.831  25.644  1.00  0.00    -0.200 F 
ATOM     70  C   UNL A   1      40.242  26.247  26.815  1.00  0.00     0.200 A 
ATOM     71  F   UNL A   1      38.933  24.698  28.022  1.00  0.00    -0.200 F 
ATOM     72  F   UNL A   1      40.278  25.418  25.763  1.00  0.00    -0.200 F 
ENDBRANCH  48  62
BRANCH  49  73
ATOM     73  C   UNL A   1      39.421  33.959  36.938  1.00  0.00     0.064 A 
ATOM     74  C   UNL A   1      40.058  35.207  36.982  1.00  0.00     0.173 A 
ATOM     75  C   UNL A   1      38.686  33.561  38.063  1.00  0.00     0.173 A 
ATOM     76  F   UNL A   1      40.793  35.621  35.939  1.00  0.00    -0.203 F 
ATOM     77  C   UNL A   1      39.982  36.015  38.115  1.00  0.00     0.198 A 
ATOM     78  C   UNL A   1      38.585  34.383  39.183  1.00  0.00     0.198 A 
ATOM     79  F   UNL A   1      38.055  32.378  38.069  1.00  0.00    -0.203 F 
ATOM     80  F   UNL A   1      40.641  37.181  38.148  1.00  0.00    -0.200 F 
ATOM     81  C   UNL A   1      39.240  35.605  39.212  1.00  0.00     0.200 A 
ATOM     82  F   UNL A   1      37.856  33.990  40.236  1.00  0.00    -0.200 F 
ATOM     83  F   UNL A   1      39.162  36.384  40.299  1.00  0.00    -0.200 F 
ENDBRANCH  49  73
BRANCH  61  84
ATOM     84  C   UNL A   1      43.709  28.741  35.256  1.00  0.00     0.064 A 
ATOM     85  C   UNL A   1      45.032  29.153  35.030  1.00  0.00     0.173 A 
ATOM     86  C   UNL A   1      43.495  27.711  36.185  1.00  0.00     0.173 A 
ATOM     87  F   UNL A   1      45.294  30.123  34.141  1.00  0.00    -0.203 F 
ATOM     88  C   UNL A   1      46.097  28.533  35.678  1.00  0.00     0.198 A 
ATOM     89  C   UNL A   1      44.561  27.115  36.855  1.00  0.00     0.198 A 
ATOM     90  F   UNL A   1      42.252  27.281  36.444  1.00  0.00    -0.203 F 
ATOM     91  F   UNL A   1      47.355  28.902  35.399  1.00  0.00    -0.200 F 
ATOM     92  C   UNL A   1      45.861  27.518  36.592  1.00  0.00     0.200 A 
ATOM     93  F   UNL A   1      44.329  26.142  37.747  1.00  0.00    -0.200 F 
ATOM     94  F   UNL A   1      46.889  26.919  37.212  1.00  0.00    -0.200 F 
ENDBRANCH  61  84
ENDBRANCH  35  36
ENDBRANCH  27  30
ENDBRANCH  25  26
ENDBRANCH  24  25
ENDBRANCH   1  24
TORSDOF 15
ENDMDL
