MODEL 1
REMARK VINA RESULT:     -13.9      0.000      0.000
REMARK SMILES Cc1c(CC(=O)NCCCCNC(=O)c2ccc(-c3c4nc(c(-c5c(F)c(F)c(F)c(F)c5F)c5ccc([nH]5)c(-c5c(F)c(F)c(F)c(F)c5F)c5nc(c(-c6c(F)c(F)c(F)c(F)c6F)c6ccc3[nH]6)C=C5)C=C4)cc2)c2cc(O)ccc2n1C(=O)c1ccc(Cl)cc1
REMARK SMILES IDX 9 1 8 2 7 3 5 4 6 5 4 7 3 8 1 9 2 10 85 11 78 12 84 13 79 14
REMARK SMILES IDX 83 15 80 16 82 17 86 18 87 19 88 20 89 21 94 22 90 23 93 24
REMARK SMILES IDX 91 25 92 26 81 27 10 29 11 30 12 31 13 32 14 34 15 35 16 36
REMARK SMILES IDX 77 37 17 38 76 39 18 40 19 41 20 42 70 43 21 44 75 45 69 46
REMARK SMILES IDX 71 47 22 48 74 49 68 50 67 51 23 53 55 54 35 55 54 56 36 57
REMARK SMILES IDX 39 58 53 59 72 60 37 61 38 62 52 64 73 65 40 66 24 67 25 68
REMARK SMILES IDX 33 69 26 70 27 71 31 72 34 73 28 74 29 75 32 76 30 77 56 78
REMARK SMILES IDX 57 79 65 80 58 81 59 82 63 83 66 84 60 85 61 86 64 87 62 88
REMARK SMILES IDX 41 89 42 90 50 91 43 92 44 93 48 94 51 95 45 96 46 97 49 98
REMARK SMILES IDX 47 99
REMARK H PARENT 7 6 81 28 12 33 71 52 39 63
REMARK Flexibility Score: inf
ROOT
ATOM      1  C   UNL A   1      32.396  27.408  26.908  1.00  0.00     0.023 C 
ENDROOT
BRANCH   1   2
ATOM      2  C   UNL A   1      31.409  26.501  26.174  1.00  0.00     0.116 C 
BRANCH   2   3
ATOM      3  N   UNL A   1      31.145  25.282  26.907  1.00  0.00    -0.356 N 
ATOM      4  C   UNL A   1      31.168  23.996  26.449  1.00  0.00     0.224 C 
ATOM      5  O   UNL A   1      30.927  23.088  27.249  1.00  0.00    -0.275 OA
ATOM      6  H   UNL A   1      30.918  25.394  27.859  1.00  0.00     0.163 HD
BRANCH   4   7
ATOM      7  C   UNL A   1      31.549  23.704  25.005  1.00  0.00     0.138 C 
BRANCH   7   8
ATOM      8  C   UNL A   1      32.893  23.044  24.860  1.00  0.00    -0.009 A 
ATOM      9  C   UNL A   1      34.458  25.124  24.805  1.00  0.00     0.065 C 
ATOM     10  C   UNL A   1      34.135  23.659  24.772  1.00  0.00     0.028 A 
ATOM     11  N   UNL A   1      35.119  22.677  24.584  1.00  0.00    -0.280 N 
ATOM     12  C   UNL A   1      33.116  21.639  24.817  1.00  0.00     0.008 A 
ATOM     13  C   UNL A   1      34.497  21.424  24.725  1.00  0.00     0.057 A 
ATOM     14  C   UNL A   1      32.243  20.529  24.875  1.00  0.00     0.056 A 
ATOM     15  C   UNL A   1      35.005  20.107  24.778  1.00  0.00     0.031 A 
ATOM     16  C   UNL A   1      32.759  19.239  24.846  1.00  0.00     0.116 A 
ATOM     17  C   UNL A   1      34.122  19.022  24.812  1.00  0.00     0.048 A 
BRANCH  11  18
ATOM     18  C   UNL A   1      36.495  22.928  24.302  1.00  0.00     0.262 C 
ATOM     19  O   UNL A   1      36.825  23.210  23.148  1.00  0.00    -0.268 OA
BRANCH  18  20
ATOM     20  C   UNL A   1      37.592  22.896  25.280  1.00  0.00     0.040 A 
ATOM     21  C   UNL A   1      37.903  24.019  26.056  1.00  0.00     0.015 A 
ATOM     22  C   UNL A   1      38.325  21.711  25.407  1.00  0.00     0.015 A 
ATOM     23  C   UNL A   1      39.019  23.977  26.896  1.00  0.00     0.021 A 
ATOM     24  C   UNL A   1      39.431  21.673  26.255  1.00  0.00     0.021 A 
ATOM     25  C   UNL A   1      39.785  22.811  26.979  1.00  0.00     0.041 A 
ATOM     26  Cl  UNL A   1      41.191  22.784  27.970  1.00  0.00    -0.084 Cl
ENDBRANCH  18  20
ENDBRANCH  11  18
BRANCH  16  27
ATOM     27  O   UNL A   1      31.875  18.202  24.870  1.00  0.00    -0.508 OA
ATOM     28  H   UNL A   1      31.884  17.595  25.583  1.00  0.00     0.293 HD
ENDBRANCH  16  27
ENDBRANCH   7   8
ENDBRANCH   4   7
ENDBRANCH   2   3
ENDBRANCH   1   2
BRANCH   1  29
ATOM     29  C   UNL A   1      32.132  28.911  26.723  1.00  0.00     0.023 C 
BRANCH  29  30
ATOM     30  C   UNL A   1      33.396  29.757  26.549  1.00  0.00     0.116 C 
BRANCH  30  31
ATOM     31  N   UNL A   1      33.539  30.776  27.570  1.00  0.00    -0.352 N 
ATOM     32  C   UNL A   1      34.580  31.286  28.290  1.00  0.00     0.251 C 
ATOM     33  H   UNL A   1      32.681  31.201  27.797  1.00  0.00     0.163 HD
ATOM     34  O   UNL A   1      34.315  32.254  29.008  1.00  0.00    -0.269 OA
BRANCH  32  35
ATOM     35  C   UNL A   1      35.965  30.744  28.308  1.00  0.00     0.039 A 
ATOM     36  C   UNL A   1      36.334  29.443  27.969  1.00  0.00     0.014 A 
ATOM     37  C   UNL A   1      36.960  31.622  28.785  1.00  0.00     0.014 A 
ATOM     38  C   UNL A   1      37.638  29.007  28.171  1.00  0.00     0.010 A 
ATOM     39  C   UNL A   1      38.266  31.192  28.985  1.00  0.00     0.010 A 
ATOM     40  C   UNL A   1      38.591  29.866  28.722  1.00  0.00    -0.014 A 
BRANCH  40  41
ATOM     41  C   UNL A   1      39.924  29.326  28.965  1.00  0.00     0.031 A 
ATOM     42  C   UNL A   1      40.256  29.037  30.389  1.00  0.00     0.074 A 
ATOM     43  C   UNL A   1      40.797  29.043  27.977  1.00  0.00     0.049 A 
ATOM     44  N   UNL A   1      41.204  29.545  31.109  1.00  0.00    -0.248 NA
ATOM     45  C   UNL A   1      39.367  28.124  31.123  1.00  0.00     0.031 C 
ATOM     46  C   UNL A   1      40.563  29.022  26.532  1.00  0.00     0.029 A 
ATOM     47  N   UNL A   1      42.089  28.621  28.087  1.00  0.00    -0.354 N 
ATOM     48  C   UNL A   1      41.130  28.912  32.349  1.00  0.00     0.074 A 
ATOM     49  C   UNL A   1      39.923  28.125  32.335  1.00  0.00     0.031 C 
ATOM     50  C   UNL A   1      41.600  28.403  25.922  1.00  0.00     0.029 A 
ATOM     51  C   UNL A   1      42.624  28.120  26.912  1.00  0.00     0.049 A 
ATOM     52  H   UNL A   1      42.598  28.671  28.929  1.00  0.00     0.167 HD
ATOM     53  C   UNL A   1      42.161  28.941  33.237  1.00  0.00     0.037 A 
ATOM     54  C   UNL A   1      43.801  27.459  26.781  1.00  0.00     0.037 A 
ATOM     55  C   UNL A   1      43.069  30.023  32.973  1.00  0.00     0.049 A 
ATOM     56  C   UNL A   1      44.646  27.815  27.946  1.00  0.00     0.074 A 
ATOM     57  C   UNL A   1      42.965  31.399  32.971  1.00  0.00     0.029 A 
ATOM     58  N   UNL A   1      44.251  29.745  32.337  1.00  0.00    -0.354 N 
ATOM     59  N   UNL A   1      45.152  28.999  28.148  1.00  0.00    -0.248 NA
ATOM     60  C   UNL A   1      44.595  26.947  29.112  1.00  0.00     0.031 C 
ATOM     61  C   UNL A   1      43.818  31.832  31.913  1.00  0.00     0.029 A 
ATOM     62  C   UNL A   1      44.413  30.696  31.365  1.00  0.00     0.049 A 
ATOM     63  H   UNL A   1      44.867  29.003  32.541  1.00  0.00     0.167 HD
ATOM     64  C   UNL A   1      45.085  29.177  29.521  1.00  0.00     0.074 A 
ATOM     65  C   UNL A   1      44.830  27.848  30.068  1.00  0.00     0.031 C 
ATOM     66  C   UNL A   1      44.971  30.424  30.063  1.00  0.00     0.037 A 
BRANCH  53  67
ATOM     67  C   UNL A   1      42.520  27.797  34.151  1.00  0.00     0.064 A 
ATOM     68  C   UNL A   1      43.126  26.640  33.621  1.00  0.00     0.173 A 
ATOM     69  C   UNL A   1      42.014  27.676  35.463  1.00  0.00     0.173 A 
ATOM     70  F   UNL A   1      43.615  26.635  32.372  1.00  0.00    -0.203 F 
ATOM     71  C   UNL A   1      43.161  25.436  34.330  1.00  0.00     0.198 A 
ATOM     72  C   UNL A   1      42.097  26.488  36.186  1.00  0.00     0.198 A 
ATOM     73  F   UNL A   1      41.323  28.661  36.048  1.00  0.00    -0.203 F 
ATOM     74  F   UNL A   1      43.638  24.331  33.741  1.00  0.00    -0.200 F 
ATOM     75  C   UNL A   1      42.642  25.359  35.610  1.00  0.00     0.200 A 
ATOM     76  F   UNL A   1      41.568  26.427  37.416  1.00  0.00    -0.200 F 
ATOM     77  F   UNL A   1      42.619  24.193  36.267  1.00  0.00    -0.200 F 
ENDBRANCH  53  67
BRANCH  54  78
ATOM     78  C   UNL A   1      44.095  26.291  25.917  1.00  0.00     0.064 A 
ATOM     79  C   UNL A   1      45.399  26.044  25.457  1.00  0.00     0.173 A 
ATOM     80  C   UNL A   1      43.169  25.239  25.773  1.00  0.00     0.173 A 
ATOM     81  F   UNL A   1      46.351  26.976  25.597  1.00  0.00    -0.203 F 
ATOM     82  C   UNL A   1      45.762  24.806  24.917  1.00  0.00     0.198 A 
ATOM     83  C   UNL A   1      43.531  24.007  25.227  1.00  0.00     0.198 A 
ATOM     84  F   UNL A   1      41.921  25.348  26.252  1.00  0.00    -0.203 F 
ATOM     85  F   UNL A   1      47.033  24.582  24.554  1.00  0.00    -0.200 F 
ATOM     86  C   UNL A   1      44.831  23.785  24.814  1.00  0.00     0.200 A 
ATOM     87  F   UNL A   1      42.630  23.017  25.169  1.00  0.00    -0.200 F 
ATOM     88  F   UNL A   1      45.196  22.577  24.361  1.00  0.00    -0.200 F 
ENDBRANCH  54  78
BRANCH  66  89
ATOM     89  C   UNL A   1      45.189  31.603  29.160  1.00  0.00     0.064 A 
ATOM     90  C   UNL A   1      44.170  32.198  28.394  1.00  0.00     0.173 A 
ATOM     91  C   UNL A   1      46.431  32.250  29.196  1.00  0.00     0.173 A 
ATOM     92  F   UNL A   1      42.929  31.697  28.389  1.00  0.00    -0.203 F 
ATOM     93  C   UNL A   1      44.402  33.363  27.667  1.00  0.00     0.198 A 
ATOM     94  C   UNL A   1      46.649  33.433  28.497  1.00  0.00     0.198 A 
ATOM     95  F   UNL A   1      47.422  31.760  29.957  1.00  0.00    -0.203 F 
ATOM     96  F   UNL A   1      43.415  33.911  26.940  1.00  0.00    -0.200 F 
ATOM     97  C   UNL A   1      45.638  33.986  27.726  1.00  0.00     0.200 A 
ATOM     98  F   UNL A   1      47.829  34.060  28.598  1.00  0.00    -0.200 F 
ATOM     99  F   UNL A   1      45.845  35.135  27.067  1.00  0.00    -0.200 F 
ENDBRANCH  66  89
ENDBRANCH  40  41
ENDBRANCH  32  35
ENDBRANCH  30  31
ENDBRANCH  29  30
ENDBRANCH   1  29
TORSDOF 15
ENDMDL
MODEL 2
REMARK VINA RESULT:     -13.6      3.543      9.249
REMARK SMILES Cc1c(CC(=O)NCCCCNC(=O)c2ccc(-c3c4nc(c(-c5c(F)c(F)c(F)c(F)c5F)c5ccc([nH]5)c(-c5c(F)c(F)c(F)c(F)c5F)c5nc(c(-c6c(F)c(F)c(F)c(F)c6F)c6ccc3[nH]6)C=C5)C=C4)cc2)c2cc(O)ccc2n1C(=O)c1ccc(Cl)cc1
REMARK SMILES IDX 9 1 8 2 7 3 5 4 6 5 4 7 3 8 1 9 2 10 85 11 78 12 84 13 79 14
REMARK SMILES IDX 83 15 80 16 82 17 86 18 87 19 88 20 89 21 94 22 90 23 93 24
REMARK SMILES IDX 91 25 92 26 81 27 10 29 11 30 12 31 13 32 14 34 15 35 16 36
REMARK SMILES IDX 77 37 17 38 76 39 18 40 19 41 20 42 70 43 21 44 75 45 69 46
REMARK SMILES IDX 71 47 22 48 74 49 68 50 67 51 23 53 55 54 35 55 54 56 36 57
REMARK SMILES IDX 39 58 53 59 72 60 37 61 38 62 52 64 73 65 40 66 24 67 25 68
REMARK SMILES IDX 33 69 26 70 27 71 31 72 34 73 28 74 29 75 32 76 30 77 56 78
REMARK SMILES IDX 57 79 65 80 58 81 59 82 63 83 66 84 60 85 61 86 64 87 62 88
REMARK SMILES IDX 41 89 42 90 50 91 43 92 44 93 48 94 51 95 45 96 46 97 49 98
REMARK SMILES IDX 47 99
REMARK H PARENT 7 6 81 28 12 33 71 52 39 63
REMARK Flexibility Score: inf
ROOT
ATOM      1  C   UNL A   1      37.392  22.076  24.657  1.00  0.00     0.023 C 
ENDROOT
BRANCH   1   2
ATOM      2  C   UNL A   1      36.879  23.435  25.130  1.00  0.00     0.116 C 
BRANCH   2   3
ATOM      3  N   UNL A   1      35.661  23.316  25.902  1.00  0.00    -0.356 N 
ATOM      4  C   UNL A   1      34.500  24.023  25.767  1.00  0.00     0.224 C 
ATOM      5  O   UNL A   1      33.563  23.754  26.523  1.00  0.00    -0.275 OA
ATOM      6  H   UNL A   1      35.669  22.638  26.616  1.00  0.00     0.163 HD
BRANCH   4   7
ATOM      7  C   UNL A   1      34.361  25.065  24.667  1.00  0.00     0.138 C 
BRANCH   7   8
ATOM      8  C   UNL A   1      33.143  25.935  24.814  1.00  0.00    -0.009 A 
ATOM      9  C   UNL A   1      31.458  24.682  23.275  1.00  0.00     0.065 C 
ATOM     10  C   UNL A   1      31.902  25.766  24.211  1.00  0.00     0.028 A 
ATOM     11  N   UNL A   1      31.070  26.837  24.571  1.00  0.00    -0.280 N 
ATOM     12  C   UNL A   1      33.053  27.089  25.641  1.00  0.00     0.008 A 
ATOM     13  C   UNL A   1      31.750  27.591  25.543  1.00  0.00     0.057 A 
ATOM     14  C   UNL A   1      33.983  27.733  26.489  1.00  0.00     0.056 A 
ATOM     15  C   UNL A   1      31.356  28.678  26.355  1.00  0.00     0.031 A 
ATOM     16  C   UNL A   1      33.598  28.850  27.220  1.00  0.00     0.116 A 
ATOM     17  C   UNL A   1      32.298  29.315  27.170  1.00  0.00     0.048 A 
BRANCH  11  18
ATOM     18  C   UNL A   1      29.774  27.093  24.034  1.00  0.00     0.262 C 
ATOM     19  O   UNL A   1      28.849  26.328  24.317  1.00  0.00    -0.268 OA
BRANCH  18  20
ATOM     20  C   UNL A   1      29.412  28.220  23.161  1.00  0.00     0.040 A 
ATOM     21  C   UNL A   1      30.379  28.885  22.398  1.00  0.00     0.015 A 
ATOM     22  C   UNL A   1      28.071  28.617  23.123  1.00  0.00     0.015 A 
ATOM     23  C   UNL A   1      30.009  30.015  21.665  1.00  0.00     0.021 A 
ATOM     24  C   UNL A   1      27.706  29.739  22.381  1.00  0.00     0.021 A 
ATOM     25  C   UNL A   1      28.679  30.445  21.673  1.00  0.00     0.041 A 
ATOM     26  Cl  UNL A   1      28.238  31.870  20.816  1.00  0.00    -0.084 Cl
ENDBRANCH  18  20
ENDBRANCH  11  18
BRANCH  16  27
ATOM     27  O   UNL A   1      34.539  29.456  27.997  1.00  0.00    -0.508 OA
ATOM     28  H   UNL A   1      35.365  29.700  27.629  1.00  0.00     0.293 HD
ENDBRANCH  16  27
ENDBRANCH   7   8
ENDBRANCH   4   7
ENDBRANCH   2   3
ENDBRANCH   1   2
BRANCH   1  29
ATOM     29  C   UNL A   1      38.357  21.389  25.635  1.00  0.00     0.023 C 
BRANCH  29  30
ATOM     30  C   UNL A   1      39.284  22.348  26.387  1.00  0.00     0.116 C 
BRANCH  30  31
ATOM     31  N   UNL A   1      40.667  22.243  25.968  1.00  0.00    -0.352 N 
ATOM     32  C   UNL A   1      41.788  23.005  26.128  1.00  0.00     0.251 C 
ATOM     33  H   UNL A   1      40.839  21.428  25.444  1.00  0.00     0.163 HD
ATOM     34  O   UNL A   1      42.838  22.513  25.706  1.00  0.00    -0.269 OA
BRANCH  32  35
ATOM     35  C   UNL A   1      41.828  24.371  26.716  1.00  0.00     0.039 A 
ATOM     36  C   UNL A   1      42.405  24.713  27.939  1.00  0.00     0.014 A 
ATOM     37  C   UNL A   1      41.152  25.371  25.989  1.00  0.00     0.014 A 
ATOM     38  C   UNL A   1      42.247  25.993  28.457  1.00  0.00     0.010 A 
ATOM     39  C   UNL A   1      40.995  26.654  26.500  1.00  0.00     0.010 A 
ATOM     40  C   UNL A   1      41.503  26.948  27.761  1.00  0.00    -0.014 A 
BRANCH  40  41
ATOM     41  C   UNL A   1      41.325  28.252  28.389  1.00  0.00     0.031 A 
ATOM     42  C   UNL A   1      42.401  29.249  28.126  1.00  0.00     0.074 A 
ATOM     43  C   UNL A   1      40.238  28.579  29.116  1.00  0.00     0.049 A 
ATOM     44  N   UNL A   1      43.176  29.836  28.981  1.00  0.00    -0.248 NA
ATOM     45  C   UNL A   1      42.702  29.572  26.723  1.00  0.00     0.031 C 
ATOM     46  C   UNL A   1      38.987  27.835  29.271  1.00  0.00     0.029 A 
ATOM     47  N   UNL A   1      40.004  29.726  29.816  1.00  0.00    -0.354 N 
ATOM     48  C   UNL A   1      43.969  30.715  28.246  1.00  0.00     0.074 A 
ATOM     49  C   UNL A   1      43.707  30.439  26.856  1.00  0.00     0.031 C 
ATOM     50  C   UNL A   1      38.055  28.641  29.830  1.00  0.00     0.029 A 
ATOM     51  C   UNL A   1      38.683  29.897  30.200  1.00  0.00     0.049 A 
ATOM     52  H   UNL A   1      40.712  30.375  30.032  1.00  0.00     0.167 HD
ATOM     53  C   UNL A   1      44.655  31.733  28.834  1.00  0.00     0.037 A 
ATOM     54  C   UNL A   1      38.137  31.021  30.725  1.00  0.00     0.037 A 
ATOM     55  C   UNL A   1      44.843  31.512  30.241  1.00  0.00     0.049 A 
ATOM     56  C   UNL A   1      39.239  31.826  31.304  1.00  0.00     0.074 A 
ATOM     57  C   UNL A   1      45.503  30.563  30.996  1.00  0.00     0.029 A 
ATOM     58  N   UNL A   1      44.036  32.183  31.123  1.00  0.00    -0.354 N 
ATOM     59  N   UNL A   1      39.925  31.477  32.356  1.00  0.00    -0.248 NA
ATOM     60  C   UNL A   1      39.855  32.840  30.462  1.00  0.00     0.031 C 
ATOM     61  C   UNL A   1      44.695  30.388  32.158  1.00  0.00     0.029 A 
ATOM     62  C   UNL A   1      43.618  31.268  32.054  1.00  0.00     0.049 A 
ATOM     63  H   UNL A   1      43.801  33.139  31.094  1.00  0.00     0.167 HD
ATOM     64  C   UNL A   1      41.218  31.898  32.086  1.00  0.00     0.074 A 
ATOM     65  C   UNL A   1      41.094  32.815  30.958  1.00  0.00     0.031 C 
ATOM     66  C   UNL A   1      42.294  31.254  32.624  1.00  0.00     0.037 A 
BRANCH  53  67
ATOM     67  C   UNL A   1      44.878  33.080  28.196  1.00  0.00     0.064 A 
ATOM     68  C   UNL A   1      46.183  33.484  27.851  1.00  0.00     0.173 A 
ATOM     69  C   UNL A   1      43.902  34.100  28.196  1.00  0.00     0.173 A 
ATOM     70  F   UNL A   1      47.194  32.602  27.848  1.00  0.00    -0.203 F 
ATOM     71  C   UNL A   1      46.496  34.821  27.591  1.00  0.00     0.198 A 
ATOM     72  C   UNL A   1      44.208  35.423  27.884  1.00  0.00     0.198 A 
ATOM     73  F   UNL A   1      42.647  33.878  28.604  1.00  0.00    -0.203 F 
ATOM     74  F   UNL A   1      47.771  35.179  27.386  1.00  0.00    -0.200 F 
ATOM     75  C   UNL A   1      45.509  35.791  27.612  1.00  0.00     0.200 A 
ATOM     76  F   UNL A   1      43.243  36.352  27.934  1.00  0.00    -0.200 F 
ATOM     77  F   UNL A   1      45.817  37.080  27.424  1.00  0.00    -0.200 F 
ENDBRANCH  53  67
BRANCH  54  78
ATOM     78  C   UNL A   1      36.799  31.595  30.448  1.00  0.00     0.064 A 
ATOM     79  C   UNL A   1      35.907  31.884  31.494  1.00  0.00     0.173 A 
ATOM     80  C   UNL A   1      36.488  32.144  29.189  1.00  0.00     0.173 A 
ATOM     81  F   UNL A   1      36.153  31.437  32.733  1.00  0.00    -0.203 F 
ATOM     82  C   UNL A   1      34.790  32.702  31.297  1.00  0.00     0.198 A 
ATOM     83  C   UNL A   1      35.369  32.953  28.992  1.00  0.00     0.198 A 
ATOM     84  F   UNL A   1      37.317  31.991  28.146  1.00  0.00    -0.203 F 
ATOM     85  F   UNL A   1      34.000  33.014  32.335  1.00  0.00    -0.200 F 
ATOM     86  C   UNL A   1      34.528  33.245  30.050  1.00  0.00     0.200 A 
ATOM     87  F   UNL A   1      35.149  33.503  27.790  1.00  0.00    -0.200 F 
ATOM     88  F   UNL A   1      33.497  34.084  29.878  1.00  0.00    -0.200 F 
ENDBRANCH  54  78
BRANCH  66  89
ATOM     89  C   UNL A   1      42.039  30.259  33.719  1.00  0.00     0.064 A 
ATOM     90  C   UNL A   1      41.645  28.929  33.487  1.00  0.00     0.173 A 
ATOM     91  C   UNL A   1      42.359  30.618  35.034  1.00  0.00     0.173 A 
ATOM     92  F   UNL A   1      41.420  28.481  32.246  1.00  0.00    -0.203 F 
ATOM     93  C   UNL A   1      41.539  28.015  34.534  1.00  0.00     0.198 A 
ATOM     94  C   UNL A   1      42.287  29.694  36.072  1.00  0.00     0.198 A 
ATOM     95  F   UNL A   1      42.797  31.858  35.305  1.00  0.00    -0.203 F 
ATOM     96  F   UNL A   1      41.158  26.751  34.290  1.00  0.00    -0.200 F 
ATOM     97  C   UNL A   1      41.869  28.395  35.825  1.00  0.00     0.200 A 
ATOM     98  F   UNL A   1      42.656  30.052  37.310  1.00  0.00    -0.200 F 
ATOM     99  F   UNL A   1      41.817  27.503  36.824  1.00  0.00    -0.200 F 
ENDBRANCH  66  89
ENDBRANCH  40  41
ENDBRANCH  32  35
ENDBRANCH  30  31
ENDBRANCH  29  30
ENDBRANCH   1  29
TORSDOF 15
ENDMDL
MODEL 3
REMARK VINA RESULT:     -13.6      2.087      2.899
REMARK SMILES Cc1c(CC(=O)NCCCCNC(=O)c2ccc(-c3c4nc(c(-c5c(F)c(F)c(F)c(F)c5F)c5ccc([nH]5)c(-c5c(F)c(F)c(F)c(F)c5F)c5nc(c(-c6c(F)c(F)c(F)c(F)c6F)c6ccc3[nH]6)C=C5)C=C4)cc2)c2cc(O)ccc2n1C(=O)c1ccc(Cl)cc1
REMARK SMILES IDX 9 1 8 2 7 3 5 4 6 5 4 7 3 8 1 9 2 10 85 11 78 12 84 13 79 14
REMARK SMILES IDX 83 15 80 16 82 17 86 18 87 19 88 20 89 21 94 22 90 23 93 24
REMARK SMILES IDX 91 25 92 26 81 27 10 29 11 30 12 31 13 32 14 34 15 35 16 36
REMARK SMILES IDX 77 37 17 38 76 39 18 40 19 41 20 42 70 43 21 44 75 45 69 46
REMARK SMILES IDX 71 47 22 48 74 49 68 50 67 51 23 53 55 54 35 55 54 56 36 57
REMARK SMILES IDX 39 58 53 59 72 60 37 61 38 62 52 64 73 65 40 66 24 67 25 68
REMARK SMILES IDX 33 69 26 70 27 71 31 72 34 73 28 74 29 75 32 76 30 77 56 78
REMARK SMILES IDX 57 79 65 80 58 81 59 82 63 83 66 84 60 85 61 86 64 87 62 88
REMARK SMILES IDX 41 89 42 90 50 91 43 92 44 93 48 94 51 95 45 96 46 97 49 98
REMARK SMILES IDX 47 99
REMARK H PARENT 7 6 81 28 12 33 71 52 39 63
REMARK Flexibility Score: inf
ROOT
ATOM      1  C   UNL A   1      35.106  29.390  27.217  1.00  0.00     0.023 C 
ENDROOT
BRANCH   1   2
ATOM      2  C   UNL A   1      33.688  29.681  26.728  1.00  0.00     0.116 C 
BRANCH   2   3
ATOM      3  N   UNL A   1      32.685  29.104  27.597  1.00  0.00    -0.356 N 
ATOM      4  C   UNL A   1      31.611  28.334  27.256  1.00  0.00     0.224 C 
ATOM      5  O   UNL A   1      30.878  27.923  28.160  1.00  0.00    -0.275 OA
ATOM      6  H   UNL A   1      32.791  29.291  28.558  1.00  0.00     0.163 HD
BRANCH   4   7
ATOM      7  C   UNL A   1      31.376  27.947  25.804  1.00  0.00     0.138 C 
BRANCH   7   8
ATOM      8  C   UNL A   1      32.011  26.637  25.421  1.00  0.00    -0.009 A 
ATOM      9  C   UNL A   1      34.095  27.470  24.102  1.00  0.00     0.065 C 
ATOM     10  C   UNL A   1      33.175  26.441  24.688  1.00  0.00     0.028 A 
ATOM     11  N   UNL A   1      33.374  25.064  24.508  1.00  0.00    -0.280 N 
ATOM     12  C   UNL A   1      31.522  25.351  25.784  1.00  0.00     0.008 A 
ATOM     13  C   UNL A   1      32.412  24.393  25.282  1.00  0.00     0.057 A 
ATOM     14  C   UNL A   1      30.395  24.931  26.527  1.00  0.00     0.056 A 
ATOM     15  C   UNL A   1      32.220  23.029  25.596  1.00  0.00     0.031 A 
ATOM     16  C   UNL A   1      30.182  23.577  26.758  1.00  0.00     0.116 A 
ATOM     17  C   UNL A   1      31.087  22.633  26.313  1.00  0.00     0.048 A 
BRANCH  11  18
ATOM     18  C   UNL A   1      34.378  24.475  23.684  1.00  0.00     0.262 C 
ATOM     19  O   UNL A   1      34.275  24.567  22.459  1.00  0.00    -0.268 OA
BRANCH  18  20
ATOM     20  C   UNL A   1      35.570  23.758  24.162  1.00  0.00     0.040 A 
ATOM     21  C   UNL A   1      36.119  22.697  23.432  1.00  0.00     0.015 A 
ATOM     22  C   UNL A   1      36.136  24.161  25.377  1.00  0.00     0.015 A 
ATOM     23  C   UNL A   1      37.186  21.978  23.974  1.00  0.00     0.021 A 
ATOM     24  C   UNL A   1      37.208  23.444  25.907  1.00  0.00     0.021 A 
ATOM     25  C   UNL A   1      37.715  22.345  25.215  1.00  0.00     0.041 A 
ATOM     26  Cl  UNL A   1      38.990  21.421  25.906  1.00  0.00    -0.084 Cl
ENDBRANCH  18  20
ENDBRANCH  11  18
BRANCH  16  27
ATOM     27  O   UNL A   1      29.064  23.219  27.450  1.00  0.00    -0.508 OA
ATOM     28  H   UNL A   1      28.273  23.710  27.349  1.00  0.00     0.293 HD
ENDBRANCH  16  27
ENDBRANCH   7   8
ENDBRANCH   4   7
ENDBRANCH   2   3
ENDBRANCH   1   2
BRANCH   1  29
ATOM     29  C   UNL A   1      35.898  30.636  27.640  1.00  0.00     0.023 C 
BRANCH  29  30
ATOM     30  C   UNL A   1      35.033  31.866  27.932  1.00  0.00     0.116 C 
BRANCH  30  31
ATOM     31  N   UNL A   1      34.733  32.024  29.341  1.00  0.00    -0.352 N 
ATOM     32  C   UNL A   1      35.402  31.788  30.506  1.00  0.00     0.251 C 
ATOM     33  H   UNL A   1      33.831  32.388  29.493  1.00  0.00     0.163 HD
ATOM     34  O   UNL A   1      34.839  32.167  31.537  1.00  0.00    -0.269 OA
BRANCH  32  35
ATOM     35  C   UNL A   1      36.707  31.083  30.626  1.00  0.00     0.039 A 
ATOM     36  C   UNL A   1      37.964  31.671  30.494  1.00  0.00     0.014 A 
ATOM     37  C   UNL A   1      36.634  29.688  30.816  1.00  0.00     0.014 A 
ATOM     38  C   UNL A   1      39.110  30.884  30.474  1.00  0.00     0.010 A 
ATOM     39  C   UNL A   1      37.776  28.897  30.801  1.00  0.00     0.010 A 
ATOM     40  C   UNL A   1      39.012  29.495  30.580  1.00  0.00    -0.014 A 
BRANCH  40  41
ATOM     41  C   UNL A   1      40.247  28.724  30.490  1.00  0.00     0.031 A 
ATOM     42  C   UNL A   1      40.998  28.555  31.766  1.00  0.00     0.074 A 
ATOM     43  C   UNL A   1      40.673  28.142  29.351  1.00  0.00     0.049 A 
ATOM     44  N   UNL A   1      42.202  28.941  32.044  1.00  0.00    -0.248 NA
ATOM     45  C   UNL A   1      40.286  27.949  32.900  1.00  0.00     0.031 C 
ATOM     46  C   UNL A   1      39.958  27.987  28.084  1.00  0.00     0.029 A 
ATOM     47  N   UNL A   1      41.843  27.478  29.129  1.00  0.00    -0.354 N 
ATOM     48  C   UNL A   1      42.461  28.500  33.341  1.00  0.00     0.074 A 
ATOM     49  C   UNL A   1      41.217  27.986  33.855  1.00  0.00     0.031 C 
ATOM     50  C   UNL A   1      40.613  27.094  27.308  1.00  0.00     0.029 A 
ATOM     51  C   UNL A   1      41.858  26.731  27.962  1.00  0.00     0.049 A 
ATOM     52  H   UNL A   1      42.611  27.526  29.744  1.00  0.00     0.167 HD
ATOM     53  C   UNL A   1      43.725  28.425  33.839  1.00  0.00     0.037 A 
ATOM     54  C   UNL A   1      42.801  25.828  27.597  1.00  0.00     0.037 A 
ATOM     55  C   UNL A   1      44.643  29.251  33.104  1.00  0.00     0.049 A 
ATOM     56  C   UNL A   1      44.039  26.144  28.349  1.00  0.00     0.074 A 
ATOM     57  C   UNL A   1      44.759  30.608  32.875  1.00  0.00     0.029 A 
ATOM     58  N   UNL A   1      45.478  28.654  32.195  1.00  0.00    -0.354 N 
ATOM     59  N   UNL A   1      44.760  27.213  28.156  1.00  0.00    -0.248 NA
ATOM     60  C   UNL A   1      44.258  25.461  29.614  1.00  0.00     0.031 C 
ATOM     61  C   UNL A   1      45.253  30.716  31.541  1.00  0.00     0.029 A 
ATOM     62  C   UNL A   1      45.441  29.420  31.060  1.00  0.00     0.049 A 
ATOM     63  H   UNL A   1      46.004  27.833  32.332  1.00  0.00     0.167 HD
ATOM     64  C   UNL A   1      45.197  27.573  29.420  1.00  0.00     0.074 A 
ATOM     65  C   UNL A   1      44.943  26.407  30.260  1.00  0.00     0.031 C 
ATOM     66  C   UNL A   1      45.470  28.875  29.725  1.00  0.00     0.037 A 
BRANCH  53  67
ATOM     67  C   UNL A   1      44.195  27.357  34.794  1.00  0.00     0.064 A 
ATOM     68  C   UNL A   1      44.092  25.999  34.431  1.00  0.00     0.173 A 
ATOM     69  C   UNL A   1      44.453  27.607  36.158  1.00  0.00     0.173 A 
ATOM     70  F   UNL A   1      43.820  25.648  33.165  1.00  0.00    -0.203 F 
ATOM     71  C   UNL A   1      44.175  24.975  35.378  1.00  0.00     0.198 A 
ATOM     72  C   UNL A   1      44.587  26.581  37.091  1.00  0.00     0.198 A 
ATOM     73  F   UNL A   1      44.471  28.849  36.658  1.00  0.00    -0.203 F 
ATOM     74  F   UNL A   1      43.951  23.706  35.009  1.00  0.00    -0.200 F 
ATOM     75  C   UNL A   1      44.418  25.267  36.709  1.00  0.00     0.200 A 
ATOM     76  F   UNL A   1      44.799  26.886  38.379  1.00  0.00    -0.200 F 
ATOM     77  F   UNL A   1      44.437  24.293  37.627  1.00  0.00    -0.200 F 
ENDBRANCH  53  67
BRANCH  54  78
ATOM     78  C   UNL A   1      42.597  24.525  26.922  1.00  0.00     0.064 A 
ATOM     79  C   UNL A   1      43.091  24.297  25.627  1.00  0.00     0.173 A 
ATOM     80  C   UNL A   1      42.178  23.389  27.642  1.00  0.00     0.173 A 
ATOM     81  F   UNL A   1      43.551  25.319  24.891  1.00  0.00    -0.203 F 
ATOM     82  C   UNL A   1      43.192  23.006  25.098  1.00  0.00     0.198 A 
ATOM     83  C   UNL A   1      42.271  22.102  27.110  1.00  0.00     0.198 A 
ATOM     84  F   UNL A   1      41.765  23.491  28.913  1.00  0.00    -0.203 F 
ATOM     85  F   UNL A   1      43.735  22.821  23.886  1.00  0.00    -0.200 F 
ATOM     86  C   UNL A   1      42.794  21.909  25.845  1.00  0.00     0.200 A 
ATOM     87  F   UNL A   1      41.918  21.047  27.858  1.00  0.00    -0.200 F 
ATOM     88  F   UNL A   1      42.954  20.668  25.365  1.00  0.00    -0.200 F 
ENDBRANCH  54  78
BRANCH  66  89
ATOM     89  C   UNL A   1      45.544  29.859  28.594  1.00  0.00     0.064 A 
ATOM     90  C   UNL A   1      44.424  30.522  28.062  1.00  0.00     0.173 A 
ATOM     91  C   UNL A   1      46.807  30.262  28.142  1.00  0.00     0.173 A 
ATOM     92  F   UNL A   1      43.191  30.265  28.514  1.00  0.00    -0.203 F 
ATOM     93  C   UNL A   1      44.565  31.514  27.094  1.00  0.00     0.198 A 
ATOM     94  C   UNL A   1      46.948  31.277  27.202  1.00  0.00     0.198 A 
ATOM     95  F   UNL A   1      47.915  29.704  28.658  1.00  0.00    -0.203 F 
ATOM     96  F   UNL A   1      43.481  32.131  26.598  1.00  0.00    -0.200 F 
ATOM     97  C   UNL A   1      45.827  31.898  26.670  1.00  0.00     0.200 A 
ATOM     98  F   UNL A   1      48.171  31.681  26.833  1.00  0.00    -0.200 F 
ATOM     99  F   UNL A   1      45.966  32.887  25.777  1.00  0.00    -0.200 F 
ENDBRANCH  66  89
ENDBRANCH  40  41
ENDBRANCH  32  35
ENDBRANCH  30  31
ENDBRANCH  29  30
ENDBRANCH   1  29
TORSDOF 15
ENDMDL
