MODEL 1
REMARK VINA RESULT:     -14.3      0.000      0.000
REMARK SMILES C[C@H]1N=c2ccc(OC(F)(F)F)cc2=C1CCN1C(=O)c2ccc(C(=O)NCCCCNC(=O)c3ccc(-c4c5nc(c(-c6c(F)c(F)c(F)c(F)c6F)c6ccc([nH]6)c(-c6c(F)c(F)c(F)c(F)c6F)c6nc(c(-c7c(F)c(F)c(F)c(F)c7F)c7ccc4[nH]7)C=C6)C=C5)cc3)cc2C1=O
REMARK SMILES IDX 28 1 27 2 25 3 26 4 24 6 18 7 19 8 100 9 20 10 21 11 99 12
REMARK SMILES IDX 101 13 22 14 98 15 23 16 17 17 16 18 15 19 1 20 2 21 3 22
REMARK SMILES IDX 4 23 14 24 5 25 13 26 6 27 7 28 8 29 9 30 10 31 11 32 12 33
REMARK SMILES IDX 29 34 30 35 31 36 32 37 33 38 34 40 35 41 36 42 97 43 37 44
REMARK SMILES IDX 96 45 38 46 39 47 40 48 90 49 41 50 95 51 89 52 91 53 42 54
REMARK SMILES IDX 94 55 88 56 87 57 43 59 75 60 55 61 74 62 56 63 59 64 73 65
REMARK SMILES IDX 92 66 57 67 58 68 72 70 93 71 60 72 44 73 45 74 53 75 46 76
REMARK SMILES IDX 47 77 51 78 54 79 48 80 49 81 52 82 50 83 76 84 77 85 85 86
REMARK SMILES IDX 78 87 79 88 83 89 86 90 80 91 81 92 84 93 82 94 61 95 62 96
REMARK SMILES IDX 70 97 63 98 64 99 68 100 71 101 65 102 66 103 69 104 67 105
REMARK H PARENT 27 5 32 39 91 58 59 69
REMARK Flexibility Score: inf
ROOT
ATOM      1  C   UNL A   1      36.053  20.772  25.387  1.00  0.00     0.116 C 
ENDROOT
BRANCH   1   2
ATOM      2  N   UNL A   1      35.253  19.584  25.128  1.00  0.00    -0.352 N 
ATOM      3  C   UNL A   1      33.970  19.444  24.665  1.00  0.00     0.251 C 
ATOM      4  O   UNL A   1      33.567  18.339  24.313  1.00  0.00    -0.269 OA
ATOM      5  H   UNL A   1      35.712  18.733  25.319  1.00  0.00     0.163 HD
BRANCH   3   6
ATOM      6  C   UNL A   1      33.064  20.602  24.525  1.00  0.00     0.040 A 
ATOM      7  N   UNL A   1      30.812  24.467  25.489  1.00  0.00    -0.274 N 
ATOM      8  C   UNL A   1      30.688  24.033  24.193  1.00  0.00     0.261 C 
ATOM      9  C   UNL A   1      31.311  23.474  26.286  1.00  0.00     0.261 C 
ATOM     10  O   UNL A   1      30.143  24.565  23.249  1.00  0.00    -0.269 OA
ATOM     11  C   UNL A   1      31.374  22.740  24.118  1.00  0.00     0.053 A 
ATOM     12  C   UNL A   1      31.819  22.430  25.391  1.00  0.00     0.054 A 
ATOM     13  O   UNL A   1      31.375  23.418  27.500  1.00  0.00    -0.269 OA
ATOM     14  C   UNL A   1      31.670  21.948  23.026  1.00  0.00     0.015 A 
ATOM     15  C   UNL A   1      32.684  21.372  25.632  1.00  0.00     0.028 A 
ATOM     16  C   UNL A   1      32.516  20.854  23.243  1.00  0.00     0.015 A 
BRANCH   7  17
ATOM     17  C   UNL A   1      30.315  25.756  25.948  1.00  0.00     0.134 C 
BRANCH  17  18
ATOM     18  C   UNL A   1      31.338  26.711  26.612  1.00  0.00     0.056 C 
BRANCH  18  19
ATOM     19  C   UNL A   1      31.991  27.791  25.777  1.00  0.00    -0.035 C 
ATOM     20  C   UNL A   1      32.179  29.914  27.298  1.00  0.00     0.038 C 
ATOM     21  C   UNL A   1      31.698  29.266  26.013  1.00  0.00     0.129 C 
ATOM     22  N   UNL A   1      32.388  29.994  24.923  1.00  0.00    -0.277 NA
ATOM     23  C   UNL A   1      32.890  29.046  24.202  1.00  0.00     0.066 A 
ATOM     24  C   UNL A   1      32.628  27.655  24.604  1.00  0.00     0.005 A 
ATOM     25  C   UNL A   1      33.718  29.262  23.007  1.00  0.00     0.032 A 
ATOM     26  C   UNL A   1      32.957  26.578  23.707  1.00  0.00     0.057 A 
ATOM     27  C   UNL A   1      34.054  28.205  22.255  1.00  0.00     0.049 A 
ATOM     28  C   UNL A   1      33.583  26.853  22.541  1.00  0.00     0.130 A 
BRANCH  28  29
ATOM     29  O   UNL A   1      33.785  25.843  21.621  1.00  0.00    -0.406 OA
BRANCH  29  30
ATOM     30  C   UNL A   1      32.700  25.463  20.777  1.00  0.00     0.573 C 
ATOM     31  F   UNL A   1      32.986  25.643  19.470  1.00  0.00    -0.132 F 
ATOM     32  F   UNL A   1      32.378  24.168  20.988  1.00  0.00    -0.132 F 
ATOM     33  F   UNL A   1      31.620  26.217  21.078  1.00  0.00    -0.132 F 
ENDBRANCH  29  30
ENDBRANCH  28  29
ENDBRANCH  18  19
ENDBRANCH  17  18
ENDBRANCH   7  17
ENDBRANCH   3   6
ENDBRANCH   1   2
BRANCH   1  34
ATOM     34  C   UNL A   1      37.389  20.758  24.632  1.00  0.00     0.023 C 
BRANCH  34  35
ATOM     35  C   UNL A   1      38.355  19.620  24.988  1.00  0.00     0.023 C 
BRANCH  35  36
ATOM     36  C   UNL A   1      39.564  19.995  25.842  1.00  0.00     0.116 C 
BRANCH  36  37
ATOM     37  N   UNL A   1      40.578  18.951  25.916  1.00  0.00    -0.352 N 
ATOM     38  C   UNL A   1      41.941  19.038  26.111  1.00  0.00     0.251 C 
ATOM     39  H   UNL A   1      40.235  18.034  25.810  1.00  0.00     0.163 HD
ATOM     40  O   UNL A   1      42.629  18.022  26.045  1.00  0.00    -0.269 OA
BRANCH  38  41
ATOM     41  C   UNL A   1      42.599  20.347  26.350  1.00  0.00     0.039 A 
ATOM     42  C   UNL A   1      42.514  20.990  27.583  1.00  0.00     0.014 A 
ATOM     43  C   UNL A   1      43.311  20.952  25.306  1.00  0.00     0.014 A 
ATOM     44  C   UNL A   1      42.944  22.310  27.706  1.00  0.00     0.010 A 
ATOM     45  C   UNL A   1      43.825  22.247  25.462  1.00  0.00     0.010 A 
ATOM     46  C   UNL A   1      43.579  22.968  26.639  1.00  0.00    -0.014 A 
BRANCH  46  47
ATOM     47  C   UNL A   1      43.914  24.415  26.771  1.00  0.00     0.031 A 
ATOM     48  C   UNL A   1      42.884  25.400  27.271  1.00  0.00     0.074 A 
ATOM     49  C   UNL A   1      45.174  24.835  26.543  1.00  0.00     0.049 A 
ATOM     50  N   UNL A   1      43.027  26.671  27.560  1.00  0.00    -0.248 NA
ATOM     51  C   UNL A   1      41.515  24.899  27.469  1.00  0.00     0.031 C 
ATOM     52  C   UNL A   1      46.264  23.989  26.059  1.00  0.00     0.029 A 
ATOM     53  N   UNL A   1      45.762  26.063  26.728  1.00  0.00    -0.354 N 
ATOM     54  C   UNL A   1      41.775  27.115  27.967  1.00  0.00     0.074 A 
ATOM     55  C   UNL A   1      40.870  25.994  27.844  1.00  0.00     0.031 C 
ATOM     56  C   UNL A   1      47.401  24.701  26.049  1.00  0.00     0.029 A 
ATOM     57  C   UNL A   1      47.114  26.068  26.476  1.00  0.00     0.049 A 
ATOM     58  H   UNL A   1      45.264  26.863  27.013  1.00  0.00     0.167 HD
ATOM     59  C   UNL A   1      41.415  28.338  28.427  1.00  0.00     0.037 A 
ATOM     60  C   UNL A   1      48.022  27.057  26.578  1.00  0.00     0.037 A 
ATOM     61  C   UNL A   1      42.317  29.448  28.582  1.00  0.00     0.049 A 
ATOM     62  C   UNL A   1      47.586  28.419  27.045  1.00  0.00     0.074 A 
ATOM     63  C   UNL A   1      42.047  30.712  29.079  1.00  0.00     0.029 A 
ATOM     64  N   UNL A   1      43.660  29.431  28.240  1.00  0.00    -0.354 N 
ATOM     65  N   UNL A   1      46.407  28.809  27.464  1.00  0.00    -0.248 NA
ATOM     66  C   UNL A   1      48.604  29.480  27.044  1.00  0.00     0.031 C 
ATOM     67  C   UNL A   1      43.216  31.474  28.994  1.00  0.00     0.029 A 
ATOM     68  C   UNL A   1      44.224  30.673  28.486  1.00  0.00     0.049 A 
ATOM     69  H   UNL A   1      44.141  28.653  27.876  1.00  0.00     0.167 HD
ATOM     70  C   UNL A   1      46.542  30.154  27.782  1.00  0.00     0.074 A 
ATOM     71  C   UNL A   1      47.922  30.509  27.532  1.00  0.00     0.031 C 
ATOM     72  C   UNL A   1      45.600  31.017  28.232  1.00  0.00     0.037 A 
BRANCH  59  73
ATOM     73  C   UNL A   1      39.980  28.550  28.814  1.00  0.00     0.064 A 
ATOM     74  C   UNL A   1      39.526  28.294  30.116  1.00  0.00     0.173 A 
ATOM     75  C   UNL A   1      39.068  29.095  27.896  1.00  0.00     0.173 A 
ATOM     76  F   UNL A   1      40.355  27.767  31.029  1.00  0.00    -0.203 F 
ATOM     77  C   UNL A   1      38.208  28.560  30.481  1.00  0.00     0.198 A 
ATOM     78  C   UNL A   1      37.759  29.385  28.273  1.00  0.00     0.198 A 
ATOM     79  F   UNL A   1      39.453  29.369  26.641  1.00  0.00    -0.203 F 
ATOM     80  F   UNL A   1      37.789  28.278  31.723  1.00  0.00    -0.200 F 
ATOM     81  C   UNL A   1      37.329  29.114  29.563  1.00  0.00     0.200 A 
ATOM     82  F   UNL A   1      36.914  29.936  27.388  1.00  0.00    -0.200 F 
ATOM     83  F   UNL A   1      36.067  29.386  29.921  1.00  0.00    -0.200 F 
ENDBRANCH  59  73
BRANCH  60  84
ATOM     84  C   UNL A   1      49.445  26.785  26.242  1.00  0.00     0.064 A 
ATOM     85  C   UNL A   1      50.352  26.374  27.227  1.00  0.00     0.173 A 
ATOM     86  C   UNL A   1      49.919  26.908  24.927  1.00  0.00     0.173 A 
ATOM     87  F   UNL A   1      49.953  26.264  28.503  1.00  0.00    -0.203 F 
ATOM     88  C   UNL A   1      51.681  26.097  26.910  1.00  0.00     0.198 A 
ATOM     89  C   UNL A   1      51.240  26.602  24.608  1.00  0.00     0.198 A 
ATOM     90  F   UNL A   1      49.091  27.298  23.949  1.00  0.00    -0.203 F 
ATOM     91  F   UNL A   1      52.536  25.735  27.876  1.00  0.00    -0.200 F 
ATOM     92  C   UNL A   1      52.121  26.202  25.600  1.00  0.00     0.200 A 
ATOM     93  F   UNL A   1      51.656  26.690  23.336  1.00  0.00    -0.200 F 
ATOM     94  F   UNL A   1      53.394  25.919  25.293  1.00  0.00    -0.200 F 
ENDBRANCH  60  84
BRANCH  72  95
ATOM     95  C   UNL A   1      46.012  32.437  28.483  1.00  0.00     0.064 A 
ATOM     96  C   UNL A   1      46.535  32.833  29.723  1.00  0.00     0.173 A 
ATOM     97  C   UNL A   1      45.976  33.385  27.450  1.00  0.00     0.173 A 
ATOM     98  F   UNL A   1      46.578  31.966  30.745  1.00  0.00    -0.203 F 
ATOM     99  C   UNL A   1      47.007  34.128  29.918  1.00  0.00     0.198 A 
ATOM    100  C   UNL A   1      46.473  34.672  27.641  1.00  0.00     0.198 A 
ATOM    101  F   UNL A   1      45.491  33.053  26.243  1.00  0.00    -0.203 F 
ATOM    102  F   UNL A   1      47.485  34.491  31.117  1.00  0.00    -0.200 F 
ATOM    103  C   UNL A   1      46.986  35.042  28.875  1.00  0.00     0.200 A 
ATOM    104  F   UNL A   1      46.467  35.549  26.628  1.00  0.00    -0.200 F 
ATOM    105  F   UNL A   1      47.464  36.281  29.059  1.00  0.00    -0.200 F 
ENDBRANCH  72  95
ENDBRANCH  46  47
ENDBRANCH  38  41
ENDBRANCH  36  37
ENDBRANCH  35  36
ENDBRANCH  34  35
ENDBRANCH   1  34
TORSDOF 16
ENDMDL
MODEL 2
REMARK VINA RESULT:     -14.2      1.615      2.001
REMARK SMILES C[C@H]1N=c2ccc(OC(F)(F)F)cc2=C1CCN1C(=O)c2ccc(C(=O)NCCCCNC(=O)c3ccc(-c4c5nc(c(-c6c(F)c(F)c(F)c(F)c6F)c6ccc([nH]6)c(-c6c(F)c(F)c(F)c(F)c6F)c6nc(c(-c7c(F)c(F)c(F)c(F)c7F)c7ccc4[nH]7)C=C6)C=C5)cc3)cc2C1=O
REMARK SMILES IDX 28 1 27 2 25 3 26 4 24 6 18 7 19 8 100 9 20 10 21 11 99 12
REMARK SMILES IDX 101 13 22 14 98 15 23 16 17 17 16 18 15 19 1 20 2 21 3 22
REMARK SMILES IDX 4 23 14 24 5 25 13 26 6 27 7 28 8 29 9 30 10 31 11 32 12 33
REMARK SMILES IDX 29 34 30 35 31 36 32 37 33 38 34 40 35 41 36 42 97 43 37 44
REMARK SMILES IDX 96 45 38 46 39 47 40 48 90 49 41 50 95 51 89 52 91 53 42 54
REMARK SMILES IDX 94 55 88 56 87 57 43 59 75 60 55 61 74 62 56 63 59 64 73 65
REMARK SMILES IDX 92 66 57 67 58 68 72 70 93 71 60 72 44 73 45 74 53 75 46 76
REMARK SMILES IDX 47 77 51 78 54 79 48 80 49 81 52 82 50 83 76 84 77 85 85 86
REMARK SMILES IDX 78 87 79 88 83 89 86 90 80 91 81 92 84 93 82 94 61 95 62 96
REMARK SMILES IDX 70 97 63 98 64 99 68 100 71 101 65 102 66 103 69 104 67 105
REMARK H PARENT 27 5 32 39 91 58 59 69
REMARK Flexibility Score: inf
ROOT
ATOM      1  C   UNL A   1      36.055  20.906  25.350  1.00  0.00     0.116 C 
ENDROOT
BRANCH   1   2
ATOM      2  N   UNL A   1      35.256  19.713  25.105  1.00  0.00    -0.352 N 
ATOM      3  C   UNL A   1      33.965  19.568  24.669  1.00  0.00     0.251 C 
ATOM      4  O   UNL A   1      33.561  18.461  24.322  1.00  0.00    -0.269 OA
ATOM      5  H   UNL A   1      35.725  18.865  25.283  1.00  0.00     0.163 HD
BRANCH   3   6
ATOM      6  C   UNL A   1      33.048  20.720  24.554  1.00  0.00     0.040 A 
ATOM      7  N   UNL A   1      30.518  24.358  25.693  1.00  0.00    -0.274 N 
ATOM      8  C   UNL A   1      30.625  24.127  24.344  1.00  0.00     0.261 C 
ATOM      9  C   UNL A   1      30.919  23.262  26.404  1.00  0.00     0.261 C 
ATOM     10  O   UNL A   1      30.220  24.790  23.412  1.00  0.00    -0.269 OA
ATOM     11  C   UNL A   1      31.364  22.871  24.193  1.00  0.00     0.053 A 
ATOM     12  C   UNL A   1      31.607  22.375  25.462  1.00  0.00     0.054 A 
ATOM     13  O   UNL A   1      30.785  23.020  27.590  1.00  0.00    -0.269 OA
ATOM     14  C   UNL A   1      31.866  22.260  23.060  1.00  0.00     0.015 A 
ATOM     15  C   UNL A   1      32.462  21.305  25.684  1.00  0.00     0.028 A 
ATOM     16  C   UNL A   1      32.708  21.158  23.250  1.00  0.00     0.015 A 
BRANCH   7  17
ATOM     17  C   UNL A   1      29.902  25.554  26.248  1.00  0.00     0.134 C 
BRANCH  17  18
ATOM     18  C   UNL A   1      30.819  26.782  26.472  1.00  0.00     0.056 C 
BRANCH  18  19
ATOM     19  C   UNL A   1      31.578  27.361  25.298  1.00  0.00    -0.035 C 
ATOM     20  C   UNL A   1      33.917  26.187  25.253  1.00  0.00     0.038 C 
ATOM     21  C   UNL A   1      33.097  27.462  25.303  1.00  0.00     0.129 C 
ATOM     22  N   UNL A   1      33.456  28.210  24.075  1.00  0.00    -0.277 NA
ATOM     23  C   UNL A   1      32.309  28.510  23.563  1.00  0.00     0.066 A 
ATOM     24  C   UNL A   1      31.095  28.102  24.288  1.00  0.00     0.005 A 
ATOM     25  C   UNL A   1      32.129  29.227  22.293  1.00  0.00     0.032 A 
ATOM     26  C   UNL A   1      29.814  28.620  23.887  1.00  0.00     0.057 A 
ATOM     27  C   UNL A   1      30.897  29.616  21.939  1.00  0.00     0.049 A 
ATOM     28  C   UNL A   1      29.730  29.408  22.792  1.00  0.00     0.130 A 
BRANCH  28  29
ATOM     29  O   UNL A   1      28.529  30.013  22.476  1.00  0.00    -0.406 OA
BRANCH  29  30
ATOM     30  C   UNL A   1      28.131  31.165  23.215  1.00  0.00     0.573 C 
ATOM     31  F   UNL A   1      27.197  30.873  24.146  1.00  0.00    -0.132 F 
ATOM     32  F   UNL A   1      29.203  31.723  23.819  1.00  0.00    -0.132 F 
ATOM     33  F   UNL A   1      27.606  32.075  22.366  1.00  0.00    -0.132 F 
ENDBRANCH  29  30
ENDBRANCH  28  29
ENDBRANCH  18  19
ENDBRANCH  17  18
ENDBRANCH   7  17
ENDBRANCH   3   6
ENDBRANCH   1   2
BRANCH   1  34
ATOM     34  C   UNL A   1      37.406  20.869  24.625  1.00  0.00     0.023 C 
BRANCH  34  35
ATOM     35  C   UNL A   1      38.338  19.707  24.989  1.00  0.00     0.023 C 
BRANCH  35  36
ATOM     36  C   UNL A   1      39.515  20.039  25.906  1.00  0.00     0.116 C 
BRANCH  36  37
ATOM     37  N   UNL A   1      40.524  18.990  25.970  1.00  0.00    -0.352 N 
ATOM     38  C   UNL A   1      41.890  19.072  26.142  1.00  0.00     0.251 C 
ATOM     39  H   UNL A   1      40.175  18.075  25.875  1.00  0.00     0.163 HD
ATOM     40  O   UNL A   1      42.572  18.052  26.072  1.00  0.00    -0.269 OA
BRANCH  38  41
ATOM     41  C   UNL A   1      42.559  20.378  26.363  1.00  0.00     0.039 A 
ATOM     42  C   UNL A   1      42.569  20.989  27.615  1.00  0.00     0.014 A 
ATOM     43  C   UNL A   1      43.184  21.015  25.282  1.00  0.00     0.014 A 
ATOM     44  C   UNL A   1      43.001  22.309  27.739  1.00  0.00     0.010 A 
ATOM     45  C   UNL A   1      43.702  22.309  25.431  1.00  0.00     0.010 A 
ATOM     46  C   UNL A   1      43.546  22.998  26.642  1.00  0.00    -0.014 A 
BRANCH  46  47
ATOM     47  C   UNL A   1      43.883  24.444  26.786  1.00  0.00     0.031 A 
ATOM     48  C   UNL A   1      42.856  25.426  27.296  1.00  0.00     0.074 A 
ATOM     49  C   UNL A   1      45.143  24.863  26.559  1.00  0.00     0.049 A 
ATOM     50  N   UNL A   1      43.002  26.694  27.596  1.00  0.00    -0.248 NA
ATOM     51  C   UNL A   1      41.487  24.924  27.494  1.00  0.00     0.031 C 
ATOM     52  C   UNL A   1      46.231  24.020  26.064  1.00  0.00     0.029 A 
ATOM     53  N   UNL A   1      45.734  26.088  26.751  1.00  0.00    -0.354 N 
ATOM     54  C   UNL A   1      41.752  27.136  28.009  1.00  0.00     0.074 A 
ATOM     55  C   UNL A   1      40.844  26.018  27.880  1.00  0.00     0.031 C 
ATOM     56  C   UNL A   1      47.369  24.730  26.058  1.00  0.00     0.029 A 
ATOM     57  C   UNL A   1      47.085  26.094  26.496  1.00  0.00     0.049 A 
ATOM     58  H   UNL A   1      45.237  26.887  27.044  1.00  0.00     0.167 HD
ATOM     59  C   UNL A   1      41.394  28.356  28.481  1.00  0.00     0.037 A 
ATOM     60  C   UNL A   1      47.994  27.081  26.604  1.00  0.00     0.037 A 
ATOM     61  C   UNL A   1      42.298  29.464  28.642  1.00  0.00     0.049 A 
ATOM     62  C   UNL A   1      47.562  28.439  27.084  1.00  0.00     0.074 A 
ATOM     63  C   UNL A   1      42.031  30.724  29.151  1.00  0.00     0.029 A 
ATOM     64  N   UNL A   1      43.640  29.447  28.297  1.00  0.00    -0.354 N 
ATOM     65  N   UNL A   1      46.385  28.828  27.509  1.00  0.00    -0.248 NA
ATOM     66  C   UNL A   1      48.581  29.499  27.089  1.00  0.00     0.031 C 
ATOM     67  C   UNL A   1      43.201  31.485  29.069  1.00  0.00     0.029 A 
ATOM     68  C   UNL A   1      44.207  30.686  28.552  1.00  0.00     0.049 A 
ATOM     69  H   UNL A   1      44.120  28.671  27.925  1.00  0.00     0.167 HD
ATOM     70  C   UNL A   1      46.523  30.170  27.837  1.00  0.00     0.074 A 
ATOM     71  C   UNL A   1      47.902  30.525  27.587  1.00  0.00     0.031 C 
ATOM     72  C   UNL A   1      45.582  31.030  28.298  1.00  0.00     0.037 A 
BRANCH  59  73
ATOM     73  C   UNL A   1      39.960  28.567  28.873  1.00  0.00     0.064 A 
ATOM     74  C   UNL A   1      39.514  28.323  30.180  1.00  0.00     0.173 A 
ATOM     75  C   UNL A   1      39.041  29.099  27.954  1.00  0.00     0.173 A 
ATOM     76  F   UNL A   1      40.350  27.807  31.093  1.00  0.00    -0.203 F 
ATOM     77  C   UNL A   1      38.197  28.587  30.549  1.00  0.00     0.198 A 
ATOM     78  C   UNL A   1      37.733  29.388  28.335  1.00  0.00     0.198 A 
ATOM     79  F   UNL A   1      39.419  29.362  26.695  1.00  0.00    -0.203 F 
ATOM     80  F   UNL A   1      37.785  28.316  31.795  1.00  0.00    -0.200 F 
ATOM     81  C   UNL A   1      37.311  29.129  29.630  1.00  0.00     0.200 A 
ATOM     82  F   UNL A   1      36.883  29.927  27.449  1.00  0.00    -0.200 F 
ATOM     83  F   UNL A   1      36.050  29.400  29.992  1.00  0.00    -0.200 F 
ENDBRANCH  59  73
BRANCH  60  84
ATOM     84  C   UNL A   1      49.416  26.810  26.263  1.00  0.00     0.064 A 
ATOM     85  C   UNL A   1      50.319  26.364  27.236  1.00  0.00     0.173 A 
ATOM     86  C   UNL A   1      49.893  26.968  24.953  1.00  0.00     0.173 A 
ATOM     87  F   UNL A   1      49.917  26.219  28.508  1.00  0.00    -0.203 F 
ATOM     88  C   UNL A   1      51.647  26.087  26.913  1.00  0.00     0.198 A 
ATOM     89  C   UNL A   1      51.213  26.663  24.626  1.00  0.00     0.198 A 
ATOM     90  F   UNL A   1      49.069  27.393  23.985  1.00  0.00    -0.203 F 
ATOM     91  F   UNL A   1      52.498  25.692  27.870  1.00  0.00    -0.200 F 
ATOM     92  C   UNL A   1      52.090  26.228  25.607  1.00  0.00     0.200 A 
ATOM     93  F   UNL A   1      51.632  26.786  23.358  1.00  0.00    -0.200 F 
ATOM     94  F   UNL A   1      53.362  25.947  25.294  1.00  0.00    -0.200 F 
ENDBRANCH  60  84
BRANCH  72  95
ATOM     95  C   UNL A   1      45.997  32.448  28.559  1.00  0.00     0.064 A 
ATOM     96  C   UNL A   1      46.582  32.820  29.778  1.00  0.00     0.173 A 
ATOM     97  C   UNL A   1      45.901  33.419  27.551  1.00  0.00     0.173 A 
ATOM     98  F   UNL A   1      46.684  31.930  30.776  1.00  0.00    -0.203 F 
ATOM     99  C   UNL A   1      47.054  34.114  29.979  1.00  0.00     0.198 A 
ATOM    100  C   UNL A   1      46.398  34.705  27.746  1.00  0.00     0.198 A 
ATOM    101  F   UNL A   1      45.355  33.110  26.364  1.00  0.00    -0.203 F 
ATOM    102  F   UNL A   1      47.591  34.454  31.158  1.00  0.00    -0.200 F 
ATOM    103  C   UNL A   1      46.972  35.051  28.959  1.00  0.00     0.200 A 
ATOM    104  F   UNL A   1      46.333  35.605  26.755  1.00  0.00    -0.200 F 
ATOM    105  F   UNL A   1      47.450  36.290  29.146  1.00  0.00    -0.200 F 
ENDBRANCH  72  95
ENDBRANCH  46  47
ENDBRANCH  38  41
ENDBRANCH  36  37
ENDBRANCH  35  36
ENDBRANCH  34  35
ENDBRANCH   1  34
TORSDOF 16
ENDMDL
MODEL 3
REMARK VINA RESULT:     -14.1      0.349      6.870
REMARK SMILES C[C@H]1N=c2ccc(OC(F)(F)F)cc2=C1CCN1C(=O)c2ccc(C(=O)NCCCCNC(=O)c3ccc(-c4c5nc(c(-c6c(F)c(F)c(F)c(F)c6F)c6ccc([nH]6)c(-c6c(F)c(F)c(F)c(F)c6F)c6nc(c(-c7c(F)c(F)c(F)c(F)c7F)c7ccc4[nH]7)C=C6)C=C5)cc3)cc2C1=O
REMARK SMILES IDX 28 1 27 2 25 3 26 4 24 6 18 7 19 8 100 9 20 10 21 11 99 12
REMARK SMILES IDX 101 13 22 14 98 15 23 16 17 17 16 18 15 19 1 20 2 21 3 22
REMARK SMILES IDX 4 23 14 24 5 25 13 26 6 27 7 28 8 29 9 30 10 31 11 32 12 33
REMARK SMILES IDX 29 34 30 35 31 36 32 37 33 38 34 40 35 41 36 42 97 43 37 44
REMARK SMILES IDX 96 45 38 46 39 47 40 48 90 49 41 50 95 51 89 52 91 53 42 54
REMARK SMILES IDX 94 55 88 56 87 57 43 59 75 60 55 61 74 62 56 63 59 64 73 65
REMARK SMILES IDX 92 66 57 67 58 68 72 70 93 71 60 72 44 73 45 74 53 75 46 76
REMARK SMILES IDX 47 77 51 78 54 79 48 80 49 81 52 82 50 83 76 84 77 85 85 86
REMARK SMILES IDX 78 87 79 88 83 89 86 90 80 91 81 92 84 93 82 94 61 95 62 96
REMARK SMILES IDX 70 97 63 98 64 99 68 100 71 101 65 102 66 103 69 104 67 105
REMARK H PARENT 27 5 32 39 91 58 59 69
REMARK Flexibility Score: inf
ROOT
ATOM      1  C   UNL A   1      36.102  21.038  25.352  1.00  0.00     0.116 C 
ENDROOT
BRANCH   1   2
ATOM      2  N   UNL A   1      35.334  19.818  25.150  1.00  0.00    -0.352 N 
ATOM      3  C   UNL A   1      34.050  19.622  24.714  1.00  0.00     0.251 C 
ATOM      4  O   UNL A   1      33.676  18.493  24.409  1.00  0.00    -0.269 OA
ATOM      5  H   UNL A   1      35.823  18.989  25.364  1.00  0.00     0.163 HD
BRANCH   3   6
ATOM      6  C   UNL A   1      33.105  20.746  24.549  1.00  0.00     0.040 A 
ATOM      7  N   UNL A   1      30.729  24.556  25.426  1.00  0.00    -0.274 N 
ATOM      8  C   UNL A   1      30.618  24.088  24.140  1.00  0.00     0.261 C 
ATOM      9  C   UNL A   1      31.261  23.600  26.245  1.00  0.00     0.261 C 
ATOM     10  O   UNL A   1      30.054  24.579  23.186  1.00  0.00    -0.269 OA
ATOM     11  C   UNL A   1      31.346  22.817  24.095  1.00  0.00     0.053 A 
ATOM     12  C   UNL A   1      31.803  22.552  25.374  1.00  0.00     0.054 A 
ATOM     13  O   UNL A   1      31.328  23.575  27.460  1.00  0.00    -0.269 OA
ATOM     14  C   UNL A   1      31.666  22.009  23.022  1.00  0.00     0.015 A 
ATOM     15  C   UNL A   1      32.702  21.529  25.639  1.00  0.00     0.028 A 
ATOM     16  C   UNL A   1      32.548  20.949  23.263  1.00  0.00     0.015 A 
BRANCH   7  17
ATOM     17  C   UNL A   1      30.190  25.839  25.854  1.00  0.00     0.134 C 
BRANCH  17  18
ATOM     18  C   UNL A   1      31.167  26.816  26.556  1.00  0.00     0.056 C 
BRANCH  18  19
ATOM     19  C   UNL A   1      31.882  27.865  25.734  1.00  0.00    -0.035 C 
ATOM     20  C   UNL A   1      32.087  29.998  27.238  1.00  0.00     0.038 C 
ATOM     21  C   UNL A   1      31.628  29.351  25.944  1.00  0.00     0.129 C 
ATOM     22  N   UNL A   1      32.378  30.044  24.871  1.00  0.00    -0.277 NA
ATOM     23  C   UNL A   1      32.873  29.073  24.177  1.00  0.00     0.066 A 
ATOM     24  C   UNL A   1      32.553  27.695  24.584  1.00  0.00     0.005 A 
ATOM     25  C   UNL A   1      33.747  29.249  23.009  1.00  0.00     0.032 A 
ATOM     26  C   UNL A   1      32.877  26.599  23.710  1.00  0.00     0.057 A 
ATOM     27  C   UNL A   1      34.074  28.173  22.279  1.00  0.00     0.049 A 
ATOM     28  C   UNL A   1      33.550  26.840  22.563  1.00  0.00     0.130 A 
BRANCH  28  29
ATOM     29  O   UNL A   1      33.750  25.814  21.660  1.00  0.00    -0.406 OA
BRANCH  29  30
ATOM     30  C   UNL A   1      32.680  25.454  20.791  1.00  0.00     0.573 C 
ATOM     31  F   UNL A   1      31.555  26.152  21.054  1.00  0.00    -0.132 F 
ATOM     32  F   UNL A   1      33.038  25.656  19.503  1.00  0.00    -0.132 F 
ATOM     33  F   UNL A   1      32.405  24.141  20.948  1.00  0.00    -0.132 F 
ENDBRANCH  29  30
ENDBRANCH  28  29
ENDBRANCH  18  19
ENDBRANCH  17  18
ENDBRANCH   7  17
ENDBRANCH   3   6
ENDBRANCH   1   2
BRANCH   1  34
ATOM     34  C   UNL A   1      37.499  20.966  24.724  1.00  0.00     0.023 C 
BRANCH  34  35
ATOM     35  C   UNL A   1      38.369  19.774  25.144  1.00  0.00     0.023 C 
BRANCH  35  36
ATOM     36  C   UNL A   1      39.651  20.102  25.908  1.00  0.00     0.116 C 
BRANCH  36  37
ATOM     37  N   UNL A   1      40.666  19.060  25.826  1.00  0.00    -0.352 N 
ATOM     38  C   UNL A   1      42.029  19.121  26.028  1.00  0.00     0.251 C 
ATOM     39  H   UNL A   1      40.325  18.168  25.588  1.00  0.00     0.163 HD
ATOM     40  O   UNL A   1      42.719  18.127  25.813  1.00  0.00    -0.269 OA
BRANCH  38  41
ATOM     41  C   UNL A   1      42.687  20.382  26.453  1.00  0.00     0.039 A 
ATOM     42  C   UNL A   1      42.606  20.837  27.768  1.00  0.00     0.014 A 
ATOM     43  C   UNL A   1      43.393  21.135  25.507  1.00  0.00     0.014 A 
ATOM     44  C   UNL A   1      43.034  22.126  28.082  1.00  0.00     0.010 A 
ATOM     45  C   UNL A   1      43.905  22.395  25.849  1.00  0.00     0.010 A 
ATOM     46  C   UNL A   1      43.663  22.935  27.120  1.00  0.00    -0.014 A 
BRANCH  46  47
ATOM     47  C   UNL A   1      43.995  24.348  27.463  1.00  0.00     0.031 A 
ATOM     48  C   UNL A   1      45.376  24.899  27.201  1.00  0.00     0.074 A 
ATOM     49  C   UNL A   1      43.029  25.172  27.913  1.00  0.00     0.049 A 
ATOM     50  N   UNL A   1      45.813  26.130  27.325  1.00  0.00    -0.248 NA
ATOM     51  C   UNL A   1      46.403  23.950  26.744  1.00  0.00     0.031 C 
ATOM     52  C   UNL A   1      41.653  24.769  28.208  1.00  0.00     0.029 A 
ATOM     53  N   UNL A   1      43.040  26.523  28.162  1.00  0.00    -0.354 N 
ATOM     54  C   UNL A   1      47.155  26.097  26.968  1.00  0.00     0.074 A 
ATOM     55  C   UNL A   1      47.479  24.721  26.667  1.00  0.00     0.031 C 
ATOM     56  C   UNL A   1      40.938  25.857  28.530  1.00  0.00     0.029 A 
ATOM     57  C   UNL A   1      41.811  27.028  28.517  1.00  0.00     0.049 A 
ATOM     58  H   UNL A   1      43.850  27.078  28.092  1.00  0.00     0.167 HD
ATOM     59  C   UNL A   1      48.034  27.125  26.873  1.00  0.00     0.037 A 
ATOM     60  C   UNL A   1      41.427  28.287  28.797  1.00  0.00     0.037 A 
ATOM     61  C   UNL A   1      47.711  28.501  27.141  1.00  0.00     0.049 A 
ATOM     62  C   UNL A   1      42.434  29.402  28.731  1.00  0.00     0.074 A 
ATOM     63  C   UNL A   1      48.528  29.613  27.030  1.00  0.00     0.029 A 
ATOM     64  N   UNL A   1      46.474  28.954  27.573  1.00  0.00    -0.354 N 
ATOM     65  N   UNL A   1      43.688  29.359  28.353  1.00  0.00    -0.248 NA
ATOM     66  C   UNL A   1      41.976  30.738  29.142  1.00  0.00     0.031 C 
ATOM     67  C   UNL A   1      47.801  30.733  27.442  1.00  0.00     0.029 A 
ATOM     68  C   UNL A   1      46.517  30.326  27.765  1.00  0.00     0.049 A 
ATOM     69  H   UNL A   1      45.684  28.386  27.722  1.00  0.00     0.167 HD
ATOM     70  C   UNL A   1      44.165  30.658  28.472  1.00  0.00     0.074 A 
ATOM     71  C   UNL A   1      43.062  31.471  28.934  1.00  0.00     0.031 C 
ATOM     72  C   UNL A   1      45.413  31.127  28.227  1.00  0.00     0.037 A 
BRANCH  59  73
ATOM     73  C   UNL A   1      49.440  26.811  26.449  1.00  0.00     0.064 A 
ATOM     74  C   UNL A   1      50.395  26.347  27.366  1.00  0.00     0.173 A 
ATOM     75  C   UNL A   1      49.812  26.893  25.099  1.00  0.00     0.173 A 
ATOM     76  F   UNL A   1      50.092  26.258  28.670  1.00  0.00    -0.203 F 
ATOM     77  C   UNL A   1      51.676  25.994  26.949  1.00  0.00     0.198 A 
ATOM     78  C   UNL A   1      51.085  26.513  24.681  1.00  0.00     0.198 A 
ATOM     79  F   UNL A   1      48.933  27.319  24.180  1.00  0.00    -0.203 F 
ATOM     80  F   UNL A   1      52.582  25.583  27.847  1.00  0.00    -0.200 F 
ATOM     81  C   UNL A   1      52.017  26.067  25.606  1.00  0.00     0.200 A 
ATOM     82  F   UNL A   1      51.408  26.568  23.381  1.00  0.00    -0.200 F 
ATOM     83  F   UNL A   1      53.244  25.708  25.204  1.00  0.00    -0.200 F 
ENDBRANCH  59  73
BRANCH  60  84
ATOM     84  C   UNL A   1      40.009  28.560  29.154  1.00  0.00     0.064 A 
ATOM     85  C   UNL A   1      39.095  29.002  28.188  1.00  0.00     0.173 A 
ATOM     86  C   UNL A   1      39.535  28.362  30.459  1.00  0.00     0.173 A 
ATOM     87  F   UNL A   1      39.504  29.228  26.931  1.00  0.00    -0.203 F 
ATOM     88  C   UNL A   1      37.760  29.237  28.515  1.00  0.00     0.198 A 
ATOM     89  C   UNL A   1      38.195  28.569  30.778  1.00  0.00     0.198 A 
ATOM     90  F   UNL A   1      40.370  27.940  31.420  1.00  0.00    -0.203 F 
ATOM     91  F   UNL A   1      36.913  29.688  27.580  1.00  0.00    -0.200 F 
ATOM     92  C   UNL A   1      37.309  29.011  29.807  1.00  0.00     0.200 A 
ATOM     93  F   UNL A   1      37.761  28.334  32.024  1.00  0.00    -0.200 F 
ATOM     94  F   UNL A   1      36.023  29.221  30.116  1.00  0.00    -0.200 F 
ENDBRANCH  60  84
BRANCH  72  95
ATOM     95  C   UNL A   1      45.670  32.587  28.456  1.00  0.00     0.064 A 
ATOM     96  C   UNL A   1      46.190  33.050  29.673  1.00  0.00     0.173 A 
ATOM     97  C   UNL A   1      45.489  33.517  27.421  1.00  0.00     0.173 A 
ATOM     98  F   UNL A   1      46.369  32.202  30.697  1.00  0.00    -0.203 F 
ATOM     99  C   UNL A   1      46.519  34.392  29.846  1.00  0.00     0.198 A 
ATOM    100  C   UNL A   1      45.843  34.853  27.589  1.00  0.00     0.198 A 
ATOM    101  F   UNL A   1      45.000  33.122  26.235  1.00  0.00    -0.203 F 
ATOM    102  F   UNL A   1      46.996  34.816  31.024  1.00  0.00    -0.200 F 
ATOM    103  C   UNL A   1      46.356  35.289  28.801  1.00  0.00     0.200 A 
ATOM    104  F   UNL A   1      45.700  35.716  26.573  1.00  0.00    -0.200 F 
ATOM    105  F   UNL A   1      46.696  36.576  28.962  1.00  0.00    -0.200 F 
ENDBRANCH  72  95
ENDBRANCH  46  47
ENDBRANCH  38  41
ENDBRANCH  36  37
ENDBRANCH  35  36
ENDBRANCH  34  35
ENDBRANCH   1  34
TORSDOF 16
ENDMDL
