MODEL 1
REMARK VINA RESULT:     -10.8      0.000      0.000
REMARK SMILES CCOC(=O)N[C@H]1C=C[C@H](C(=O)NCCCCNC(=O)c2ccc(-c3c4nc(c(-c5c(F)c(F)c(F)c(F)c5F)c5ccc([nH]5)c(-c5c(F)c(F)c(F)c(F)c5F)c5nc(c(-c6c(F)c(F)c(F)c(F)c6F)c6ccc3[nH]6)C=C5)C=C4)cc2)C1
REMARK SMILES IDX 15 1 14 2 13 3 11 4 12 5 10 7 7 8 8 9 84 10 9 11 6 12 4 13
REMARK SMILES IDX 5 14 3 16 2 17 1 18 16 19 17 20 18 21 19 22 20 24 21 25
REMARK SMILES IDX 22 26 83 27 23 28 82 29 24 30 25 31 26 32 76 33 27 34 81 35
REMARK SMILES IDX 75 36 77 37 28 38 80 39 74 40 73 41 29 43 61 44 41 45 60 46
REMARK SMILES IDX 42 47 45 48 59 49 78 50 43 51 44 52 58 54 79 55 46 56 30 57
REMARK SMILES IDX 31 58 39 59 32 60 33 61 37 62 40 63 34 64 35 65 38 66 36 67
REMARK SMILES IDX 62 68 63 69 71 70 64 71 65 72 69 73 72 74 66 75 67 76 70 77
REMARK SMILES IDX 68 78 47 79 48 80 56 81 49 82 50 83 54 84 57 85 51 86 52 87
REMARK SMILES IDX 55 88 53 89
REMARK H PARENT 13 6 6 15 18 23 77 42 45 53
REMARK Flexibility Score: inf
ROOT
ATOM      1  C   UNL A   1      31.853  30.429  26.762  1.00  0.00     0.023 C 
ENDROOT
BRANCH   1   2
ATOM      2  C   UNL A   1      31.591  29.813  25.396  1.00  0.00     0.116 C 
BRANCH   2   3
ATOM      3  N   UNL A   1      32.801  29.689  24.602  1.00  0.00    -0.356 N 
ATOM      4  C   UNL A   1      33.433  28.542  24.198  1.00  0.00     0.227 C 
ATOM      5  O   UNL A   1      34.426  28.641  23.479  1.00  0.00    -0.274 OA
ATOM      6  H   UNL A   1      33.219  30.535  24.319  1.00  0.00     0.163 HD
BRANCH   4   7
ATOM      7  C   UNL A   1      32.860  27.202  24.660  1.00  0.00     0.103 C 
ATOM      8  C   UNL A   1      34.463  25.385  25.213  1.00  0.00     0.109 C 
ATOM      9  C   UNL A   1      33.925  25.291  23.822  1.00  0.00    -0.006 C 
ATOM     10  C   UNL A   1      33.643  26.546  25.815  1.00  0.00     0.047 C 
ATOM     11  C   UNL A   1      33.023  26.225  23.540  1.00  0.00    -0.016 C 
BRANCH   8  12
ATOM     12  N   UNL A   1      34.208  24.137  25.910  1.00  0.00    -0.315 N 
ATOM     13  C   UNL A   1      35.121  23.178  26.237  1.00  0.00     0.407 C 
ATOM     14  O   UNL A   1      34.783  22.111  26.735  1.00  0.00    -0.225 OA
ATOM     15  H   UNL A   1      33.275  23.965  26.174  1.00  0.00     0.167 HD
BRANCH  13  16
ATOM     16  O   UNL A   1      36.384  23.505  25.879  1.00  0.00    -0.450 OA
BRANCH  16  17
ATOM     17  C   UNL A   1      37.074  22.564  25.053  1.00  0.00     0.231 C 
ATOM     18  C   UNL A   1      36.710  22.768  23.601  1.00  0.00     0.049 C 
ENDBRANCH  16  17
ENDBRANCH  13  16
ENDBRANCH   8  12
ENDBRANCH   4   7
ENDBRANCH   2   3
ENDBRANCH   1   2
BRANCH   1  19
ATOM     19  C   UNL A   1      31.544  31.920  26.856  1.00  0.00     0.023 C 
BRANCH  19  20
ATOM     20  C   UNL A   1      32.766  32.829  26.908  1.00  0.00     0.116 C 
BRANCH  20  21
ATOM     21  N   UNL A   1      32.494  34.104  27.553  1.00  0.00    -0.352 N 
ATOM     22  C   UNL A   1      33.082  34.669  28.657  1.00  0.00     0.251 C 
ATOM     23  H   UNL A   1      31.783  34.641  27.135  1.00  0.00     0.163 HD
ATOM     24  O   UNL A   1      32.602  35.684  29.152  1.00  0.00    -0.269 OA
BRANCH  22  25
ATOM     25  C   UNL A   1      34.279  34.050  29.267  1.00  0.00     0.039 A 
ATOM     26  C   UNL A   1      34.101  33.085  30.261  1.00  0.00     0.014 A 
ATOM     27  C   UNL A   1      35.569  34.426  28.883  1.00  0.00     0.014 A 
ATOM     28  C   UNL A   1      35.214  32.473  30.840  1.00  0.00     0.010 A 
ATOM     29  C   UNL A   1      36.673  33.745  29.389  1.00  0.00     0.010 A 
ATOM     30  C   UNL A   1      36.511  32.779  30.391  1.00  0.00    -0.014 A 
BRANCH  30  31
ATOM     31  C   UNL A   1      37.698  32.120  30.993  1.00  0.00     0.031 A 
ATOM     32  C   UNL A   1      38.163  32.502  32.373  1.00  0.00     0.074 A 
ATOM     33  C   UNL A   1      38.375  31.192  30.290  1.00  0.00     0.049 A 
ATOM     34  N   UNL A   1      39.163  32.028  33.072  1.00  0.00    -0.248 NA
ATOM     35  C   UNL A   1      37.424  33.582  33.047  1.00  0.00     0.031 C 
ATOM     36  C   UNL A   1      38.064  30.777  28.921  1.00  0.00     0.029 A 
ATOM     37  N   UNL A   1      39.463  30.428  30.629  1.00  0.00    -0.354 N 
ATOM     38  C   UNL A   1      39.177  32.756  34.256  1.00  0.00     0.074 A 
ATOM     39  C   UNL A   1      38.132  33.749  34.152  1.00  0.00     0.031 C 
ATOM     40  C   UNL A   1      38.915  29.809  28.550  1.00  0.00     0.029 A 
ATOM     41  C   UNL A   1      39.855  29.560  29.640  1.00  0.00     0.049 A 
ATOM     42  H   UNL A   1      39.919  30.495  31.498  1.00  0.00     0.167 HD
ATOM     43  C   UNL A   1      39.970  32.593  35.342  1.00  0.00     0.037 A 
ATOM     44  C   UNL A   1      40.859  28.662  29.615  1.00  0.00     0.037 A 
ATOM     45  C   UNL A   1      40.999  31.591  35.447  1.00  0.00     0.049 A 
ATOM     46  C   UNL A   1      41.721  28.494  30.836  1.00  0.00     0.074 A 
ATOM     47  C   UNL A   1      41.816  31.302  36.525  1.00  0.00     0.029 A 
ATOM     48  N   UNL A   1      41.360  30.719  34.429  1.00  0.00    -0.354 N 
ATOM     49  N   UNL A   1      41.670  29.129  31.982  1.00  0.00    -0.248 NA
ATOM     50  C   UNL A   1      42.771  27.470  30.765  1.00  0.00     0.031 C 
ATOM     51  C   UNL A   1      42.714  30.301  36.138  1.00  0.00     0.029 A 
ATOM     52  C   UNL A   1      42.407  29.912  34.844  1.00  0.00     0.049 A 
ATOM     53  H   UNL A   1      40.934  30.681  33.541  1.00  0.00     0.167 HD
ATOM     54  C   UNL A   1      42.657  28.562  32.779  1.00  0.00     0.074 A 
ATOM     55  C   UNL A   1      43.275  27.516  31.990  1.00  0.00     0.031 C 
ATOM     56  C   UNL A   1      43.016  28.875  34.049  1.00  0.00     0.037 A 
BRANCH  43  57
ATOM     57  C   UNL A   1      39.758  33.526  36.503  1.00  0.00     0.064 A 
ATOM     58  C   UNL A   1      40.406  34.769  36.584  1.00  0.00     0.173 A 
ATOM     59  C   UNL A   1      38.878  33.181  37.540  1.00  0.00     0.173 A 
ATOM     60  F   UNL A   1      41.266  35.146  35.626  1.00  0.00    -0.203 F 
ATOM     61  C   UNL A   1      40.211  35.611  37.676  1.00  0.00     0.198 A 
ATOM     62  C   UNL A   1      38.656  34.042  38.613  1.00  0.00     0.198 A 
ATOM     63  F   UNL A   1      38.227  32.008  37.515  1.00  0.00    -0.203 F 
ATOM     64  F   UNL A   1      40.891  36.763  37.761  1.00  0.00    -0.200 F 
ATOM     65  C   UNL A   1      39.332  35.251  38.686  1.00  0.00     0.200 A 
ATOM     66  F   UNL A   1      37.794  33.699  39.579  1.00  0.00    -0.200 F 
ATOM     67  F   UNL A   1      39.141  36.065  39.733  1.00  0.00    -0.200 F 
ENDBRANCH  43  57
BRANCH  44  68
ATOM     68  C   UNL A   1      41.080  27.831  28.401  1.00  0.00     0.064 A 
ATOM     69  C   UNL A   1      41.925  28.265  27.369  1.00  0.00     0.173 A 
ATOM     70  C   UNL A   1      40.449  26.587  28.247  1.00  0.00     0.173 A 
ATOM     71  F   UNL A   1      42.536  29.455  27.460  1.00  0.00    -0.203 F 
ATOM     72  C   UNL A   1      42.110  27.499  26.220  1.00  0.00     0.198 A 
ATOM     73  C   UNL A   1      40.663  25.807  27.113  1.00  0.00     0.198 A 
ATOM     74  F   UNL A   1      39.637  26.122  29.207  1.00  0.00    -0.203 F 
ATOM     75  F   UNL A   1      42.882  27.962  25.227  1.00  0.00    -0.200 F 
ATOM     76  C   UNL A   1      41.485  26.268  26.096  1.00  0.00     0.200 A 
ATOM     77  F   UNL A   1      40.071  24.609  27.005  1.00  0.00    -0.200 F 
ATOM     78  F   UNL A   1      41.669  25.528  24.993  1.00  0.00    -0.200 F 
ENDBRANCH  44  68
BRANCH  56  79
ATOM     79  C   UNL A   1      44.100  28.046  34.681  1.00  0.00     0.064 A 
ATOM     80  C   UNL A   1      45.450  28.431  34.640  1.00  0.00     0.173 A 
ATOM     81  C   UNL A   1      43.781  26.852  35.346  1.00  0.00     0.173 A 
ATOM     82  F   UNL A   1      45.813  29.557  34.009  1.00  0.00    -0.203 F 
ATOM     83  C   UNL A   1      46.441  27.626  35.198  1.00  0.00     0.198 A 
ATOM     84  C   UNL A   1      44.770  26.072  35.938  1.00  0.00     0.198 A 
ATOM     85  F   UNL A   1      42.506  26.441  35.425  1.00  0.00    -0.203 F 
ATOM     86  F   UNL A   1      47.729  27.978  35.082  1.00  0.00    -0.200 F 
ATOM     87  C   UNL A   1      46.101  26.452  35.851  1.00  0.00     0.200 A 
ATOM     88  F   UNL A   1      44.436  24.948  36.586  1.00  0.00    -0.200 F 
ATOM     89  F   UNL A   1      47.055  25.679  36.387  1.00  0.00    -0.200 F 
ENDBRANCH  56  79
ENDBRANCH  30  31
ENDBRANCH  22  25
ENDBRANCH  20  21
ENDBRANCH  19  20
ENDBRANCH   1  19
TORSDOF 14
ENDMDL
MODEL 2
REMARK VINA RESULT:     -10.8      1.316      2.522
REMARK SMILES CCOC(=O)N[C@H]1C=C[C@H](C(=O)NCCCCNC(=O)c2ccc(-c3c4nc(c(-c5c(F)c(F)c(F)c(F)c5F)c5ccc([nH]5)c(-c5c(F)c(F)c(F)c(F)c5F)c5nc(c(-c6c(F)c(F)c(F)c(F)c6F)c6ccc3[nH]6)C=C5)C=C4)cc2)C1
REMARK SMILES IDX 15 1 14 2 13 3 11 4 12 5 10 7 7 8 8 9 84 10 9 11 6 12 4 13
REMARK SMILES IDX 5 14 3 16 2 17 1 18 16 19 17 20 18 21 19 22 20 24 21 25
REMARK SMILES IDX 22 26 83 27 23 28 82 29 24 30 25 31 26 32 76 33 27 34 81 35
REMARK SMILES IDX 75 36 77 37 28 38 80 39 74 40 73 41 29 43 61 44 41 45 60 46
REMARK SMILES IDX 42 47 45 48 59 49 78 50 43 51 44 52 58 54 79 55 46 56 30 57
REMARK SMILES IDX 31 58 39 59 32 60 33 61 37 62 40 63 34 64 35 65 38 66 36 67
REMARK SMILES IDX 62 68 63 69 71 70 64 71 65 72 69 73 72 74 66 75 67 76 70 77
REMARK SMILES IDX 68 78 47 79 48 80 56 81 49 82 50 83 54 84 57 85 51 86 52 87
REMARK SMILES IDX 55 88 53 89
REMARK H PARENT 13 6 6 15 18 23 77 42 45 53
REMARK Flexibility Score: inf
ROOT
ATOM      1  C   UNL A   1      31.369  30.852  26.027  1.00  0.00     0.023 C 
ENDROOT
BRANCH   1   2
ATOM      2  C   UNL A   1      32.729  30.188  26.177  1.00  0.00     0.116 C 
BRANCH   2   3
ATOM      3  N   UNL A   1      33.094  29.400  25.012  1.00  0.00    -0.356 N 
ATOM      4  C   UNL A   1      32.458  28.295  24.507  1.00  0.00     0.227 C 
ATOM      5  O   UNL A   1      32.892  27.791  23.471  1.00  0.00    -0.274 OA
ATOM      6  H   UNL A   1      33.897  29.696  24.526  1.00  0.00     0.163 HD
BRANCH   4   7
ATOM      7  C   UNL A   1      31.239  27.757  25.258  1.00  0.00     0.103 C 
ATOM      8  C   UNL A   1      31.014  25.292  25.484  1.00  0.00     0.109 C 
ATOM      9  C   UNL A   1      30.233  25.852  24.339  1.00  0.00    -0.006 C 
ATOM     10  C   UNL A   1      31.546  26.563  26.182  1.00  0.00     0.047 C 
ATOM     11  C   UNL A   1      30.302  27.176  24.249  1.00  0.00    -0.016 C 
BRANCH   8  12
ATOM     12  N   UNL A   1      30.121  24.544  26.351  1.00  0.00    -0.315 N 
ATOM     13  C   UNL A   1      30.337  23.304  26.876  1.00  0.00     0.407 C 
ATOM     14  O   UNL A   1      29.471  22.716  27.514  1.00  0.00    -0.225 OA
ATOM     15  H   UNL A   1      29.269  24.978  26.585  1.00  0.00     0.167 HD
BRANCH  13  16
ATOM     16  O   UNL A   1      31.545  22.791  26.545  1.00  0.00    -0.450 OA
BRANCH  16  17
ATOM     17  C   UNL A   1      31.549  21.774  25.539  1.00  0.00     0.231 C 
ATOM     18  C   UNL A   1      32.520  22.125  24.436  1.00  0.00     0.049 C 
ENDBRANCH  16  17
ENDBRANCH  13  16
ENDBRANCH   8  12
ENDBRANCH   4   7
ENDBRANCH   2   3
ENDBRANCH   1   2
BRANCH   1  19
ATOM     19  C   UNL A   1      31.317  32.305  26.490  1.00  0.00     0.023 C 
BRANCH  19  20
ATOM     20  C   UNL A   1      32.594  32.820  27.143  1.00  0.00     0.116 C 
BRANCH  20  21
ATOM     21  N   UNL A   1      32.460  34.176  27.652  1.00  0.00    -0.352 N 
ATOM     22  C   UNL A   1      33.154  34.807  28.654  1.00  0.00     0.251 C 
ATOM     23  H   UNL A   1      31.770  34.722  27.211  1.00  0.00     0.163 HD
ATOM     24  O   UNL A   1      32.784  35.906  29.053  1.00  0.00    -0.269 OA
BRANCH  22  25
ATOM     25  C   UNL A   1      34.333  34.160  29.271  1.00  0.00     0.039 A 
ATOM     26  C   UNL A   1      34.127  33.219  30.282  1.00  0.00     0.014 A 
ATOM     27  C   UNL A   1      35.633  34.488  28.876  1.00  0.00     0.014 A 
ATOM     28  C   UNL A   1      35.223  32.581  30.867  1.00  0.00     0.010 A 
ATOM     29  C   UNL A   1      36.716  33.780  29.390  1.00  0.00     0.010 A 
ATOM     30  C   UNL A   1      36.527  32.838  30.409  1.00  0.00    -0.014 A 
BRANCH  30  31
ATOM     31  C   UNL A   1      37.694  32.150  31.019  1.00  0.00     0.031 A 
ATOM     32  C   UNL A   1      38.143  32.503  32.412  1.00  0.00     0.074 A 
ATOM     33  C   UNL A   1      38.368  31.225  30.310  1.00  0.00     0.049 A 
ATOM     34  N   UNL A   1      39.125  32.003  33.118  1.00  0.00    -0.248 NA
ATOM     35  C   UNL A   1      37.408  33.582  33.093  1.00  0.00     0.031 C 
ATOM     36  C   UNL A   1      38.073  30.837  28.930  1.00  0.00     0.029 A 
ATOM     37  N   UNL A   1      39.439  30.439  30.654  1.00  0.00    -0.354 N 
ATOM     38  C   UNL A   1      39.130  32.710  34.314  1.00  0.00     0.074 A 
ATOM     39  C   UNL A   1      38.101  33.721  34.211  1.00  0.00     0.031 C 
ATOM     40  C   UNL A   1      38.916  29.863  28.557  1.00  0.00     0.029 A 
ATOM     41  C   UNL A   1      39.835  29.581  29.657  1.00  0.00     0.049 A 
ATOM     42  H   UNL A   1      39.883  30.485  31.531  1.00  0.00     0.167 HD
ATOM     43  C   UNL A   1      39.903  32.517  35.410  1.00  0.00     0.037 A 
ATOM     44  C   UNL A   1      40.825  28.669  29.632  1.00  0.00     0.037 A 
ATOM     45  C   UNL A   1      40.916  31.499  35.514  1.00  0.00     0.049 A 
ATOM     46  C   UNL A   1      41.665  28.468  30.864  1.00  0.00     0.074 A 
ATOM     47  C   UNL A   1      41.711  31.180  36.601  1.00  0.00     0.029 A 
ATOM     48  N   UNL A   1      41.279  30.639  34.487  1.00  0.00    -0.354 N 
ATOM     49  N   UNL A   1      41.605  29.085  32.020  1.00  0.00    -0.248 NA
ATOM     50  C   UNL A   1      42.702  27.430  30.792  1.00  0.00     0.031 C 
ATOM     51  C   UNL A   1      42.600  30.172  36.211  1.00  0.00     0.029 A 
ATOM     52  C   UNL A   1      42.308  29.809  34.906  1.00  0.00     0.049 A 
ATOM     53  H   UNL A   1      40.868  30.622  33.593  1.00  0.00     0.167 HD
ATOM     54  C   UNL A   1      42.571  28.490  32.822  1.00  0.00     0.074 A 
ATOM     55  C   UNL A   1      43.187  27.448  32.025  1.00  0.00     0.031 C 
ATOM     56  C   UNL A   1      42.915  28.777  34.102  1.00  0.00     0.037 A 
BRANCH  43  57
ATOM     57  C   UNL A   1      39.686  33.434  36.583  1.00  0.00     0.064 A 
ATOM     58  C   UNL A   1      38.851  33.083  37.656  1.00  0.00     0.173 A 
ATOM     59  C   UNL A   1      40.340  34.674  36.645  1.00  0.00     0.173 A 
ATOM     60  F   UNL A   1      38.192  31.914  37.644  1.00  0.00    -0.203 F 
ATOM     61  C   UNL A   1      38.648  33.953  38.724  1.00  0.00     0.198 A 
ATOM     62  C   UNL A   1      40.164  35.526  37.734  1.00  0.00     0.198 A 
ATOM     63  F   UNL A   1      41.154  35.062  35.652  1.00  0.00    -0.203 F 
ATOM     64  F   UNL A   1      37.795  33.622  39.703  1.00  0.00    -0.200 F 
ATOM     65  C   UNL A   1      39.310  35.171  38.766  1.00  0.00     0.200 A 
ATOM     66  F   UNL A   1      40.818  36.696  37.780  1.00  0.00    -0.200 F 
ATOM     67  F   UNL A   1      39.118  36.005  39.797  1.00  0.00    -0.200 F 
ENDBRANCH  43  57
BRANCH  44  68
ATOM     68  C   UNL A   1      41.054  27.855  28.408  1.00  0.00     0.064 A 
ATOM     69  C   UNL A   1      40.432  26.610  28.239  1.00  0.00     0.173 A 
ATOM     70  C   UNL A   1      41.901  28.304  27.384  1.00  0.00     0.173 A 
ATOM     71  F   UNL A   1      39.628  26.128  29.197  1.00  0.00    -0.203 F 
ATOM     72  C   UNL A   1      40.667  25.835  27.105  1.00  0.00     0.198 A 
ATOM     73  C   UNL A   1      42.108  27.545  26.235  1.00  0.00     0.198 A 
ATOM     74  F   UNL A   1      42.515  29.492  27.492  1.00  0.00    -0.203 F 
ATOM     75  F   UNL A   1      40.100  24.626  26.993  1.00  0.00    -0.200 F 
ATOM     76  C   UNL A   1      41.499  26.306  26.101  1.00  0.00     0.200 A 
ATOM     77  F   UNL A   1      42.899  28.011  25.259  1.00  0.00    -0.200 F 
ATOM     78  F   UNL A   1      41.720  25.563  25.007  1.00  0.00    -0.200 F 
ENDBRANCH  44  68
BRANCH  56  79
ATOM     79  C   UNL A   1      43.976  27.921  34.737  1.00  0.00     0.064 A 
ATOM     80  C   UNL A   1      43.673  26.701  35.362  1.00  0.00     0.173 A 
ATOM     81  C   UNL A   1      45.320  28.325  34.711  1.00  0.00     0.173 A 
ATOM     82  F   UNL A   1      42.404  26.271  35.425  1.00  0.00    -0.203 F 
ATOM     83  C   UNL A   1      44.668  25.945  35.978  1.00  0.00     0.198 A 
ATOM     84  C   UNL A   1      46.317  27.546  35.292  1.00  0.00     0.198 A 
ATOM     85  F   UNL A   1      45.670  29.476  34.117  1.00  0.00    -0.203 F 
ATOM     86  F   UNL A   1      44.342  24.821  36.633  1.00  0.00    -0.200 F 
ATOM     87  C   UNL A   1      45.988  26.364  35.938  1.00  0.00     0.200 A 
ATOM     88  F   UNL A   1      47.595  27.944  35.233  1.00  0.00    -0.200 F 
ATOM     89  F   UNL A   1      46.944  25.636  36.532  1.00  0.00    -0.200 F 
ENDBRANCH  56  79
ENDBRANCH  30  31
ENDBRANCH  22  25
ENDBRANCH  20  21
ENDBRANCH  19  20
ENDBRANCH   1  19
TORSDOF 14
ENDMDL
MODEL 3
REMARK VINA RESULT:     -10.8      5.217     11.053
REMARK SMILES CCOC(=O)N[C@H]1C=C[C@H](C(=O)NCCCCNC(=O)c2ccc(-c3c4nc(c(-c5c(F)c(F)c(F)c(F)c5F)c5ccc([nH]5)c(-c5c(F)c(F)c(F)c(F)c5F)c5nc(c(-c6c(F)c(F)c(F)c(F)c6F)c6ccc3[nH]6)C=C5)C=C4)cc2)C1
REMARK SMILES IDX 15 1 14 2 13 3 11 4 12 5 10 7 7 8 8 9 84 10 9 11 6 12 4 13
REMARK SMILES IDX 5 14 3 16 2 17 1 18 16 19 17 20 18 21 19 22 20 24 21 25
REMARK SMILES IDX 22 26 83 27 23 28 82 29 24 30 25 31 26 32 76 33 27 34 81 35
REMARK SMILES IDX 75 36 77 37 28 38 80 39 74 40 73 41 29 43 61 44 41 45 60 46
REMARK SMILES IDX 42 47 45 48 59 49 78 50 43 51 44 52 58 54 79 55 46 56 30 57
REMARK SMILES IDX 31 58 39 59 32 60 33 61 37 62 40 63 34 64 35 65 38 66 36 67
REMARK SMILES IDX 62 68 63 69 71 70 64 71 65 72 69 73 72 74 66 75 67 76 70 77
REMARK SMILES IDX 68 78 47 79 48 80 56 81 49 82 50 83 54 84 57 85 51 86 52 87
REMARK SMILES IDX 55 88 53 89
REMARK H PARENT 13 6 6 15 18 23 77 42 45 53
REMARK Flexibility Score: inf
ROOT
ATOM      1  C   UNL A   1      36.450  19.862  24.999  1.00  0.00     0.023 C 
ENDROOT
BRANCH   1   2
ATOM      2  C   UNL A   1      36.103  21.315  25.282  1.00  0.00     0.116 C 
BRANCH   2   3
ATOM      3  N   UNL A   1      35.442  21.489  26.564  1.00  0.00    -0.356 N 
ATOM      4  C   UNL A   1      34.196  22.004  26.810  1.00  0.00     0.227 C 
ATOM      5  O   UNL A   1      33.786  22.021  27.970  1.00  0.00    -0.274 OA
ATOM      6  H   UNL A   1      35.953  21.200  27.355  1.00  0.00     0.163 HD
BRANCH   4   7
ATOM      7  C   UNL A   1      33.383  22.523  25.623  1.00  0.00     0.103 C 
ATOM      8  C   UNL A   1      31.233  23.672  26.105  1.00  0.00     0.109 C 
ATOM      9  C   UNL A   1      31.064  22.227  25.765  1.00  0.00    -0.006 C 
ATOM     10  C   UNL A   1      32.739  23.903  25.855  1.00  0.00     0.047 C 
ATOM     11  C   UNL A   1      32.204  21.621  25.449  1.00  0.00    -0.016 C 
BRANCH   8  12
ATOM     12  N   UNL A   1      30.416  24.472  25.209  1.00  0.00    -0.315 N 
ATOM     13  C   UNL A   1      30.047  25.773  25.379  1.00  0.00     0.407 C 
ATOM     14  O   UNL A   1      29.267  26.326  24.611  1.00  0.00    -0.225 OA
ATOM     15  H   UNL A   1      30.096  24.027  24.392  1.00  0.00     0.167 HD
BRANCH  13  16
ATOM     16  O   UNL A   1      30.560  26.328  26.501  1.00  0.00    -0.450 OA
BRANCH  16  17
ATOM     17  C   UNL A   1      31.399  27.472  26.318  1.00  0.00     0.231 C 
ATOM     18  C   UNL A   1      31.591  28.202  27.626  1.00  0.00     0.049 C 
ENDBRANCH  16  17
ENDBRANCH  13  16
ENDBRANCH   8  12
ENDBRANCH   4   7
ENDBRANCH   2   3
ENDBRANCH   1   2
BRANCH   1  19
ATOM     19  C   UNL A   1      37.924  19.609  24.696  1.00  0.00     0.023 C 
BRANCH  19  20
ATOM     20  C   UNL A   1      38.893  20.061  25.782  1.00  0.00     0.116 C 
BRANCH  20  21
ATOM     21  N   UNL A   1      40.052  19.190  25.901  1.00  0.00    -0.352 N 
ATOM     22  C   UNL A   1      41.370  19.512  26.110  1.00  0.00     0.251 C 
ATOM     23  H   UNL A   1      39.863  18.227  25.821  1.00  0.00     0.163 HD
ATOM     24  O   UNL A   1      42.232  18.643  26.017  1.00  0.00    -0.269 OA
BRANCH  22  25
ATOM     25  C   UNL A   1      41.760  20.903  26.426  1.00  0.00     0.039 A 
ATOM     26  C   UNL A   1      41.965  21.254  27.762  1.00  0.00     0.014 A 
ATOM     27  C   UNL A   1      41.904  21.865  25.421  1.00  0.00     0.014 A 
ATOM     28  C   UNL A   1      42.351  22.557  28.084  1.00  0.00     0.010 A 
ATOM     29  C   UNL A   1      42.384  23.133  25.735  1.00  0.00     0.010 A 
ATOM     30  C   UNL A   1      42.589  23.503  27.072  1.00  0.00    -0.014 A 
BRANCH  30  31
ATOM     31  C   UNL A   1      43.014  24.885  27.409  1.00  0.00     0.031 A 
ATOM     32  C   UNL A   1      44.420  25.340  27.123  1.00  0.00     0.074 A 
ATOM     33  C   UNL A   1      42.142  25.727  27.996  1.00  0.00     0.049 A 
ATOM     34  N   UNL A   1      44.971  26.509  27.328  1.00  0.00    -0.248 NA
ATOM     35  C   UNL A   1      45.339  24.339  26.556  1.00  0.00     0.031 C 
ATOM     36  C   UNL A   1      40.771  25.390  28.382  1.00  0.00     0.029 A 
ATOM     37  N   UNL A   1      42.278  27.041  28.369  1.00  0.00    -0.354 N 
ATOM     38  C   UNL A   1      46.296  26.380  26.928  1.00  0.00     0.074 A 
ATOM     39  C   UNL A   1      46.484  25.002  26.534  1.00  0.00     0.031 C 
ATOM     40  C   UNL A   1      40.181  26.476  28.902  1.00  0.00     0.029 A 
ATOM     41  C   UNL A   1      41.140  27.577  28.921  1.00  0.00     0.049 A 
ATOM     42  H   UNL A   1      43.112  27.551  28.253  1.00  0.00     0.167 HD
ATOM     43  C   UNL A   1      47.260  27.330  26.866  1.00  0.00     0.037 A 
ATOM     44  C   UNL A   1      40.897  28.816  29.387  1.00  0.00     0.037 A 
ATOM     45  C   UNL A   1      47.062  28.705  27.245  1.00  0.00     0.049 A 
ATOM     46  C   UNL A   1      41.982  29.856  29.302  1.00  0.00     0.074 A 
ATOM     47  C   UNL A   1      47.955  29.759  27.162  1.00  0.00     0.029 A 
ATOM     48  N   UNL A   1      45.891  29.215  27.787  1.00  0.00    -0.354 N 
ATOM     49  N   UNL A   1      43.204  29.744  28.842  1.00  0.00    -0.248 NA
ATOM     50  C   UNL A   1      41.645  31.201  29.786  1.00  0.00     0.031 C 
ATOM     51  C   UNL A   1      47.346  30.891  27.716  1.00  0.00     0.029 A 
ATOM     52  C   UNL A   1      46.048  30.563  28.071  1.00  0.00     0.049 A 
ATOM     53  H   UNL A   1      45.070  28.695  27.946  1.00  0.00     0.167 HD
ATOM     54  C   UNL A   1      43.772  31.008  28.950  1.00  0.00     0.074 A 
ATOM     55  C   UNL A   1      42.749  31.874  29.501  1.00  0.00     0.031 C 
ATOM     56  C   UNL A   1      45.023  31.415  28.622  1.00  0.00     0.037 A 
BRANCH  43  57
ATOM     57  C   UNL A   1      48.619  26.909  26.378  1.00  0.00     0.064 A 
ATOM     58  C   UNL A   1      49.589  26.380  27.245  1.00  0.00     0.173 A 
ATOM     59  C   UNL A   1      48.950  27.017  25.018  1.00  0.00     0.173 A 
ATOM     60  F   UNL A   1      49.331  26.264  28.556  1.00  0.00    -0.203 F 
ATOM     61  C   UNL A   1      50.848  26.014  26.777  1.00  0.00     0.198 A 
ATOM     62  C   UNL A   1      50.198  26.614  24.547  1.00  0.00     0.198 A 
ATOM     63  F   UNL A   1      48.063  27.511  24.142  1.00  0.00    -0.203 F 
ATOM     64  F   UNL A   1      51.778  25.573  27.636  1.00  0.00    -0.200 F 
ATOM     65  C   UNL A   1      51.150  26.124  25.429  1.00  0.00     0.200 A 
ATOM     66  F   UNL A   1      50.482  26.707  23.241  1.00  0.00    -0.200 F 
ATOM     67  F   UNL A   1      52.360  25.766  24.979  1.00  0.00    -0.200 F 
ENDBRANCH  43  57
BRANCH  44  68
ATOM     68  C   UNL A   1      39.560  29.149  29.947  1.00  0.00     0.064 A 
ATOM     69  C   UNL A   1      38.558  29.714  29.145  1.00  0.00     0.173 A 
ATOM     70  C   UNL A   1      39.257  28.911  31.296  1.00  0.00     0.173 A 
ATOM     71  F   UNL A   1      38.804  29.977  27.854  1.00  0.00    -0.203 F 
ATOM     72  C   UNL A   1      37.315  30.051  29.676  1.00  0.00     0.198 A 
ATOM     73  C   UNL A   1      38.002  29.217  31.818  1.00  0.00     0.198 A 
ATOM     74  F   UNL A   1      40.177  28.366  32.105  1.00  0.00    -0.203 F 
ATOM     75  F   UNL A   1      36.394  30.637  28.898  1.00  0.00    -0.200 F 
ATOM     76  C   UNL A   1      37.035  29.796  31.009  1.00  0.00     0.200 A 
ATOM     77  F   UNL A   1      37.730  28.952  33.103  1.00  0.00    -0.200 F 
ATOM     78  F   UNL A   1      35.837  30.114  31.519  1.00  0.00    -0.200 F 
ENDBRANCH  44  68
BRANCH  56  79
ATOM     79  C   UNL A   1      45.342  32.873  28.807  1.00  0.00     0.064 A 
ATOM     80  C   UNL A   1      45.935  33.362  29.982  1.00  0.00     0.173 A 
ATOM     81  C   UNL A   1      45.059  33.794  27.787  1.00  0.00     0.173 A 
ATOM     82  F   UNL A   1      46.219  32.527  30.993  1.00  0.00    -0.203 F 
ATOM     83  C   UNL A   1      46.185  34.722  30.146  1.00  0.00     0.198 A 
ATOM     84  C   UNL A   1      45.348  35.147  27.938  1.00  0.00     0.198 A 
ATOM     85  F   UNL A   1      44.503  33.382  26.637  1.00  0.00    -0.203 F 
ATOM     86  F   UNL A   1      46.683  35.174  31.306  1.00  0.00    -0.200 F 
ATOM     87  C   UNL A   1      45.897  35.613  29.123  1.00  0.00     0.200 A 
ATOM     88  F   UNL A   1      45.087  36.003  26.940  1.00  0.00    -0.200 F 
ATOM     89  F   UNL A   1      46.138  36.921  29.283  1.00  0.00    -0.200 F 
ENDBRANCH  56  79
ENDBRANCH  30  31
ENDBRANCH  22  25
ENDBRANCH  20  21
ENDBRANCH  19  20
ENDBRANCH   1  19
TORSDOF 14
ENDMDL
