MODEL 1
REMARK VINA RESULT:     -11.5      0.000      0.000
REMARK SMILES CCOc1cc(OCC)cc(-c2ccc([C@@H](C)C(=O)NCCCCNC(=O)c3ccc(-c4c5nc(c(-c6c(F)c(F)c(F)c(F)c6F)c6ccc([nH]6)c(-c6c(F)c(F)c(F)c(F)c6F)c6nc(c(-c7c(F)c(F)c(F)c(F)c7F)c7ccc4[nH]7)C=C6)C=C5)cc3)cc2F)c1
REMARK SMILES IDX 21 1 20 2 18 3 19 4 16 6 17 7 15 8 12 9 13 10 92 11 14 12
REMARK SMILES IDX 91 13 93 14 11 15 4 16 5 17 94 18 6 19 10 20 3 21 2 22 1 23
REMARK SMILES IDX 7 24 8 25 9 26 22 27 23 28 24 29 25 30 26 31 27 33 28 34
REMARK SMILES IDX 29 35 90 36 30 37 89 38 31 39 32 40 33 41 83 42 34 43 88 44
REMARK SMILES IDX 82 45 84 46 35 47 87 48 81 49 80 50 36 52 68 53 48 54 67 55
REMARK SMILES IDX 49 56 52 57 66 58 85 59 50 60 51 61 65 63 86 64 53 65 37 66
REMARK SMILES IDX 38 67 46 68 39 69 40 70 44 71 47 72 41 73 42 74 45 75 43 76
REMARK SMILES IDX 69 77 70 78 78 79 71 80 72 81 76 82 79 83 73 84 74 85 77 86
REMARK SMILES IDX 75 87 54 88 55 89 63 90 56 91 57 92 61 93 64 94 58 95 59 96
REMARK SMILES IDX 62 97 60 98
REMARK H PARENT 20 5 25 32 84 51 52 62
REMARK Flexibility Score: inf
ROOT
ATOM      1  C   UNL A   1      35.241  20.752  24.937  1.00  0.00     0.116 C 
ENDROOT
BRANCH   1   2
ATOM      2  N   UNL A   1      34.285  19.757  25.378  1.00  0.00    -0.356 N 
ATOM      3  C   UNL A   1      32.968  19.572  25.089  1.00  0.00     0.227 C 
ATOM      4  O   UNL A   1      32.403  18.650  25.689  1.00  0.00    -0.274 OA
ATOM      5  H   UNL A   1      34.657  19.092  26.002  1.00  0.00     0.163 HD
BRANCH   3   6
ATOM      6  C   UNL A   1      32.178  20.424  24.081  1.00  0.00     0.105 C 
ATOM      7  C   UNL A   1      32.287  19.946  22.633  1.00  0.00     0.023 C 
BRANCH   6   8
ATOM      8  C   UNL A   1      32.353  21.918  24.294  1.00  0.00    -0.033 A 
ATOM      9  C   UNL A   1      32.513  24.767  24.543  1.00  0.00     0.018 A 
ATOM     10  C   UNL A   1      32.008  23.953  25.574  1.00  0.00     0.012 A 
ATOM     11  C   UNL A   1      32.972  24.100  23.399  1.00  0.00     0.131 A 
ATOM     12  C   UNL A   1      31.974  22.560  25.473  1.00  0.00     0.005 A 
ATOM     13  C   UNL A   1      32.873  22.711  23.262  1.00  0.00     0.044 A 
ATOM     14  F   UNL A   1      33.521  24.780  22.381  1.00  0.00    -0.206 F 
BRANCH   9  15
ATOM     15  C   UNL A   1      32.513  26.243  24.692  1.00  0.00    -0.008 A 
ATOM     16  C   UNL A   1      31.417  28.414  24.530  1.00  0.00     0.123 A 
ATOM     17  C   UNL A   1      32.504  29.032  25.146  1.00  0.00     0.092 A 
ATOM     18  C   UNL A   1      31.427  27.038  24.298  1.00  0.00     0.055 A 
ATOM     19  C   UNL A   1      33.610  28.277  25.530  1.00  0.00     0.123 A 
ATOM     20  C   UNL A   1      33.610  26.903  25.282  1.00  0.00     0.055 A 
BRANCH  16  21
ATOM     21  O   UNL A   1      30.411  29.207  24.048  1.00  0.00    -0.494 OA
BRANCH  21  22
ATOM     22  C   UNL A   1      30.074  28.954  22.679  1.00  0.00     0.226 C 
ATOM     23  C   UNL A   1      28.613  29.260  22.381  1.00  0.00     0.049 C 
ENDBRANCH  21  22
ENDBRANCH  16  21
BRANCH  19  24
ATOM     24  O   UNL A   1      34.616  28.964  26.156  1.00  0.00    -0.494 OA
BRANCH  24  25
ATOM     25  C   UNL A   1      34.420  29.361  27.515  1.00  0.00     0.226 C 
ATOM     26  C   UNL A   1      34.475  30.874  27.676  1.00  0.00     0.049 C 
ENDBRANCH  24  25
ENDBRANCH  19  24
ENDBRANCH   9  15
ENDBRANCH   6   8
ENDBRANCH   3   6
ENDBRANCH   1   2
BRANCH   1  27
ATOM     27  C   UNL A   1      35.680  21.675  26.075  1.00  0.00     0.023 C 
BRANCH  27  28
ATOM     28  C   UNL A   1      35.707  23.162  25.730  1.00  0.00     0.023 C 
BRANCH  28  29
ATOM     29  C   UNL A   1      37.074  23.718  25.353  1.00  0.00     0.116 C 
BRANCH  29  30
ATOM     30  N   UNL A   1      38.176  22.791  25.567  1.00  0.00    -0.352 N 
ATOM     31  C   UNL A   1      39.359  23.011  26.238  1.00  0.00     0.251 C 
ATOM     32  H   UNL A   1      38.060  21.891  25.184  1.00  0.00     0.163 HD
ATOM     33  O   UNL A   1      40.225  22.153  26.274  1.00  0.00    -0.269 OA
BRANCH  31  34
ATOM     34  C   UNL A   1      39.585  24.329  26.874  1.00  0.00     0.039 A 
ATOM     35  C   UNL A   1      39.142  24.528  28.184  1.00  0.00     0.014 A 
ATOM     36  C   UNL A   1      40.276  25.337  26.199  1.00  0.00     0.014 A 
ATOM     37  C   UNL A   1      39.463  25.715  28.845  1.00  0.00     0.010 A 
ATOM     38  C   UNL A   1      40.663  26.483  26.885  1.00  0.00     0.010 A 
ATOM     39  C   UNL A   1      40.259  26.685  28.213  1.00  0.00    -0.014 A 
BRANCH  39  40
ATOM     40  C   UNL A   1      40.673  27.921  28.920  1.00  0.00     0.031 A 
ATOM     41  C   UNL A   1      42.079  28.057  29.433  1.00  0.00     0.074 A 
ATOM     42  C   UNL A   1      39.767  28.887  29.164  1.00  0.00     0.049 A 
ATOM     43  N   UNL A   1      42.617  29.024  30.132  1.00  0.00    -0.248 NA
ATOM     44  C   UNL A   1      42.995  26.939  29.153  1.00  0.00     0.031 C 
ATOM     45  C   UNL A   1      38.357  28.845  28.774  1.00  0.00     0.029 A 
ATOM     46  N   UNL A   1      39.896  30.093  29.808  1.00  0.00    -0.354 N 
ATOM     47  C   UNL A   1      43.921  28.622  30.389  1.00  0.00     0.074 A 
ATOM     48  C   UNL A   1      44.077  27.301  29.824  1.00  0.00     0.031 C 
ATOM     49  C   UNL A   1      37.757  29.982  29.163  1.00  0.00     0.029 A 
ATOM     50  C   UNL A   1      38.731  30.820  29.855  1.00  0.00     0.049 A 
ATOM     51  H   UNL A   1      40.742  30.406  30.200  1.00  0.00     0.167 HD
ATOM     52  C   UNL A   1      44.908  29.307  31.014  1.00  0.00     0.037 A 
ATOM     53  C   UNL A   1      38.481  32.028  30.396  1.00  0.00     0.037 A 
ATOM     54  C   UNL A   1      44.760  30.637  31.540  1.00  0.00     0.049 A 
ATOM     55  C   UNL A   1      39.602  32.779  31.062  1.00  0.00     0.074 A 
ATOM     56  C   UNL A   1      45.717  31.445  32.127  1.00  0.00     0.029 A 
ATOM     57  N   UNL A   1      43.574  31.357  31.535  1.00  0.00    -0.354 N 
ATOM     58  N   UNL A   1      40.851  32.421  31.232  1.00  0.00    -0.248 NA
ATOM     59  C   UNL A   1      39.279  34.106  31.604  1.00  0.00     0.031 C 
ATOM     60  C   UNL A   1      45.102  32.642  32.511  1.00  0.00     0.029 A 
ATOM     61  C   UNL A   1      43.772  32.596  32.124  1.00  0.00     0.049 A 
ATOM     62  H   UNL A   1      42.720  31.037  31.168  1.00  0.00     0.167 HD
ATOM     63  C   UNL A   1      41.470  33.486  31.873  1.00  0.00     0.074 A 
ATOM     64  C   UNL A   1      40.460  34.510  32.049  1.00  0.00     0.031 C 
ATOM     65  C   UNL A   1      42.757  33.606  32.279  1.00  0.00     0.037 A 
BRANCH  52  66
ATOM     66  C   UNL A   1      46.239  28.628  31.151  1.00  0.00     0.064 A 
ATOM     67  C   UNL A   1      47.228  28.746  30.162  1.00  0.00     0.173 A 
ATOM     68  C   UNL A   1      46.540  27.871  32.292  1.00  0.00     0.173 A 
ATOM     69  F   UNL A   1      46.985  29.447  29.044  1.00  0.00    -0.203 F 
ATOM     70  C   UNL A   1      48.456  28.104  30.296  1.00  0.00     0.198 A 
ATOM     71  C   UNL A   1      47.780  27.255  32.437  1.00  0.00     0.198 A 
ATOM     72  F   UNL A   1      45.632  27.729  33.270  1.00  0.00    -0.203 F 
ATOM     73  F   UNL A   1      49.363  28.185  29.313  1.00  0.00    -0.200 F 
ATOM     74  C   UNL A   1      48.734  27.365  31.436  1.00  0.00     0.200 A 
ATOM     75  F   UNL A   1      48.052  26.550  33.544  1.00  0.00    -0.200 F 
ATOM     76  F   UNL A   1      49.918  26.750  31.564  1.00  0.00    -0.200 F 
ENDBRANCH  52  66
BRANCH  53  77
ATOM     77  C   UNL A   1      37.123  32.622  30.292  1.00  0.00     0.064 A 
ATOM     78  C   UNL A   1      36.150  32.360  31.266  1.00  0.00     0.173 A 
ATOM     79  C   UNL A   1      36.768  33.455  29.221  1.00  0.00     0.173 A 
ATOM     80  F   UNL A   1      36.437  31.553  32.298  1.00  0.00    -0.203 F 
ATOM     81  C   UNL A   1      34.867  32.892  31.164  1.00  0.00     0.198 A 
ATOM     82  C   UNL A   1      35.492  34.008  29.134  1.00  0.00     0.198 A 
ATOM     83  F   UNL A   1      37.665  33.740  28.265  1.00  0.00    -0.203 F 
ATOM     84  F   UNL A   1      33.943  32.591  32.087  1.00  0.00    -0.200 F 
ATOM     85  C   UNL A   1      34.540  33.720  30.100  1.00  0.00     0.200 A 
ATOM     86  F   UNL A   1      35.183  34.817  28.111  1.00  0.00    -0.200 F 
ATOM     87  F   UNL A   1      33.306  34.233  30.003  1.00  0.00    -0.200 F 
ENDBRANCH  53  77
BRANCH  65  88
ATOM     88  C   UNL A   1      43.157  34.900  32.923  1.00  0.00     0.064 A 
ATOM     89  C   UNL A   1      43.148  35.061  34.316  1.00  0.00     0.173 A 
ATOM     90  C   UNL A   1      43.597  35.976  32.137  1.00  0.00     0.173 A 
ATOM     91  F   UNL A   1      42.722  34.065  35.107  1.00  0.00    -0.203 F 
ATOM     92  C   UNL A   1      43.545  36.262  34.899  1.00  0.00     0.198 A 
ATOM     93  C   UNL A   1      44.019  37.165  32.725  1.00  0.00     0.198 A 
ATOM     94  F   UNL A   1      43.630  35.869  30.801  1.00  0.00    -0.203 F 
ATOM     95  F   UNL A   1      43.489  36.409  36.229  1.00  0.00    -0.200 F 
ATOM     96  C   UNL A   1      43.987  37.309  34.104  1.00  0.00     0.200 A 
ATOM     97  F   UNL A   1      44.457  38.172  31.957  1.00  0.00    -0.200 F 
ATOM     98  F   UNL A   1      44.376  38.461  34.668  1.00  0.00    -0.200 F 
ENDBRANCH  65  88
ENDBRANCH  39  40
ENDBRANCH  31  34
ENDBRANCH  29  30
ENDBRANCH  28  29
ENDBRANCH  27  28
ENDBRANCH   1  27
TORSDOF 17
ENDMDL
MODEL 2
REMARK VINA RESULT:     -11.4      4.072      7.601
REMARK SMILES CCOc1cc(OCC)cc(-c2ccc([C@@H](C)C(=O)NCCCCNC(=O)c3ccc(-c4c5nc(c(-c6c(F)c(F)c(F)c(F)c6F)c6ccc([nH]6)c(-c6c(F)c(F)c(F)c(F)c6F)c6nc(c(-c7c(F)c(F)c(F)c(F)c7F)c7ccc4[nH]7)C=C6)C=C5)cc3)cc2F)c1
REMARK SMILES IDX 21 1 20 2 18 3 19 4 16 6 17 7 15 8 12 9 13 10 92 11 14 12
REMARK SMILES IDX 91 13 93 14 11 15 4 16 5 17 94 18 6 19 10 20 3 21 2 22 1 23
REMARK SMILES IDX 7 24 8 25 9 26 22 27 23 28 24 29 25 30 26 31 27 33 28 34
REMARK SMILES IDX 29 35 90 36 30 37 89 38 31 39 32 40 33 41 83 42 34 43 88 44
REMARK SMILES IDX 82 45 84 46 35 47 87 48 81 49 80 50 36 52 68 53 48 54 67 55
REMARK SMILES IDX 49 56 52 57 66 58 85 59 50 60 51 61 65 63 86 64 53 65 37 66
REMARK SMILES IDX 38 67 46 68 39 69 40 70 44 71 47 72 41 73 42 74 45 75 43 76
REMARK SMILES IDX 69 77 70 78 78 79 71 80 72 81 76 82 79 83 73 84 74 85 77 86
REMARK SMILES IDX 75 87 54 88 55 89 63 90 56 91 57 92 61 93 64 94 58 95 59 96
REMARK SMILES IDX 62 97 60 98
REMARK H PARENT 20 5 25 32 84 51 52 62
REMARK Flexibility Score: inf
ROOT
ATOM      1  C   UNL A   1      42.819  19.590  25.732  1.00  0.00     0.116 C 
ENDROOT
BRANCH   1   2
ATOM      2  N   UNL A   1      44.207  20.004  25.703  1.00  0.00    -0.356 N 
ATOM      3  C   UNL A   1      44.787  21.235  25.719  1.00  0.00     0.227 C 
ATOM      4  O   UNL A   1      46.020  21.258  25.616  1.00  0.00    -0.274 OA
ATOM      5  H   UNL A   1      44.848  19.258  25.665  1.00  0.00     0.163 HD
BRANCH   3   6
ATOM      6  C   UNL A   1      44.009  22.554  25.859  1.00  0.00     0.105 C 
ATOM      7  C   UNL A   1      44.247  23.546  24.720  1.00  0.00     0.023 C 
BRANCH   6   8
ATOM      8  C   UNL A   1      44.065  23.138  27.260  1.00  0.00    -0.033 A 
ATOM      9  C   UNL A   1      44.195  24.445  29.805  1.00  0.00     0.018 A 
ATOM     10  C   UNL A   1      43.004  23.875  29.316  1.00  0.00     0.012 A 
ATOM     11  C   UNL A   1      45.327  24.301  28.992  1.00  0.00     0.131 A 
ATOM     12  C   UNL A   1      42.952  23.195  28.097  1.00  0.00     0.005 A 
ATOM     13  C   UNL A   1      45.264  23.686  27.737  1.00  0.00     0.044 A 
ATOM     14  F   UNL A   1      46.523  24.762  29.390  1.00  0.00    -0.206 F 
BRANCH   9  15
ATOM     15  C   UNL A   1      44.197  25.170  31.099  1.00  0.00    -0.008 A 
ATOM     16  C   UNL A   1      44.054  27.223  32.406  1.00  0.00     0.123 A 
ATOM     17  C   UNL A   1      44.042  26.493  33.592  1.00  0.00     0.092 A 
ATOM     18  C   UNL A   1      44.140  26.570  31.176  1.00  0.00     0.055 A 
ATOM     19  C   UNL A   1      44.121  25.102  33.555  1.00  0.00     0.123 A 
ATOM     20  C   UNL A   1      44.217  24.462  32.317  1.00  0.00     0.055 A 
BRANCH  16  21
ATOM     21  O   UNL A   1      44.111  28.588  32.489  1.00  0.00    -0.494 OA
BRANCH  21  22
ATOM     22  C   UNL A   1      45.039  29.075  33.466  1.00  0.00     0.226 C 
ATOM     23  C   UNL A   1      45.876  30.231  32.937  1.00  0.00     0.049 C 
ENDBRANCH  21  22
ENDBRANCH  16  21
BRANCH  19  24
ATOM     24  O   UNL A   1      44.070  24.467  34.767  1.00  0.00    -0.494 OA
BRANCH  24  25
ATOM     25  C   UNL A   1      42.915  23.682  35.073  1.00  0.00     0.226 C 
ATOM     26  C   UNL A   1      41.912  24.456  35.918  1.00  0.00     0.049 C 
ENDBRANCH  24  25
ENDBRANCH  19  24
ENDBRANCH   9  15
ENDBRANCH   6   8
ENDBRANCH   3   6
ENDBRANCH   1   2
BRANCH   1  27
ATOM     27  C   UNL A   1      42.226  19.656  27.140  1.00  0.00     0.023 C 
BRANCH  27  28
ATOM     28  C   UNL A   1      40.903  20.412  27.251  1.00  0.00     0.023 C 
BRANCH  28  29
ATOM     29  C   UNL A   1      40.649  21.443  26.160  1.00  0.00     0.116 C 
BRANCH  29  30
ATOM     30  N   UNL A   1      39.242  21.715  25.910  1.00  0.00    -0.352 N 
ATOM     31  C   UNL A   1      38.547  22.887  26.125  1.00  0.00     0.251 C 
ATOM     32  H   UNL A   1      38.719  20.967  25.541  1.00  0.00     0.163 HD
ATOM     33  O   UNL A   1      37.344  22.943  25.933  1.00  0.00    -0.269 OA
BRANCH  31  34
ATOM     34  C   UNL A   1      39.278  24.065  26.642  1.00  0.00     0.039 A 
ATOM     35  C   UNL A   1      39.947  24.892  25.736  1.00  0.00     0.014 A 
ATOM     36  C   UNL A   1      39.255  24.378  28.002  1.00  0.00     0.014 A 
ATOM     37  C   UNL A   1      40.528  26.078  26.188  1.00  0.00     0.010 A 
ATOM     38  C   UNL A   1      39.763  25.597  28.437  1.00  0.00     0.010 A 
ATOM     39  C   UNL A   1      40.406  26.459  27.535  1.00  0.00    -0.014 A 
BRANCH  39  40
ATOM     40  C   UNL A   1      40.953  27.748  28.024  1.00  0.00     0.031 A 
ATOM     41  C   UNL A   1      42.436  27.988  28.006  1.00  0.00     0.074 A 
ATOM     42  C   UNL A   1      40.124  28.670  28.550  1.00  0.00     0.049 A 
ATOM     43  N   UNL A   1      43.116  29.015  28.449  1.00  0.00    -0.248 NA
ATOM     44  C   UNL A   1      43.272  26.914  27.445  1.00  0.00     0.031 C 
ATOM     45  C   UNL A   1      38.673  28.528  28.683  1.00  0.00     0.029 A 
ATOM     46  N   UNL A   1      40.385  29.908  29.082  1.00  0.00    -0.354 N 
ATOM     47  C   UNL A   1      44.451  28.702  28.238  1.00  0.00     0.074 A 
ATOM     48  C   UNL A   1      44.493  27.368  27.684  1.00  0.00     0.031 C 
ATOM     49  C   UNL A   1      38.169  29.644  29.233  1.00  0.00     0.029 A 
ATOM     50  C   UNL A   1      39.263  30.568  29.520  1.00  0.00     0.049 A 
ATOM     51  H   UNL A   1      41.291  30.287  29.143  1.00  0.00     0.167 HD
ATOM     52  C   UNL A   1      45.544  29.470  28.461  1.00  0.00     0.037 A 
ATOM     53  C   UNL A   1      39.134  31.782  30.087  1.00  0.00     0.037 A 
ATOM     54  C   UNL A   1      45.497  30.812  28.976  1.00  0.00     0.049 A 
ATOM     55  C   UNL A   1      40.361  32.626  30.300  1.00  0.00     0.074 A 
ATOM     56  C   UNL A   1      46.539  31.700  29.172  1.00  0.00     0.029 A 
ATOM     57  N   UNL A   1      44.337  31.461  29.374  1.00  0.00    -0.354 N 
ATOM     58  N   UNL A   1      41.612  32.350  30.027  1.00  0.00    -0.248 NA
ATOM     59  C   UNL A   1      40.156  33.956  30.892  1.00  0.00     0.031 C 
ATOM     60  C   UNL A   1      46.015  32.875  29.721  1.00  0.00     0.029 A 
ATOM     61  C   UNL A   1      44.641  32.734  29.828  1.00  0.00     0.049 A 
ATOM     62  H   UNL A   1      43.433  31.075  29.338  1.00  0.00     0.167 HD
ATOM     63  C   UNL A   1      42.340  33.477  30.385  1.00  0.00     0.074 A 
ATOM     64  C   UNL A   1      41.386  34.447  30.883  1.00  0.00     0.031 C 
ATOM     65  C   UNL A   1      43.676  33.690  30.309  1.00  0.00     0.037 A 
BRANCH  52  66
ATOM     66  C   UNL A   1      46.883  28.877  28.135  1.00  0.00     0.064 A 
ATOM     67  C   UNL A   1      47.633  28.182  29.096  1.00  0.00     0.173 A 
ATOM     68  C   UNL A   1      47.414  28.982  26.841  1.00  0.00     0.173 A 
ATOM     69  F   UNL A   1      47.177  28.065  30.353  1.00  0.00    -0.203 F 
ATOM     70  C   UNL A   1      48.878  27.644  28.784  1.00  0.00     0.198 A 
ATOM     71  C   UNL A   1      48.646  28.417  26.523  1.00  0.00     0.198 A 
ATOM     72  F   UNL A   1      46.736  29.632  25.882  1.00  0.00    -0.203 F 
ATOM     73  F   UNL A   1      49.600  27.033  29.734  1.00  0.00    -0.200 F 
ATOM     74  C   UNL A   1      49.381  27.755  27.496  1.00  0.00     0.200 A 
ATOM     75  F   UNL A   1      49.126  28.516  25.276  1.00  0.00    -0.200 F 
ATOM     76  F   UNL A   1      50.578  27.235  27.196  1.00  0.00    -0.200 F 
ENDBRANCH  52  66
BRANCH  53  77
ATOM     77  C   UNL A   1      37.787  32.291  30.456  1.00  0.00     0.064 A 
ATOM     78  C   UNL A   1      37.013  33.006  29.532  1.00  0.00     0.173 A 
ATOM     79  C   UNL A   1      37.248  32.079  31.734  1.00  0.00     0.173 A 
ATOM     80  F   UNL A   1      37.494  33.251  28.304  1.00  0.00    -0.203 F 
ATOM     81  C   UNL A   1      35.760  33.508  29.877  1.00  0.00     0.198 A 
ATOM     82  C   UNL A   1      35.984  32.559  32.069  1.00  0.00     0.198 A 
ATOM     83  F   UNL A   1      37.947  31.396  32.652  1.00  0.00    -0.203 F 
ATOM     84  F   UNL A   1      35.060  34.226  28.987  1.00  0.00    -0.200 F 
ATOM     85  C   UNL A   1      35.244  33.280  31.144  1.00  0.00     0.200 A 
ATOM     86  F   UNL A   1      35.484  32.327  33.290  1.00  0.00    -0.200 F 
ATOM     87  F   UNL A   1      34.038  33.762  31.475  1.00  0.00    -0.200 F 
ENDBRANCH  53  77
BRANCH  65  88
ATOM     88  C   UNL A   1      44.184  35.032  30.743  1.00  0.00     0.064 A 
ATOM     89  C   UNL A   1      44.194  36.131  29.873  1.00  0.00     0.173 A 
ATOM     90  C   UNL A   1      44.625  35.231  32.061  1.00  0.00     0.173 A 
ATOM     91  F   UNL A   1      43.796  35.986  28.599  1.00  0.00    -0.203 F 
ATOM     92  C   UNL A   1      44.648  37.376  30.299  1.00  0.00     0.198 A 
ATOM     93  C   UNL A   1      45.051  36.484  32.491  1.00  0.00     0.198 A 
ATOM     94  F   UNL A   1      44.628  34.212  32.933  1.00  0.00    -0.203 F 
ATOM     95  F   UNL A   1      44.689  38.402  29.439  1.00  0.00    -0.200 F 
ATOM     96  C   UNL A   1      45.069  37.553  31.609  1.00  0.00     0.200 A 
ATOM     97  F   UNL A   1      45.446  36.656  33.760  1.00  0.00    -0.200 F 
ATOM     98  F   UNL A   1      45.497  38.754  32.019  1.00  0.00    -0.200 F 
ENDBRANCH  65  88
ENDBRANCH  39  40
ENDBRANCH  31  34
ENDBRANCH  29  30
ENDBRANCH  28  29
ENDBRANCH  27  28
ENDBRANCH   1  27
TORSDOF 17
ENDMDL
MODEL 3
REMARK VINA RESULT:     -11.3      0.869      2.129
REMARK SMILES CCOc1cc(OCC)cc(-c2ccc([C@@H](C)C(=O)NCCCCNC(=O)c3ccc(-c4c5nc(c(-c6c(F)c(F)c(F)c(F)c6F)c6ccc([nH]6)c(-c6c(F)c(F)c(F)c(F)c6F)c6nc(c(-c7c(F)c(F)c(F)c(F)c7F)c7ccc4[nH]7)C=C6)C=C5)cc3)cc2F)c1
REMARK SMILES IDX 21 1 20 2 18 3 19 4 16 6 17 7 15 8 12 9 13 10 92 11 14 12
REMARK SMILES IDX 91 13 93 14 11 15 4 16 5 17 94 18 6 19 10 20 3 21 2 22 1 23
REMARK SMILES IDX 7 24 8 25 9 26 22 27 23 28 24 29 25 30 26 31 27 33 28 34
REMARK SMILES IDX 29 35 90 36 30 37 89 38 31 39 32 40 33 41 83 42 34 43 88 44
REMARK SMILES IDX 82 45 84 46 35 47 87 48 81 49 80 50 36 52 68 53 48 54 67 55
REMARK SMILES IDX 49 56 52 57 66 58 85 59 50 60 51 61 65 63 86 64 53 65 37 66
REMARK SMILES IDX 38 67 46 68 39 69 40 70 44 71 47 72 41 73 42 74 45 75 43 76
REMARK SMILES IDX 69 77 70 78 78 79 71 80 72 81 76 82 79 83 73 84 74 85 77 86
REMARK SMILES IDX 75 87 54 88 55 89 63 90 56 91 57 92 61 93 64 94 58 95 59 96
REMARK SMILES IDX 62 97 60 98
REMARK H PARENT 20 5 25 32 84 51 52 62
REMARK Flexibility Score: inf
ROOT
ATOM      1  C   UNL A   1      35.070  21.039  25.213  1.00  0.00     0.116 C 
ENDROOT
BRANCH   1   2
ATOM      2  N   UNL A   1      34.198  19.986  25.693  1.00  0.00    -0.356 N 
ATOM      3  C   UNL A   1      32.959  19.583  25.298  1.00  0.00     0.227 C 
ATOM      4  O   UNL A   1      32.443  18.678  25.964  1.00  0.00    -0.274 OA
ATOM      5  H   UNL A   1      34.570  19.467  26.442  1.00  0.00     0.163 HD
BRANCH   3   6
ATOM      6  C   UNL A   1      32.199  20.178  24.101  1.00  0.00     0.105 C 
ATOM      7  C   UNL A   1      32.490  19.488  22.768  1.00  0.00     0.023 C 
BRANCH   6   8
ATOM      8  C   UNL A   1      32.220  21.696  24.073  1.00  0.00    -0.033 A 
ATOM      9  C   UNL A   1      32.090  24.550  23.864  1.00  0.00     0.018 A 
ATOM     10  C   UNL A   1      31.654  23.863  25.013  1.00  0.00     0.012 A 
ATOM     11  C   UNL A   1      32.629  23.760  22.840  1.00  0.00     0.131 A 
ATOM     12  C   UNL A   1      31.762  22.476  25.135  1.00  0.00     0.005 A 
ATOM     13  C   UNL A   1      32.673  22.364  22.926  1.00  0.00     0.044 A 
ATOM     14  F   UNL A   1      33.122  24.322  21.726  1.00  0.00    -0.206 F 
BRANCH   9  15
ATOM     15  C   UNL A   1      31.940  26.023  23.776  1.00  0.00    -0.008 A 
ATOM     16  C   UNL A   1      32.661  28.287  24.320  1.00  0.00     0.123 A 
ATOM     17  C   UNL A   1      31.716  28.821  23.447  1.00  0.00     0.092 A 
ATOM     18  C   UNL A   1      32.765  26.906  24.489  1.00  0.00     0.055 A 
ATOM     19  C   UNL A   1      30.865  27.975  22.739  1.00  0.00     0.123 A 
ATOM     20  C   UNL A   1      30.973  26.595  22.926  1.00  0.00     0.055 A 
BRANCH  16  21
ATOM     21  O   UNL A   1      33.385  29.153  25.095  1.00  0.00    -0.494 OA
BRANCH  21  22
ATOM     22  C   UNL A   1      32.585  29.993  25.934  1.00  0.00     0.226 C 
ATOM     23  C   UNL A   1      32.075  29.258  27.165  1.00  0.00     0.049 C 
ENDBRANCH  21  22
ENDBRANCH  16  21
BRANCH  19  24
ATOM     24  O   UNL A   1      29.990  28.587  21.881  1.00  0.00    -0.494 OA
BRANCH  24  25
ATOM     25  C   UNL A   1      28.848  29.245  22.434  1.00  0.00     0.226 C 
ATOM     26  C   UNL A   1      28.389  30.408  21.566  1.00  0.00     0.049 C 
ENDBRANCH  24  25
ENDBRANCH  19  24
ENDBRANCH   9  15
ENDBRANCH   6   8
ENDBRANCH   3   6
ENDBRANCH   1   2
BRANCH   1  27
ATOM     27  C   UNL A   1      35.343  22.096  26.285  1.00  0.00     0.023 C 
BRANCH  27  28
ATOM     28  C   UNL A   1      35.734  23.473  25.753  1.00  0.00     0.023 C 
BRANCH  28  29
ATOM     29  C   UNL A   1      37.056  23.528  24.999  1.00  0.00     0.116 C 
BRANCH  29  30
ATOM     30  N   UNL A   1      38.041  22.557  25.449  1.00  0.00    -0.352 N 
ATOM     31  C   UNL A   1      39.145  22.767  26.247  1.00  0.00     0.251 C 
ATOM     32  H   UNL A   1      37.901  21.630  25.144  1.00  0.00     0.163 HD
ATOM     33  O   UNL A   1      39.926  21.860  26.483  1.00  0.00    -0.269 OA
BRANCH  31  34
ATOM     34  C   UNL A   1      39.396  24.126  26.774  1.00  0.00     0.039 A 
ATOM     35  C   UNL A   1      38.979  24.433  28.071  1.00  0.00     0.014 A 
ATOM     36  C   UNL A   1      40.087  25.070  26.011  1.00  0.00     0.014 A 
ATOM     37  C   UNL A   1      39.325  25.664  28.632  1.00  0.00     0.010 A 
ATOM     38  C   UNL A   1      40.499  26.262  26.598  1.00  0.00     0.010 A 
ATOM     39  C   UNL A   1      40.121  26.571  27.913  1.00  0.00    -0.014 A 
BRANCH  39  40
ATOM     40  C   UNL A   1      40.560  27.854  28.514  1.00  0.00     0.031 A 
ATOM     41  C   UNL A   1      41.995  28.038  28.923  1.00  0.00     0.074 A 
ATOM     42  C   UNL A   1      39.657  28.823  28.759  1.00  0.00     0.049 A 
ATOM     43  N   UNL A   1      42.563  29.052  29.524  1.00  0.00    -0.248 NA
ATOM     44  C   UNL A   1      42.908  26.915  28.651  1.00  0.00     0.031 C 
ATOM     45  C   UNL A   1      38.225  28.740  28.467  1.00  0.00     0.029 A 
ATOM     46  N   UNL A   1      39.809  30.067  29.318  1.00  0.00    -0.354 N 
ATOM     47  C   UNL A   1      43.887  28.683  29.717  1.00  0.00     0.074 A 
ATOM     48  C   UNL A   1      44.026  27.330  29.225  1.00  0.00     0.031 C 
ATOM     49  C   UNL A   1      37.635  29.891  28.825  1.00  0.00     0.029 A 
ATOM     50  C   UNL A   1      38.639  30.782  29.399  1.00  0.00     0.049 A 
ATOM     51  H   UNL A   1      40.675  30.414  29.633  1.00  0.00     0.167 HD
ATOM     52  C   UNL A   1      44.901  29.416  30.233  1.00  0.00     0.037 A 
ATOM     53  C   UNL A   1      38.406  32.018  29.880  1.00  0.00     0.037 A 
ATOM     54  C   UNL A   1      44.768  30.774  30.685  1.00  0.00     0.049 A 
ATOM     55  C   UNL A   1      39.556  32.822  30.423  1.00  0.00     0.074 A 
ATOM     56  C   UNL A   1      45.748  31.628  31.157  1.00  0.00     0.029 A 
ATOM     57  N   UNL A   1      43.573  31.479  30.715  1.00  0.00    -0.354 N 
ATOM     58  N   UNL A   1      40.820  32.490  30.530  1.00  0.00    -0.248 NA
ATOM     59  C   UNL A   1      39.249  34.176  30.903  1.00  0.00     0.031 C 
ATOM     60  C   UNL A   1      45.142  32.839  31.507  1.00  0.00     0.029 A 
ATOM     61  C   UNL A   1      43.790  32.754  31.213  1.00  0.00     0.049 A 
ATOM     62  H   UNL A   1      42.702  31.127  30.426  1.00  0.00     0.167 HD
ATOM     63  C   UNL A   1      41.463  33.600  31.063  1.00  0.00     0.074 A 
ATOM     64  C   UNL A   1      40.451  34.621  31.243  1.00  0.00     0.031 C 
ATOM     65  C   UNL A   1      42.772  33.760  31.374  1.00  0.00     0.037 A 
BRANCH  52  66
ATOM     66  C   UNL A   1      46.250  28.762  30.321  1.00  0.00     0.064 A 
ATOM     67  C   UNL A   1      47.165  28.822  29.260  1.00  0.00     0.173 A 
ATOM     68  C   UNL A   1      46.641  28.089  31.488  1.00  0.00     0.173 A 
ATOM     69  F   UNL A   1      46.835  29.441  28.116  1.00  0.00    -0.203 F 
ATOM     70  C   UNL A   1      48.410  28.204  29.350  1.00  0.00     0.198 A 
ATOM     71  C   UNL A   1      47.898  27.498  31.587  1.00  0.00     0.198 A 
ATOM     72  F   UNL A   1      45.805  28.006  32.535  1.00  0.00    -0.203 F 
ATOM     73  F   UNL A   1      49.245  28.227  28.303  1.00  0.00    -0.200 F 
ATOM     74  C   UNL A   1      48.778  27.549  30.515  1.00  0.00     0.200 A 
ATOM     75  F   UNL A   1      48.257  26.875  32.717  1.00  0.00    -0.200 F 
ATOM     76  F   UNL A   1      49.977  26.957  30.602  1.00  0.00    -0.200 F 
ENDBRANCH  52  66
BRANCH  53  77
ATOM     77  C   UNL A   1      37.035  32.588  29.831  1.00  0.00     0.064 A 
ATOM     78  C   UNL A   1      36.151  32.422  30.905  1.00  0.00     0.173 A 
ATOM     79  C   UNL A   1      36.579  33.304  28.714  1.00  0.00     0.173 A 
ATOM     80  F   UNL A   1      36.535  31.728  31.986  1.00  0.00    -0.203 F 
ATOM     81  C   UNL A   1      34.855  32.932  30.858  1.00  0.00     0.198 A 
ATOM     82  C   UNL A   1      35.291  33.836  28.679  1.00  0.00     0.198 A 
ATOM     83  F   UNL A   1      37.388  33.495  27.662  1.00  0.00    -0.203 F 
ATOM     84  F   UNL A   1      34.016  32.721  31.882  1.00  0.00    -0.200 F 
ATOM     85  C   UNL A   1      34.428  33.642  29.747  1.00  0.00     0.200 A 
ATOM     86  F   UNL A   1      34.886  34.532  27.609  1.00  0.00    -0.200 F 
ATOM     87  F   UNL A   1      33.182  34.135  29.702  1.00  0.00    -0.200 F 
ENDBRANCH  53  77
BRANCH  65  88
ATOM     88  C   UNL A   1      43.193  35.095  31.910  1.00  0.00     0.064 A 
ATOM     89  C   UNL A   1      43.663  36.111  31.066  1.00  0.00     0.173 A 
ATOM     90  C   UNL A   1      43.081  35.376  33.281  1.00  0.00     0.173 A 
ATOM     91  F   UNL A   1      43.801  35.885  29.751  1.00  0.00    -0.203 F 
ATOM     92  C   UNL A   1      44.028  37.353  31.578  1.00  0.00     0.198 A 
ATOM     93  C   UNL A   1      43.420  36.628  33.784  1.00  0.00     0.198 A 
ATOM     94  F   UNL A   1      42.629  34.439  34.128  1.00  0.00    -0.203 F 
ATOM     95  F   UNL A   1      44.516  38.296  30.759  1.00  0.00    -0.200 F 
ATOM     96  C   UNL A   1      43.899  37.613  32.934  1.00  0.00     0.200 A 
ATOM     97  F   UNL A   1      43.284  36.881  35.093  1.00  0.00    -0.200 F 
ATOM     98  F   UNL A   1      44.244  38.812  33.423  1.00  0.00    -0.200 F 
ENDBRANCH  65  88
ENDBRANCH  39  40
ENDBRANCH  31  34
ENDBRANCH  29  30
ENDBRANCH  28  29
ENDBRANCH  27  28
ENDBRANCH   1  27
TORSDOF 17
ENDMDL
