MODEL 1
REMARK VINA RESULT:     -12.2      0.000      0.000
REMARK SMILES O=CN1CCN(S(=O)(=O)c2ccc(C(=O)NCCCCNC(=O)c3ccc(-c4c5nc(c(-c6c(F)c(F)c(F)c(F)c6F)c6ccc([nH]6)c(-c6c(F)c(F)c(F)c(F)c6F)c6nc(c(-c7c(F)c(F)c(F)c(F)c7F)c7ccc4[nH]7)C=C6)C=C5)cc3)cc2)CC1
REMARK SMILES IDX 18 1 17 2 16 3 14 4 15 5 13 7 10 8 11 9 88 10 12 11 87 12
REMARK SMILES IDX 7 13 8 14 9 15 6 16 1 17 2 18 3 19 4 20 90 21 5 22 89 23
REMARK SMILES IDX 19 24 20 25 21 26 22 27 23 29 24 30 25 31 86 32 26 33 85 34
REMARK SMILES IDX 27 35 28 36 29 37 79 38 30 39 84 40 78 41 80 42 31 43 83 44
REMARK SMILES IDX 77 45 76 46 32 48 64 49 44 50 63 51 45 52 48 53 62 54 81 55
REMARK SMILES IDX 46 56 47 57 61 59 82 60 49 61 33 62 34 63 42 64 35 65 36 66
REMARK SMILES IDX 40 67 43 68 37 69 38 70 41 71 39 72 65 73 66 74 74 75 67 76
REMARK SMILES IDX 68 77 72 78 75 79 69 80 70 81 73 82 71 83 50 84 51 85 59 86
REMARK SMILES IDX 52 87 53 88 57 89 60 90 54 91 55 92 58 93 56 94
REMARK H PARENT 16 6 21 28 80 47 48 58
REMARK Flexibility Score: inf
ROOT
ATOM      1  C   UNL A   1      32.919  29.653  25.071  1.00  0.00     0.023 C 
ENDROOT
BRANCH   1   2
ATOM      2  C   UNL A   1      31.420  29.354  25.103  1.00  0.00     0.116 C 
BRANCH   2   3
ATOM      3  N   UNL A   1      30.839  29.386  23.772  1.00  0.00    -0.352 N 
ATOM      4  C   UNL A   1      30.816  28.431  22.784  1.00  0.00     0.251 C 
ATOM      5  O   UNL A   1      30.140  28.633  21.778  1.00  0.00    -0.269 OA
ATOM      6  H   UNL A   1      30.389  30.230  23.539  1.00  0.00     0.163 HD
BRANCH   4   7
ATOM      7  C   UNL A   1      31.551  27.148  22.920  1.00  0.00     0.039 A 
ATOM      8  C   UNL A   1      33.005  24.767  23.107  1.00  0.00     0.082 A 
ATOM      9  C   UNL A   1      33.608  25.898  22.551  1.00  0.00     0.022 A 
ATOM     10  C   UNL A   1      31.713  24.839  23.635  1.00  0.00     0.022 A 
ATOM     11  C   UNL A   1      32.876  27.088  22.460  1.00  0.00     0.015 A 
ATOM     12  C   UNL A   1      30.995  26.030  23.547  1.00  0.00     0.015 A 
BRANCH   8  13
ATOM     13  S   UNL A   1      33.909  23.248  23.268  1.00  0.00     0.243 S 
ATOM     14  O   UNL A   1      35.135  23.393  22.507  1.00  0.00    -0.207 OA
ATOM     15  O   UNL A   1      33.006  22.154  22.995  1.00  0.00    -0.207 OA
BRANCH  13  16
ATOM     16  N   UNL A   1      34.318  23.173  24.925  1.00  0.00    -0.194 NA
ATOM     17  O   UNL A   1      39.216  22.602  26.077  1.00  0.00    -0.279 OA
ATOM     18  C   UNL A   1      38.275  21.856  25.838  1.00  0.00     0.340 C 
ATOM     19  N   UNL A   1      37.034  22.255  25.394  1.00  0.00    -0.343 N 
ATOM     20  C   UNL A   1      36.000  21.290  25.024  1.00  0.00     0.136 C 
ATOM     21  C   UNL A   1      36.791  23.654  25.058  1.00  0.00     0.136 C 
ATOM     22  C   UNL A   1      34.588  21.771  25.407  1.00  0.00     0.124 C 
ATOM     23  C   UNL A   1      35.377  24.095  25.448  1.00  0.00     0.124 C 
ENDBRANCH  13  16
ENDBRANCH   8  13
ENDBRANCH   4   7
ENDBRANCH   2   3
ENDBRANCH   1   2
BRANCH   1  24
ATOM     24  C   UNL A   1      33.796  28.605  25.756  1.00  0.00     0.023 C 
BRANCH  24  25
ATOM     25  C   UNL A   1      33.864  28.719  27.272  1.00  0.00     0.116 C 
BRANCH  25  26
ATOM     26  N   UNL A   1      33.853  30.094  27.752  1.00  0.00    -0.352 N 
ATOM     27  C   UNL A   1      34.870  30.776  28.379  1.00  0.00     0.251 C 
ATOM     28  H   UNL A   1      33.018  30.595  27.611  1.00  0.00     0.163 HD
ATOM     29  O   UNL A   1      34.700  31.910  28.811  1.00  0.00    -0.269 OA
BRANCH  27  30
ATOM     30  C   UNL A   1      36.165  30.092  28.564  1.00  0.00     0.039 A 
ATOM     31  C   UNL A   1      37.128  30.185  27.556  1.00  0.00     0.014 A 
ATOM     32  C   UNL A   1      36.449  29.444  29.767  1.00  0.00     0.014 A 
ATOM     33  C   UNL A   1      38.415  29.699  27.793  1.00  0.00     0.010 A 
ATOM     34  C   UNL A   1      37.746  29.019  30.024  1.00  0.00     0.010 A 
ATOM     35  C   UNL A   1      38.744  29.155  29.044  1.00  0.00    -0.014 A 
BRANCH  35  36
ATOM     36  C   UNL A   1      40.128  28.735  29.375  1.00  0.00     0.031 A 
ATOM     37  C   UNL A   1      41.034  29.677  30.111  1.00  0.00     0.074 A 
ATOM     38  C   UNL A   1      40.597  27.560  28.914  1.00  0.00     0.049 A 
ATOM     39  N   UNL A   1      42.316  29.576  30.351  1.00  0.00    -0.248 NA
ATOM     40  C   UNL A   1      40.422  30.917  30.615  1.00  0.00     0.031 C 
ATOM     41  C   UNL A   1      39.825  26.581  28.148  1.00  0.00     0.029 A 
ATOM     42  N   UNL A   1      41.849  27.003  28.998  1.00  0.00    -0.354 N 
ATOM     43  C   UNL A   1      42.669  30.749  31.004  1.00  0.00     0.074 A 
ATOM     44  C   UNL A   1      41.476  31.563  31.090  1.00  0.00     0.031 C 
ATOM     45  C   UNL A   1      40.617  25.542  27.838  1.00  0.00     0.029 A 
ATOM     46  C   UNL A   1      41.961  25.800  28.346  1.00  0.00     0.049 A 
ATOM     47  H   UNL A   1      42.595  27.427  29.480  1.00  0.00     0.167 HD
ATOM     48  C   UNL A   1      43.877  31.105  31.501  1.00  0.00     0.037 A 
ATOM     49  C   UNL A   1      43.032  25.004  28.163  1.00  0.00     0.037 A 
ATOM     50  C   UNL A   1      45.050  30.274  31.445  1.00  0.00     0.049 A 
ATOM     51  C   UNL A   1      44.359  25.415  28.739  1.00  0.00     0.074 A 
ATOM     52  C   UNL A   1      46.304  30.515  31.978  1.00  0.00     0.029 A 
ATOM     53  N   UNL A   1      45.112  29.038  30.820  1.00  0.00    -0.354 N 
ATOM     54  N   UNL A   1      44.671  26.501  29.405  1.00  0.00    -0.248 NA
ATOM     55  C   UNL A   1      45.484  24.489  28.542  1.00  0.00     0.031 C 
ATOM     56  C   UNL A   1      47.135  29.441  31.645  1.00  0.00     0.029 A 
ATOM     57  C   UNL A   1      46.386  28.510  30.942  1.00  0.00     0.049 A 
ATOM     58  H   UNL A   1      44.361  28.600  30.358  1.00  0.00     0.167 HD
ATOM     59  C   UNL A   1      46.013  26.375  29.733  1.00  0.00     0.074 A 
ATOM     60  C   UNL A   1      46.458  25.106  29.197  1.00  0.00     0.031 C 
ATOM     61  C   UNL A   1      46.805  27.235  30.418  1.00  0.00     0.037 A 
BRANCH  48  62
ATOM     62  C   UNL A   1      43.989  32.454  32.147  1.00  0.00     0.064 A 
ATOM     63  C   UNL A   1      43.742  32.637  33.516  1.00  0.00     0.173 A 
ATOM     64  C   UNL A   1      44.374  33.573  31.394  1.00  0.00     0.173 A 
ATOM     65  F   UNL A   1      43.357  31.601  34.276  1.00  0.00    -0.203 F 
ATOM     66  C   UNL A   1      43.845  33.896  34.100  1.00  0.00     0.198 A 
ATOM     67  C   UNL A   1      44.506  34.825  31.988  1.00  0.00     0.198 A 
ATOM     68  F   UNL A   1      44.626  33.451  30.081  1.00  0.00    -0.203 F 
ATOM     69  F   UNL A   1      43.555  34.057  35.398  1.00  0.00    -0.200 F 
ATOM     70  C   UNL A   1      44.234  34.987  33.338  1.00  0.00     0.200 A 
ATOM     71  F   UNL A   1      44.891  35.876  31.251  1.00  0.00    -0.200 F 
ATOM     72  F   UNL A   1      44.337  36.198  33.902  1.00  0.00    -0.200 F 
ENDBRANCH  48  62
BRANCH  49  73
ATOM     73  C   UNL A   1      42.886  23.728  27.418  1.00  0.00     0.064 A 
ATOM     74  C   UNL A   1      43.236  23.646  26.063  1.00  0.00     0.173 A 
ATOM     75  C   UNL A   1      42.404  22.568  28.041  1.00  0.00     0.173 A 
ATOM     76  F   UNL A   1      43.683  24.734  25.420  1.00  0.00    -0.203 F 
ATOM     77  C   UNL A   1      43.094  22.454  25.355  1.00  0.00     0.198 A 
ATOM     78  C   UNL A   1      42.285  21.370  27.337  1.00  0.00     0.198 A 
ATOM     79  F   UNL A   1      42.061  22.595  29.336  1.00  0.00    -0.203 F 
ATOM     80  F   UNL A   1      43.400  22.413  24.051  1.00  0.00    -0.200 F 
ATOM     81  C   UNL A   1      42.625  21.316  25.994  1.00  0.00     0.200 A 
ATOM     82  F   UNL A   1      41.845  20.270  27.962  1.00  0.00    -0.200 F 
ATOM     83  F   UNL A   1      42.494  20.170  25.314  1.00  0.00    -0.200 F 
ENDBRANCH  49  73
BRANCH  61  84
ATOM     84  C   UNL A   1      48.222  26.815  30.673  1.00  0.00     0.064 A 
ATOM     85  C   UNL A   1      48.558  25.966  31.736  1.00  0.00     0.173 A 
ATOM     86  C   UNL A   1      49.245  27.219  29.802  1.00  0.00     0.173 A 
ATOM     87  F   UNL A   1      47.615  25.566  32.603  1.00  0.00    -0.203 F 
ATOM     88  C   UNL A   1      49.871  25.547  31.927  1.00  0.00     0.198 A 
ATOM     89  C   UNL A   1      50.553  26.778  29.981  1.00  0.00     0.198 A 
ATOM     90  F   UNL A   1      48.973  28.028  28.767  1.00  0.00    -0.203 F 
ATOM     91  F   UNL A   1      50.178  24.762  32.969  1.00  0.00    -0.200 F 
ATOM     92  C   UNL A   1      50.865  25.945  31.045  1.00  0.00     0.200 A 
ATOM     93  F   UNL A   1      51.510  27.155  29.122  1.00  0.00    -0.200 F 
ATOM     94  F   UNL A   1      52.127  25.532  31.224  1.00  0.00    -0.200 F 
ENDBRANCH  61  84
ENDBRANCH  35  36
ENDBRANCH  27  30
ENDBRANCH  25  26
ENDBRANCH  24  25
ENDBRANCH   1  24
TORSDOF 13
ENDMDL
MODEL 2
REMARK VINA RESULT:     -12.1      0.322      1.692
REMARK SMILES O=CN1CCN(S(=O)(=O)c2ccc(C(=O)NCCCCNC(=O)c3ccc(-c4c5nc(c(-c6c(F)c(F)c(F)c(F)c6F)c6ccc([nH]6)c(-c6c(F)c(F)c(F)c(F)c6F)c6nc(c(-c7c(F)c(F)c(F)c(F)c7F)c7ccc4[nH]7)C=C6)C=C5)cc3)cc2)CC1
REMARK SMILES IDX 18 1 17 2 16 3 14 4 15 5 13 7 10 8 11 9 88 10 12 11 87 12
REMARK SMILES IDX 7 13 8 14 9 15 6 16 1 17 2 18 3 19 4 20 90 21 5 22 89 23
REMARK SMILES IDX 19 24 20 25 21 26 22 27 23 29 24 30 25 31 86 32 26 33 85 34
REMARK SMILES IDX 27 35 28 36 29 37 79 38 30 39 84 40 78 41 80 42 31 43 83 44
REMARK SMILES IDX 77 45 76 46 32 48 64 49 44 50 63 51 45 52 48 53 62 54 81 55
REMARK SMILES IDX 46 56 47 57 61 59 82 60 49 61 33 62 34 63 42 64 35 65 36 66
REMARK SMILES IDX 40 67 43 68 37 69 38 70 41 71 39 72 65 73 66 74 74 75 67 76
REMARK SMILES IDX 68 77 72 78 75 79 69 80 70 81 73 82 71 83 50 84 51 85 59 86
REMARK SMILES IDX 52 87 53 88 57 89 60 90 54 91 55 92 58 93 56 94
REMARK H PARENT 16 6 21 28 80 47 48 58
REMARK Flexibility Score: inf
ROOT
ATOM      1  C   UNL A   1      32.905  29.600  25.059  1.00  0.00     0.023 C 
ENDROOT
BRANCH   1   2
ATOM      2  C   UNL A   1      31.378  29.512  25.032  1.00  0.00     0.116 C 
BRANCH   2   3
ATOM      3  N   UNL A   1      30.859  29.647  23.683  1.00  0.00    -0.352 N 
ATOM      4  C   UNL A   1      30.821  28.745  22.646  1.00  0.00     0.251 C 
ATOM      5  O   UNL A   1      30.202  29.038  21.626  1.00  0.00    -0.269 OA
ATOM      6  H   UNL A   1      30.472  30.528  23.476  1.00  0.00     0.163 HD
BRANCH   4   7
ATOM      7  C   UNL A   1      31.470  27.413  22.744  1.00  0.00     0.039 A 
ATOM      8  C   UNL A   1      32.614  24.873  22.989  1.00  0.00     0.082 A 
ATOM      9  C   UNL A   1      31.277  25.061  23.346  1.00  0.00     0.022 A 
ATOM     10  C   UNL A   1      33.357  25.924  22.443  1.00  0.00     0.022 A 
ATOM     11  C   UNL A   1      30.707  26.335  23.221  1.00  0.00     0.015 A 
ATOM     12  C   UNL A   1      32.780  27.186  22.315  1.00  0.00     0.015 A 
BRANCH   8  13
ATOM     13  S   UNL A   1      33.363  23.268  23.104  1.00  0.00     0.243 S 
ATOM     14  O   UNL A   1      34.622  23.327  22.387  1.00  0.00    -0.207 OA
ATOM     15  O   UNL A   1      32.369  22.281  22.755  1.00  0.00    -0.207 OA
BRANCH  13  16
ATOM     16  N   UNL A   1      33.708  23.081  24.767  1.00  0.00    -0.194 NA
ATOM     17  O   UNL A   1      38.582  22.722  26.093  1.00  0.00    -0.279 OA
ATOM     18  C   UNL A   1      37.703  21.941  25.752  1.00  0.00     0.340 C 
ATOM     19  N   UNL A   1      36.458  22.298  25.285  1.00  0.00    -0.343 N 
ATOM     20  C   UNL A   1      35.505  21.304  24.792  1.00  0.00     0.136 C 
ATOM     21  C   UNL A   1      36.137  23.702  25.052  1.00  0.00     0.136 C 
ATOM     22  C   UNL A   1      34.050  21.664  25.147  1.00  0.00     0.124 C 
ATOM     23  C   UNL A   1      34.682  24.020  25.410  1.00  0.00     0.124 C 
ENDBRANCH  13  16
ENDBRANCH   8  13
ENDBRANCH   4   7
ENDBRANCH   2   3
ENDBRANCH   1   2
BRANCH   1  24
ATOM     24  C   UNL A   1      33.601  28.426  25.748  1.00  0.00     0.023 C 
BRANCH  24  25
ATOM     25  C   UNL A   1      33.803  28.590  27.248  1.00  0.00     0.116 C 
BRANCH  25  26
ATOM     26  N   UNL A   1      33.803  29.980  27.684  1.00  0.00    -0.352 N 
ATOM     27  C   UNL A   1      34.834  30.679  28.267  1.00  0.00     0.251 C 
ATOM     28  H   UNL A   1      32.965  30.477  27.546  1.00  0.00     0.163 HD
ATOM     29  O   UNL A   1      34.674  31.826  28.668  1.00  0.00    -0.269 OA
BRANCH  27  30
ATOM     30  C   UNL A   1      36.131  30.000  28.446  1.00  0.00     0.039 A 
ATOM     31  C   UNL A   1      37.084  30.083  27.427  1.00  0.00     0.014 A 
ATOM     32  C   UNL A   1      36.430  29.366  29.653  1.00  0.00     0.014 A 
ATOM     33  C   UNL A   1      38.374  29.601  27.654  1.00  0.00     0.010 A 
ATOM     34  C   UNL A   1      37.731  28.946  29.901  1.00  0.00     0.010 A 
ATOM     35  C   UNL A   1      38.718  29.072  28.908  1.00  0.00    -0.014 A 
BRANCH  35  36
ATOM     36  C   UNL A   1      40.105  28.658  29.228  1.00  0.00     0.031 A 
ATOM     37  C   UNL A   1      41.024  29.616  29.928  1.00  0.00     0.074 A 
ATOM     38  C   UNL A   1      40.566  27.471  28.789  1.00  0.00     0.049 A 
ATOM     39  N   UNL A   1      42.309  29.518  30.151  1.00  0.00    -0.248 NA
ATOM     40  C   UNL A   1      40.421  30.868  30.410  1.00  0.00     0.031 C 
ATOM     41  C   UNL A   1      39.781  26.475  28.058  1.00  0.00     0.029 A 
ATOM     42  N   UNL A   1      41.819  26.914  28.868  1.00  0.00    -0.354 N 
ATOM     43  C   UNL A   1      42.674  30.705  30.770  1.00  0.00     0.074 A 
ATOM     44  C   UNL A   1      41.483  31.524  30.855  1.00  0.00     0.031 C 
ATOM     45  C   UNL A   1      40.567  25.427  27.762  1.00  0.00     0.029 A 
ATOM     46  C   UNL A   1      41.919  25.695  28.244  1.00  0.00     0.049 A 
ATOM     47  H   UNL A   1      42.572  27.348  29.329  1.00  0.00     0.167 HD
ATOM     48  C   UNL A   1      43.889  31.071  31.240  1.00  0.00     0.037 A 
ATOM     49  C   UNL A   1      42.986  24.894  28.064  1.00  0.00     0.037 A 
ATOM     50  C   UNL A   1      45.060  30.238  31.187  1.00  0.00     0.049 A 
ATOM     51  C   UNL A   1      44.322  25.316  28.610  1.00  0.00     0.074 A 
ATOM     52  C   UNL A   1      46.322  30.489  31.696  1.00  0.00     0.029 A 
ATOM     53  N   UNL A   1      45.111  28.987  30.591  1.00  0.00    -0.354 N 
ATOM     54  N   UNL A   1      44.646  26.416  29.245  1.00  0.00    -0.248 NA
ATOM     55  C   UNL A   1      45.443  24.383  28.419  1.00  0.00     0.031 C 
ATOM     56  C   UNL A   1      47.146  29.406  31.376  1.00  0.00     0.029 A 
ATOM     57  C   UNL A   1      46.386  28.459  30.707  1.00  0.00     0.049 A 
ATOM     58  H   UNL A   1      44.353  28.539  30.151  1.00  0.00     0.167 HD
ATOM     59  C   UNL A   1      45.992  26.297  29.556  1.00  0.00     0.074 A 
ATOM     60  C   UNL A   1      46.427  25.014  29.044  1.00  0.00     0.031 C 
ATOM     61  C   UNL A   1      46.796  27.172  30.208  1.00  0.00     0.037 A 
BRANCH  48  62
ATOM     62  C   UNL A   1      44.013  32.436  31.852  1.00  0.00     0.064 A 
ATOM     63  C   UNL A   1      43.865  32.639  33.232  1.00  0.00     0.173 A 
ATOM     64  C   UNL A   1      44.308  33.549  31.052  1.00  0.00     0.173 A 
ATOM     65  F   UNL A   1      43.568  31.609  34.038  1.00  0.00    -0.203 F 
ATOM     66  C   UNL A   1      43.978  33.912  33.784  1.00  0.00     0.198 A 
ATOM     67  C   UNL A   1      44.450  34.816  31.611  1.00  0.00     0.198 A 
ATOM     68  F   UNL A   1      44.463  33.407  29.726  1.00  0.00    -0.203 F 
ATOM     69  F   UNL A   1      43.783  34.090  35.098  1.00  0.00    -0.200 F 
ATOM     70  C   UNL A   1      44.277  34.998  32.975  1.00  0.00     0.200 A 
ATOM     71  F   UNL A   1      44.749  35.862  30.829  1.00  0.00    -0.200 F 
ATOM     72  F   UNL A   1      44.390  36.222  33.509  1.00  0.00    -0.200 F 
ENDBRANCH  48  62
BRANCH  49  73
ATOM     73  C   UNL A   1      42.827  23.600  27.352  1.00  0.00     0.064 A 
ATOM     74  C   UNL A   1      42.276  22.487  28.002  1.00  0.00     0.173 A 
ATOM     75  C   UNL A   1      43.215  23.450  26.013  1.00  0.00     0.173 A 
ATOM     76  F   UNL A   1      41.910  22.578  29.289  1.00  0.00    -0.203 F 
ATOM     77  C   UNL A   1      42.132  21.268  27.344  1.00  0.00     0.198 A 
ATOM     78  C   UNL A   1      43.048  22.236  25.348  1.00  0.00     0.198 A 
ATOM     79  F   UNL A   1      43.742  24.486  25.346  1.00  0.00    -0.203 F 
ATOM     80  F   UNL A   1      41.637  20.210  28.000  1.00  0.00    -0.200 F 
ATOM     81  C   UNL A   1      42.512  21.145  26.016  1.00  0.00     0.200 A 
ATOM     82  F   UNL A   1      43.403  22.125  24.061  1.00  0.00    -0.200 F 
ATOM     83  F   UNL A   1      42.368  19.974  25.381  1.00  0.00    -0.200 F 
ENDBRANCH  49  73
BRANCH  61  84
ATOM     84  C   UNL A   1      48.216  26.755  30.452  1.00  0.00     0.064 A 
ATOM     85  C   UNL A   1      49.254  27.143  29.594  1.00  0.00     0.173 A 
ATOM     86  C   UNL A   1      48.545  26.011  31.595  1.00  0.00     0.173 A 
ATOM     87  F   UNL A   1      48.984  27.843  28.482  1.00  0.00    -0.203 F 
ATOM     88  C   UNL A   1      50.572  26.787  29.865  1.00  0.00     0.198 A 
ATOM     89  C   UNL A   1      49.868  25.679  31.875  1.00  0.00     0.198 A 
ATOM     90  F   UNL A   1      47.587  25.620  32.448  1.00  0.00    -0.203 F 
ATOM     91  F   UNL A   1      51.547  27.139  29.015  1.00  0.00    -0.200 F 
ATOM     92  C   UNL A   1      50.879  26.065  31.008  1.00  0.00     0.200 A 
ATOM     93  F   UNL A   1      50.164  24.990  32.985  1.00  0.00    -0.200 F 
ATOM     94  F   UNL A   1      52.151  25.734  31.272  1.00  0.00    -0.200 F 
ENDBRANCH  61  84
ENDBRANCH  35  36
ENDBRANCH  27  30
ENDBRANCH  25  26
ENDBRANCH  24  25
ENDBRANCH   1  24
TORSDOF 13
ENDMDL
MODEL 3
REMARK VINA RESULT:     -12.1      3.049      8.829
REMARK SMILES O=CN1CCN(S(=O)(=O)c2ccc(C(=O)NCCCCNC(=O)c3ccc(-c4c5nc(c(-c6c(F)c(F)c(F)c(F)c6F)c6ccc([nH]6)c(-c6c(F)c(F)c(F)c(F)c6F)c6nc(c(-c7c(F)c(F)c(F)c(F)c7F)c7ccc4[nH]7)C=C6)C=C5)cc3)cc2)CC1
REMARK SMILES IDX 18 1 17 2 16 3 14 4 15 5 13 7 10 8 11 9 88 10 12 11 87 12
REMARK SMILES IDX 7 13 8 14 9 15 6 16 1 17 2 18 3 19 4 20 90 21 5 22 89 23
REMARK SMILES IDX 19 24 20 25 21 26 22 27 23 29 24 30 25 31 86 32 26 33 85 34
REMARK SMILES IDX 27 35 28 36 29 37 79 38 30 39 84 40 78 41 80 42 31 43 83 44
REMARK SMILES IDX 77 45 76 46 32 48 64 49 44 50 63 51 45 52 48 53 62 54 81 55
REMARK SMILES IDX 46 56 47 57 61 59 82 60 49 61 33 62 34 63 42 64 35 65 36 66
REMARK SMILES IDX 40 67 43 68 37 69 38 70 41 71 39 72 65 73 66 74 74 75 67 76
REMARK SMILES IDX 68 77 72 78 75 79 69 80 70 81 73 82 71 83 50 84 51 85 59 86
REMARK SMILES IDX 52 87 53 88 57 89 60 90 54 91 55 92 58 93 56 94
REMARK H PARENT 16 6 21 28 80 47 48 58
REMARK Flexibility Score: inf
ROOT
ATOM      1  C   UNL A   1      35.694  21.830  26.155  1.00  0.00     0.023 C 
ENDROOT
BRANCH   1   2
ATOM      2  C   UNL A   1      35.247  21.256  24.810  1.00  0.00     0.116 C 
BRANCH   2   3
ATOM      3  N   UNL A   1      34.060  20.431  24.949  1.00  0.00    -0.352 N 
ATOM      4  C   UNL A   1      32.739  20.782  25.088  1.00  0.00     0.251 C 
ATOM      5  O   UNL A   1      31.882  19.901  25.051  1.00  0.00    -0.269 OA
ATOM      6  H   UNL A   1      34.230  19.461  24.944  1.00  0.00     0.163 HD
BRANCH   4   7
ATOM      7  C   UNL A   1      32.317  22.198  25.239  1.00  0.00     0.039 A 
ATOM      8  C   UNL A   1      31.538  24.877  25.422  1.00  0.00     0.082 A 
ATOM      9  C   UNL A   1      31.573  24.255  24.171  1.00  0.00     0.022 A 
ATOM     10  C   UNL A   1      31.815  24.150  26.583  1.00  0.00     0.022 A 
ATOM     11  C   UNL A   1      31.963  22.913  24.085  1.00  0.00     0.015 A 
ATOM     12  C   UNL A   1      32.196  22.813  26.488  1.00  0.00     0.015 A 
BRANCH   8  13
ATOM     13  S   UNL A   1      31.019  26.567  25.577  1.00  0.00     0.243 S 
ATOM     14  O   UNL A   1      30.884  26.849  26.992  1.00  0.00    -0.207 OA
ATOM     15  O   UNL A   1      29.907  26.781  24.680  1.00  0.00    -0.207 OA
BRANCH  13  16
ATOM     16  N   UNL A   1      32.340  27.471  24.979  1.00  0.00    -0.194 NA
ATOM     17  O   UNL A   1      34.431  30.859  28.108  1.00  0.00    -0.279 OA
ATOM     18  C   UNL A   1      33.515  30.859  27.296  1.00  0.00     0.340 C 
ATOM     19  N   UNL A   1      33.021  29.747  26.652  1.00  0.00    -0.343 N 
ATOM     20  C   UNL A   1      31.849  29.817  25.780  1.00  0.00     0.136 C 
ATOM     21  C   UNL A   1      33.512  28.418  27.002  1.00  0.00     0.136 C 
ATOM     22  C   UNL A   1      31.964  28.872  24.570  1.00  0.00     0.124 C 
ATOM     23  C   UNL A   1      33.608  27.506  25.776  1.00  0.00     0.124 C 
ENDBRANCH  13  16
ENDBRANCH   8  13
ENDBRANCH   4   7
ENDBRANCH   2   3
ENDBRANCH   1   2
BRANCH   1  24
ATOM     24  C   UNL A   1      36.047  23.317  26.130  1.00  0.00     0.023 C 
BRANCH  24  25
ATOM     25  C   UNL A   1      37.281  23.669  25.310  1.00  0.00     0.116 C 
BRANCH  25  26
ATOM     26  N   UNL A   1      38.421  22.802  25.574  1.00  0.00    -0.352 N 
ATOM     27  C   UNL A   1      39.572  23.109  26.260  1.00  0.00     0.251 C 
ATOM     28  H   UNL A   1      38.359  21.886  25.219  1.00  0.00     0.163 HD
ATOM     29  O   UNL A   1      40.496  22.309  26.338  1.00  0.00    -0.269 OA
BRANCH  27  30
ATOM     30  C   UNL A   1      39.693  24.450  26.865  1.00  0.00     0.039 A 
ATOM     31  C   UNL A   1      39.247  24.644  28.175  1.00  0.00     0.014 A 
ATOM     32  C   UNL A   1      40.328  25.479  26.167  1.00  0.00     0.014 A 
ATOM     33  C   UNL A   1      39.517  25.852  28.819  1.00  0.00     0.010 A 
ATOM     34  C   UNL A   1      40.653  26.656  26.830  1.00  0.00     0.010 A 
ATOM     35  C   UNL A   1      40.262  26.847  28.166  1.00  0.00    -0.014 A 
BRANCH  35  36
ATOM     36  C   UNL A   1      40.671  28.096  28.855  1.00  0.00     0.031 A 
ATOM     37  C   UNL A   1      42.053  28.210  29.428  1.00  0.00     0.074 A 
ATOM     38  C   UNL A   1      39.766  29.071  29.061  1.00  0.00     0.049 A 
ATOM     39  N   UNL A   1      42.554  29.136  30.204  1.00  0.00    -0.248 NA
ATOM     40  C   UNL A   1      42.985  27.116  29.114  1.00  0.00     0.031 C 
ATOM     41  C   UNL A   1      38.380  29.055  28.592  1.00  0.00     0.029 A 
ATOM     42  N   UNL A   1      39.870  30.256  29.747  1.00  0.00    -0.354 N 
ATOM     43  C   UNL A   1      43.847  28.722  30.495  1.00  0.00     0.074 A 
ATOM     44  C   UNL A   1      44.041  27.444  29.844  1.00  0.00     0.031 C 
ATOM     45  C   UNL A   1      37.765  30.178  28.997  1.00  0.00     0.029 A 
ATOM     46  C   UNL A   1      38.700  30.973  29.789  1.00  0.00     0.049 A 
ATOM     47  H   UNL A   1      40.705  30.563  30.168  1.00  0.00     0.167 HD
ATOM     48  C   UNL A   1      44.791  29.360  31.226  1.00  0.00     0.037 A 
ATOM     49  C   UNL A   1      38.408  32.130  30.411  1.00  0.00     0.037 A 
ATOM     50  C   UNL A   1      44.604  30.648  31.839  1.00  0.00     0.049 A 
ATOM     51  C   UNL A   1      39.479  32.827  31.204  1.00  0.00     0.074 A 
ATOM     52  C   UNL A   1      45.519  31.409  32.544  1.00  0.00     0.029 A 
ATOM     53  N   UNL A   1      43.418  31.367  31.818  1.00  0.00    -0.354 N 
ATOM     54  N   UNL A   1      40.717  32.456  31.427  1.00  0.00    -0.248 NA
ATOM     55  C   UNL A   1      39.116  34.107  31.830  1.00  0.00     0.031 C 
ATOM     56  C   UNL A   1      44.878  32.573  32.979  1.00  0.00     0.029 A 
ATOM     57  C   UNL A   1      43.574  32.557  32.507  1.00  0.00     0.049 A 
ATOM     58  H   UNL A   1      42.588  31.075  31.376  1.00  0.00     0.167 HD
ATOM     59  C   UNL A   1      41.288  33.466  32.189  1.00  0.00     0.074 A 
ATOM     60  C   UNL A   1      40.263  34.470  32.387  1.00  0.00     0.031 C 
ATOM     61  C   UNL A   1      42.548  33.553  32.678  1.00  0.00     0.037 A 
BRANCH  48  62
ATOM     62  C   UNL A   1      46.111  28.671  31.404  1.00  0.00     0.064 A 
ATOM     63  C   UNL A   1      46.350  27.806  32.482  1.00  0.00     0.173 A 
ATOM     64  C   UNL A   1      47.141  28.857  30.470  1.00  0.00     0.173 A 
ATOM     65  F   UNL A   1      45.402  27.606  33.410  1.00  0.00    -0.203 F 
ATOM     66  C   UNL A   1      47.582  27.177  32.636  1.00  0.00     0.198 A 
ATOM     67  C   UNL A   1      48.362  28.202  30.611  1.00  0.00     0.198 A 
ATOM     68  F   UNL A   1      46.961  29.671  29.418  1.00  0.00    -0.203 F 
ATOM     69  F   UNL A   1      47.805  26.395  33.701  1.00  0.00    -0.200 F 
ATOM     70  C   UNL A   1      48.584  27.370  31.697  1.00  0.00     0.200 A 
ATOM     71  F   UNL A   1      49.325  28.382  29.697  1.00  0.00    -0.200 F 
ATOM     72  F   UNL A   1      49.768  26.760  31.844  1.00  0.00    -0.200 F 
ENDBRANCH  48  62
BRANCH  49  73
ATOM     73  C   UNL A   1      37.047  32.713  30.291  1.00  0.00     0.064 A 
ATOM     74  C   UNL A   1      36.070  32.456  31.263  1.00  0.00     0.173 A 
ATOM     75  C   UNL A   1      36.698  33.539  29.213  1.00  0.00     0.173 A 
ATOM     76  F   UNL A   1      36.352  31.656  32.301  1.00  0.00    -0.203 F 
ATOM     77  C   UNL A   1      34.788  32.992  31.153  1.00  0.00     0.198 A 
ATOM     78  C   UNL A   1      35.423  34.094  29.117  1.00  0.00     0.198 A 
ATOM     79  F   UNL A   1      37.599  33.818  28.262  1.00  0.00    -0.203 F 
ATOM     80  F   UNL A   1      33.862  32.700  32.075  1.00  0.00    -0.200 F 
ATOM     81  C   UNL A   1      34.468  33.815  30.084  1.00  0.00     0.200 A 
ATOM     82  F   UNL A   1      35.121  34.900  28.091  1.00  0.00    -0.200 F 
ATOM     83  F   UNL A   1      33.238  34.335  29.981  1.00  0.00    -0.200 F 
ENDBRANCH  49  73
BRANCH  61  84
ATOM     84  C   UNL A   1      42.910  34.797  33.435  1.00  0.00     0.064 A 
ATOM     85  C   UNL A   1      42.852  34.850  34.834  1.00  0.00     0.173 A 
ATOM     86  C   UNL A   1      43.382  35.927  32.749  1.00  0.00     0.173 A 
ATOM     87  F   UNL A   1      42.393  33.799  35.530  1.00  0.00    -0.203 F 
ATOM     88  C   UNL A   1      43.239  35.997  35.521  1.00  0.00     0.198 A 
ATOM     89  C   UNL A   1      43.792  37.063  33.441  1.00  0.00     0.198 A 
ATOM     90  F   UNL A   1      43.461  35.922  31.410  1.00  0.00    -0.203 F 
ATOM     91  F   UNL A   1      43.144  36.040  36.856  1.00  0.00    -0.200 F 
ATOM     92  C   UNL A   1      43.717  37.098  34.825  1.00  0.00     0.200 A 
ATOM     93  F   UNL A   1      44.264  38.121  32.768  1.00  0.00    -0.200 F 
ATOM     94  F   UNL A   1      44.100  38.197  35.489  1.00  0.00    -0.200 F 
ENDBRANCH  61  84
ENDBRANCH  35  36
ENDBRANCH  27  30
ENDBRANCH  25  26
ENDBRANCH  24  25
ENDBRANCH   1  24
TORSDOF 13
ENDMDL
