MODEL 1
REMARK VINA RESULT:     -13.7      0.000      0.000
REMARK SMILES Nc1nccc(N2CCC[C@@](Cc3ccc(F)cc3F)(C(=O)NCCCCNC(=O)c3ccc(-c4c5nc(c(-c6c(F)c(F)c(F)c(F)c6F)c6ccc([nH]6)c(-c6c(F)c(F)c(F)c(F)c6F)c6nc(c(-c7c(F)c(F)c(F)c(F)c7F)c7ccc4[nH]7)C=C6)C=C5)cc3)C2)n1
REMARK SMILES IDX 25 1 24 2 23 3 21 4 22 5 11 7 7 8 8 9 94 10 9 11 10 12 6 13
REMARK SMILES IDX 2 14 3 15 95 16 4 17 5 18 1 19 12 22 13 23 14 24 19 25 15 26
REMARK SMILES IDX 18 27 20 28 16 29 17 30 26 31 27 32 28 33 29 34 30 36 31 37
REMARK SMILES IDX 32 38 93 39 33 40 92 41 34 42 35 43 36 44 86 45 37 46 91 47
REMARK SMILES IDX 85 48 87 49 38 50 90 51 84 52 83 53 39 55 71 56 51 57 70 58
REMARK SMILES IDX 52 59 55 60 69 61 88 62 53 63 54 64 68 66 89 67 56 68 40 69
REMARK SMILES IDX 41 70 49 71 42 72 43 73 47 74 50 75 44 76 45 77 48 78 46 79
REMARK SMILES IDX 72 80 73 81 81 82 74 83 75 84 79 85 82 86 76 87 77 88 80 89
REMARK SMILES IDX 78 90 57 91 58 92 66 93 59 94 60 95 64 96 67 97 61 98 62 99
REMARK SMILES IDX 65 100 63 101
REMARK H PARENT 23 6 1 20 1 21 28 35 87 54 55 65
REMARK Flexibility Score: inf
ROOT
ATOM      1  C   UNL A   1      32.096  30.475  26.800  1.00  0.00     0.023 C 
ENDROOT
BRANCH   1   2
ATOM      2  C   UNL A   1      31.827  29.851  25.438  1.00  0.00     0.116 C 
BRANCH   2   3
ATOM      3  N   UNL A   1      32.950  29.112  24.900  1.00  0.00    -0.356 N 
ATOM      4  C   UNL A   1      33.070  27.830  24.451  1.00  0.00     0.228 C 
ATOM      5  O   UNL A   1      34.117  27.593  23.838  1.00  0.00    -0.274 OA
ATOM      6  H   UNL A   1      33.784  29.633  24.850  1.00  0.00     0.163 HD
BRANCH   4   7
ATOM      7  C   UNL A   1      31.999  26.733  24.657  1.00  0.00     0.071 C 
ATOM      8  N   UNL A   1      31.847  24.312  25.089  1.00  0.00    -0.355 N 
ATOM      9  C   UNL A   1      31.245  24.387  26.407  1.00  0.00     0.118 C 
ATOM     10  C   UNL A   1      32.794  25.375  24.751  1.00  0.00     0.135 C 
ATOM     11  C   UNL A   1      30.452  25.683  26.478  1.00  0.00     0.023 C 
ATOM     12  C   UNL A   1      31.264  26.899  26.020  1.00  0.00     0.021 C 
BRANCH   8  13
ATOM     13  C   UNL A   1      31.984  23.064  24.512  1.00  0.00     0.134 A 
ATOM     14  C   UNL A   1      32.310  20.807  24.667  1.00  0.00     0.221 A 
ATOM     15  N   UNL A   1      32.295  20.623  23.342  1.00  0.00    -0.222 NA
ATOM     16  N   UNL A   1      32.183  21.987  25.284  1.00  0.00    -0.196 NA
ATOM     17  C   UNL A   1      32.123  21.722  22.597  1.00  0.00     0.119 A 
ATOM     18  C   UNL A   1      31.943  22.970  23.133  1.00  0.00     0.067 A 
BRANCH  14  19
ATOM     19  N   UNL A   1      32.435  19.692  25.444  1.00  0.00    -0.368 N 
ATOM     20  H   UNL A   1      32.953  18.921  25.118  1.00  0.00     0.159 HD
ATOM     21  H   UNL A   1      32.006  19.659  26.329  1.00  0.00     0.159 HD
ENDBRANCH  14  19
ENDBRANCH   8  13
BRANCH   7  22
ATOM     22  C   UNL A   1      31.080  26.576  23.400  1.00  0.00     0.057 C 
BRANCH  22  23
ATOM     23  C   UNL A   1      30.078  27.641  23.032  1.00  0.00    -0.011 A 
ATOM     24  C   UNL A   1      30.477  28.768  22.294  1.00  0.00     0.010 A 
ATOM     25  C   UNL A   1      28.728  27.515  23.381  1.00  0.00     0.129 A 
ATOM     26  C   UNL A   1      29.548  29.754  21.960  1.00  0.00     0.040 A 
ATOM     27  C   UNL A   1      27.798  28.495  23.057  1.00  0.00     0.078 A 
ATOM     28  F   UNL A   1      28.313  26.442  24.067  1.00  0.00    -0.207 F 
ATOM     29  C   UNL A   1      28.220  29.611  22.351  1.00  0.00     0.126 A 
ATOM     30  F   UNL A   1      27.339  30.571  22.045  1.00  0.00    -0.207 F 
ENDBRANCH  22  23
ENDBRANCH   7  22
ENDBRANCH   4   7
ENDBRANCH   2   3
ENDBRANCH   1   2
BRANCH   1  31
ATOM     31  C   UNL A   1      31.781  31.967  26.894  1.00  0.00     0.023 C 
BRANCH  31  32
ATOM     32  C   UNL A   1      32.866  32.842  27.518  1.00  0.00     0.116 C 
BRANCH  32  33
ATOM     33  N   UNL A   1      32.464  34.225  27.749  1.00  0.00    -0.352 N 
ATOM     34  C   UNL A   1      33.018  35.123  28.635  1.00  0.00     0.251 C 
ATOM     35  H   UNL A   1      31.710  34.554  27.210  1.00  0.00     0.163 HD
ATOM     36  O   UNL A   1      32.555  36.249  28.779  1.00  0.00    -0.269 OA
BRANCH  34  37
ATOM     37  C   UNL A   1      34.156  34.674  29.455  1.00  0.00     0.039 A 
ATOM     38  C   UNL A   1      33.902  34.129  30.716  1.00  0.00     0.014 A 
ATOM     39  C   UNL A   1      35.443  34.667  28.913  1.00  0.00     0.014 A 
ATOM     40  C   UNL A   1      34.930  33.476  31.397  1.00  0.00     0.010 A 
ATOM     41  C   UNL A   1      36.452  33.970  29.568  1.00  0.00     0.010 A 
ATOM     42  C   UNL A   1      36.195  33.344  30.799  1.00  0.00    -0.014 A 
BRANCH  42  43
ATOM     43  C   UNL A   1      37.259  32.515  31.411  1.00  0.00     0.031 A 
ATOM     44  C   UNL A   1      37.769  32.848  32.780  1.00  0.00     0.074 A 
ATOM     45  C   UNL A   1      37.834  31.531  30.694  1.00  0.00     0.049 A 
ATOM     46  N   UNL A   1      38.804  32.367  33.418  1.00  0.00    -0.248 NA
ATOM     47  C   UNL A   1      37.028  33.881  33.518  1.00  0.00     0.031 C 
ATOM     48  C   UNL A   1      37.440  31.126  29.345  1.00  0.00     0.029 A 
ATOM     49  N   UNL A   1      38.885  30.704  30.997  1.00  0.00    -0.354 N 
ATOM     50  C   UNL A   1      38.852  33.051  34.623  1.00  0.00     0.074 A 
ATOM     51  C   UNL A   1      37.764  34.007  34.611  1.00  0.00     0.031 C 
ATOM     52  C   UNL A   1      38.226  30.112  28.944  1.00  0.00     0.029 A 
ATOM     53  C   UNL A   1      39.205  29.829  29.989  1.00  0.00     0.049 A 
ATOM     54  H   UNL A   1      39.365  30.734  31.857  1.00  0.00     0.167 HD
ATOM     55  C   UNL A   1      39.718  32.888  35.650  1.00  0.00     0.037 A 
ATOM     56  C   UNL A   1      40.187  28.912  29.911  1.00  0.00     0.037 A 
ATOM     57  C   UNL A   1      40.791  31.929  35.665  1.00  0.00     0.049 A 
ATOM     58  C   UNL A   1      41.148  28.761  31.056  1.00  0.00     0.074 A 
ATOM     59  C   UNL A   1      41.712  31.676  36.665  1.00  0.00     0.029 A 
ATOM     60  N   UNL A   1      41.081  31.057  34.625  1.00  0.00    -0.354 N 
ATOM     61  N   UNL A   1      41.191  29.416  32.190  1.00  0.00    -0.248 NA
ATOM     62  C   UNL A   1      42.202  27.749  30.905  1.00  0.00     0.031 C 
ATOM     63  C   UNL A   1      42.576  30.668  36.221  1.00  0.00     0.029 A 
ATOM     64  C   UNL A   1      42.171  30.269  34.957  1.00  0.00     0.049 A 
ATOM     65  H   UNL A   1      40.585  31.005  33.776  1.00  0.00     0.167 HD
ATOM     66  C   UNL A   1      42.266  28.893  32.893  1.00  0.00     0.074 A 
ATOM     67  C   UNL A   1      42.840  27.853  32.063  1.00  0.00     0.031 C 
ATOM     68  C   UNL A   1      42.734  29.244  34.116  1.00  0.00     0.037 A 
BRANCH  55  69
ATOM     69  C   UNL A   1      39.536  33.781  36.841  1.00  0.00     0.064 A 
ATOM     70  C   UNL A   1      40.128  35.050  36.880  1.00  0.00     0.173 A 
ATOM     71  C   UNL A   1      38.768  33.377  37.944  1.00  0.00     0.173 A 
ATOM     72  F   UNL A   1      40.871  35.483  35.850  1.00  0.00    -0.203 F 
ATOM     73  C   UNL A   1      39.953  35.888  37.979  1.00  0.00     0.198 A 
ATOM     74  C   UNL A   1      38.574  34.227  39.030  1.00  0.00     0.198 A 
ATOM     75  F   UNL A   1      38.166  32.178  37.946  1.00  0.00    -0.203 F 
ATOM     76  F   UNL A   1      40.534  37.095  37.998  1.00  0.00    -0.200 F 
ATOM     77  C   UNL A   1      39.169  35.479  39.048  1.00  0.00     0.200 A 
ATOM     78  F   UNL A   1      37.791  33.843  40.047  1.00  0.00    -0.200 F 
ATOM     79  F   UNL A   1      38.978  36.298  40.091  1.00  0.00    -0.200 F 
ENDBRANCH  55  69
BRANCH  56  80
ATOM     80  C   UNL A   1      40.286  28.047  28.710  1.00  0.00     0.064 A 
ATOM     81  C   UNL A   1      39.676  26.787  28.659  1.00  0.00     0.173 A 
ATOM     82  C   UNL A   1      41.034  28.459  27.599  1.00  0.00     0.173 A 
ATOM     83  F   UNL A   1      38.953  26.348  29.701  1.00  0.00    -0.203 F 
ATOM     84  C   UNL A   1      39.824  25.963  27.545  1.00  0.00     0.198 A 
ATOM     85  C   UNL A   1      41.167  27.643  26.480  1.00  0.00     0.198 A 
ATOM     86  F   UNL A   1      41.619  29.666  27.598  1.00  0.00    -0.203 F 
ATOM     87  F   UNL A   1      39.254  24.750  27.532  1.00  0.00    -0.200 F 
ATOM     88  C   UNL A   1      40.568  26.391  26.457  1.00  0.00     0.200 A 
ATOM     89  F   UNL A   1      41.872  28.067  25.422  1.00  0.00    -0.200 F 
ATOM     90  F   UNL A   1      40.709  25.600  25.384  1.00  0.00    -0.200 F 
ENDBRANCH  56  80
BRANCH  68  91
ATOM     91  C   UNL A   1      43.920  28.489  34.636  1.00  0.00     0.064 A 
ATOM     92  C   UNL A   1      45.221  28.948  34.387  1.00  0.00     0.173 A 
ATOM     93  C   UNL A   1      43.768  27.287  35.343  1.00  0.00     0.173 A 
ATOM     94  F   UNL A   1      45.416  30.092  33.713  1.00  0.00    -0.203 F 
ATOM     95  C   UNL A   1      46.329  28.227  34.821  1.00  0.00     0.198 A 
ATOM     96  C   UNL A   1      44.879  26.580  35.795  1.00  0.00     0.198 A 
ATOM     97  F   UNL A   1      42.543  26.817  35.619  1.00  0.00    -0.203 F 
ATOM     98  F   UNL A   1      47.565  28.676  34.556  1.00  0.00    -0.200 F 
ATOM     99  C   UNL A   1      46.158  27.047  35.528  1.00  0.00     0.200 A 
ATOM    100  F   UNL A   1      44.713  25.451  36.499  1.00  0.00    -0.200 F 
ATOM    101  F   UNL A   1      47.226  26.361  35.959  1.00  0.00    -0.200 F 
ENDBRANCH  68  91
ENDBRANCH  42  43
ENDBRANCH  34  37
ENDBRANCH  32  33
ENDBRANCH  31  32
ENDBRANCH   1  31
TORSDOF 15
ENDMDL
MODEL 2
REMARK VINA RESULT:     -13.7      0.077      1.544
REMARK SMILES Nc1nccc(N2CCC[C@@](Cc3ccc(F)cc3F)(C(=O)NCCCCNC(=O)c3ccc(-c4c5nc(c(-c6c(F)c(F)c(F)c(F)c6F)c6ccc([nH]6)c(-c6c(F)c(F)c(F)c(F)c6F)c6nc(c(-c7c(F)c(F)c(F)c(F)c7F)c7ccc4[nH]7)C=C6)C=C5)cc3)C2)n1
REMARK SMILES IDX 25 1 24 2 23 3 21 4 22 5 11 7 7 8 8 9 94 10 9 11 10 12 6 13
REMARK SMILES IDX 2 14 3 15 95 16 4 17 5 18 1 19 12 22 13 23 14 24 19 25 15 26
REMARK SMILES IDX 18 27 20 28 16 29 17 30 26 31 27 32 28 33 29 34 30 36 31 37
REMARK SMILES IDX 32 38 93 39 33 40 92 41 34 42 35 43 36 44 86 45 37 46 91 47
REMARK SMILES IDX 85 48 87 49 38 50 90 51 84 52 83 53 39 55 71 56 51 57 70 58
REMARK SMILES IDX 52 59 55 60 69 61 88 62 53 63 54 64 68 66 89 67 56 68 40 69
REMARK SMILES IDX 41 70 49 71 42 72 43 73 47 74 50 75 44 76 45 77 48 78 46 79
REMARK SMILES IDX 72 80 73 81 81 82 74 83 75 84 79 85 82 86 76 87 77 88 80 89
REMARK SMILES IDX 78 90 57 91 58 92 66 93 59 94 60 95 64 96 67 97 61 98 62 99
REMARK SMILES IDX 65 100 63 101
REMARK H PARENT 23 6 1 20 1 21 28 35 87 54 55 65
REMARK Flexibility Score: inf
ROOT
ATOM      1  C   UNL A   1      32.077  30.486  26.822  1.00  0.00     0.023 C 
ENDROOT
BRANCH   1   2
ATOM      2  C   UNL A   1      31.783  29.832  25.479  1.00  0.00     0.116 C 
BRANCH   2   3
ATOM      3  N   UNL A   1      32.905  29.103  24.924  1.00  0.00    -0.356 N 
ATOM      4  C   UNL A   1      33.027  27.826  24.463  1.00  0.00     0.228 C 
ATOM      5  O   UNL A   1      34.070  27.600  23.838  1.00  0.00    -0.274 OA
ATOM      6  H   UNL A   1      33.735  29.630  24.870  1.00  0.00     0.163 HD
BRANCH   4   7
ATOM      7  C   UNL A   1      31.965  26.721  24.671  1.00  0.00     0.071 C 
ATOM      8  N   UNL A   1      31.832  24.298  25.098  1.00  0.00    -0.355 N 
ATOM      9  C   UNL A   1      31.234  24.366  26.419  1.00  0.00     0.118 C 
ATOM     10  C   UNL A   1      32.770  25.368  24.759  1.00  0.00     0.135 C 
ATOM     11  C   UNL A   1      30.432  25.656  26.496  1.00  0.00     0.023 C 
ATOM     12  C   UNL A   1      31.234  26.879  26.037  1.00  0.00     0.021 C 
BRANCH   8  13
ATOM     13  C   UNL A   1      31.975  23.053  24.518  1.00  0.00     0.134 A 
ATOM     14  C   UNL A   1      32.305  20.795  24.667  1.00  0.00     0.221 A 
ATOM     15  N   UNL A   1      32.299  20.616  23.342  1.00  0.00    -0.222 NA
ATOM     16  N   UNL A   1      32.170  21.972  25.287  1.00  0.00    -0.196 NA
ATOM     17  C   UNL A   1      32.130  21.717  22.599  1.00  0.00     0.119 A 
ATOM     18  C   UNL A   1      31.944  22.963  23.138  1.00  0.00     0.067 A 
BRANCH  14  19
ATOM     19  N   UNL A   1      32.427  19.678  25.441  1.00  0.00    -0.368 N 
ATOM     20  H   UNL A   1      32.040  18.825  25.138  1.00  0.00     0.159 HD
ATOM     21  H   UNL A   1      32.900  19.726  26.302  1.00  0.00     0.159 HD
ENDBRANCH  14  19
ENDBRANCH   8  13
BRANCH   7  22
ATOM     22  C   UNL A   1      31.042  26.561  23.417  1.00  0.00     0.057 C 
BRANCH  22  23
ATOM     23  C   UNL A   1      30.056  27.635  23.036  1.00  0.00    -0.011 A 
ATOM     24  C   UNL A   1      30.473  28.753  22.294  1.00  0.00     0.010 A 
ATOM     25  C   UNL A   1      28.702  27.526  23.376  1.00  0.00     0.129 A 
ATOM     26  C   UNL A   1      29.558  29.748  21.947  1.00  0.00     0.040 A 
ATOM     27  C   UNL A   1      27.786  28.516  23.040  1.00  0.00     0.078 A 
ATOM     28  F   UNL A   1      28.270  26.463  24.066  1.00  0.00    -0.207 F 
ATOM     29  C   UNL A   1      28.226  29.623  22.330  1.00  0.00     0.126 A 
ATOM     30  F   UNL A   1      27.358  30.591  22.012  1.00  0.00    -0.207 F 
ENDBRANCH  22  23
ENDBRANCH   7  22
ENDBRANCH   4   7
ENDBRANCH   2   3
ENDBRANCH   1   2
BRANCH   1  31
ATOM     31  C   UNL A   1      31.770  31.981  26.887  1.00  0.00     0.023 C 
BRANCH  31  32
ATOM     32  C   UNL A   1      32.850  32.860  27.514  1.00  0.00     0.116 C 
BRANCH  32  33
ATOM     33  N   UNL A   1      32.440  34.239  27.751  1.00  0.00    -0.352 N 
ATOM     34  C   UNL A   1      32.993  35.139  28.635  1.00  0.00     0.251 C 
ATOM     35  H   UNL A   1      31.679  34.564  27.219  1.00  0.00     0.163 HD
ATOM     36  O   UNL A   1      32.523  36.261  28.786  1.00  0.00    -0.269 OA
BRANCH  34  37
ATOM     37  C   UNL A   1      34.141  34.696  29.446  1.00  0.00     0.039 A 
ATOM     38  C   UNL A   1      33.905  34.205  30.732  1.00  0.00     0.014 A 
ATOM     39  C   UNL A   1      35.415  34.641  28.875  1.00  0.00     0.014 A 
ATOM     40  C   UNL A   1      34.935  33.555  31.413  1.00  0.00     0.010 A 
ATOM     41  C   UNL A   1      36.423  33.946  29.533  1.00  0.00     0.010 A 
ATOM     42  C   UNL A   1      36.182  33.373  30.792  1.00  0.00    -0.014 A 
BRANCH  42  43
ATOM     43  C   UNL A   1      37.244  32.544  31.411  1.00  0.00     0.031 A 
ATOM     44  C   UNL A   1      37.747  32.879  32.781  1.00  0.00     0.074 A 
ATOM     45  C   UNL A   1      37.821  31.558  30.699  1.00  0.00     0.049 A 
ATOM     46  N   UNL A   1      38.780  32.399  33.425  1.00  0.00    -0.248 NA
ATOM     47  C   UNL A   1      37.004  33.915  33.514  1.00  0.00     0.031 C 
ATOM     48  C   UNL A   1      37.432  31.150  29.348  1.00  0.00     0.029 A 
ATOM     49  N   UNL A   1      38.869  30.731  31.008  1.00  0.00    -0.354 N 
ATOM     50  C   UNL A   1      38.823  33.085  34.629  1.00  0.00     0.074 A 
ATOM     51  C   UNL A   1      37.735  34.042  34.610  1.00  0.00     0.031 C 
ATOM     52  C   UNL A   1      38.219  30.135  28.953  1.00  0.00     0.029 A 
ATOM     53  C   UNL A   1      39.193  29.853  30.003  1.00  0.00     0.049 A 
ATOM     54  H   UNL A   1      39.345  30.762  31.869  1.00  0.00     0.167 HD
ATOM     55  C   UNL A   1      39.684  32.924  35.660  1.00  0.00     0.037 A 
ATOM     56  C   UNL A   1      40.175  28.936  29.931  1.00  0.00     0.037 A 
ATOM     57  C   UNL A   1      40.756  31.964  35.681  1.00  0.00     0.049 A 
ATOM     58  C   UNL A   1      41.130  28.786  31.081  1.00  0.00     0.074 A 
ATOM     59  C   UNL A   1      41.672  31.712  36.686  1.00  0.00     0.029 A 
ATOM     60  N   UNL A   1      41.049  31.090  34.644  1.00  0.00    -0.354 N 
ATOM     61  N   UNL A   1      41.169  29.444  32.213  1.00  0.00    -0.248 NA
ATOM     62  C   UNL A   1      42.185  27.773  30.937  1.00  0.00     0.031 C 
ATOM     63  C   UNL A   1      42.537  30.702  36.248  1.00  0.00     0.029 A 
ATOM     64  C   UNL A   1      42.138  30.301  34.983  1.00  0.00     0.049 A 
ATOM     65  H   UNL A   1      40.558  31.037  33.793  1.00  0.00     0.167 HD
ATOM     66  C   UNL A   1      42.240  28.921  32.922  1.00  0.00     0.074 A 
ATOM     67  C   UNL A   1      42.817  27.879  32.097  1.00  0.00     0.031 C 
ATOM     68  C   UNL A   1      42.704  29.274  34.146  1.00  0.00     0.037 A 
BRANCH  55  69
ATOM     69  C   UNL A   1      39.497  33.819  36.848  1.00  0.00     0.064 A 
ATOM     70  C   UNL A   1      38.758  33.389  37.958  1.00  0.00     0.173 A 
ATOM     71  C   UNL A   1      40.056  35.106  36.886  1.00  0.00     0.173 A 
ATOM     72  F   UNL A   1      38.204  32.167  37.970  1.00  0.00    -0.203 F 
ATOM     73  C   UNL A   1      38.590  34.212  39.068  1.00  0.00     0.198 A 
ATOM     74  C   UNL A   1      39.908  35.917  38.009  1.00  0.00     0.198 A 
ATOM     75  F   UNL A   1      40.787  35.556  35.856  1.00  0.00    -0.203 F 
ATOM     76  F   UNL A   1      37.874  33.783  40.116  1.00  0.00    -0.200 F 
ATOM     77  C   UNL A   1      39.173  35.471  39.096  1.00  0.00     0.200 A 
ATOM     78  F   UNL A   1      40.498  37.120  38.046  1.00  0.00    -0.200 F 
ATOM     79  F   UNL A   1      39.035  36.251  40.178  1.00  0.00    -0.200 F 
ENDBRANCH  55  69
BRANCH  56  80
ATOM     80  C   UNL A   1      40.278  28.068  28.732  1.00  0.00     0.064 A 
ATOM     81  C   UNL A   1      39.668  26.808  28.682  1.00  0.00     0.173 A 
ATOM     82  C   UNL A   1      41.030  28.478  27.623  1.00  0.00     0.173 A 
ATOM     83  F   UNL A   1      38.942  26.371  29.722  1.00  0.00    -0.203 F 
ATOM     84  C   UNL A   1      39.820  25.981  27.571  1.00  0.00     0.198 A 
ATOM     85  C   UNL A   1      41.168  27.658  26.506  1.00  0.00     0.198 A 
ATOM     86  F   UNL A   1      41.616  29.684  27.622  1.00  0.00    -0.203 F 
ATOM     87  F   UNL A   1      39.251  24.768  27.557  1.00  0.00    -0.200 F 
ATOM     88  C   UNL A   1      40.569  26.407  26.484  1.00  0.00     0.200 A 
ATOM     89  F   UNL A   1      41.877  28.081  25.451  1.00  0.00    -0.200 F 
ATOM     90  F   UNL A   1      40.713  25.613  25.414  1.00  0.00    -0.200 F 
ENDBRANCH  56  80
BRANCH  68  91
ATOM     91  C   UNL A   1      43.886  28.519  34.673  1.00  0.00     0.064 A 
ATOM     92  C   UNL A   1      43.706  27.349  35.426  1.00  0.00     0.173 A 
ATOM     93  C   UNL A   1      45.195  28.978  34.471  1.00  0.00     0.173 A 
ATOM     94  F   UNL A   1      42.472  26.873  35.647  1.00  0.00    -0.203 F 
ATOM     95  C   UNL A   1      44.795  26.669  35.963  1.00  0.00     0.198 A 
ATOM     96  C   UNL A   1      46.285  28.283  34.991  1.00  0.00     0.198 A 
ATOM     97  F   UNL A   1      45.419  30.083  33.745  1.00  0.00    -0.203 F 
ATOM     98  F   UNL A   1      44.598  25.563  36.695  1.00  0.00    -0.200 F 
ATOM     99  C   UNL A   1      46.083  27.134  35.742  1.00  0.00     0.200 A 
ATOM    100  F   UNL A   1      47.530  28.719  34.757  1.00  0.00    -0.200 F 
ATOM    101  F   UNL A   1      47.132  26.470  36.247  1.00  0.00    -0.200 F 
ENDBRANCH  68  91
ENDBRANCH  42  43
ENDBRANCH  34  37
ENDBRANCH  32  33
ENDBRANCH  31  32
ENDBRANCH   1  31
TORSDOF 15
ENDMDL
MODEL 3
REMARK VINA RESULT:     -13.6      4.808      8.561
REMARK SMILES Nc1nccc(N2CCC[C@@](Cc3ccc(F)cc3F)(C(=O)NCCCCNC(=O)c3ccc(-c4c5nc(c(-c6c(F)c(F)c(F)c(F)c6F)c6ccc([nH]6)c(-c6c(F)c(F)c(F)c(F)c6F)c6nc(c(-c7c(F)c(F)c(F)c(F)c7F)c7ccc4[nH]7)C=C6)C=C5)cc3)C2)n1
REMARK SMILES IDX 25 1 24 2 23 3 21 4 22 5 11 7 7 8 8 9 94 10 9 11 10 12 6 13
REMARK SMILES IDX 2 14 3 15 95 16 4 17 5 18 1 19 12 22 13 23 14 24 19 25 15 26
REMARK SMILES IDX 18 27 20 28 16 29 17 30 26 31 27 32 28 33 29 34 30 36 31 37
REMARK SMILES IDX 32 38 93 39 33 40 92 41 34 42 35 43 36 44 86 45 37 46 91 47
REMARK SMILES IDX 85 48 87 49 38 50 90 51 84 52 83 53 39 55 71 56 51 57 70 58
REMARK SMILES IDX 52 59 55 60 69 61 88 62 53 63 54 64 68 66 89 67 56 68 40 69
REMARK SMILES IDX 41 70 49 71 42 72 43 73 47 74 50 75 44 76 45 77 48 78 46 79
REMARK SMILES IDX 72 80 73 81 81 82 74 83 75 84 79 85 82 86 76 87 77 88 80 89
REMARK SMILES IDX 78 90 57 91 58 92 66 93 59 94 60 95 64 96 67 97 61 98 62 99
REMARK SMILES IDX 65 100 63 101
REMARK H PARENT 23 6 1 20 1 21 28 35 87 54 55 65
REMARK Flexibility Score: inf
ROOT
ATOM      1  C   UNL A   1      34.780  23.291  26.403  1.00  0.00     0.023 C 
ENDROOT
BRANCH   1   2
ATOM      2  C   UNL A   1      34.433  24.616  25.737  1.00  0.00     0.116 C 
BRANCH   2   3
ATOM      3  N   UNL A   1      33.425  25.380  26.442  1.00  0.00    -0.356 N 
ATOM      4  C   UNL A   1      32.385  26.145  26.004  1.00  0.00     0.228 C 
ATOM      5  O   UNL A   1      31.575  26.468  26.881  1.00  0.00    -0.274 OA
ATOM      6  H   UNL A   1      33.506  25.339  27.423  1.00  0.00     0.163 HD
BRANCH   4   7
ATOM      7  C   UNL A   1      32.189  26.585  24.534  1.00  0.00     0.071 C 
ATOM      8  N   UNL A   1      31.192  28.432  23.242  1.00  0.00    -0.355 N 
ATOM      9  C   UNL A   1      32.419  28.950  22.666  1.00  0.00     0.118 C 
ATOM     10  C   UNL A   1      31.296  27.884  24.595  1.00  0.00     0.135 C 
ATOM     11  C   UNL A   1      33.405  27.796  22.568  1.00  0.00     0.023 C 
ATOM     12  C   UNL A   1      33.535  27.016  23.881  1.00  0.00     0.021 C 
BRANCH   8  13
ATOM     13  C   UNL A   1      29.997  28.977  22.815  1.00  0.00     0.134 A 
ATOM     14  C   UNL A   1      27.713  28.978  22.716  1.00  0.00     0.221 A 
ATOM     15  N   UNL A   1      27.658  30.050  21.919  1.00  0.00    -0.222 NA
ATOM     16  N   UNL A   1      28.836  28.405  23.163  1.00  0.00    -0.196 NA
ATOM     17  C   UNL A   1      28.835  30.582  21.565  1.00  0.00     0.119 A 
ATOM     18  C   UNL A   1      30.038  30.095  22.001  1.00  0.00     0.067 A 
BRANCH  14  19
ATOM     19  N   UNL A   1      26.523  28.452  23.127  1.00  0.00    -0.368 N 
ATOM     20  H   UNL A   1      25.678  28.889  22.875  1.00  0.00     0.159 HD
ATOM     21  H   UNL A   1      26.510  27.636  23.677  1.00  0.00     0.159 HD
ENDBRANCH  14  19
ENDBRANCH   8  13
BRANCH   7  22
ATOM     22  C   UNL A   1      31.338  25.549  23.727  1.00  0.00     0.057 C 
BRANCH  22  23
ATOM     23  C   UNL A   1      31.721  24.092  23.689  1.00  0.00    -0.011 A 
ATOM     24  C   UNL A   1      31.235  23.202  24.662  1.00  0.00     0.010 A 
ATOM     25  C   UNL A   1      32.534  23.585  22.667  1.00  0.00     0.129 A 
ATOM     26  C   UNL A   1      31.596  21.854  24.625  1.00  0.00     0.040 A 
ATOM     27  C   UNL A   1      32.903  22.245  22.628  1.00  0.00     0.078 A 
ATOM     28  F   UNL A   1      32.997  24.403  21.714  1.00  0.00    -0.207 F 
ATOM     29  C   UNL A   1      32.432  21.392  23.614  1.00  0.00     0.126 A 
ATOM     30  F   UNL A   1      32.791  20.102  23.597  1.00  0.00    -0.207 F 
ENDBRANCH  22  23
ENDBRANCH   7  22
ENDBRANCH   4   7
ENDBRANCH   2   3
ENDBRANCH   1   2
BRANCH   1  31
ATOM     31  C   UNL A   1      35.458  22.273  25.488  1.00  0.00     0.023 C 
BRANCH  31  32
ATOM     32  C   UNL A   1      36.920  22.552  25.143  1.00  0.00     0.116 C 
BRANCH  32  33
ATOM     33  N   UNL A   1      37.807  21.408  25.318  1.00  0.00    -0.352 N 
ATOM     34  C   UNL A   1      39.005  21.370  25.997  1.00  0.00     0.251 C 
ATOM     35  H   UNL A   1      37.517  20.565  24.901  1.00  0.00     0.163 HD
ATOM     36  O   UNL A   1      39.692  20.356  26.028  1.00  0.00    -0.269 OA
BRANCH  34  37
ATOM     37  C   UNL A   1      39.472  22.608  26.645  1.00  0.00     0.039 A 
ATOM     38  C   UNL A   1      40.471  22.522  27.617  1.00  0.00     0.014 A 
ATOM     39  C   UNL A   1      39.017  23.846  26.185  1.00  0.00     0.014 A 
ATOM     40  C   UNL A   1      41.096  23.690  28.057  1.00  0.00     0.010 A 
ATOM     41  C   UNL A   1      39.677  25.003  26.585  1.00  0.00     0.010 A 
ATOM     42  C   UNL A   1      40.740  24.930  27.500  1.00  0.00    -0.014 A 
BRANCH  42  43
ATOM     43  C   UNL A   1      41.493  26.166  27.815  1.00  0.00     0.031 A 
ATOM     44  C   UNL A   1      40.829  27.270  28.579  1.00  0.00     0.074 A 
ATOM     45  C   UNL A   1      42.737  26.333  27.326  1.00  0.00     0.049 A 
ATOM     46  N   UNL A   1      41.245  28.490  28.802  1.00  0.00    -0.248 NA
ATOM     47  C   UNL A   1      39.505  26.967  29.143  1.00  0.00     0.031 C 
ATOM     48  C   UNL A   1      43.482  25.340  26.552  1.00  0.00     0.029 A 
ATOM     49  N   UNL A   1      43.585  27.408  27.395  1.00  0.00    -0.354 N 
ATOM     50  C   UNL A   1      40.228  29.107  29.515  1.00  0.00     0.074 A 
ATOM     51  C   UNL A   1      39.159  28.139  29.654  1.00  0.00     0.031 C 
ATOM     52  C   UNL A   1      44.686  25.845  26.235  1.00  0.00     0.029 A 
ATOM     53  C   UNL A   1      44.778  27.210  26.744  1.00  0.00     0.049 A 
ATOM     54  H   UNL A   1      43.361  28.243  27.866  1.00  0.00     0.167 HD
ATOM     55  C   UNL A   1      40.194  30.363  30.018  1.00  0.00     0.037 A 
ATOM     56  C   UNL A   1      45.821  28.041  26.566  1.00  0.00     0.037 A 
ATOM     57  C   UNL A   1      41.262  31.319  29.889  1.00  0.00     0.049 A 
ATOM     58  C   UNL A   1      45.754  29.437  27.118  1.00  0.00     0.074 A 
ATOM     59  C   UNL A   1      41.330  32.611  30.377  1.00  0.00     0.029 A 
ATOM     60  N   UNL A   1      42.457  31.079  29.225  1.00  0.00    -0.354 N 
ATOM     61  N   UNL A   1      44.786  30.016  27.785  1.00  0.00    -0.248 NA
ATOM     62  C   UNL A   1      46.922  30.298  26.882  1.00  0.00     0.031 C 
ATOM     63  C   UNL A   1      42.556  33.163  29.988  1.00  0.00     0.029 A 
ATOM     64  C   UNL A   1      43.266  32.202  29.287  1.00  0.00     0.049 A 
ATOM     65  H   UNL A   1      42.695  30.236  28.777  1.00  0.00     0.167 HD
ATOM     66  C   UNL A   1      45.228  31.302  28.059  1.00  0.00     0.074 A 
ATOM     67  C   UNL A   1      46.559  31.415  27.499  1.00  0.00     0.031 C 
ATOM     68  C   UNL A   1      44.585  32.300  28.716  1.00  0.00     0.037 A 
BRANCH  55  69
ATOM     69  C   UNL A   1      38.949  30.769  30.748  1.00  0.00     0.064 A 
ATOM     70  C   UNL A   1      38.836  30.576  32.131  1.00  0.00     0.173 A 
ATOM     71  C   UNL A   1      37.867  31.356  30.073  1.00  0.00     0.173 A 
ATOM     72  F   UNL A   1      39.843  30.018  32.821  1.00  0.00    -0.203 F 
ATOM     73  C   UNL A   1      37.686  30.960  32.816  1.00  0.00     0.198 A 
ATOM     74  C   UNL A   1      36.729  31.764  30.765  1.00  0.00     0.198 A 
ATOM     75  F   UNL A   1      37.935  31.580  28.753  1.00  0.00    -0.203 F 
ATOM     76  F   UNL A   1      37.597  30.759  34.138  1.00  0.00    -0.200 F 
ATOM     77  C   UNL A   1      36.639  31.563  32.134  1.00  0.00     0.200 A 
ATOM     78  F   UNL A   1      35.732  32.374  30.110  1.00  0.00    -0.200 F 
ATOM     79  F   UNL A   1      35.545  31.960  32.800  1.00  0.00    -0.200 F 
ENDBRANCH  55  69
BRANCH  56  80
ATOM     80  C   UNL A   1      47.030  27.556  25.856  1.00  0.00     0.064 A 
ATOM     81  C   UNL A   1      48.112  26.993  26.545  1.00  0.00     0.173 A 
ATOM     82  C   UNL A   1      47.135  27.687  24.465  1.00  0.00     0.173 A 
ATOM     83  F   UNL A   1      48.058  26.852  27.878  1.00  0.00    -0.203 F 
ATOM     84  C   UNL A   1      49.262  26.593  25.870  1.00  0.00     0.198 A 
ATOM     85  C   UNL A   1      48.278  27.272  23.788  1.00  0.00     0.198 A 
ATOM     86  F   UNL A   1      46.114  28.204  23.764  1.00  0.00    -0.203 F 
ATOM     87  F   UNL A   1      50.296  26.084  26.554  1.00  0.00    -0.200 F 
ATOM     88  C   UNL A   1      49.345  26.732  24.492  1.00  0.00     0.200 A 
ATOM     89  F   UNL A   1      48.347  27.390  22.455  1.00  0.00    -0.200 F 
ATOM     90  F   UNL A   1      50.451  26.345  23.842  1.00  0.00    -0.200 F 
ENDBRANCH  56  80
BRANCH  68  91
ATOM     91  C   UNL A   1      45.320  33.597  28.875  1.00  0.00     0.064 A 
ATOM     92  C   UNL A   1      46.137  33.819  29.992  1.00  0.00     0.173 A 
ATOM     93  C   UNL A   1      45.179  34.635  27.943  1.00  0.00     0.173 A 
ATOM     94  F   UNL A   1      46.301  32.856  30.911  1.00  0.00    -0.203 F 
ATOM     95  C   UNL A   1      46.782  35.039  30.175  1.00  0.00     0.198 A 
ATOM     96  C   UNL A   1      45.843  35.846  28.117  1.00  0.00     0.198 A 
ATOM     97  F   UNL A   1      44.421  34.463  26.850  1.00  0.00    -0.203 F 
ATOM     98  F   UNL A   1      47.545  35.236  31.260  1.00  0.00    -0.200 F 
ATOM     99  C   UNL A   1      46.638  36.049  29.236  1.00  0.00     0.200 A 
ATOM    100  F   UNL A   1      45.723  36.814  27.198  1.00  0.00    -0.200 F 
ATOM    101  F   UNL A   1      47.272  37.218  29.405  1.00  0.00    -0.200 F 
ENDBRANCH  68  91
ENDBRANCH  42  43
ENDBRANCH  34  37
ENDBRANCH  32  33
ENDBRANCH  31  32
ENDBRANCH   1  31
TORSDOF 15
ENDMDL
