MODEL 1
REMARK VINA RESULT:     -11.7      0.000      0.000
REMARK SMILES CC[C@@](C)(NC(=O)c1c(C)cc(C)[nH]c1=O)C(=O)NCCCCNC(=O)c1ccc(-c2c3nc(c(-c4c(F)c(F)c(F)c(F)c4F)c4ccc([nH]4)c(-c4c(F)c(F)c(F)c(F)c4F)c4nc(c(-c5c(F)c(F)c(F)c(F)c5F)c5ccc2[nH]5)C=C4)C=C3)cc1
REMARK SMILES IDX 21 1 20 2 19 3 17 4 18 5 3 7 4 8 2 9 1 10 5 11 6 12 7 14
REMARK SMILES IDX 8 15 9 16 15 17 10 18 11 19 14 20 16 21 12 22 13 24 22 25
REMARK SMILES IDX 23 26 24 27 25 28 26 30 27 31 28 32 89 33 29 34 88 35 30 36
REMARK SMILES IDX 31 37 32 38 82 39 33 40 87 41 81 42 83 43 34 44 86 45 80 46
REMARK SMILES IDX 79 47 35 49 67 50 47 51 66 52 48 53 51 54 65 55 84 56 49 57
REMARK SMILES IDX 50 58 64 60 85 61 52 62 36 63 37 64 45 65 38 66 39 67 43 68
REMARK SMILES IDX 46 69 40 70 41 71 44 72 42 73 68 74 69 75 77 76 70 77 71 78
REMARK SMILES IDX 75 79 78 80 72 81 73 82 76 83 74 84 53 85 54 86 62 87 55 88
REMARK SMILES IDX 56 89 60 90 63 91 57 92 58 93 61 94 59 95
REMARK H PARENT 19 6 5 13 14 23 24 29 83 48 51 59
REMARK Flexibility Score: inf
ROOT
ATOM      1  C   UNL A   1      36.417  20.058  25.032  1.00  0.00     0.023 C 
ENDROOT
BRANCH   1   2
ATOM      2  C   UNL A   1      35.796  21.442  25.232  1.00  0.00     0.116 C 
BRANCH   2   3
ATOM      3  N   UNL A   1      35.380  22.210  24.077  1.00  0.00    -0.354 N 
ATOM      4  C   UNL A   1      34.186  22.616  23.551  1.00  0.00     0.245 C 
ATOM      5  O   UNL A   1      34.266  23.524  22.711  1.00  0.00    -0.272 OA
ATOM      6  H   UNL A   1      36.146  22.515  23.539  1.00  0.00     0.163 HD
BRANCH   4   7
ATOM      7  C   UNL A   1      32.796  22.121  24.060  1.00  0.00     0.116 C 
ATOM      8  C   UNL A   1      31.768  22.920  23.211  1.00  0.00     0.045 C 
BRANCH   7   9
ATOM      9  C   UNL A   1      32.543  20.605  23.809  1.00  0.00     0.035 C 
ATOM     10  C   UNL A   1      32.571  19.669  25.019  1.00  0.00     0.007 C 
ENDBRANCH   7   9
BRANCH   7  11
ATOM     11  N   UNL A   1      32.487  22.396  25.496  1.00  0.00    -0.338 N 
ATOM     12  C   UNL A   1      32.522  23.445  26.363  1.00  0.00     0.258 C 
ATOM     13  H   UNL A   1      32.164  21.582  25.946  1.00  0.00     0.164 HD
ATOM     14  O   UNL A   1      32.406  23.095  27.547  1.00  0.00    -0.269 OA
BRANCH  12  15
ATOM     15  C   UNL A   1      32.621  24.914  26.042  1.00  0.00     0.107 A 
ATOM     16  C   UNL A   1      31.504  25.658  25.792  1.00  0.00    -0.031 A 
ATOM     17  C   UNL A   1      33.912  25.596  25.727  1.00  0.00     0.261 A 
ATOM     18  C   UNL A   1      30.062  25.241  25.958  1.00  0.00     0.045 C 
ATOM     19  C   UNL A   1      31.608  27.022  25.252  1.00  0.00     0.025 A 
ATOM     20  N   UNL A   1      33.909  26.925  25.434  1.00  0.00    -0.326 N 
ATOM     21  O   UNL A   1      34.982  25.027  25.600  1.00  0.00    -0.269 OA
ATOM     22  C   UNL A   1      32.793  27.628  25.110  1.00  0.00     0.015 A 
ATOM     23  H   UNL A   1      34.769  27.405  25.456  1.00  0.00     0.169 HD
ATOM     24  C   UNL A   1      33.017  28.968  24.484  1.00  0.00     0.064 C 
ENDBRANCH  12  15
ENDBRANCH   7  11
ENDBRANCH   4   7
ENDBRANCH   2   3
ENDBRANCH   1   2
BRANCH   1  25
ATOM     25  C   UNL A   1      37.905  19.921  24.696  1.00  0.00     0.023 C 
BRANCH  25  26
ATOM     26  C   UNL A   1      38.906  20.287  25.782  1.00  0.00     0.116 C 
BRANCH  26  27
ATOM     27  N   UNL A   1      39.959  19.294  25.907  1.00  0.00    -0.352 N 
ATOM     28  C   UNL A   1      41.309  19.465  26.098  1.00  0.00     0.251 C 
ATOM     29  H   UNL A   1      39.662  18.358  25.845  1.00  0.00     0.163 HD
ATOM     30  O   UNL A   1      42.066  18.506  25.971  1.00  0.00    -0.269 OA
BRANCH  28  31
ATOM     31  C   UNL A   1      41.873  20.790  26.453  1.00  0.00     0.039 A 
ATOM     32  C   UNL A   1      42.052  21.102  27.805  1.00  0.00     0.014 A 
ATOM     33  C   UNL A   1      42.147  21.755  25.478  1.00  0.00     0.014 A 
ATOM     34  C   UNL A   1      42.527  22.363  28.179  1.00  0.00     0.010 A 
ATOM     35  C   UNL A   1      42.672  22.994  25.848  1.00  0.00     0.010 A 
ATOM     36  C   UNL A   1      42.849  23.318  27.202  1.00  0.00    -0.014 A 
BRANCH  36  37
ATOM     37  C   UNL A   1      43.316  24.675  27.583  1.00  0.00     0.031 A 
ATOM     38  C   UNL A   1      42.316  25.732  27.966  1.00  0.00     0.074 A 
ATOM     39  C   UNL A   1      44.629  24.970  27.558  1.00  0.00     0.049 A 
ATOM     40  N   UNL A   1      42.514  26.987  28.281  1.00  0.00    -0.248 NA
ATOM     41  C   UNL A   1      40.901  25.327  27.977  1.00  0.00     0.031 C 
ATOM     42  C   UNL A   1      45.695  24.040  27.186  1.00  0.00     0.029 A 
ATOM     43  N   UNL A   1      45.291  26.138  27.852  1.00  0.00    -0.354 N 
ATOM     44  C   UNL A   1      41.254  27.521  28.517  1.00  0.00     0.074 A 
ATOM     45  C   UNL A   1      40.294  26.470  28.261  1.00  0.00     0.031 C 
ATOM     46  C   UNL A   1      46.879  24.665  27.299  1.00  0.00     0.029 A 
ATOM     47  C   UNL A   1      46.654  26.046  27.722  1.00  0.00     0.049 A 
ATOM     48  H   UNL A   1      44.830  26.963  28.129  1.00  0.00     0.167 HD
ATOM     49  C   UNL A   1      40.928  28.768  28.933  1.00  0.00     0.037 A 
ATOM     50  C   UNL A   1      47.614  26.969  27.924  1.00  0.00     0.037 A 
ATOM     51  C   UNL A   1      41.885  29.806  29.215  1.00  0.00     0.049 A 
ATOM     52  C   UNL A   1      47.226  28.352  28.372  1.00  0.00     0.074 A 
ATOM     53  C   UNL A   1      41.655  31.088  29.682  1.00  0.00     0.029 A 
ATOM     54  N   UNL A   1      43.257  29.674  29.062  1.00  0.00    -0.354 N 
ATOM     55  N   UNL A   1      46.035  28.835  28.623  1.00  0.00    -0.248 NA
ATOM     56  C   UNL A   1      48.318  29.318  28.565  1.00  0.00     0.031 C 
ATOM     57  C   UNL A   1      42.885  31.744  29.781  1.00  0.00     0.029 A 
ATOM     58  C   UNL A   1      43.885  30.859  29.411  1.00  0.00     0.049 A 
ATOM     59  H   UNL A   1      43.716  28.861  28.753  1.00  0.00     0.167 HD
ATOM     60  C   UNL A   1      46.231  30.150  29.021  1.00  0.00     0.074 A 
ATOM     61  C   UNL A   1      47.659  30.388  28.990  1.00  0.00     0.031 C 
ATOM     62  C   UNL A   1      45.309  31.077  29.377  1.00  0.00     0.037 A 
BRANCH  49  63
ATOM     63  C   UNL A   1      39.472  29.077  29.122  1.00  0.00     0.064 A 
ATOM     64  C   UNL A   1      38.868  29.003  30.386  1.00  0.00     0.173 A 
ATOM     65  C   UNL A   1      38.682  29.491  28.039  1.00  0.00     0.173 A 
ATOM     66  F   UNL A   1      39.579  28.601  31.451  1.00  0.00    -0.203 F 
ATOM     67  C   UNL A   1      37.520  29.307  30.555  1.00  0.00     0.198 A 
ATOM     68  C   UNL A   1      37.341  29.820  28.217  1.00  0.00     0.198 A 
ATOM     69  F   UNL A   1      39.213  29.586  26.811  1.00  0.00    -0.203 F 
ATOM     70  F   UNL A   1      36.954  29.187  31.764  1.00  0.00    -0.200 F 
ATOM     71  C   UNL A   1      36.759  29.721  29.472  1.00  0.00     0.200 A 
ATOM     72  F   UNL A   1      36.609  30.233  27.172  1.00  0.00    -0.200 F 
ATOM     73  F   UNL A   1      35.463  30.022  29.638  1.00  0.00    -0.200 F 
ENDBRANCH  49  63
BRANCH  50  74
ATOM     74  C   UNL A   1      49.040  26.596  27.744  1.00  0.00     0.064 A 
ATOM     75  C   UNL A   1      49.850  26.315  28.852  1.00  0.00     0.173 A 
ATOM     76  C   UNL A   1      49.613  26.484  26.469  1.00  0.00     0.173 A 
ATOM     77  F   UNL A   1      49.351  26.430  30.091  1.00  0.00    -0.203 F 
ATOM     78  C   UNL A   1      51.182  25.940  28.693  1.00  0.00     0.198 A 
ATOM     79  C   UNL A   1      50.939  26.087  26.310  1.00  0.00     0.198 A 
ATOM     80  F   UNL A   1      48.879  26.740  25.376  1.00  0.00    -0.203 F 
ATOM     81  F   UNL A   1      51.942  25.702  29.771  1.00  0.00    -0.200 F 
ATOM     82  C   UNL A   1      51.724  25.818  27.422  1.00  0.00     0.200 A 
ATOM     83  F   UNL A   1      51.456  25.959  25.080  1.00  0.00    -0.200 F 
ATOM     84  F   UNL A   1      53.001  25.444  27.270  1.00  0.00    -0.200 F 
ENDBRANCH  50  74
BRANCH  62  85
ATOM     85  C   UNL A   1      45.807  32.435  29.774  1.00  0.00     0.064 A 
ATOM     86  C   UNL A   1      45.855  33.491  28.854  1.00  0.00     0.173 A 
ATOM     87  C   UNL A   1      46.165  32.700  31.104  1.00  0.00     0.173 A 
ATOM     88  F   UNL A   1      45.534  33.281  27.568  1.00  0.00    -0.203 F 
ATOM     89  C   UNL A   1      46.253  34.765  29.250  1.00  0.00     0.198 A 
ATOM     90  C   UNL A   1      46.540  33.981  31.501  1.00  0.00     0.198 A 
ATOM     91  F   UNL A   1      46.128  31.723  32.022  1.00  0.00    -0.203 F 
ATOM     92  F   UNL A   1      46.317  35.755  28.348  1.00  0.00    -0.200 F 
ATOM     93  C   UNL A   1      46.586  35.011  30.573  1.00  0.00     0.200 A 
ATOM     94  F   UNL A   1      46.849  34.220  32.783  1.00  0.00    -0.200 F 
ATOM     95  F   UNL A   1      46.953  36.241  30.956  1.00  0.00    -0.200 F 
ENDBRANCH  62  85
ENDBRANCH  36  37
ENDBRANCH  28  31
ENDBRANCH  26  27
ENDBRANCH  25  26
ENDBRANCH   1  25
TORSDOF 14
ENDMDL
MODEL 2
REMARK VINA RESULT:     -11.7      5.148     10.458
REMARK SMILES CC[C@@](C)(NC(=O)c1c(C)cc(C)[nH]c1=O)C(=O)NCCCCNC(=O)c1ccc(-c2c3nc(c(-c4c(F)c(F)c(F)c(F)c4F)c4ccc([nH]4)c(-c4c(F)c(F)c(F)c(F)c4F)c4nc(c(-c5c(F)c(F)c(F)c(F)c5F)c5ccc2[nH]5)C=C4)C=C3)cc1
REMARK SMILES IDX 21 1 20 2 19 3 17 4 18 5 3 7 4 8 2 9 1 10 5 11 6 12 7 14
REMARK SMILES IDX 8 15 9 16 15 17 10 18 11 19 14 20 16 21 12 22 13 24 22 25
REMARK SMILES IDX 23 26 24 27 25 28 26 30 27 31 28 32 89 33 29 34 88 35 30 36
REMARK SMILES IDX 31 37 32 38 82 39 33 40 87 41 81 42 83 43 34 44 86 45 80 46
REMARK SMILES IDX 79 47 35 49 67 50 47 51 66 52 48 53 51 54 65 55 84 56 49 57
REMARK SMILES IDX 50 58 64 60 85 61 52 62 36 63 37 64 45 65 38 66 39 67 43 68
REMARK SMILES IDX 46 69 40 70 41 71 44 72 42 73 68 74 69 75 77 76 70 77 71 78
REMARK SMILES IDX 75 79 78 80 72 81 73 82 76 83 74 84 53 85 54 86 62 87 55 88
REMARK SMILES IDX 56 89 60 90 63 91 57 92 58 93 61 94 59 95
REMARK H PARENT 19 6 5 13 14 23 24 29 83 48 51 59
REMARK Flexibility Score: inf
ROOT
ATOM      1  C   UNL A   1      31.397  30.442  26.197  1.00  0.00     0.023 C 
ENDROOT
BRANCH   1   2
ATOM      2  C   UNL A   1      32.715  29.698  25.962  1.00  0.00     0.116 C 
BRANCH   2   3
ATOM      3  N   UNL A   1      33.300  29.688  24.637  1.00  0.00    -0.354 N 
ATOM      4  C   UNL A   1      33.335  28.808  23.591  1.00  0.00     0.245 C 
ATOM      5  O   UNL A   1      33.684  29.298  22.508  1.00  0.00    -0.272 OA
ATOM      6  H   UNL A   1      33.791  30.518  24.441  1.00  0.00     0.163 HD
BRANCH   4   7
ATOM      7  C   UNL A   1      32.827  27.335  23.673  1.00  0.00     0.116 C 
ATOM      8  C   UNL A   1      33.838  26.630  24.619  1.00  0.00     0.045 C 
BRANCH   7   9
ATOM      9  C   UNL A   1      31.410  27.199  24.306  1.00  0.00     0.035 C 
ATOM     10  C   UNL A   1      30.260  27.962  23.646  1.00  0.00     0.007 C 
ENDBRANCH   7   9
BRANCH   7  11
ATOM     11  N   UNL A   1      32.820  26.571  22.389  1.00  0.00    -0.338 N 
ATOM     12  C   UNL A   1      33.013  25.291  21.964  1.00  0.00     0.258 C 
ATOM     13  H   UNL A   1      32.618  27.164  21.630  1.00  0.00     0.164 HD
ATOM     14  O   UNL A   1      33.157  25.209  20.736  1.00  0.00    -0.269 OA
BRANCH  12  15
ATOM     15  C   UNL A   1      33.009  24.028  22.786  1.00  0.00     0.107 A 
ATOM     16  C   UNL A   1      31.871  23.591  23.400  1.00  0.00    -0.031 A 
ATOM     17  C   UNL A   1      34.255  23.316  23.195  1.00  0.00     0.261 A 
ATOM     18  C   UNL A   1      30.469  24.131  23.240  1.00  0.00     0.045 C 
ATOM     19  C   UNL A   1      31.914  22.499  24.386  1.00  0.00     0.025 A 
ATOM     20  N   UNL A   1      34.161  22.188  23.951  1.00  0.00    -0.326 N 
ATOM     21  O   UNL A   1      35.385  23.729  22.999  1.00  0.00    -0.269 OA
ATOM     22  C   UNL A   1      33.039  21.813  24.619  1.00  0.00     0.015 A 
ATOM     23  H   UNL A   1      34.955  21.608  24.018  1.00  0.00     0.169 HD
ATOM     24  C   UNL A   1      33.215  20.757  25.663  1.00  0.00     0.064 C 
ENDBRANCH  12  15
ENDBRANCH   7  11
ENDBRANCH   4   7
ENDBRANCH   2   3
ENDBRANCH   1   2
BRANCH   1  25
ATOM     25  C   UNL A   1      31.402  31.941  26.510  1.00  0.00     0.023 C 
BRANCH  25  26
ATOM     26  C   UNL A   1      32.657  32.520  27.146  1.00  0.00     0.116 C 
BRANCH  26  27
ATOM     27  N   UNL A   1      32.479  33.909  27.532  1.00  0.00    -0.352 N 
ATOM     28  C   UNL A   1      33.069  34.621  28.548  1.00  0.00     0.251 C 
ATOM     29  H   UNL A   1      31.840  34.418  26.983  1.00  0.00     0.163 HD
ATOM     30  O   UNL A   1      32.634  35.731  28.844  1.00  0.00    -0.269 OA
BRANCH  28  31
ATOM     31  C   UNL A   1      34.224  34.073  29.300  1.00  0.00     0.039 A 
ATOM     32  C   UNL A   1      35.517  34.365  28.851  1.00  0.00     0.014 A 
ATOM     33  C   UNL A   1      34.048  33.210  30.387  1.00  0.00     0.014 A 
ATOM     34  C   UNL A   1      36.627  33.819  29.500  1.00  0.00     0.010 A 
ATOM     35  C   UNL A   1      35.158  32.708  31.069  1.00  0.00     0.010 A 
ATOM     36  C   UNL A   1      36.457  32.991  30.621  1.00  0.00    -0.014 A 
BRANCH  36  37
ATOM     37  C   UNL A   1      37.624  32.369  31.298  1.00  0.00     0.031 A 
ATOM     38  C   UNL A   1      38.392  31.272  30.613  1.00  0.00     0.074 A 
ATOM     39  C   UNL A   1      37.978  32.765  32.535  1.00  0.00     0.049 A 
ATOM     40  N   UNL A   1      39.405  30.569  31.051  1.00  0.00    -0.248 NA
ATOM     41  C   UNL A   1      37.948  30.904  29.259  1.00  0.00     0.031 C 
ATOM     42  C   UNL A   1      37.303  33.804  33.313  1.00  0.00     0.029 A 
ATOM     43  N   UNL A   1      38.995  32.340  33.355  1.00  0.00    -0.354 N 
ATOM     44  C   UNL A   1      39.711  29.672  30.036  1.00  0.00     0.074 A 
ATOM     45  C   UNL A   1      38.746  29.885  28.979  1.00  0.00     0.031 C 
ATOM     46  C   UNL A   1      37.939  33.954  34.486  1.00  0.00     0.029 A 
ATOM     47  C   UNL A   1      39.047  33.003  34.556  1.00  0.00     0.049 A 
ATOM     48  H   UNL A   1      39.626  31.627  33.105  1.00  0.00     0.167 HD
ATOM     49  C   UNL A   1      40.720  28.770  29.979  1.00  0.00     0.037 A 
ATOM     50  C   UNL A   1      39.893  32.862  35.594  1.00  0.00     0.037 A 
ATOM     51  C   UNL A   1      41.697  28.579  31.018  1.00  0.00     0.049 A 
ATOM     52  C   UNL A   1      40.998  31.842  35.514  1.00  0.00     0.074 A 
ATOM     53  C   UNL A   1      42.781  27.719  31.036  1.00  0.00     0.029 A 
ATOM     54  N   UNL A   1      41.709  29.264  32.224  1.00  0.00    -0.354 N 
ATOM     55  N   UNL A   1      41.296  31.025  34.536  1.00  0.00    -0.248 NA
ATOM     56  C   UNL A   1      41.882  31.729  36.683  1.00  0.00     0.031 C 
ATOM     57  C   UNL A   1      43.431  27.861  32.265  1.00  0.00     0.029 A 
ATOM     58  C   UNL A   1      42.774  28.836  32.998  1.00  0.00     0.049 A 
ATOM     59  H   UNL A   1      41.058  29.954  32.488  1.00  0.00     0.167 HD
ATOM     60  C   UNL A   1      42.410  30.313  34.959  1.00  0.00     0.074 A 
ATOM     61  C   UNL A   1      42.744  30.804  36.280  1.00  0.00     0.031 C 
ATOM     62  C   UNL A   1      43.092  29.338  34.311  1.00  0.00     0.037 A 
BRANCH  49  63
ATOM     63  C   UNL A   1      40.827  27.927  28.743  1.00  0.00     0.064 A 
ATOM     64  C   UNL A   1      40.104  26.732  28.610  1.00  0.00     0.173 A 
ATOM     65  C   UNL A   1      41.624  28.336  27.663  1.00  0.00     0.173 A 
ATOM     66  F   UNL A   1      39.336  26.292  29.618  1.00  0.00    -0.203 F 
ATOM     67  C   UNL A   1      40.196  25.964  27.453  1.00  0.00     0.198 A 
ATOM     68  C   UNL A   1      41.693  27.579  26.498  1.00  0.00     0.198 A 
ATOM     69  F   UNL A   1      42.329  29.475  27.737  1.00  0.00    -0.203 F 
ATOM     70  F   UNL A   1      39.531  24.803  27.366  1.00  0.00    -0.200 F 
ATOM     71  C   UNL A   1      40.986  26.391  26.395  1.00  0.00     0.200 A 
ATOM     72  F   UNL A   1      42.446  27.998  25.470  1.00  0.00    -0.200 F 
ATOM     73  F   UNL A   1      41.067  25.654  25.278  1.00  0.00    -0.200 F 
ENDBRANCH  49  63
BRANCH  50  74
ATOM     74  C   UNL A   1      39.752  33.742  36.782  1.00  0.00     0.064 A 
ATOM     75  C   UNL A   1      40.394  34.987  36.828  1.00  0.00     0.173 A 
ATOM     76  C   UNL A   1      38.954  33.376  37.875  1.00  0.00     0.173 A 
ATOM     77  F   UNL A   1      41.184  35.370  35.815  1.00  0.00    -0.203 F 
ATOM     78  C   UNL A   1      40.247  35.832  37.926  1.00  0.00     0.198 A 
ATOM     79  C   UNL A   1      38.790  34.231  38.963  1.00  0.00     0.198 A 
ATOM     80  F   UNL A   1      38.317  32.196  37.877  1.00  0.00    -0.203 F 
ATOM     81  F   UNL A   1      40.893  37.006  37.956  1.00  0.00    -0.200 F 
ATOM     82  C   UNL A   1      39.439  35.457  38.989  1.00  0.00     0.200 A 
ATOM     83  F   UNL A   1      37.999  33.870  39.983  1.00  0.00    -0.200 F 
ATOM     84  F   UNL A   1      39.288  36.275  40.039  1.00  0.00    -0.200 F 
ENDBRANCH  50  74
BRANCH  62  85
ATOM     85  C   UNL A   1      44.277  28.739  35.008  1.00  0.00     0.064 A 
ATOM     86  C   UNL A   1      44.151  27.592  35.805  1.00  0.00     0.173 A 
ATOM     87  C   UNL A   1      45.561  29.271  34.816  1.00  0.00     0.173 A 
ATOM     88  F   UNL A   1      42.942  27.055  36.029  1.00  0.00    -0.203 F 
ATOM     89  C   UNL A   1      45.268  27.004  36.391  1.00  0.00     0.198 A 
ATOM     90  C   UNL A   1      46.678  28.666  35.385  1.00  0.00     0.198 A 
ATOM     91  F   UNL A   1      45.733  30.363  34.055  1.00  0.00    -0.203 F 
ATOM     92  F   UNL A   1      45.122  25.923  37.170  1.00  0.00    -0.200 F 
ATOM     93  C   UNL A   1      46.530  27.535  36.173  1.00  0.00     0.200 A 
ATOM     94  F   UNL A   1      47.899  29.172  35.162  1.00  0.00    -0.200 F 
ATOM     95  F   UNL A   1      47.606  26.957  36.725  1.00  0.00    -0.200 F 
ENDBRANCH  62  85
ENDBRANCH  36  37
ENDBRANCH  28  31
ENDBRANCH  26  27
ENDBRANCH  25  26
ENDBRANCH   1  25
TORSDOF 14
ENDMDL
MODEL 3
REMARK VINA RESULT:     -11.7      4.987      9.349
REMARK SMILES CC[C@@](C)(NC(=O)c1c(C)cc(C)[nH]c1=O)C(=O)NCCCCNC(=O)c1ccc(-c2c3nc(c(-c4c(F)c(F)c(F)c(F)c4F)c4ccc([nH]4)c(-c4c(F)c(F)c(F)c(F)c4F)c4nc(c(-c5c(F)c(F)c(F)c(F)c5F)c5ccc2[nH]5)C=C4)C=C3)cc1
REMARK SMILES IDX 21 1 20 2 19 3 17 4 18 5 3 7 4 8 2 9 1 10 5 11 6 12 7 14
REMARK SMILES IDX 8 15 9 16 15 17 10 18 11 19 14 20 16 21 12 22 13 24 22 25
REMARK SMILES IDX 23 26 24 27 25 28 26 30 27 31 28 32 89 33 29 34 88 35 30 36
REMARK SMILES IDX 31 37 32 38 82 39 33 40 87 41 81 42 83 43 34 44 86 45 80 46
REMARK SMILES IDX 79 47 35 49 67 50 47 51 66 52 48 53 51 54 65 55 84 56 49 57
REMARK SMILES IDX 50 58 64 60 85 61 52 62 36 63 37 64 45 65 38 66 39 67 43 68
REMARK SMILES IDX 46 69 40 70 41 71 44 72 42 73 68 74 69 75 77 76 70 77 71 78
REMARK SMILES IDX 75 79 78 80 72 81 73 82 76 83 74 84 53 85 54 86 62 87 55 88
REMARK SMILES IDX 56 89 60 90 63 91 57 92 58 93 61 94 59 95
REMARK H PARENT 19 6 5 13 14 23 24 29 83 48 51 59
REMARK Flexibility Score: inf
ROOT
ATOM      1  C   UNL A   1      31.290  30.684  25.685  1.00  0.00     0.023 C 
ENDROOT
BRANCH   1   2
ATOM      2  C   UNL A   1      32.549  29.816  25.756  1.00  0.00     0.116 C 
BRANCH   2   3
ATOM      3  N   UNL A   1      33.371  29.655  24.575  1.00  0.00    -0.354 N 
ATOM      4  C   UNL A   1      33.510  28.704  23.603  1.00  0.00     0.245 C 
ATOM      5  O   UNL A   1      34.109  29.080  22.585  1.00  0.00    -0.272 OA
ATOM      6  H   UNL A   1      33.977  30.418  24.437  1.00  0.00     0.163 HD
BRANCH   4   7
ATOM      7  C   UNL A   1      32.839  27.297  23.658  1.00  0.00     0.116 C 
ATOM      8  C   UNL A   1      33.711  26.492  24.662  1.00  0.00     0.045 C 
BRANCH   7   9
ATOM      9  C   UNL A   1      31.381  27.321  24.208  1.00  0.00     0.035 C 
ATOM     10  C   UNL A   1      30.256  27.645  23.224  1.00  0.00     0.007 C 
ENDBRANCH   7   9
BRANCH   7  11
ATOM     11  N   UNL A   1      32.822  26.527  22.377  1.00  0.00    -0.338 N 
ATOM     12  C   UNL A   1      33.023  25.248  21.954  1.00  0.00     0.258 C 
ATOM     13  H   UNL A   1      32.602  27.114  21.618  1.00  0.00     0.164 HD
ATOM     14  O   UNL A   1      33.150  25.162  20.724  1.00  0.00    -0.269 OA
BRANCH  12  15
ATOM     15  C   UNL A   1      33.046  23.988  22.781  1.00  0.00     0.107 A 
ATOM     16  C   UNL A   1      31.917  23.527  23.394  1.00  0.00    -0.031 A 
ATOM     17  C   UNL A   1      34.308  23.306  23.195  1.00  0.00     0.261 A 
ATOM     18  C   UNL A   1      30.504  24.035  23.229  1.00  0.00     0.045 C 
ATOM     19  C   UNL A   1      31.983  22.441  24.385  1.00  0.00     0.025 A 
ATOM     20  N   UNL A   1      34.238  22.179  23.955  1.00  0.00    -0.326 N 
ATOM     21  O   UNL A   1      35.428  23.744  22.999  1.00  0.00    -0.269 OA
ATOM     22  C   UNL A   1      33.123  21.781  24.622  1.00  0.00     0.015 A 
ATOM     23  H   UNL A   1      35.044  21.618  24.026  1.00  0.00     0.169 HD
ATOM     24  C   UNL A   1      33.321  20.734  25.671  1.00  0.00     0.064 C 
ENDBRANCH  12  15
ENDBRANCH   7  11
ENDBRANCH   4   7
ENDBRANCH   2   3
ENDBRANCH   1   2
BRANCH   1  25
ATOM     25  C   UNL A   1      31.241  32.033  26.409  1.00  0.00     0.023 C 
BRANCH  25  26
ATOM     26  C   UNL A   1      32.491  32.473  27.158  1.00  0.00     0.116 C 
BRANCH  26  27
ATOM     27  N   UNL A   1      32.432  33.874  27.538  1.00  0.00    -0.352 N 
ATOM     28  C   UNL A   1      33.133  34.551  28.505  1.00  0.00     0.251 C 
ATOM     29  H   UNL A   1      31.792  34.420  27.027  1.00  0.00     0.163 HD
ATOM     30  O   UNL A   1      32.793  35.690  28.815  1.00  0.00    -0.269 OA
BRANCH  28  31
ATOM     31  C   UNL A   1      34.296  33.932  29.186  1.00  0.00     0.039 A 
ATOM     32  C   UNL A   1      35.584  34.326  28.805  1.00  0.00     0.014 A 
ATOM     33  C   UNL A   1      34.136  32.914  30.130  1.00  0.00     0.014 A 
ATOM     34  C   UNL A   1      36.704  33.722  29.384  1.00  0.00     0.010 A 
ATOM     35  C   UNL A   1      35.253  32.348  30.748  1.00  0.00     0.010 A 
ATOM     36  C   UNL A   1      36.548  32.733  30.368  1.00  0.00    -0.014 A 
BRANCH  36  37
ATOM     37  C   UNL A   1      37.726  32.053  30.964  1.00  0.00     0.031 A 
ATOM     38  C   UNL A   1      38.186  32.425  32.347  1.00  0.00     0.074 A 
ATOM     39  C   UNL A   1      38.399  31.125  30.259  1.00  0.00     0.049 A 
ATOM     40  N   UNL A   1      39.217  31.987  33.025  1.00  0.00    -0.248 NA
ATOM     41  C   UNL A   1      37.391  33.441  33.055  1.00  0.00     0.031 C 
ATOM     42  C   UNL A   1      38.065  30.690  28.903  1.00  0.00     0.029 A 
ATOM     43  N   UNL A   1      39.506  30.379  30.587  1.00  0.00    -0.354 N 
ATOM     44  C   UNL A   1      39.199  32.679  34.229  1.00  0.00     0.074 A 
ATOM     45  C   UNL A   1      38.086  33.602  34.171  1.00  0.00     0.031 C 
ATOM     46  C   UNL A   1      38.932  29.736  28.524  1.00  0.00     0.029 A 
ATOM     47  C   UNL A   1      39.899  29.513  29.597  1.00  0.00     0.049 A 
ATOM     48  H   UNL A   1      39.973  30.460  31.450  1.00  0.00     0.167 HD
ATOM     49  C   UNL A   1      40.021  32.540  35.296  1.00  0.00     0.037 A 
ATOM     50  C   UNL A   1      40.921  28.637  29.560  1.00  0.00     0.037 A 
ATOM     51  C   UNL A   1      41.111  31.603  35.365  1.00  0.00     0.049 A 
ATOM     52  C   UNL A   1      41.831  28.512  30.752  1.00  0.00     0.074 A 
ATOM     53  C   UNL A   1      41.974  31.360  36.419  1.00  0.00     0.029 A 
ATOM     54  N   UNL A   1      41.482  30.750  34.337  1.00  0.00    -0.354 N 
ATOM     55  N   UNL A   1      41.783  29.147  31.897  1.00  0.00    -0.248 NA
ATOM     56  C   UNL A   1      42.934  27.546  30.647  1.00  0.00     0.031 C 
ATOM     57  C   UNL A   1      42.888  30.381  36.017  1.00  0.00     0.029 A 
ATOM     58  C   UNL A   1      42.571  29.988  34.727  1.00  0.00     0.049 A 
ATOM     59  H   UNL A   1      41.036  30.693  33.462  1.00  0.00     0.167 HD
ATOM     60  C   UNL A   1      42.834  28.649  32.655  1.00  0.00     0.074 A 
ATOM     61  C   UNL A   1      43.496  27.647  31.845  1.00  0.00     0.031 C 
ATOM     62  C   UNL A   1      43.216  28.994  33.908  1.00  0.00     0.037 A 
BRANCH  49  63
ATOM     63  C   UNL A   1      39.765  33.418  36.486  1.00  0.00     0.064 A 
ATOM     64  C   UNL A   1      40.414  34.653  36.635  1.00  0.00     0.173 A 
ATOM     65  C   UNL A   1      38.834  33.042  37.466  1.00  0.00     0.173 A 
ATOM     66  F   UNL A   1      41.321  35.052  35.731  1.00  0.00    -0.203 F 
ATOM     67  C   UNL A   1      40.158  35.468  37.734  1.00  0.00     0.198 A 
ATOM     68  C   UNL A   1      38.562  33.872  38.550  1.00  0.00     0.198 A 
ATOM     69  F   UNL A   1      38.182  31.874  37.367  1.00  0.00    -0.203 F 
ATOM     70  F   UNL A   1      40.822  36.624  37.878  1.00  0.00    -0.200 F 
ATOM     71  C   UNL A   1      39.228  35.081  38.688  1.00  0.00     0.200 A 
ATOM     72  F   UNL A   1      37.653  33.503  39.464  1.00  0.00    -0.200 F 
ATOM     73  F   UNL A   1      38.977  35.871  39.741  1.00  0.00    -0.200 F 
ENDBRANCH  49  63
BRANCH  50  74
ATOM     74  C   UNL A   1      41.109  27.779  28.362  1.00  0.00     0.064 A 
ATOM     75  C   UNL A   1      41.944  28.190  27.315  1.00  0.00     0.173 A 
ATOM     76  C   UNL A   1      40.489  26.527  28.253  1.00  0.00     0.173 A 
ATOM     77  F   UNL A   1      42.541  29.389  27.366  1.00  0.00    -0.203 F 
ATOM     78  C   UNL A   1      42.148  27.381  26.198  1.00  0.00     0.198 A 
ATOM     79  C   UNL A   1      40.711  25.709  27.146  1.00  0.00     0.198 A 
ATOM     80  F   UNL A   1      39.682  26.088  29.231  1.00  0.00    -0.203 F 
ATOM     81  F   UNL A   1      42.930  27.809  25.198  1.00  0.00    -0.200 F 
ATOM     82  C   UNL A   1      41.538  26.139  26.118  1.00  0.00     0.200 A 
ATOM     83  F   UNL A   1      40.129  24.504  27.079  1.00  0.00    -0.200 F 
ATOM     84  F   UNL A   1      41.745  25.356  25.051  1.00  0.00    -0.200 F 
ENDBRANCH  50  74
BRANCH  62  85
ATOM     85  C   UNL A   1      44.397  28.280  34.495  1.00  0.00     0.064 A 
ATOM     86  C   UNL A   1      44.250  27.060  35.169  1.00  0.00     0.173 A 
ATOM     87  C   UNL A   1      45.695  28.782  34.313  1.00  0.00     0.173 A 
ATOM     88  F   UNL A   1      43.027  26.547  35.379  1.00  0.00    -0.203 F 
ATOM     89  C   UNL A   1      45.361  26.371  35.649  1.00  0.00     0.198 A 
ATOM     90  C   UNL A   1      46.804  28.078  34.774  1.00  0.00     0.198 A 
ATOM     91  F   UNL A   1      45.887  29.942  33.667  1.00  0.00    -0.203 F 
ATOM     92  F   UNL A   1      45.195  25.219  36.314  1.00  0.00    -0.200 F 
ATOM     93  C   UNL A   1      46.635  26.875  35.443  1.00  0.00     0.200 A 
ATOM     94  F   UNL A   1      48.037  28.560  34.563  1.00  0.00    -0.200 F 
ATOM     95  F   UNL A   1      47.704  26.202  35.891  1.00  0.00    -0.200 F 
ENDBRANCH  62  85
ENDBRANCH  36  37
ENDBRANCH  28  31
ENDBRANCH  26  27
ENDBRANCH  25  26
ENDBRANCH   1  25
TORSDOF 14
ENDMDL
