MODEL 1
REMARK VINA RESULT:     -11.9      0.000      0.000
REMARK SMILES CC(C)C[C@@H](C(=O)NCCCCNC(=O)c1ccc(-c2c3nc(c(-c4c(F)c(F)c(F)c(F)c4F)c4ccc([nH]4)c(-c4c(F)c(F)c(F)c(F)c4F)c4nc(c(-c5c(F)c(F)c(F)c(F)c5F)c5ccc2[nH]5)C=C4)C=C3)cc1)[C@@H]1CCC[C@@H](C)C1
REMARK SMILES IDX 10 1 9 2 8 3 6 4 7 5 5 7 4 8 2 9 1 10 3 11 79 12 80 13 85 14
REMARK SMILES IDX 81 15 83 16 82 17 84 18 11 19 12 20 13 21 14 22 15 24 16 25
REMARK SMILES IDX 17 26 78 27 18 28 77 29 19 30 20 31 21 32 71 33 22 34 76 35
REMARK SMILES IDX 70 36 72 37 23 38 75 39 69 40 68 41 24 43 56 44 36 45 55 46
REMARK SMILES IDX 37 47 40 48 54 49 73 50 38 51 39 52 53 54 74 55 41 56 25 57
REMARK SMILES IDX 26 58 34 59 27 60 28 61 32 62 35 63 29 64 30 65 33 66 31 67
REMARK SMILES IDX 57 68 58 69 66 70 59 71 60 72 64 73 67 74 61 75 62 76 65 77
REMARK SMILES IDX 63 78 42 79 43 80 51 81 44 82 45 83 49 84 52 85 46 86 47 87
REMARK SMILES IDX 50 88 48 89
REMARK H PARENT 8 6 13 23 72 42 40 53
REMARK Flexibility Score: inf
ROOT
ATOM      1  C   UNL A   1      31.873  27.845  27.246  1.00  0.00     0.023 C 
ENDROOT
BRANCH   1   2
ATOM      2  C   UNL A   1      31.966  26.637  26.311  1.00  0.00     0.116 C 
BRANCH   2   3
ATOM      3  N   UNL A   1      31.174  25.522  26.778  1.00  0.00    -0.356 N 
ATOM      4  C   UNL A   1      31.303  24.182  26.645  1.00  0.00     0.223 C 
ATOM      5  O   UNL A   1      30.521  23.505  27.326  1.00  0.00    -0.275 OA
ATOM      6  H   UNL A   1      30.382  25.792  27.297  1.00  0.00     0.163 HD
BRANCH   4   7
ATOM      7  C   UNL A   1      32.315  23.471  25.727  1.00  0.00     0.082 C 
BRANCH   7   8
ATOM      8  C   UNL A   1      31.877  23.255  24.255  1.00  0.00     0.016 C 
BRANCH   8   9
ATOM      9  C   UNL A   1      32.548  24.010  23.096  1.00  0.00    -0.017 C 
ATOM     10  C   UNL A   1      33.495  25.104  23.597  1.00  0.00     0.007 C 
ATOM     11  C   UNL A   1      33.344  23.041  22.212  1.00  0.00     0.007 C 
ENDBRANCH   8   9
ENDBRANCH   7   8
BRANCH   7  12
ATOM     12  C   UNL A   1      33.355  22.543  26.449  1.00  0.00     0.002 C 
ATOM     13  C   UNL A   1      34.795  23.108  26.469  1.00  0.00     0.004 C 
ATOM     14  C   UNL A   1      33.410  21.045  26.143  1.00  0.00     0.007 C 
ATOM     15  C   UNL A   1      35.677  22.681  25.295  1.00  0.00     0.001 C 
ATOM     16  C   UNL A   1      34.202  20.683  24.887  1.00  0.00    -0.014 C 
ATOM     17  C   UNL A   1      35.640  21.179  25.033  1.00  0.00     0.003 C 
ATOM     18  C   UNL A   1      34.157  19.181  24.617  1.00  0.00     0.007 C 
ENDBRANCH   7  12
ENDBRANCH   4   7
ENDBRANCH   2   3
ENDBRANCH   1   2
BRANCH   1  19
ATOM     19  C   UNL A   1      31.526  29.157  26.558  1.00  0.00     0.023 C 
BRANCH  19  20
ATOM     20  C   UNL A   1      32.698  30.094  26.301  1.00  0.00     0.116 C 
BRANCH  20  21
ATOM     21  N   UNL A   1      32.528  31.450  26.806  1.00  0.00    -0.352 N 
ATOM     22  C   UNL A   1      33.447  32.215  27.497  1.00  0.00     0.251 C 
ATOM     23  H   UNL A   1      31.654  31.871  26.635  1.00  0.00     0.163 HD
ATOM     24  O   UNL A   1      33.172  33.339  27.890  1.00  0.00    -0.269 OA
BRANCH  22  25
ATOM     25  C   UNL A   1      34.759  31.610  27.811  1.00  0.00     0.039 A 
ATOM     26  C   UNL A   1      35.862  32.449  27.978  1.00  0.00     0.014 A 
ATOM     27  C   UNL A   1      34.849  30.247  28.101  1.00  0.00     0.014 A 
ATOM     28  C   UNL A   1      37.028  31.939  28.550  1.00  0.00     0.010 A 
ATOM     29  C   UNL A   1      35.974  29.767  28.760  1.00  0.00     0.010 A 
ATOM     30  C   UNL A   1      37.069  30.612  29.007  1.00  0.00    -0.014 A 
BRANCH  30  31
ATOM     31  C   UNL A   1      38.232  30.090  29.772  1.00  0.00     0.031 A 
ATOM     32  C   UNL A   1      38.457  30.534  31.189  1.00  0.00     0.074 A 
ATOM     33  C   UNL A   1      39.134  29.295  29.162  1.00  0.00     0.049 A 
ATOM     34  N   UNL A   1      39.459  30.273  31.989  1.00  0.00    -0.248 NA
ATOM     35  C   UNL A   1      37.441  31.425  31.771  1.00  0.00     0.031 C 
ATOM     36  C   UNL A   1      39.075  28.858  27.766  1.00  0.00     0.029 A 
ATOM     37  N   UNL A   1      40.288  28.722  29.637  1.00  0.00    -0.354 N 
ATOM     38  C   UNL A   1      39.210  30.993  33.150  1.00  0.00     0.074 A 
ATOM     39  C   UNL A   1      37.992  31.741  32.932  1.00  0.00     0.031 C 
ATOM     40  C   UNL A   1      40.125  28.060  27.508  1.00  0.00     0.029 A 
ATOM     41  C   UNL A   1      40.949  27.956  28.708  1.00  0.00     0.049 A 
ATOM     42  H   UNL A   1      40.611  28.848  30.559  1.00  0.00     0.167 HD
ATOM     43  C   UNL A   1      39.916  31.006  34.305  1.00  0.00     0.037 A 
ATOM     44  C   UNL A   1      42.090  27.247  28.814  1.00  0.00     0.037 A 
ATOM     45  C   UNL A   1      41.095  30.217  34.540  1.00  0.00     0.049 A 
ATOM     46  C   UNL A   1      42.820  27.226  30.128  1.00  0.00     0.074 A 
ATOM     47  C   UNL A   1      41.836  30.097  35.702  1.00  0.00     0.029 A 
ATOM     48  N   UNL A   1      41.697  29.402  33.593  1.00  0.00    -0.354 N 
ATOM     49  N   UNL A   1      42.534  27.852  31.244  1.00  0.00    -0.248 NA
ATOM     50  C   UNL A   1      44.029  26.392  30.203  1.00  0.00     0.031 C 
ATOM     51  C   UNL A   1      42.903  29.228  35.452  1.00  0.00     0.029 A 
ATOM     52  C   UNL A   1      42.806  28.780  34.144  1.00  0.00     0.049 A 
ATOM     53  H   UNL A   1      41.384  29.283  32.668  1.00  0.00     0.167 HD
ATOM     54  C   UNL A   1      43.507  27.470  32.157  1.00  0.00     0.074 A 
ATOM     55  C   UNL A   1      44.386  26.547  31.470  1.00  0.00     0.031 C 
ATOM     56  C   UNL A   1      43.660  27.853  33.447  1.00  0.00     0.037 A 
BRANCH  43  57
ATOM     57  C   UNL A   1      39.417  31.891  35.407  1.00  0.00     0.064 A 
ATOM     58  C   UNL A   1      38.529  31.416  36.385  1.00  0.00     0.173 A 
ATOM     59  C   UNL A   1      39.842  33.225  35.498  1.00  0.00     0.173 A 
ATOM     60  F   UNL A   1      38.081  30.152  36.332  1.00  0.00    -0.203 F 
ATOM     61  C   UNL A   1      38.060  32.252  37.393  1.00  0.00     0.198 A 
ATOM     62  C   UNL A   1      39.392  34.050  36.526  1.00  0.00     0.198 A 
ATOM     63  F   UNL A   1      40.692  33.728  34.591  1.00  0.00    -0.203 F 
ATOM     64  F   UNL A   1      37.170  31.790  38.283  1.00  0.00    -0.200 F 
ATOM     65  C   UNL A   1      38.496  33.566  37.467  1.00  0.00     0.200 A 
ATOM     66  F   UNL A   1      39.822  35.317  36.602  1.00  0.00    -0.200 F 
ATOM     67  F   UNL A   1      38.044  34.369  38.439  1.00  0.00    -0.200 F 
ENDBRANCH  43  57
BRANCH  44  68
ATOM     68  C   UNL A   1      42.586  26.460  27.656  1.00  0.00     0.064 A 
ATOM     69  C   UNL A   1      42.107  25.165  27.413  1.00  0.00     0.173 A 
ATOM     70  C   UNL A   1      43.547  26.978  26.775  1.00  0.00     0.173 A 
ATOM     71  F   UNL A   1      41.203  24.620  28.240  1.00  0.00    -0.203 F 
ATOM     72  C   UNL A   1      42.583  24.410  26.343  1.00  0.00     0.198 A 
ATOM     73  C   UNL A   1      44.004  26.229  25.692  1.00  0.00     0.198 A 
ATOM     74  F   UNL A   1      44.032  28.213  26.962  1.00  0.00    -0.203 F 
ATOM     75  F   UNL A   1      42.138  23.159  26.158  1.00  0.00    -0.200 F 
ATOM     76  C   UNL A   1      43.527  24.944  25.481  1.00  0.00     0.200 A 
ATOM     77  F   UNL A   1      44.909  26.754  24.853  1.00  0.00    -0.200 F 
ATOM     78  F   UNL A   1      43.984  24.219  24.451  1.00  0.00    -0.200 F 
ENDBRANCH  44  68
BRANCH  56  79
ATOM     79  C   UNL A   1      44.799  27.250  34.212  1.00  0.00     0.064 A 
ATOM     80  C   UNL A   1      46.048  27.881  34.283  1.00  0.00     0.173 A 
ATOM     81  C   UNL A   1      44.622  26.052  34.919  1.00  0.00     0.173 A 
ATOM     82  F   UNL A   1      46.268  29.021  33.611  1.00  0.00    -0.203 F 
ATOM     83  C   UNL A   1      47.088  27.322  35.021  1.00  0.00     0.198 A 
ATOM     84  C   UNL A   1      45.656  25.509  35.675  1.00  0.00     0.198 A 
ATOM     85  F   UNL A   1      43.442  25.413  34.885  1.00  0.00    -0.203 F 
ATOM     86  F   UNL A   1      48.287  27.921  35.045  1.00  0.00    -0.200 F 
ATOM     87  C   UNL A   1      46.890  26.141  35.721  1.00  0.00     0.200 A 
ATOM     88  F   UNL A   1      45.460  24.373  36.359  1.00  0.00    -0.200 F 
ATOM     89  F   UNL A   1      47.889  25.610  36.438  1.00  0.00    -0.200 F 
ENDBRANCH  56  79
ENDBRANCH  30  31
ENDBRANCH  22  25
ENDBRANCH  20  21
ENDBRANCH  19  20
ENDBRANCH   1  19
TORSDOF 14
ENDMDL
MODEL 2
REMARK VINA RESULT:     -11.9      1.463      2.085
REMARK SMILES CC(C)C[C@@H](C(=O)NCCCCNC(=O)c1ccc(-c2c3nc(c(-c4c(F)c(F)c(F)c(F)c4F)c4ccc([nH]4)c(-c4c(F)c(F)c(F)c(F)c4F)c4nc(c(-c5c(F)c(F)c(F)c(F)c5F)c5ccc2[nH]5)C=C4)C=C3)cc1)[C@@H]1CCC[C@@H](C)C1
REMARK SMILES IDX 10 1 9 2 8 3 6 4 7 5 5 7 4 8 2 9 1 10 3 11 79 12 80 13 85 14
REMARK SMILES IDX 81 15 83 16 82 17 84 18 11 19 12 20 13 21 14 22 15 24 16 25
REMARK SMILES IDX 17 26 78 27 18 28 77 29 19 30 20 31 21 32 71 33 22 34 76 35
REMARK SMILES IDX 70 36 72 37 23 38 75 39 69 40 68 41 24 43 56 44 36 45 55 46
REMARK SMILES IDX 37 47 40 48 54 49 73 50 38 51 39 52 53 54 74 55 41 56 25 57
REMARK SMILES IDX 26 58 34 59 27 60 28 61 32 62 35 63 29 64 30 65 33 66 31 67
REMARK SMILES IDX 57 68 58 69 66 70 59 71 60 72 64 73 67 74 61 75 62 76 65 77
REMARK SMILES IDX 63 78 42 79 43 80 51 81 44 82 45 83 49 84 52 85 46 86 47 87
REMARK SMILES IDX 50 88 48 89
REMARK H PARENT 8 6 13 23 72 42 40 53
REMARK Flexibility Score: inf
ROOT
ATOM      1  C   UNL A   1      33.116  28.847  24.904  1.00  0.00     0.023 C 
ENDROOT
BRANCH   1   2
ATOM      2  C   UNL A   1      33.331  28.958  23.393  1.00  0.00     0.116 C 
BRANCH   2   3
ATOM      3  N   UNL A   1      32.091  28.862  22.657  1.00  0.00    -0.356 N 
ATOM      4  C   UNL A   1      31.230  27.843  22.436  1.00  0.00     0.223 C 
ATOM      5  O   UNL A   1      30.164  28.160  21.888  1.00  0.00    -0.275 OA
ATOM      6  H   UNL A   1      31.820  29.707  22.230  1.00  0.00     0.163 HD
BRANCH   4   7
ATOM      7  C   UNL A   1      31.482  26.368  22.798  1.00  0.00     0.082 C 
BRANCH   7   8
ATOM      8  C   UNL A   1      32.464  25.591  21.882  1.00  0.00     0.016 C 
BRANCH   8   9
ATOM      9  C   UNL A   1      33.768  24.989  22.428  1.00  0.00    -0.017 C 
ATOM     10  C   UNL A   1      34.023  25.395  23.882  1.00  0.00     0.007 C 
ATOM     11  C   UNL A   1      33.728  23.457  22.348  1.00  0.00     0.007 C 
ENDBRANCH   8   9
ENDBRANCH   7   8
BRANCH   7  12
ATOM     12  C   UNL A   1      30.341  25.662  23.613  1.00  0.00     0.002 C 
ATOM     13  C   UNL A   1      29.947  26.401  24.914  1.00  0.00     0.004 C 
ATOM     14  C   UNL A   1      30.396  24.158  23.890  1.00  0.00     0.007 C 
ATOM     15  C   UNL A   1      30.706  25.962  26.167  1.00  0.00     0.001 C 
ATOM     16  C   UNL A   1      31.269  23.763  25.081  1.00  0.00    -0.014 C 
ATOM     17  C   UNL A   1      30.748  24.448  26.343  1.00  0.00     0.003 C 
ATOM     18  C   UNL A   1      31.321  22.246  25.251  1.00  0.00     0.007 C 
ENDBRANCH   7  12
ENDBRANCH   4   7
ENDBRANCH   2   3
ENDBRANCH   1   2
BRANCH   1  19
ATOM     19  C   UNL A   1      32.171  29.885  25.491  1.00  0.00     0.023 C 
BRANCH  19  20
ATOM     20  C   UNL A   1      32.474  30.318  26.918  1.00  0.00     0.116 C 
BRANCH  20  21
ATOM     21  N   UNL A   1      32.440  31.755  27.149  1.00  0.00    -0.352 N 
ATOM     22  C   UNL A   1      33.472  32.566  27.582  1.00  0.00     0.251 C 
ATOM     23  H   UNL A   1      31.579  32.203  26.977  1.00  0.00     0.163 HD
ATOM     24  O   UNL A   1      33.307  33.764  27.760  1.00  0.00    -0.269 OA
BRANCH  22  25
ATOM     25  C   UNL A   1      34.771  31.932  27.890  1.00  0.00     0.039 A 
ATOM     26  C   UNL A   1      35.882  32.750  28.105  1.00  0.00     0.014 A 
ATOM     27  C   UNL A   1      34.840  30.558  28.128  1.00  0.00     0.014 A 
ATOM     28  C   UNL A   1      37.033  32.202  28.673  1.00  0.00     0.010 A 
ATOM     29  C   UNL A   1      35.949  30.038  28.783  1.00  0.00     0.010 A 
ATOM     30  C   UNL A   1      37.051  30.858  29.078  1.00  0.00    -0.014 A 
BRANCH  30  31
ATOM     31  C   UNL A   1      38.196  30.292  29.838  1.00  0.00     0.031 A 
ATOM     32  C   UNL A   1      38.428  30.705  31.263  1.00  0.00     0.074 A 
ATOM     33  C   UNL A   1      39.078  29.482  29.218  1.00  0.00     0.049 A 
ATOM     34  N   UNL A   1      39.419  30.404  32.062  1.00  0.00    -0.248 NA
ATOM     35  C   UNL A   1      37.434  31.614  31.856  1.00  0.00     0.031 C 
ATOM     36  C   UNL A   1      39.013  29.070  27.814  1.00  0.00     0.029 A 
ATOM     37  N   UNL A   1      40.214  28.870  29.687  1.00  0.00    -0.354 N 
ATOM     38  C   UNL A   1      39.186  31.110  33.234  1.00  0.00     0.074 A 
ATOM     39  C   UNL A   1      37.989  31.896  33.025  1.00  0.00     0.031 C 
ATOM     40  C   UNL A   1      40.042  28.249  27.546  1.00  0.00     0.029 A 
ATOM     41  C   UNL A   1      40.858  28.102  28.747  1.00  0.00     0.049 A 
ATOM     42  H   UNL A   1      40.538  28.972  30.612  1.00  0.00     0.167 HD
ATOM     43  C   UNL A   1      39.887  31.084  34.392  1.00  0.00     0.037 A 
ATOM     44  C   UNL A   1      41.978  27.360  28.846  1.00  0.00     0.037 A 
ATOM     45  C   UNL A   1      41.043  30.259  34.618  1.00  0.00     0.049 A 
ATOM     46  C   UNL A   1      42.703  27.297  30.162  1.00  0.00     0.074 A 
ATOM     47  C   UNL A   1      41.776  30.100  35.780  1.00  0.00     0.029 A 
ATOM     48  N   UNL A   1      41.626  29.444  33.659  1.00  0.00    -0.354 N 
ATOM     49  N   UNL A   1      42.429  27.912  31.287  1.00  0.00    -0.248 NA
ATOM     50  C   UNL A   1      43.888  26.429  30.226  1.00  0.00     0.031 C 
ATOM     51  C   UNL A   1      42.820  29.207  35.518  1.00  0.00     0.029 A 
ATOM     52  C   UNL A   1      42.716  28.783  34.203  1.00  0.00     0.049 A 
ATOM     53  H   UNL A   1      41.313  29.350  32.731  1.00  0.00     0.167 HD
ATOM     54  C   UNL A   1      43.388  27.488  32.196  1.00  0.00     0.074 A 
ATOM     55  C   UNL A   1      44.244  26.553  31.497  1.00  0.00     0.031 C 
ATOM     56  C   UNL A   1      43.546  27.845  33.494  1.00  0.00     0.037 A 
BRANCH  43  57
ATOM     57  C   UNL A   1      39.408  31.965  35.507  1.00  0.00     0.064 A 
ATOM     58  C   UNL A   1      38.515  31.493  36.482  1.00  0.00     0.173 A 
ATOM     59  C   UNL A   1      39.858  33.290  35.613  1.00  0.00     0.173 A 
ATOM     60  F   UNL A   1      38.045  30.238  36.414  1.00  0.00    -0.203 F 
ATOM     61  C   UNL A   1      38.065  32.325  37.503  1.00  0.00     0.198 A 
ATOM     62  C   UNL A   1      39.427  34.109  36.653  1.00  0.00     0.198 A 
ATOM     63  F   UNL A   1      40.714  33.789  34.709  1.00  0.00    -0.203 F 
ATOM     64  F   UNL A   1      37.170  31.868  38.389  1.00  0.00    -0.200 F 
ATOM     65  C   UNL A   1      38.525  33.629  37.591  1.00  0.00     0.200 A 
ATOM     66  F   UNL A   1      39.879  35.368  36.743  1.00  0.00    -0.200 F 
ATOM     67  F   UNL A   1      38.091  34.428  38.576  1.00  0.00    -0.200 F 
ENDBRANCH  43  57
BRANCH  44  68
ATOM     68  C   UNL A   1      42.458  26.580  27.676  1.00  0.00     0.064 A 
ATOM     69  C   UNL A   1      41.957  25.295  27.420  1.00  0.00     0.173 A 
ATOM     70  C   UNL A   1      43.422  27.093  26.797  1.00  0.00     0.173 A 
ATOM     71  F   UNL A   1      41.049  24.754  28.245  1.00  0.00    -0.203 F 
ATOM     72  C   UNL A   1      42.417  24.545  26.340  1.00  0.00     0.198 A 
ATOM     73  C   UNL A   1      43.863  26.350  25.703  1.00  0.00     0.198 A 
ATOM     74  F   UNL A   1      43.926  28.318  26.996  1.00  0.00    -0.203 F 
ATOM     75  F   UNL A   1      41.952  23.304  26.141  1.00  0.00    -0.200 F 
ATOM     76  C   UNL A   1      43.366  25.075  25.479  1.00  0.00     0.200 A 
ATOM     77  F   UNL A   1      44.772  26.870  24.866  1.00  0.00    -0.200 F 
ATOM     78  F   UNL A   1      43.807  24.355  24.439  1.00  0.00    -0.200 F 
ENDBRANCH  44  68
BRANCH  56  79
ATOM     79  C   UNL A   1      44.666  27.198  34.252  1.00  0.00     0.064 A 
ATOM     80  C   UNL A   1      45.931  27.793  34.339  1.00  0.00     0.173 A 
ATOM     81  C   UNL A   1      44.453  25.993  34.938  1.00  0.00     0.173 A 
ATOM     82  F   UNL A   1      46.185  28.938  33.687  1.00  0.00    -0.203 F 
ATOM     83  C   UNL A   1      46.953  27.194  35.070  1.00  0.00     0.198 A 
ATOM     84  C   UNL A   1      45.469  25.409  35.688  1.00  0.00     0.198 A 
ATOM     85  F   UNL A   1      43.257  25.388  34.888  1.00  0.00    -0.203 F 
ATOM     86  F   UNL A   1      48.167  27.759  35.109  1.00  0.00    -0.200 F 
ATOM     87  C   UNL A   1      46.719  26.007  35.749  1.00  0.00     0.200 A 
ATOM     88  F   UNL A   1      45.239  24.268  36.352  1.00  0.00    -0.200 F 
ATOM     89  F   UNL A   1      47.701  25.436  36.460  1.00  0.00    -0.200 F 
ENDBRANCH  56  79
ENDBRANCH  30  31
ENDBRANCH  22  25
ENDBRANCH  20  21
ENDBRANCH  19  20
ENDBRANCH   1  19
TORSDOF 14
ENDMDL
MODEL 3
REMARK VINA RESULT:     -11.8      4.486      9.691
REMARK SMILES CC(C)C[C@@H](C(=O)NCCCCNC(=O)c1ccc(-c2c3nc(c(-c4c(F)c(F)c(F)c(F)c4F)c4ccc([nH]4)c(-c4c(F)c(F)c(F)c(F)c4F)c4nc(c(-c5c(F)c(F)c(F)c(F)c5F)c5ccc2[nH]5)C=C4)C=C3)cc1)[C@@H]1CCC[C@@H](C)C1
REMARK SMILES IDX 10 1 9 2 8 3 6 4 7 5 5 7 4 8 2 9 1 10 3 11 79 12 80 13 85 14
REMARK SMILES IDX 81 15 83 16 82 17 84 18 11 19 12 20 13 21 14 22 15 24 16 25
REMARK SMILES IDX 17 26 78 27 18 28 77 29 19 30 20 31 21 32 71 33 22 34 76 35
REMARK SMILES IDX 70 36 72 37 23 38 75 39 69 40 68 41 24 43 56 44 36 45 55 46
REMARK SMILES IDX 37 47 40 48 54 49 73 50 38 51 39 52 53 54 74 55 41 56 25 57
REMARK SMILES IDX 26 58 34 59 27 60 28 61 32 62 35 63 29 64 30 65 33 66 31 67
REMARK SMILES IDX 57 68 58 69 66 70 59 71 60 72 64 73 67 74 61 75 62 76 65 77
REMARK SMILES IDX 63 78 42 79 43 80 51 81 44 82 45 83 49 84 52 85 46 86 47 87
REMARK SMILES IDX 50 88 48 89
REMARK H PARENT 8 6 13 23 72 42 40 53
REMARK Flexibility Score: inf
ROOT
ATOM      1  C   UNL A   1      35.189  22.177  26.566  1.00  0.00     0.023 C 
ENDROOT
BRANCH   1   2
ATOM      2  C   UNL A   1      34.048  21.456  27.288  1.00  0.00     0.116 C 
BRANCH   2   3
ATOM      3  N   UNL A   1      33.304  20.588  26.404  1.00  0.00    -0.356 N 
ATOM      4  C   UNL A   1      32.467  20.827  25.369  1.00  0.00     0.223 C 
ATOM      5  O   UNL A   1      32.131  19.828  24.718  1.00  0.00    -0.275 OA
ATOM      6  H   UNL A   1      33.433  19.630  26.593  1.00  0.00     0.163 HD
BRANCH   4   7
ATOM      7  C   UNL A   1      31.918  22.208  24.968  1.00  0.00     0.082 C 
BRANCH   7   8
ATOM      8  C   UNL A   1      30.742  22.756  25.819  1.00  0.00     0.016 C 
BRANCH   8   9
ATOM      9  C   UNL A   1      30.876  24.047  26.642  1.00  0.00    -0.017 C 
ATOM     10  C   UNL A   1      32.298  24.612  26.594  1.00  0.00     0.007 C 
ATOM     11  C   UNL A   1      29.907  25.118  26.125  1.00  0.00     0.007 C 
ENDBRANCH   8   9
ENDBRANCH   7   8
BRANCH   7  12
ATOM     12  C   UNL A   1      32.153  22.629  23.474  1.00  0.00     0.002 C 
ATOM     13  C   UNL A   1      33.644  22.704  23.069  1.00  0.00     0.004 C 
ATOM     14  C   UNL A   1      31.410  23.824  22.873  1.00  0.00     0.007 C 
ATOM     15  C   UNL A   1      34.298  24.076  23.246  1.00  0.00     0.001 C 
ATOM     16  C   UNL A   1      32.038  25.182  23.184  1.00  0.00    -0.014 C 
ATOM     17  C   UNL A   1      33.471  25.214  22.655  1.00  0.00     0.003 C 
ATOM     18  C   UNL A   1      31.205  26.323  22.603  1.00  0.00     0.007 C 
ENDBRANCH   7  12
ENDBRANCH   4   7
ENDBRANCH   2   3
ENDBRANCH   1   2
BRANCH   1  19
ATOM     19  C   UNL A   1      35.915  21.336  25.525  1.00  0.00     0.023 C 
BRANCH  19  20
ATOM     20  C   UNL A   1      37.328  21.788  25.185  1.00  0.00     0.116 C 
BRANCH  20  21
ATOM     21  N   UNL A   1      38.369  20.798  25.429  1.00  0.00    -0.352 N 
ATOM     22  C   UNL A   1      39.523  20.954  26.173  1.00  0.00     0.251 C 
ATOM     23  H   UNL A   1      38.235  19.915  25.016  1.00  0.00     0.163 HD
ATOM     24  O   UNL A   1      40.335  20.047  26.283  1.00  0.00    -0.269 OA
BRANCH  22  25
ATOM     25  C   UNL A   1      39.786  22.275  26.780  1.00  0.00     0.039 A 
ATOM     26  C   UNL A   1      40.776  22.378  27.760  1.00  0.00     0.014 A 
ATOM     27  C   UNL A   1      39.174  23.418  26.261  1.00  0.00     0.014 A 
ATOM     28  C   UNL A   1      41.237  23.641  28.134  1.00  0.00     0.010 A 
ATOM     29  C   UNL A   1      39.703  24.667  26.563  1.00  0.00     0.010 A 
ATOM     30  C   UNL A   1      40.751  24.791  27.490  1.00  0.00    -0.014 A 
BRANCH  30  31
ATOM     31  C   UNL A   1      41.342  26.131  27.745  1.00  0.00     0.031 A 
ATOM     32  C   UNL A   1      42.732  26.440  27.267  1.00  0.00     0.074 A 
ATOM     33  C   UNL A   1      40.667  27.032  28.486  1.00  0.00     0.049 A 
ATOM     34  N   UNL A   1      43.460  27.508  27.473  1.00  0.00    -0.248 NA
ATOM     35  C   UNL A   1      43.411  25.392  26.489  1.00  0.00     0.031 C 
ATOM     36  C   UNL A   1      39.344  26.825  29.079  1.00  0.00     0.029 A 
ATOM     37  N   UNL A   1      41.008  28.302  28.880  1.00  0.00    -0.354 N 
ATOM     38  C   UNL A   1      44.688  27.245  26.882  1.00  0.00     0.074 A 
ATOM     39  C   UNL A   1      44.626  25.900  26.355  1.00  0.00     0.031 C 
ATOM     40  C   UNL A   1      38.972  27.938  29.732  1.00  0.00     0.029 A 
ATOM     41  C   UNL A   1      40.042  28.926  29.633  1.00  0.00     0.049 A 
ATOM     42  H   UNL A   1      41.864  28.727  28.645  1.00  0.00     0.167 HD
ATOM     43  C   UNL A   1      45.760  28.062  26.761  1.00  0.00     0.037 A 
ATOM     44  C   UNL A   1      40.022  30.158  30.178  1.00  0.00     0.037 A 
ATOM     45  C   UNL A   1      45.800  29.420  27.234  1.00  0.00     0.049 A 
ATOM     46  C   UNL A   1      41.200  31.070  29.974  1.00  0.00     0.074 A 
ATOM     47  C   UNL A   1      46.808  30.355  27.089  1.00  0.00     0.029 A 
ATOM     48  N   UNL A   1      44.775  30.038  27.934  1.00  0.00    -0.354 N 
ATOM     49  N   UNL A   1      42.328  30.836  29.347  1.00  0.00    -0.248 NA
ATOM     50  C   UNL A   1      41.100  32.422  30.544  1.00  0.00     0.031 C 
ATOM     51  C   UNL A   1      46.404  31.534  27.725  1.00  0.00     0.029 A 
ATOM     52  C   UNL A   1      45.130  31.343  28.235  1.00  0.00     0.049 A 
ATOM     53  H   UNL A   1      43.923  29.612  28.182  1.00  0.00     0.167 HD
ATOM     54  C   UNL A   1      43.059  32.013  29.425  1.00  0.00     0.074 A 
ATOM     55  C   UNL A   1      42.243  32.966  30.148  1.00  0.00     0.031 C 
ATOM     56  C   UNL A   1      44.297  32.279  28.944  1.00  0.00     0.037 A 
BRANCH  43  57
ATOM     57  C   UNL A   1      46.973  27.509  26.074  1.00  0.00     0.064 A 
ATOM     58  C   UNL A   1      47.990  26.860  26.791  1.00  0.00     0.173 A 
ATOM     59  C   UNL A   1      47.114  27.614  24.681  1.00  0.00     0.173 A 
ATOM     60  F   UNL A   1      47.908  26.749  28.125  1.00  0.00    -0.203 F 
ATOM     61  C   UNL A   1      49.118  26.365  26.143  1.00  0.00     0.198 A 
ATOM     62  C   UNL A   1      48.231  27.092  24.035  1.00  0.00     0.198 A 
ATOM     63  F   UNL A   1      46.169  28.222  23.949  1.00  0.00    -0.203 F 
ATOM     64  F   UNL A   1      50.102  25.799  26.857  1.00  0.00    -0.200 F 
ATOM     65  C   UNL A   1      49.235  26.477  24.767  1.00  0.00     0.200 A 
ATOM     66  F   UNL A   1      48.339  27.191  22.703  1.00  0.00    -0.200 F 
ATOM     67  F   UNL A   1      50.323  25.999  24.145  1.00  0.00    -0.200 F 
ENDBRANCH  43  57
BRANCH  44  68
ATOM     68  C   UNL A   1      38.826  30.619  30.929  1.00  0.00     0.064 A 
ATOM     69  C   UNL A   1      38.778  30.518  32.328  1.00  0.00     0.173 A 
ATOM     70  C   UNL A   1      37.711  31.160  30.274  1.00  0.00     0.173 A 
ATOM     71  F   UNL A   1      39.811  29.987  32.996  1.00  0.00    -0.203 F 
ATOM     72  C   UNL A   1      37.652  30.925  33.040  1.00  0.00     0.198 A 
ATOM     73  C   UNL A   1      36.595  31.589  30.991  1.00  0.00     0.198 A 
ATOM     74  F   UNL A   1      37.712  31.283  28.939  1.00  0.00    -0.203 F 
ATOM     75  F   UNL A   1      37.615  30.781  34.372  1.00  0.00    -0.200 F 
ATOM     76  C   UNL A   1      36.564  31.465  32.372  1.00  0.00     0.200 A 
ATOM     77  F   UNL A   1      35.550  32.121  30.343  1.00  0.00    -0.200 F 
ATOM     78  F   UNL A   1      35.481  31.858  33.057  1.00  0.00    -0.200 F 
ENDBRANCH  44  68
BRANCH  56  79
ATOM     79  C   UNL A   1      44.832  33.664  29.153  1.00  0.00     0.064 A 
ATOM     80  C   UNL A   1      44.571  34.694  28.239  1.00  0.00     0.173 A 
ATOM     81  C   UNL A   1      45.570  33.972  30.305  1.00  0.00     0.173 A 
ATOM     82  F   UNL A   1      43.882  34.443  27.117  1.00  0.00    -0.203 F 
ATOM     83  C   UNL A   1      45.051  35.982  28.462  1.00  0.00     0.198 A 
ATOM     84  C   UNL A   1      46.027  35.266  30.536  1.00  0.00     0.198 A 
ATOM     85  F   UNL A   1      45.840  33.020  31.211  1.00  0.00    -0.203 F 
ATOM     86  F   UNL A   1      44.825  36.945  27.557  1.00  0.00    -0.200 F 
ATOM     87  C   UNL A   1      45.771  36.268  29.611  1.00  0.00     0.200 A 
ATOM     88  F   UNL A   1      46.713  35.544  31.652  1.00  0.00    -0.200 F 
ATOM     89  F   UNL A   1      46.224  37.511  29.828  1.00  0.00    -0.200 F 
ENDBRANCH  56  79
ENDBRANCH  30  31
ENDBRANCH  22  25
ENDBRANCH  20  21
ENDBRANCH  19  20
ENDBRANCH   1  19
TORSDOF 14
ENDMDL
