MODEL 1
REMARK VINA RESULT:     -12.8      0.000      0.000
REMARK SMILES CC(C)c1cc(O)cc(C(C)C)c1O[C@@H]1O[C@@H](C(=O)NCCCCNC(=O)c2ccc(-c3c4nc(c(-c5c(F)c(F)c(F)c(F)c5F)c5ccc([nH]5)c(-c5c(F)c(F)c(F)c(F)c5F)c5nc(c(-c6c(F)c(F)c(F)c(F)c6F)c6ccc3[nH]6)C=C5)C=C4)cc2)[C@@H](O)[C@H](O)[C@@H]1O
REMARK SMILES IDX 22 1 21 2 20 3 18 4 19 5 17 7 15 8 16 9 95 10 93 11 91 12
REMARK SMILES IDX 14 13 13 14 4 15 5 16 6 17 9 18 8 19 2 20 1 21 3 22 7 23
REMARK SMILES IDX 10 25 11 26 12 27 96 28 94 30 92 32 23 34 24 35 25 36 26 37
REMARK SMILES IDX 27 39 28 40 29 41 90 42 30 43 89 44 31 45 32 46 33 47 83 48
REMARK SMILES IDX 34 49 88 50 82 51 84 52 35 53 87 54 81 55 80 56 36 58 68 59
REMARK SMILES IDX 48 60 67 61 49 62 52 63 66 64 85 65 50 66 51 67 65 69 86 70
REMARK SMILES IDX 53 71 37 72 38 73 46 74 39 75 40 76 44 77 47 78 41 79 42 80
REMARK SMILES IDX 45 81 43 82 69 83 70 84 78 85 71 86 72 87 76 88 79 89 73 90
REMARK SMILES IDX 74 91 77 92 75 93 54 94 55 95 63 96 56 97 57 98 61 99 64 100
REMARK SMILES IDX 58 101 59 102 62 103 60 104
REMARK H PARENT 20 6 7 24 96 29 94 31 92 33 25 38 84 57 52 68
REMARK Flexibility Score: inf
ROOT
ATOM      1  C   UNL A   1      37.470  22.848  25.041  1.00  0.00     0.023 C 
ENDROOT
BRANCH   1   2
ATOM      2  C   UNL A   1      36.625  23.675  26.007  1.00  0.00     0.116 C 
BRANCH   2   3
ATOM      3  N   UNL A   1      35.723  22.896  26.843  1.00  0.00    -0.354 N 
ATOM      4  C   UNL A   1      34.533  22.276  26.638  1.00  0.00     0.252 C 
ATOM      5  O   UNL A   1      34.262  21.401  27.472  1.00  0.00    -0.272 OA
ATOM      6  H   UNL A   1      36.051  22.797  27.766  1.00  0.00     0.163 HD
BRANCH   4   7
ATOM      7  C   UNL A   1      33.492  22.621  25.526  1.00  0.00     0.242 C 
ATOM      8  C   UNL A   1      33.091  24.938  26.094  1.00  0.00     0.339 C 
ATOM      9  O   UNL A   1      33.553  24.002  25.112  1.00  0.00    -0.324 OA
ATOM     10  C   UNL A   1      31.784  24.580  26.876  1.00  0.00     0.214 C 
ATOM     11  C   UNL A   1      31.517  23.066  26.972  1.00  0.00     0.181 C 
ATOM     12  C   UNL A   1      32.023  22.290  25.741  1.00  0.00     0.184 C 
BRANCH   8  13
ATOM     13  O   UNL A   1      33.104  26.304  25.651  1.00  0.00    -0.461 OA
BRANCH  13  14
ATOM     14  C   UNL A   1      32.294  26.990  24.786  1.00  0.00     0.130 A 
ATOM     15  C   UNL A   1      31.889  28.250  25.338  1.00  0.00     0.001 A 
ATOM     16  C   UNL A   1      31.000  29.081  24.626  1.00  0.00     0.054 A 
ATOM     17  C   UNL A   1      30.552  28.712  23.373  1.00  0.00     0.116 A 
ATOM     18  C   UNL A   1      31.809  26.621  23.506  1.00  0.00     0.001 A 
ATOM     19  C   UNL A   1      30.958  27.516  22.816  1.00  0.00     0.054 A 
BRANCH  15  20
ATOM     20  C   UNL A   1      32.375  28.694  26.725  1.00  0.00     0.017 C 
ATOM     21  C   UNL A   1      32.600  30.208  26.872  1.00  0.00     0.012 C 
ATOM     22  C   UNL A   1      31.403  28.213  27.807  1.00  0.00     0.012 C 
ENDBRANCH  15  20
BRANCH  17  23
ATOM     23  O   UNL A   1      29.704  29.493  22.649  1.00  0.00    -0.508 OA
ATOM     24  H   UNL A   1      29.182  29.113  21.970  1.00  0.00     0.293 HD
ENDBRANCH  17  23
BRANCH  18  25
ATOM     25  C   UNL A   1      32.111  25.336  22.768  1.00  0.00     0.017 C 
ATOM     26  C   UNL A   1      31.012  24.267  22.859  1.00  0.00     0.012 C 
ATOM     27  C   UNL A   1      32.527  25.578  21.318  1.00  0.00     0.012 C 
ENDBRANCH  18  25
ENDBRANCH  13  14
ENDBRANCH   8  13
BRANCH  10  28
ATOM     28  O   UNL A   1      30.586  25.191  26.362  1.00  0.00    -0.384 OA
ATOM     29  H   UNL A   1      30.571  25.108  25.396  1.00  0.00     0.211 HD
ENDBRANCH  10  28
BRANCH  11  30
ATOM     30  O   UNL A   1      30.114  22.829  27.159  1.00  0.00    -0.387 OA
ATOM     31  H   UNL A   1      29.936  22.669  28.098  1.00  0.00     0.211 HD
ENDBRANCH  11  30
BRANCH  12  32
ATOM     32  O   UNL A   1      31.778  20.885  25.750  1.00  0.00    -0.387 OA
ATOM     33  H   UNL A   1      32.623  20.410  25.706  1.00  0.00     0.211 HD
ENDBRANCH  12  32
ENDBRANCH   4   7
ENDBRANCH   2   3
ENDBRANCH   1   2
BRANCH   1  34
ATOM     34  C   UNL A   1      37.859  21.470  25.576  1.00  0.00     0.023 C 
BRANCH  34  35
ATOM     35  C   UNL A   1      39.312  21.307  26.008  1.00  0.00     0.116 C 
BRANCH  35  36
ATOM     36  N   UNL A   1      39.843  19.953  25.940  1.00  0.00    -0.352 N 
ATOM     37  C   UNL A   1      41.169  19.593  26.126  1.00  0.00     0.251 C 
ATOM     38  H   UNL A   1      39.204  19.230  25.747  1.00  0.00     0.163 HD
ATOM     39  O   UNL A   1      41.564  18.455  26.021  1.00  0.00    -0.269 OA
BRANCH  37  40
ATOM     40  C   UNL A   1      42.105  20.699  26.423  1.00  0.00     0.039 A 
ATOM     41  C   UNL A   1      42.595  21.466  25.364  1.00  0.00     0.014 A 
ATOM     42  C   UNL A   1      42.278  21.097  27.750  1.00  0.00     0.014 A 
ATOM     43  C   UNL A   1      43.184  22.701  25.636  1.00  0.00     0.010 A 
ATOM     44  C   UNL A   1      42.800  22.357  28.011  1.00  0.00     0.010 A 
ATOM     45  C   UNL A   1      43.236  23.177  26.956  1.00  0.00    -0.014 A 
BRANCH  45  46
ATOM     46  C   UNL A   1      43.718  24.545  27.272  1.00  0.00     0.031 A 
ATOM     47  C   UNL A   1      42.743  25.572  27.762  1.00  0.00     0.074 A 
ATOM     48  C   UNL A   1      44.990  24.893  26.994  1.00  0.00     0.049 A 
ATOM     49  N   UNL A   1      42.909  26.858  27.936  1.00  0.00    -0.248 NA
ATOM     50  C   UNL A   1      41.383  25.094  28.054  1.00  0.00     0.031 C 
ATOM     51  C   UNL A   1      46.014  23.999  26.449  1.00  0.00     0.029 A 
ATOM     52  N   UNL A   1      45.629  26.102  27.104  1.00  0.00    -0.354 N 
ATOM     53  C   UNL A   1      41.667  27.346  28.317  1.00  0.00     0.074 A 
ATOM     54  C   UNL A   1      40.750  26.228  28.308  1.00  0.00     0.031 C 
ATOM     55  C   UNL A   1      47.152  24.690  26.275  1.00  0.00     0.029 A 
ATOM     56  C   UNL A   1      46.930  26.080  26.662  1.00  0.00     0.049 A 
ATOM     57  H   UNL A   1      45.197  26.910  27.465  1.00  0.00     0.167 HD
ATOM     58  C   UNL A   1      41.329  28.610  28.659  1.00  0.00     0.037 A 
ATOM     59  C   UNL A   1      47.836  27.073  26.566  1.00  0.00     0.037 A 
ATOM     60  C   UNL A   1      42.258  29.706  28.716  1.00  0.00     0.049 A 
ATOM     61  C   UNL A   1      47.453  28.461  27.005  1.00  0.00     0.074 A 
ATOM     62  C   UNL A   1      42.039  31.002  29.145  1.00  0.00     0.029 A 
ATOM     63  N   UNL A   1      43.589  29.629  28.331  1.00  0.00    -0.354 N 
ATOM     64  N   UNL A   1      46.296  28.898  27.440  1.00  0.00    -0.248 NA
ATOM     65  C   UNL A   1      48.500  29.491  26.948  1.00  0.00     0.031 C 
ATOM     66  C   UNL A   1      43.230  31.719  28.989  1.00  0.00     0.029 A 
ATOM     67  C   UNL A   1      44.201  30.860  28.499  1.00  0.00     0.049 A 
ATOM     68  H   UNL A   1      44.032  28.819  27.990  1.00  0.00     0.167 HD
ATOM     69  C   UNL A   1      46.480  30.243  27.728  1.00  0.00     0.074 A 
ATOM     70  C   UNL A   1      47.862  30.551  27.426  1.00  0.00     0.031 C 
ATOM     71  C   UNL A   1      45.582  31.142  28.201  1.00  0.00     0.037 A 
BRANCH  58  72
ATOM     72  C   UNL A   1      39.891  28.869  28.995  1.00  0.00     0.064 A 
ATOM     73  C   UNL A   1      39.402  28.719  30.303  1.00  0.00     0.173 A 
ATOM     74  C   UNL A   1      38.989  29.267  27.998  1.00  0.00     0.173 A 
ATOM     75  F   UNL A   1      40.221  28.324  31.289  1.00  0.00    -0.203 F 
ATOM     76  C   UNL A   1      38.054  28.918  30.590  1.00  0.00     0.198 A 
ATOM     77  C   UNL A   1      37.649  29.496  28.295  1.00  0.00     0.198 A 
ATOM     78  F   UNL A   1      39.407  29.429  26.734  1.00  0.00    -0.203 F 
ATOM     79  F   UNL A   1      37.597  28.707  31.831  1.00  0.00    -0.200 F 
ATOM     80  C   UNL A   1      37.180  29.310  29.587  1.00  0.00     0.200 A 
ATOM     81  F   UNL A   1      36.807  29.884  27.327  1.00  0.00    -0.200 F 
ATOM     82  F   UNL A   1      35.882  29.497  29.864  1.00  0.00    -0.200 F 
ENDBRANCH  58  72
BRANCH  59  83
ATOM     83  C   UNL A   1      49.197  26.781  26.051  1.00  0.00     0.064 A 
ATOM     84  C   UNL A   1      50.192  26.274  26.897  1.00  0.00     0.173 A 
ATOM     85  C   UNL A   1      49.525  26.979  24.702  1.00  0.00     0.173 A 
ATOM     86  F   UNL A   1      49.931  26.086  28.199  1.00  0.00    -0.203 F 
ATOM     87  C   UNL A   1      51.468  25.985  26.416  1.00  0.00     0.198 A 
ATOM     88  C   UNL A   1      50.794  26.669  24.216  1.00  0.00     0.198 A 
ATOM     89  F   UNL A   1      48.605  27.457  23.850  1.00  0.00    -0.203 F 
ATOM     90  F   UNL A   1      52.410  25.528  27.253  1.00  0.00    -0.200 F 
ATOM     91  C   UNL A   1      51.766  26.176  25.075  1.00  0.00     0.200 A 
ATOM     92  F   UNL A   1      51.074  26.843  22.918  1.00  0.00    -0.200 F 
ATOM     93  F   UNL A   1      52.989  25.888  24.610  1.00  0.00    -0.200 F 
ENDBRANCH  59  83
BRANCH  71  94
ATOM     94  C   UNL A   1      46.068  32.537  28.453  1.00  0.00     0.064 A 
ATOM     95  C   UNL A   1      45.977  33.532  27.470  1.00  0.00     0.173 A 
ATOM     96  C   UNL A   1      46.557  32.900  29.717  1.00  0.00     0.173 A 
ATOM     97  F   UNL A   1      45.528  33.229  26.242  1.00  0.00    -0.203 F 
ATOM     98  C   UNL A   1      46.366  34.841  27.742  1.00  0.00     0.198 A 
ATOM     99  C   UNL A   1      46.925  34.213  29.991  1.00  0.00     0.198 A 
ATOM    100  F   UNL A   1      46.658  31.982  30.690  1.00  0.00    -0.203 F 
ATOM    101  F   UNL A   1      46.295  35.773  26.781  1.00  0.00    -0.200 F 
ATOM    102  C   UNL A   1      46.831  35.182  29.004  1.00  0.00     0.200 A 
ATOM    103  F   UNL A   1      47.362  34.543  31.214  1.00  0.00    -0.200 F 
ATOM    104  F   UNL A   1      47.190  36.446  29.268  1.00  0.00    -0.200 F 
ENDBRANCH  71  94
ENDBRANCH  45  46
ENDBRANCH  37  40
ENDBRANCH  35  36
ENDBRANCH  34  35
ENDBRANCH   1  34
TORSDOF 19
ENDMDL
MODEL 2
REMARK VINA RESULT:     -12.8      5.379     10.827
REMARK SMILES CC(C)c1cc(O)cc(C(C)C)c1O[C@@H]1O[C@@H](C(=O)NCCCCNC(=O)c2ccc(-c3c4nc(c(-c5c(F)c(F)c(F)c(F)c5F)c5ccc([nH]5)c(-c5c(F)c(F)c(F)c(F)c5F)c5nc(c(-c6c(F)c(F)c(F)c(F)c6F)c6ccc3[nH]6)C=C5)C=C4)cc2)[C@@H](O)[C@H](O)[C@@H]1O
REMARK SMILES IDX 22 1 21 2 20 3 18 4 19 5 17 7 15 8 16 9 95 10 93 11 91 12
REMARK SMILES IDX 14 13 13 14 4 15 5 16 6 17 9 18 8 19 2 20 1 21 3 22 7 23
REMARK SMILES IDX 10 25 11 26 12 27 96 28 94 30 92 32 23 34 24 35 25 36 26 37
REMARK SMILES IDX 27 39 28 40 29 41 90 42 30 43 89 44 31 45 32 46 33 47 83 48
REMARK SMILES IDX 34 49 88 50 82 51 84 52 35 53 87 54 81 55 80 56 36 58 68 59
REMARK SMILES IDX 48 60 67 61 49 62 52 63 66 64 85 65 50 66 51 67 65 69 86 70
REMARK SMILES IDX 53 71 37 72 38 73 46 74 39 75 40 76 44 77 47 78 41 79 42 80
REMARK SMILES IDX 45 81 43 82 69 83 70 84 78 85 71 86 72 87 76 88 79 89 73 90
REMARK SMILES IDX 74 91 77 92 75 93 54 94 55 95 63 96 56 97 57 98 61 99 64 100
REMARK SMILES IDX 58 101 59 102 62 103 60 104
REMARK H PARENT 20 6 7 24 96 29 94 31 92 33 25 38 84 57 52 68
REMARK Flexibility Score: inf
ROOT
ATOM      1  C   UNL A   1      33.107  29.472  27.301  1.00  0.00     0.023 C 
ENDROOT
BRANCH   1   2
ATOM      2  C   UNL A   1      34.036  28.591  26.470  1.00  0.00     0.116 C 
BRANCH   2   3
ATOM      3  N   UNL A   1      34.063  28.909  25.049  1.00  0.00    -0.354 N 
ATOM      4  C   UNL A   1      33.274  28.598  23.990  1.00  0.00     0.252 C 
ATOM      5  O   UNL A   1      33.398  29.359  23.019  1.00  0.00    -0.272 OA
ATOM      6  H   UNL A   1      34.828  29.479  24.802  1.00  0.00     0.163 HD
BRANCH   4   7
ATOM      7  C   UNL A   1      32.322  27.365  23.878  1.00  0.00     0.242 C 
ATOM      8  C   UNL A   1      33.950  25.605  24.194  1.00  0.00     0.339 C 
ATOM      9  O   UNL A   1      32.762  26.245  24.676  1.00  0.00    -0.324 OA
ATOM     10  C   UNL A   1      34.066  25.356  22.655  1.00  0.00     0.214 C 
ATOM     11  C   UNL A   1      33.248  26.348  21.806  1.00  0.00     0.181 C 
ATOM     12  C   UNL A   1      31.959  26.815  22.508  1.00  0.00     0.184 C 
BRANCH   8  13
ATOM     13  O   UNL A   1      34.347  24.458  24.964  1.00  0.00    -0.461 OA
BRANCH  13  14
ATOM     14  C   UNL A   1      33.910  23.161  24.957  1.00  0.00     0.130 A 
ATOM     15  C   UNL A   1      34.996  22.244  24.767  1.00  0.00     0.001 A 
ATOM     16  C   UNL A   1      34.744  20.860  24.669  1.00  0.00     0.054 A 
ATOM     17  C   UNL A   1      33.460  20.373  24.806  1.00  0.00     0.116 A 
ATOM     18  C   UNL A   1      32.596  22.641  25.077  1.00  0.00     0.001 A 
ATOM     19  C   UNL A   1      32.409  21.241  25.020  1.00  0.00     0.054 A 
BRANCH  15  20
ATOM     20  C   UNL A   1      36.438  22.752  24.619  1.00  0.00     0.017 C 
ATOM     21  C   UNL A   1      37.486  21.943  25.400  1.00  0.00     0.012 C 
ATOM     22  C   UNL A   1      36.831  22.809  23.140  1.00  0.00     0.012 C 
ENDBRANCH  15  20
BRANCH  17  23
ATOM     23  O   UNL A   1      33.179  19.042  24.731  1.00  0.00    -0.508 OA
ATOM     24  H   UNL A   1      33.086  18.630  23.895  1.00  0.00     0.293 HD
ENDBRANCH  17  23
BRANCH  18  25
ATOM     25  C   UNL A   1      31.329  23.444  25.269  1.00  0.00     0.017 C 
ATOM     26  C   UNL A   1      30.582  23.790  23.972  1.00  0.00     0.012 C 
ATOM     27  C   UNL A   1      30.388  22.817  26.296  1.00  0.00     0.012 C 
ENDBRANCH  18  25
ENDBRANCH  13  14
ENDBRANCH   8  13
BRANCH  10  28
ATOM     28  O   UNL A   1      33.700  24.031  22.227  1.00  0.00    -0.384 OA
ATOM     29  H   UNL A   1      34.091  23.854  21.357  1.00  0.00     0.211 HD
ENDBRANCH  10  28
BRANCH  11  30
ATOM     30  O   UNL A   1      32.930  25.759  20.537  1.00  0.00    -0.387 OA
ATOM     31  H   UNL A   1      31.973  25.624  20.474  1.00  0.00     0.211 HD
ENDBRANCH  11  30
BRANCH  12  32
ATOM     32  O   UNL A   1      31.137  27.711  21.763  1.00  0.00    -0.387 OA
ATOM     33  H   UNL A   1      30.907  27.307  20.911  1.00  0.00     0.211 HD
ENDBRANCH  12  32
ENDBRANCH   4   7
ENDBRANCH   2   3
ENDBRANCH   1   2
BRANCH   1  34
ATOM     34  C   UNL A   1      32.983  30.906  26.787  1.00  0.00     0.023 C 
BRANCH  34  35
ATOM     35  C   UNL A   1      33.546  31.992  27.698  1.00  0.00     0.116 C 
BRANCH  35  36
ATOM     36  N   UNL A   1      32.821  33.255  27.697  1.00  0.00    -0.352 N 
ATOM     37  C   UNL A   1      33.129  34.365  28.468  1.00  0.00     0.251 C 
ATOM     38  H   UNL A   1      32.046  33.326  27.095  1.00  0.00     0.163 HD
ATOM     39  O   UNL A   1      32.469  35.379  28.456  1.00  0.00    -0.269 OA
BRANCH  37  40
ATOM     40  C   UNL A   1      34.303  34.232  29.356  1.00  0.00     0.039 A 
ATOM     41  C   UNL A   1      34.130  33.652  30.615  1.00  0.00     0.014 A 
ATOM     42  C   UNL A   1      35.576  34.459  28.830  1.00  0.00     0.014 A 
ATOM     43  C   UNL A   1      35.250  33.203  31.315  1.00  0.00     0.010 A 
ATOM     44  C   UNL A   1      36.681  33.948  29.497  1.00  0.00     0.010 A 
ATOM     45  C   UNL A   1      36.525  33.297  30.733  1.00  0.00    -0.014 A 
BRANCH  45  46
ATOM     46  C   UNL A   1      37.720  32.699  31.378  1.00  0.00     0.031 A 
ATOM     47  C   UNL A   1      38.408  31.541  30.720  1.00  0.00     0.074 A 
ATOM     48  C   UNL A   1      38.102  33.109  32.603  1.00  0.00     0.049 A 
ATOM     49  N   UNL A   1      39.355  30.766  31.183  1.00  0.00    -0.248 NA
ATOM     50  C   UNL A   1      37.932  31.178  29.376  1.00  0.00     0.031 C 
ATOM     51  C   UNL A   1      37.468  34.182  33.374  1.00  0.00     0.029 A 
ATOM     52  N   UNL A   1      39.097  32.650  33.429  1.00  0.00    -0.354 N 
ATOM     53  C   UNL A   1      39.559  29.802  30.206  1.00  0.00     0.074 A 
ATOM     54  C   UNL A   1      38.610  30.065  29.145  1.00  0.00     0.031 C 
ATOM     55  C   UNL A   1      38.092  34.298  34.558  1.00  0.00     0.029 A 
ATOM     56  C   UNL A   1      39.144  33.290  34.645  1.00  0.00     0.049 A 
ATOM     57  H   UNL A   1      39.719  31.931  33.176  1.00  0.00     0.167 HD
ATOM     58  C   UNL A   1      40.468  28.801  30.189  1.00  0.00     0.037 A 
ATOM     59  C   UNL A   1      39.936  33.076  35.713  1.00  0.00     0.037 A 
ATOM     60  C   UNL A   1      41.442  28.578  31.222  1.00  0.00     0.049 A 
ATOM     61  C   UNL A   1      40.977  31.991  35.649  1.00  0.00     0.074 A 
ATOM     62  C   UNL A   1      42.470  27.654  31.255  1.00  0.00     0.029 A 
ATOM     63  N   UNL A   1      41.507  29.296  32.408  1.00  0.00    -0.354 N 
ATOM     64  N   UNL A   1      41.217  31.134  34.687  1.00  0.00    -0.248 NA
ATOM     65  C   UNL A   1      41.863  31.847  36.814  1.00  0.00     0.031 C 
ATOM     66  C   UNL A   1      43.138  27.790  32.477  1.00  0.00     0.029 A 
ATOM     67  C   UNL A   1      42.550  28.824  33.188  1.00  0.00     0.049 A 
ATOM     68  H   UNL A   1      40.902  30.030  32.658  1.00  0.00     0.167 HD
ATOM     69  C   UNL A   1      42.289  30.365  35.118  1.00  0.00     0.074 A 
ATOM     70  C   UNL A   1      42.661  30.862  36.426  1.00  0.00     0.031 C 
ATOM     71  C   UNL A   1      42.910  29.340  34.485  1.00  0.00     0.037 A 
BRANCH  58  72
ATOM     72  C   UNL A   1      40.443  27.871  29.012  1.00  0.00     0.064 A 
ATOM     73  C   UNL A   1      41.199  28.124  27.857  1.00  0.00     0.173 A 
ATOM     74  C   UNL A   1      39.649  26.715  29.037  1.00  0.00     0.173 A 
ATOM     75  F   UNL A   1      41.962  29.225  27.777  1.00  0.00    -0.203 F 
ATOM     76  C   UNL A   1      41.129  27.276  26.756  1.00  0.00     0.198 A 
ATOM     77  C   UNL A   1      39.606  25.853  27.946  1.00  0.00     0.198 A 
ATOM     78  F   UNL A   1      38.910  26.425  30.119  1.00  0.00    -0.203 F 
ATOM     79  F   UNL A   1      41.810  27.572  25.641  1.00  0.00    -0.200 F 
ATOM     80  C   UNL A   1      40.337  26.140  26.803  1.00  0.00     0.200 A 
ATOM     81  F   UNL A   1      38.847  24.750  27.996  1.00  0.00    -0.200 F 
ATOM     82  F   UNL A   1      40.266  25.326  25.740  1.00  0.00    -0.200 F 
ENDBRANCH  58  72
BRANCH  59  83
ATOM     83  C   UNL A   1      39.785  33.922  36.923  1.00  0.00     0.064 A 
ATOM     84  C   UNL A   1      40.437  35.159  37.021  1.00  0.00     0.173 A 
ATOM     85  C   UNL A   1      38.970  33.526  37.994  1.00  0.00     0.173 A 
ATOM     86  F   UNL A   1      41.242  35.571  36.032  1.00  0.00    -0.203 F 
ATOM     87  C   UNL A   1      40.288  35.964  38.149  1.00  0.00     0.198 A 
ATOM     88  C   UNL A   1      38.803  34.342  39.111  1.00  0.00     0.198 A 
ATOM     89  F   UNL A   1      38.319  32.354  37.944  1.00  0.00    -0.203 F 
ATOM     90  F   UNL A   1      40.946  37.129  38.230  1.00  0.00    -0.200 F 
ATOM     91  C   UNL A   1      39.466  35.559  39.190  1.00  0.00     0.200 A 
ATOM     92  F   UNL A   1      37.999  33.952  40.109  1.00  0.00    -0.200 F 
ATOM     93  F   UNL A   1      39.314  36.337  40.270  1.00  0.00    -0.200 F 
ENDBRANCH  59  83
BRANCH  71  94
ATOM     94  C   UNL A   1      44.076  28.703  35.178  1.00  0.00     0.064 A 
ATOM     95  C   UNL A   1      43.907  27.608  36.036  1.00  0.00     0.173 A 
ATOM     96  C   UNL A   1      45.382  29.145  34.919  1.00  0.00     0.173 A 
ATOM     97  F   UNL A   1      42.676  27.159  36.324  1.00  0.00    -0.203 F 
ATOM     98  C   UNL A   1      45.006  26.982  36.617  1.00  0.00     0.198 A 
ATOM     99  C   UNL A   1      46.479  28.504  35.484  1.00  0.00     0.198 A 
ATOM    100  F   UNL A   1      45.592  30.187  34.100  1.00  0.00    -0.203 F 
ATOM    101  F   UNL A   1      44.823  25.952  37.455  1.00  0.00    -0.200 F 
ATOM    102  C   UNL A   1      46.291  27.424  36.334  1.00  0.00     0.200 A 
ATOM    103  F   UNL A   1      47.719  28.924  35.200  1.00  0.00    -0.200 F 
ATOM    104  F   UNL A   1      47.348  26.809  36.882  1.00  0.00    -0.200 F 
ENDBRANCH  71  94
ENDBRANCH  45  46
ENDBRANCH  37  40
ENDBRANCH  35  36
ENDBRANCH  34  35
ENDBRANCH   1  34
TORSDOF 19
ENDMDL
MODEL 3
REMARK VINA RESULT:     -12.7      5.165      9.590
REMARK SMILES CC(C)c1cc(O)cc(C(C)C)c1O[C@@H]1O[C@@H](C(=O)NCCCCNC(=O)c2ccc(-c3c4nc(c(-c5c(F)c(F)c(F)c(F)c5F)c5ccc([nH]5)c(-c5c(F)c(F)c(F)c(F)c5F)c5nc(c(-c6c(F)c(F)c(F)c(F)c6F)c6ccc3[nH]6)C=C5)C=C4)cc2)[C@@H](O)[C@H](O)[C@@H]1O
REMARK SMILES IDX 22 1 21 2 20 3 18 4 19 5 17 7 15 8 16 9 95 10 93 11 91 12
REMARK SMILES IDX 14 13 13 14 4 15 5 16 6 17 9 18 8 19 2 20 1 21 3 22 7 23
REMARK SMILES IDX 10 25 11 26 12 27 96 28 94 30 92 32 23 34 24 35 25 36 26 37
REMARK SMILES IDX 27 39 28 40 29 41 90 42 30 43 89 44 31 45 32 46 33 47 83 48
REMARK SMILES IDX 34 49 88 50 82 51 84 52 35 53 87 54 81 55 80 56 36 58 68 59
REMARK SMILES IDX 48 60 67 61 49 62 52 63 66 64 85 65 50 66 51 67 65 69 86 70
REMARK SMILES IDX 53 71 37 72 38 73 46 74 39 75 40 76 44 77 47 78 41 79 42 80
REMARK SMILES IDX 45 81 43 82 69 83 70 84 78 85 71 86 72 87 76 88 79 89 73 90
REMARK SMILES IDX 74 91 77 92 75 93 54 94 55 95 63 96 56 97 57 98 61 99 64 100
REMARK SMILES IDX 58 101 59 102 62 103 60 104
REMARK H PARENT 20 6 7 24 96 29 94 31 92 33 25 38 84 57 52 68
REMARK Flexibility Score: inf
ROOT
ATOM      1  C   UNL A   1      32.431  29.705  27.202  1.00  0.00     0.023 C 
ENDROOT
BRANCH   1   2
ATOM      2  C   UNL A   1      33.640  28.940  26.668  1.00  0.00     0.116 C 
BRANCH   2   3
ATOM      3  N   UNL A   1      33.889  29.117  25.245  1.00  0.00    -0.354 N 
ATOM      4  C   UNL A   1      33.266  28.704  24.112  1.00  0.00     0.252 C 
ATOM      5  O   UNL A   1      33.549  29.366  23.103  1.00  0.00    -0.272 OA
ATOM      6  H   UNL A   1      34.691  29.659  25.064  1.00  0.00     0.163 HD
BRANCH   4   7
ATOM      7  C   UNL A   1      32.323  27.467  23.975  1.00  0.00     0.242 C 
ATOM      8  C   UNL A   1      33.957  25.713  24.295  1.00  0.00     0.339 C 
ATOM      9  O   UNL A   1      32.759  26.342  24.767  1.00  0.00    -0.324 OA
ATOM     10  C   UNL A   1      34.095  25.481  22.755  1.00  0.00     0.214 C 
ATOM     11  C   UNL A   1      33.282  26.477  21.905  1.00  0.00     0.181 C 
ATOM     12  C   UNL A   1      31.981  26.929  22.594  1.00  0.00     0.184 C 
BRANCH   8  13
ATOM     13  O   UNL A   1      34.351  24.561  25.058  1.00  0.00    -0.461 OA
BRANCH  13  14
ATOM     14  C   UNL A   1      33.896  23.270  25.058  1.00  0.00     0.130 A 
ATOM     15  C   UNL A   1      34.967  22.339  24.849  1.00  0.00     0.001 A 
ATOM     16  C   UNL A   1      34.695  20.958  24.755  1.00  0.00     0.054 A 
ATOM     17  C   UNL A   1      33.406  20.489  24.913  1.00  0.00     0.116 A 
ATOM     18  C   UNL A   1      32.578  22.768  25.201  1.00  0.00     0.001 A 
ATOM     19  C   UNL A   1      32.371  21.370  25.146  1.00  0.00     0.054 A 
BRANCH  15  20
ATOM     20  C   UNL A   1      36.412  22.827  24.677  1.00  0.00     0.017 C 
ATOM     21  C   UNL A   1      37.461  22.011  25.448  1.00  0.00     0.012 C 
ATOM     22  C   UNL A   1      36.785  22.868  23.191  1.00  0.00     0.012 C 
ENDBRANCH  15  20
BRANCH  17  23
ATOM     23  O   UNL A   1      33.106  19.162  24.843  1.00  0.00    -0.508 OA
ATOM     24  H   UNL A   1      33.747  18.553  24.533  1.00  0.00     0.293 HD
ENDBRANCH  17  23
BRANCH  18  25
ATOM     25  C   UNL A   1      31.325  23.588  25.415  1.00  0.00     0.017 C 
ATOM     26  C   UNL A   1      30.533  23.900  24.136  1.00  0.00     0.012 C 
ATOM     27  C   UNL A   1      30.419  23.001  26.495  1.00  0.00     0.012 C 
ENDBRANCH  18  25
ENDBRANCH  13  14
ENDBRANCH   8  13
BRANCH  10  28
ATOM     28  O   UNL A   1      33.743  24.158  22.308  1.00  0.00    -0.384 OA
ATOM     29  H   UNL A   1      33.034  23.806  22.869  1.00  0.00     0.211 HD
ENDBRANCH  10  28
BRANCH  11  30
ATOM     30  O   UNL A   1      32.985  25.898  20.626  1.00  0.00    -0.387 OA
ATOM     31  H   UNL A   1      33.664  25.244  20.401  1.00  0.00     0.211 HD
ENDBRANCH  11  30
BRANCH  12  32
ATOM     32  O   UNL A   1      31.164  27.828  21.848  1.00  0.00    -0.387 OA
ATOM     33  H   UNL A   1      30.343  27.999  22.335  1.00  0.00     0.211 HD
ENDBRANCH  12  32
ENDBRANCH   4   7
ENDBRANCH   2   3
ENDBRANCH   1   2
BRANCH   1  34
ATOM     34  C   UNL A   1      32.351  31.155  26.727  1.00  0.00     0.023 C 
BRANCH  34  35
ATOM     35  C   UNL A   1      33.197  32.159  27.502  1.00  0.00     0.116 C 
BRANCH  35  36
ATOM     36  N   UNL A   1      32.658  33.509  27.583  1.00  0.00    -0.352 N 
ATOM     37  C   UNL A   1      33.098  34.506  28.440  1.00  0.00     0.251 C 
ATOM     38  H   UNL A   1      31.917  33.733  26.976  1.00  0.00     0.163 HD
ATOM     39  O   UNL A   1      32.589  35.603  28.493  1.00  0.00    -0.269 OA
BRANCH  37  40
ATOM     40  C   UNL A   1      34.218  34.144  29.336  1.00  0.00     0.039 A 
ATOM     41  C   UNL A   1      33.938  33.434  30.505  1.00  0.00     0.014 A 
ATOM     42  C   UNL A   1      35.526  34.301  28.877  1.00  0.00     0.014 A 
ATOM     43  C   UNL A   1      34.979  32.788  31.173  1.00  0.00     0.010 A 
ATOM     44  C   UNL A   1      36.548  33.601  29.504  1.00  0.00     0.010 A 
ATOM     45  C   UNL A   1      36.279  32.821  30.643  1.00  0.00    -0.014 A 
BRANCH  45  46
ATOM     46  C   UNL A   1      37.383  32.028  31.238  1.00  0.00     0.031 A 
ATOM     47  C   UNL A   1      37.889  32.383  32.604  1.00  0.00     0.074 A 
ATOM     48  C   UNL A   1      38.009  31.087  30.505  1.00  0.00     0.049 A 
ATOM     49  N   UNL A   1      38.942  31.939  33.240  1.00  0.00    -0.248 NA
ATOM     50  C   UNL A   1      37.130  33.410  33.334  1.00  0.00     0.031 C 
ATOM     51  C   UNL A   1      37.652  30.700  29.138  1.00  0.00     0.029 A 
ATOM     52  N   UNL A   1      39.098  30.305  30.797  1.00  0.00    -0.354 N 
ATOM     53  C   UNL A   1      38.994  32.661  34.424  1.00  0.00     0.074 A 
ATOM     54  C   UNL A   1      37.892  33.598  34.399  1.00  0.00     0.031 C 
ATOM     55  C   UNL A   1      38.505  29.754  28.712  1.00  0.00     0.029 A 
ATOM     56  C   UNL A   1      39.488  29.492  29.760  1.00  0.00     0.049 A 
ATOM     57  H   UNL A   1      39.558  30.324  31.667  1.00  0.00     0.167 HD
ATOM     58  C   UNL A   1      39.872  32.539  35.446  1.00  0.00     0.037 A 
ATOM     59  C   UNL A   1      40.529  28.643  29.661  1.00  0.00     0.037 A 
ATOM     60  C   UNL A   1      40.932  31.569  35.486  1.00  0.00     0.049 A 
ATOM     61  C   UNL A   1      41.460  28.483  30.832  1.00  0.00     0.074 A 
ATOM     62  C   UNL A   1      41.814  31.297  36.516  1.00  0.00     0.029 A 
ATOM     63  N   UNL A   1      41.251  30.709  34.445  1.00  0.00    -0.354 N 
ATOM     64  N   UNL A   1      41.455  29.114  31.981  1.00  0.00    -0.248 NA
ATOM     65  C   UNL A   1      42.537  27.491  30.698  1.00  0.00     0.031 C 
ATOM     66  C   UNL A   1      42.689  30.293  36.085  1.00  0.00     0.029 A 
ATOM     67  C   UNL A   1      42.327  29.914  34.802  1.00  0.00     0.049 A 
ATOM     68  H   UNL A   1      40.781  30.670  33.581  1.00  0.00     0.167 HD
ATOM     69  C   UNL A   1      42.508  28.583  32.714  1.00  0.00     0.074 A 
ATOM     70  C   UNL A   1      43.127  27.572  31.883  1.00  0.00     0.031 C 
ATOM     71  C   UNL A   1      42.923  28.905  33.963  1.00  0.00     0.037 A 
BRANCH  58  72
ATOM     72  C   UNL A   1      39.717  33.483  36.600  1.00  0.00     0.064 A 
ATOM     73  C   UNL A   1      38.912  33.169  37.706  1.00  0.00     0.173 A 
ATOM     74  C   UNL A   1      40.377  34.721  36.598  1.00  0.00     0.173 A 
ATOM     75  F   UNL A   1      38.247  32.005  37.748  1.00  0.00    -0.203 F 
ATOM     76  C   UNL A   1      38.742  34.076  38.748  1.00  0.00     0.198 A 
ATOM     77  C   UNL A   1      40.229  35.612  37.657  1.00  0.00     0.198 A 
ATOM     78  F   UNL A   1      41.162  35.068  35.567  1.00  0.00    -0.203 F 
ATOM     79  F   UNL A   1      37.919  33.781  39.763  1.00  0.00    -0.200 F 
ATOM     80  C   UNL A   1      39.404  35.294  38.725  1.00  0.00     0.200 A 
ATOM     81  F   UNL A   1      40.877  36.785  37.637  1.00  0.00    -0.200 F 
ATOM     82  F   UNL A   1      39.236  36.169  39.726  1.00  0.00    -0.200 F 
ENDBRANCH  58  72
BRANCH  59  83
ATOM     83  C   UNL A   1      40.729  27.865  28.412  1.00  0.00     0.064 A 
ATOM     84  C   UNL A   1      41.506  28.376  27.364  1.00  0.00     0.173 A 
ATOM     85  C   UNL A   1      40.168  26.590  28.248  1.00  0.00     0.173 A 
ATOM     86  F   UNL A   1      42.045  29.599  27.466  1.00  0.00    -0.203 F 
ATOM     87  C   UNL A   1      41.708  27.645  26.194  1.00  0.00     0.198 A 
ATOM     88  C   UNL A   1      40.389  25.850  27.089  1.00  0.00     0.198 A 
ATOM     89  F   UNL A   1      39.422  26.054  29.226  1.00  0.00    -0.203 F 
ATOM     90  F   UNL A   1      42.431  28.169  25.196  1.00  0.00    -0.200 F 
ATOM     91  C   UNL A   1      41.155  26.380  26.060  1.00  0.00     0.200 A 
ATOM     92  F   UNL A   1      39.864  24.623  26.968  1.00  0.00    -0.200 F 
ATOM     93  F   UNL A   1      41.358  25.673  24.941  1.00  0.00    -0.200 F 
ENDBRANCH  59  83
BRANCH  71  94
ATOM     94  C   UNL A   1      44.081  28.140  34.526  1.00  0.00     0.064 A 
ATOM     95  C   UNL A   1      45.394  28.619  34.422  1.00  0.00     0.173 A 
ATOM     96  C   UNL A   1      43.865  26.954  35.244  1.00  0.00     0.173 A 
ATOM     97  F   UNL A   1      45.651  29.742  33.734  1.00  0.00    -0.203 F 
ATOM     98  C   UNL A   1      46.452  27.933  35.012  1.00  0.00     0.198 A 
ATOM     99  C   UNL A   1      44.922  26.282  35.850  1.00  0.00     0.198 A 
ATOM    100  F   UNL A   1      42.625  26.459  35.373  1.00  0.00    -0.203 F 
ATOM    101  F   UNL A   1      47.704  28.394  34.881  1.00  0.00    -0.200 F 
ATOM    102  C   UNL A   1      46.215  26.771  35.732  1.00  0.00     0.200 A 
ATOM    103  F   UNL A   1      44.689  25.167  36.555  1.00  0.00    -0.200 F 
ATOM    104  F   UNL A   1      47.233  26.121  36.313  1.00  0.00    -0.200 F 
ENDBRANCH  71  94
ENDBRANCH  45  46
ENDBRANCH  37  40
ENDBRANCH  35  36
ENDBRANCH  34  35
ENDBRANCH   1  34
TORSDOF 19
ENDMDL
