MODEL 1
REMARK VINA RESULT:     -12.9      0.000      0.000
REMARK SMILES COc1ccc([C@@H](CC(=O)NCCCCNC(=O)c2ccc(-c3c4nc(c(-c5c(F)c(F)c(F)c(F)c5F)c5ccc([nH]5)c(-c5c(F)c(F)c(F)c(F)c5F)c5nc(c(-c6c(F)c(F)c(F)c(F)c6F)c6ccc3[nH]6)C=C5)C=C4)cc2)NC(=O)c2ccc(Cl)c([N+](=O)[O-])c2)cc1
REMARK SMILES IDX 12 1 11 2 9 3 10 4 8 6 7 7 6 8 3 9 4 10 96 11 5 12 95 13
REMARK SMILES IDX 2 14 1 15 82 16 83 17 84 19 85 20 86 21 94 22 87 23 90 24
REMARK SMILES IDX 88 25 89 26 91 27 92 28 93 29 13 30 14 31 15 32 16 33 17 34
REMARK SMILES IDX 18 36 19 37 20 38 81 39 21 40 80 41 22 42 23 43 24 44 74 45
REMARK SMILES IDX 25 46 79 47 73 48 75 49 26 50 78 51 72 52 71 53 27 55 59 56
REMARK SMILES IDX 39 57 58 58 40 59 43 60 57 61 76 62 41 63 42 64 56 66 77 67
REMARK SMILES IDX 44 68 28 69 29 70 37 71 30 72 31 73 35 74 38 75 32 76 33 77
REMARK SMILES IDX 36 78 34 79 60 80 61 81 69 82 62 83 63 84 67 85 70 86 64 87
REMARK SMILES IDX 65 88 68 89 66 90 45 91 46 92 54 93 47 94 48 95 52 96 55 97
REMARK SMILES IDX 49 98 50 99 53 100 51 101
REMARK H PARENT 11 5 82 18 16 35 75 54 43 65
REMARK Flexibility Score: inf
ROOT
ATOM      1  C   UNL A   1      30.689  26.792  26.343  1.00  0.00     0.116 C 
ENDROOT
BRANCH   1   2
ATOM      2  N   UNL A   1      31.128  25.448  26.041  1.00  0.00    -0.356 N 
ATOM      3  C   UNL A   1      30.672  24.638  25.042  1.00  0.00     0.222 C 
ATOM      4  O   UNL A   1      30.826  23.422  25.162  1.00  0.00    -0.275 OA
ATOM      5  H   UNL A   1      31.832  25.076  26.620  1.00  0.00     0.163 HD
BRANCH   3   6
ATOM      6  C   UNL A   1      30.053  25.231  23.791  1.00  0.00     0.129 C 
BRANCH   6   7
ATOM      7  C   UNL A   1      30.882  26.294  23.040  1.00  0.00     0.122 C 
BRANCH   7   8
ATOM      8  C   UNL A   1      30.212  27.653  22.865  1.00  0.00    -0.025 A 
ATOM      9  C   UNL A   1      28.756  29.953  22.176  1.00  0.00     0.118 A 
ATOM     10  C   UNL A   1      30.133  29.919  21.963  1.00  0.00     0.047 A 
ATOM     11  C   UNL A   1      28.122  28.915  22.849  1.00  0.00     0.047 A 
ATOM     12  C   UNL A   1      30.865  28.777  22.328  1.00  0.00     0.010 A 
ATOM     13  C   UNL A   1      28.848  27.775  23.198  1.00  0.00     0.010 A 
BRANCH   9  14
ATOM     14  O   UNL A   1      27.959  30.801  21.455  1.00  0.00    -0.497 OA
ATOM     15  C   UNL A   1      28.268  32.172  21.654  1.00  0.00     0.278 C 
ENDBRANCH   9  14
ENDBRANCH   7   8
BRANCH   7  16
ATOM     16  N   UNL A   1      31.481  25.776  21.813  1.00  0.00    -0.345 N 
ATOM     17  C   UNL A   1      32.703  25.176  21.636  1.00  0.00     0.252 C 
ATOM     18  H   UNL A   1      30.933  25.872  21.001  1.00  0.00     0.164 HD
ATOM     19  O   UNL A   1      33.197  25.043  20.528  1.00  0.00    -0.269 OA
BRANCH  17  20
ATOM     20  C   UNL A   1      33.433  24.686  22.824  1.00  0.00     0.046 A 
ATOM     21  C   UNL A   1      33.941  25.605  23.742  1.00  0.00     0.016 A 
ATOM     22  C   UNL A   1      33.585  23.314  23.041  1.00  0.00     0.101 A 
ATOM     23  C   UNL A   1      34.535  25.146  24.922  1.00  0.00     0.028 A 
ATOM     24  C   UNL A   1      34.134  22.864  24.250  1.00  0.00     0.288 A 
ATOM     25  C   UNL A   1      34.610  23.772  25.201  1.00  0.00     0.118 A 
ATOM     26  Cl  UNL A   1      35.233  23.330  26.748  1.00  0.00    -0.077 Cl
BRANCH  24  27
ATOM     27  N   UNL A   1      34.085  21.431  24.500  1.00  0.00     0.064 N 
ATOM     28  O   UNL A   1      32.985  20.899  24.676  1.00  0.00    -0.258 OA
ATOM     29  O   UNL A   1      35.178  20.844  24.559  1.00  0.00    -0.258 OA
ENDBRANCH  24  27
ENDBRANCH  17  20
ENDBRANCH   7  16
ENDBRANCH   6   7
ENDBRANCH   3   6
ENDBRANCH   1   2
BRANCH   1  30
ATOM     30  C   UNL A   1      31.895  27.717  26.325  1.00  0.00     0.023 C 
BRANCH  30  31
ATOM     31  C   UNL A   1      31.642  29.161  25.957  1.00  0.00     0.023 C 
BRANCH  31  32
ATOM     32  C   UNL A   1      32.875  30.030  26.080  1.00  0.00     0.116 C 
BRANCH  32  33
ATOM     33  N   UNL A   1      32.642  31.335  26.693  1.00  0.00    -0.352 N 
ATOM     34  C   UNL A   1      33.485  32.076  27.493  1.00  0.00     0.251 C 
ATOM     35  H   UNL A   1      31.764  31.741  26.509  1.00  0.00     0.163 HD
ATOM     36  O   UNL A   1      33.137  33.154  27.960  1.00  0.00    -0.269 OA
BRANCH  34  37
ATOM     37  C   UNL A   1      34.798  31.503  27.849  1.00  0.00     0.039 A 
ATOM     38  C   UNL A   1      35.883  32.364  28.023  1.00  0.00     0.014 A 
ATOM     39  C   UNL A   1      34.912  30.150  28.161  1.00  0.00     0.014 A 
ATOM     40  C   UNL A   1      37.049  31.883  28.617  1.00  0.00     0.010 A 
ATOM     41  C   UNL A   1      36.003  29.717  28.896  1.00  0.00     0.010 A 
ATOM     42  C   UNL A   1      37.093  30.572  29.118  1.00  0.00    -0.014 A 
BRANCH  42  43
ATOM     43  C   UNL A   1      38.273  30.052  29.855  1.00  0.00     0.031 A 
ATOM     44  C   UNL A   1      38.519  30.503  31.269  1.00  0.00     0.074 A 
ATOM     45  C   UNL A   1      39.159  29.249  29.234  1.00  0.00     0.049 A 
ATOM     46  N   UNL A   1      39.529  30.243  32.060  1.00  0.00    -0.248 NA
ATOM     47  C   UNL A   1      37.523  31.415  31.854  1.00  0.00     0.031 C 
ATOM     48  C   UNL A   1      39.068  28.792  27.846  1.00  0.00     0.029 A 
ATOM     49  N   UNL A   1      40.316  28.671  29.696  1.00  0.00    -0.354 N 
ATOM     50  C   UNL A   1      39.300  30.985  33.212  1.00  0.00     0.074 A 
ATOM     51  C   UNL A   1      38.112  31.774  32.982  1.00  0.00     0.031 C 
ATOM     52  C   UNL A   1      40.090  27.959  27.589  1.00  0.00     0.029 A 
ATOM     53  C   UNL A   1      40.934  27.863  28.774  1.00  0.00     0.049 A 
ATOM     54  H   UNL A   1      40.669  28.824  30.602  1.00  0.00     0.167 HD
ATOM     55  C   UNL A   1      39.992  30.980  34.376  1.00  0.00     0.037 A 
ATOM     56  C   UNL A   1      42.052  27.120  28.882  1.00  0.00     0.037 A 
ATOM     57  C   UNL A   1      41.148  30.159  34.611  1.00  0.00     0.049 A 
ATOM     58  C   UNL A   1      42.811  27.131  30.182  1.00  0.00     0.074 A 
ATOM     59  C   UNL A   1      41.881  30.011  35.773  1.00  0.00     0.029 A 
ATOM     60  N   UNL A   1      41.742  29.347  33.654  1.00  0.00    -0.354 N 
ATOM     61  N   UNL A   1      42.540  27.767  31.295  1.00  0.00    -0.248 NA
ATOM     62  C   UNL A   1      44.032  26.315  30.238  1.00  0.00     0.031 C 
ATOM     63  C   UNL A   1      42.954  29.155  35.504  1.00  0.00     0.029 A 
ATOM     64  C   UNL A   1      42.852  28.718  34.192  1.00  0.00     0.049 A 
ATOM     65  H   UNL A   1      41.421  29.233  32.731  1.00  0.00     0.167 HD
ATOM     66  C   UNL A   1      43.534  27.404  32.196  1.00  0.00     0.074 A 
ATOM     67  C   UNL A   1      44.407  26.482  31.498  1.00  0.00     0.031 C 
ATOM     68  C   UNL A   1      43.707  27.797  33.482  1.00  0.00     0.037 A 
BRANCH  55  69
ATOM     69  C   UNL A   1      39.509  31.896  35.466  1.00  0.00     0.064 A 
ATOM     70  C   UNL A   1      38.606  31.465  36.453  1.00  0.00     0.173 A 
ATOM     71  C   UNL A   1      39.933  33.232  35.511  1.00  0.00     0.173 A 
ATOM     72  F   UNL A   1      38.155  30.201  36.451  1.00  0.00    -0.203 F 
ATOM     73  C   UNL A   1      38.100  32.351  37.400  1.00  0.00     0.198 A 
ATOM     74  C   UNL A   1      39.458  34.104  36.487  1.00  0.00     0.198 A 
ATOM     75  F   UNL A   1      40.799  33.698  34.599  1.00  0.00    -0.203 F 
ATOM     76  F   UNL A   1      37.171  31.936  38.274  1.00  0.00    -0.200 F 
ATOM     77  C   UNL A   1      38.530  33.668  37.420  1.00  0.00     0.200 A 
ATOM     78  F   UNL A   1      39.886  35.374  36.513  1.00  0.00    -0.200 F 
ATOM     79  F   UNL A   1      38.038  34.522  38.328  1.00  0.00    -0.200 F 
ENDBRANCH  55  69
BRANCH  56  80
ATOM     80  C   UNL A   1      42.484  26.258  27.750  1.00  0.00     0.064 A 
ATOM     81  C   UNL A   1      41.904  24.995  27.557  1.00  0.00     0.173 A 
ATOM     82  C   UNL A   1      43.461  26.672  26.835  1.00  0.00     0.173 A 
ATOM     83  F   UNL A   1      40.977  24.545  28.417  1.00  0.00    -0.203 F 
ATOM     84  C   UNL A   1      42.296  24.174  26.502  1.00  0.00     0.198 A 
ATOM     85  C   UNL A   1      43.834  25.861  25.763  1.00  0.00     0.198 A 
ATOM     86  F   UNL A   1      44.044  27.871  26.971  1.00  0.00    -0.203 F 
ATOM     87  F   UNL A   1      41.752  22.958  26.364  1.00  0.00    -0.200 F 
ATOM     88  C   UNL A   1      43.255  24.611  25.601  1.00  0.00     0.200 A 
ATOM     89  F   UNL A   1      44.749  26.293  24.886  1.00  0.00    -0.200 F 
ATOM     90  F   UNL A   1      43.625  23.826  24.580  1.00  0.00    -0.200 F 
ENDBRANCH  56  80
BRANCH  68  91
ATOM     91  C   UNL A   1      44.859  27.199  34.236  1.00  0.00     0.064 A 
ATOM     92  C   UNL A   1      46.109  27.833  34.301  1.00  0.00     0.173 A 
ATOM     93  C   UNL A   1      44.694  25.996  34.942  1.00  0.00     0.173 A 
ATOM     94  F   UNL A   1      46.322  28.976  33.632  1.00  0.00    -0.203 F 
ATOM     95  C   UNL A   1      47.159  27.269  35.021  1.00  0.00     0.198 A 
ATOM     96  C   UNL A   1      45.735  25.456  35.690  1.00  0.00     0.198 A 
ATOM     97  F   UNL A   1      43.517  25.355  34.919  1.00  0.00    -0.203 F 
ATOM     98  F   UNL A   1      48.360  27.865  35.025  1.00  0.00    -0.200 F 
ATOM     99  C   UNL A   1      46.969  26.087  35.722  1.00  0.00     0.200 A 
ATOM    100  F   UNL A   1      45.543  24.324  36.381  1.00  0.00    -0.200 F 
ATOM    101  F   UNL A   1      47.978  25.553  36.424  1.00  0.00    -0.200 F 
ENDBRANCH  68  91
ENDBRANCH  42  43
ENDBRANCH  34  37
ENDBRANCH  32  33
ENDBRANCH  31  32
ENDBRANCH  30  31
ENDBRANCH   1  30
TORSDOF 17
ENDMDL
MODEL 2
REMARK VINA RESULT:     -12.8      1.781      2.650
REMARK SMILES COc1ccc([C@@H](CC(=O)NCCCCNC(=O)c2ccc(-c3c4nc(c(-c5c(F)c(F)c(F)c(F)c5F)c5ccc([nH]5)c(-c5c(F)c(F)c(F)c(F)c5F)c5nc(c(-c6c(F)c(F)c(F)c(F)c6F)c6ccc3[nH]6)C=C5)C=C4)cc2)NC(=O)c2ccc(Cl)c([N+](=O)[O-])c2)cc1
REMARK SMILES IDX 12 1 11 2 9 3 10 4 8 6 7 7 6 8 3 9 4 10 96 11 5 12 95 13
REMARK SMILES IDX 2 14 1 15 82 16 83 17 84 19 85 20 86 21 94 22 87 23 90 24
REMARK SMILES IDX 88 25 89 26 91 27 92 28 93 29 13 30 14 31 15 32 16 33 17 34
REMARK SMILES IDX 18 36 19 37 20 38 81 39 21 40 80 41 22 42 23 43 24 44 74 45
REMARK SMILES IDX 25 46 79 47 73 48 75 49 26 50 78 51 72 52 71 53 27 55 59 56
REMARK SMILES IDX 39 57 58 58 40 59 43 60 57 61 76 62 41 63 42 64 56 66 77 67
REMARK SMILES IDX 44 68 28 69 29 70 37 71 30 72 31 73 35 74 38 75 32 76 33 77
REMARK SMILES IDX 36 78 34 79 60 80 61 81 69 82 62 83 63 84 67 85 70 86 64 87
REMARK SMILES IDX 65 88 68 89 66 90 45 91 46 92 54 93 47 94 48 95 52 96 55 97
REMARK SMILES IDX 49 98 50 99 53 100 51 101
REMARK H PARENT 11 5 82 18 16 35 75 54 43 65
REMARK Flexibility Score: inf
ROOT
ATOM      1  C   UNL A   1      32.877  30.206  26.562  1.00  0.00     0.116 C 
ENDROOT
BRANCH   1   2
ATOM      2  N   UNL A   1      32.483  29.262  27.585  1.00  0.00    -0.356 N 
ATOM      3  C   UNL A   1      32.060  27.978  27.400  1.00  0.00     0.222 C 
ATOM      4  O   UNL A   1      31.383  27.456  28.286  1.00  0.00    -0.275 OA
ATOM      5  H   UNL A   1      32.524  29.581  28.515  1.00  0.00     0.163 HD
BRANCH   3   6
ATOM      6  C   UNL A   1      32.472  27.200  26.165  1.00  0.00     0.129 C 
BRANCH   6   7
ATOM      7  C   UNL A   1      31.405  26.286  25.529  1.00  0.00     0.122 C 
BRANCH   7   8
ATOM      8  C   UNL A   1      30.492  26.950  24.504  1.00  0.00    -0.025 A 
ATOM      9  C   UNL A   1      28.748  28.506  22.946  1.00  0.00     0.118 A 
ATOM     10  C   UNL A   1      28.322  27.272  23.435  1.00  0.00     0.047 A 
ATOM     11  C   UNL A   1      30.069  28.908  23.108  1.00  0.00     0.047 A 
ATOM     12  C   UNL A   1      29.202  26.484  24.196  1.00  0.00     0.010 A 
ATOM     13  C   UNL A   1      30.937  28.131  23.877  1.00  0.00     0.010 A 
BRANCH   9  14
ATOM     14  O   UNL A   1      27.842  29.476  22.614  1.00  0.00    -0.497 OA
ATOM     15  C   UNL A   1      28.240  30.263  21.501  1.00  0.00     0.278 C 
ENDBRANCH   9  14
ENDBRANCH   7   8
BRANCH   7  16
ATOM     16  N   UNL A   1      30.686  25.487  26.518  1.00  0.00    -0.345 N 
ATOM     17  C   UNL A   1      30.743  24.134  26.741  1.00  0.00     0.252 C 
ATOM     18  H   UNL A   1      30.077  25.990  27.107  1.00  0.00     0.164 HD
ATOM     19  O   UNL A   1      29.894  23.557  27.402  1.00  0.00    -0.269 OA
BRANCH  17  20
ATOM     20  C   UNL A   1      31.860  23.363  26.155  1.00  0.00     0.046 A 
ATOM     21  C   UNL A   1      33.170  23.681  26.510  1.00  0.00     0.016 A 
ATOM     22  C   UNL A   1      31.603  22.306  25.280  1.00  0.00     0.101 A 
ATOM     23  C   UNL A   1      34.223  22.885  26.047  1.00  0.00     0.028 A 
ATOM     24  C   UNL A   1      32.658  21.483  24.862  1.00  0.00     0.288 A 
ATOM     25  C   UNL A   1      33.975  21.761  25.244  1.00  0.00     0.118 A 
ATOM     26  Cl  UNL A   1      35.335  20.775  24.851  1.00  0.00    -0.077 Cl
BRANCH  24  27
ATOM     27  N   UNL A   1      32.303  20.286  24.114  1.00  0.00     0.064 N 
ATOM     28  O   UNL A   1      32.156  20.376  22.891  1.00  0.00    -0.258 OA
ATOM     29  O   UNL A   1      32.132  19.251  24.778  1.00  0.00    -0.258 OA
ENDBRANCH  24  27
ENDBRANCH  17  20
ENDBRANCH   7  16
ENDBRANCH   6   7
ENDBRANCH   3   6
ENDBRANCH   1   2
BRANCH   1  30
ATOM     30  C   UNL A   1      31.650  30.979  26.109  1.00  0.00     0.023 C 
BRANCH  30  31
ATOM     31  C   UNL A   1      31.386  32.302  26.792  1.00  0.00     0.023 C 
BRANCH  31  32
ATOM     32  C   UNL A   1      32.624  33.163  26.916  1.00  0.00     0.116 C 
BRANCH  32  33
ATOM     33  N   UNL A   1      32.514  34.253  27.883  1.00  0.00    -0.352 N 
ATOM     34  C   UNL A   1      33.364  34.579  28.917  1.00  0.00     0.251 C 
ATOM     35  H   UNL A   1      31.725  34.833  27.781  1.00  0.00     0.163 HD
ATOM     36  O   UNL A   1      33.123  35.516  29.668  1.00  0.00    -0.269 OA
BRANCH  34  37
ATOM     37  C   UNL A   1      34.540  33.719  29.157  1.00  0.00     0.039 A 
ATOM     38  C   UNL A   1      35.815  34.257  28.973  1.00  0.00     0.014 A 
ATOM     39  C   UNL A   1      34.380  32.449  29.708  1.00  0.00     0.014 A 
ATOM     40  C   UNL A   1      36.925  33.560  29.450  1.00  0.00     0.010 A 
ATOM     41  C   UNL A   1      35.461  31.840  30.322  1.00  0.00     0.010 A 
ATOM     42  C   UNL A   1      36.750  32.377  30.187  1.00  0.00    -0.014 A 
BRANCH  42  43
ATOM     43  C   UNL A   1      37.893  31.661  30.805  1.00  0.00     0.031 A 
ATOM     44  C   UNL A   1      38.283  31.976  32.224  1.00  0.00     0.074 A 
ATOM     45  C   UNL A   1      38.626  30.796  30.076  1.00  0.00     0.049 A 
ATOM     46  N   UNL A   1      39.296  31.535  32.925  1.00  0.00    -0.248 NA
ATOM     47  C   UNL A   1      37.454  32.964  32.932  1.00  0.00     0.031 C 
ATOM     48  C   UNL A   1      38.390  30.453  28.672  1.00  0.00     0.029 A 
ATOM     49  N   UNL A   1      39.722  30.045  30.420  1.00  0.00    -0.354 N 
ATOM     50  C   UNL A   1      39.239  32.217  34.134  1.00  0.00     0.074 A 
ATOM     51  C   UNL A   1      38.154  33.165  34.036  1.00  0.00     0.031 C 
ATOM     52  C   UNL A   1      39.275  29.517  28.294  1.00  0.00     0.029 A 
ATOM     53  C   UNL A   1      40.170  29.230  29.408  1.00  0.00     0.049 A 
ATOM     54  H   UNL A   1      40.147  30.087  31.307  1.00  0.00     0.167 HD
ATOM     55  C   UNL A   1      39.994  32.042  35.243  1.00  0.00     0.037 A 
ATOM     56  C   UNL A   1      41.185  28.345  29.392  1.00  0.00     0.037 A 
ATOM     57  C   UNL A   1      41.044  31.066  35.346  1.00  0.00     0.049 A 
ATOM     58  C   UNL A   1      42.017  28.168  30.634  1.00  0.00     0.074 A 
ATOM     59  C   UNL A   1      41.821  30.744  36.443  1.00  0.00     0.029 A 
ATOM     60  N   UNL A   1      41.466  30.253  34.302  1.00  0.00    -0.354 N 
ATOM     61  N   UNL A   1      41.902  28.754  31.801  1.00  0.00    -0.248 NA
ATOM     62  C   UNL A   1      43.121  27.200  30.554  1.00  0.00     0.031 C 
ATOM     63  C   UNL A   1      42.752  29.779  36.047  1.00  0.00     0.029 A 
ATOM     64  C   UNL A   1      42.514  29.452  34.721  1.00  0.00     0.049 A 
ATOM     65  H   UNL A   1      41.076  30.247  33.398  1.00  0.00     0.167 HD
ATOM     66  C   UNL A   1      42.892  28.205  32.605  1.00  0.00     0.074 A 
ATOM     67  C   UNL A   1      43.591  27.230  31.793  1.00  0.00     0.031 C 
ATOM     68  C   UNL A   1      43.194  28.481  33.898  1.00  0.00     0.037 A 
BRANCH  55  69
ATOM     69  C   UNL A   1      39.704  32.933  36.419  1.00  0.00     0.064 A 
ATOM     70  C   UNL A   1      38.691  32.635  37.346  1.00  0.00     0.173 A 
ATOM     71  C   UNL A   1      40.432  34.117  36.609  1.00  0.00     0.173 A 
ATOM     72  F   UNL A   1      37.953  31.523  37.206  1.00  0.00    -0.203 F 
ATOM     73  C   UNL A   1      38.376  33.517  38.376  1.00  0.00     0.198 A 
ATOM     74  C   UNL A   1      40.144  34.976  37.667  1.00  0.00     0.198 A 
ATOM     75  F   UNL A   1      41.415  34.451  35.760  1.00  0.00    -0.203 F 
ATOM     76  F   UNL A   1      37.345  33.252  39.191  1.00  0.00    -0.200 F 
ATOM     77  C   UNL A   1      39.106  34.684  38.539  1.00  0.00     0.200 A 
ATOM     78  F   UNL A   1      40.860  36.096  37.831  1.00  0.00    -0.200 F 
ATOM     79  F   UNL A   1      38.798  35.536  39.526  1.00  0.00    -0.200 F 
ENDBRANCH  55  69
BRANCH  56  80
ATOM     80  C   UNL A   1      41.429  27.516  28.182  1.00  0.00     0.064 A 
ATOM     81  C   UNL A   1      40.756  26.298  28.007  1.00  0.00     0.173 A 
ATOM     82  C   UNL A   1      42.315  27.920  27.174  1.00  0.00     0.173 A 
ATOM     83  F   UNL A   1      39.911  25.858  28.953  1.00  0.00    -0.203 F 
ATOM     84  C   UNL A   1      40.971  25.509  26.880  1.00  0.00     0.198 A 
ATOM     85  C   UNL A   1      42.511  27.143  26.033  1.00  0.00     0.198 A 
ATOM     86  F   UNL A   1      42.980  29.078  27.289  1.00  0.00    -0.203 F 
ATOM     87  F   UNL A   1      40.344  24.332  26.757  1.00  0.00    -0.200 F 
ATOM     88  C   UNL A   1      41.843  25.935  25.889  1.00  0.00     0.200 A 
ATOM     89  F   UNL A   1      43.341  27.566  25.071  1.00  0.00    -0.200 F 
ATOM     90  F   UNL A   1      42.043  25.181  24.799  1.00  0.00    -0.200 F 
ENDBRANCH  56  80
BRANCH  68  91
ATOM     91  C   UNL A   1      44.301  27.689  34.531  1.00  0.00     0.064 A 
ATOM     92  C   UNL A   1      44.069  26.444  35.133  1.00  0.00     0.173 A 
ATOM     93  C   UNL A   1      45.622  28.165  34.493  1.00  0.00     0.173 A 
ATOM     94  F   UNL A   1      42.823  25.952  35.208  1.00  0.00    -0.203 F 
ATOM     95  C   UNL A   1      45.113  25.717  35.698  1.00  0.00     0.198 A 
ATOM     96  C   UNL A   1      46.668  27.419  35.027  1.00  0.00     0.198 A 
ATOM     97  F   UNL A   1      45.899  29.346  33.921  1.00  0.00    -0.203 F 
ATOM     98  F   UNL A   1      44.860  24.555  36.315  1.00  0.00    -0.200 F 
ATOM     99  C   UNL A   1      46.413  26.200  35.637  1.00  0.00     0.200 A 
ATOM    100  F   UNL A   1      47.924  27.879  34.949  1.00  0.00    -0.200 F 
ATOM    101  F   UNL A   1      47.418  25.494  36.172  1.00  0.00    -0.200 F 
ENDBRANCH  68  91
ENDBRANCH  42  43
ENDBRANCH  34  37
ENDBRANCH  32  33
ENDBRANCH  31  32
ENDBRANCH  30  31
ENDBRANCH   1  30
TORSDOF 17
ENDMDL
MODEL 3
REMARK VINA RESULT:     -12.8      2.151      7.611
REMARK SMILES COc1ccc([C@@H](CC(=O)NCCCCNC(=O)c2ccc(-c3c4nc(c(-c5c(F)c(F)c(F)c(F)c5F)c5ccc([nH]5)c(-c5c(F)c(F)c(F)c(F)c5F)c5nc(c(-c6c(F)c(F)c(F)c(F)c6F)c6ccc3[nH]6)C=C5)C=C4)cc2)NC(=O)c2ccc(Cl)c([N+](=O)[O-])c2)cc1
REMARK SMILES IDX 12 1 11 2 9 3 10 4 8 6 7 7 6 8 3 9 4 10 96 11 5 12 95 13
REMARK SMILES IDX 2 14 1 15 82 16 83 17 84 19 85 20 86 21 94 22 87 23 90 24
REMARK SMILES IDX 88 25 89 26 91 27 92 28 93 29 13 30 14 31 15 32 16 33 17 34
REMARK SMILES IDX 18 36 19 37 20 38 81 39 21 40 80 41 22 42 23 43 24 44 74 45
REMARK SMILES IDX 25 46 79 47 73 48 75 49 26 50 78 51 72 52 71 53 27 55 59 56
REMARK SMILES IDX 39 57 58 58 40 59 43 60 57 61 76 62 41 63 42 64 56 66 77 67
REMARK SMILES IDX 44 68 28 69 29 70 37 71 30 72 31 73 35 74 38 75 32 76 33 77
REMARK SMILES IDX 36 78 34 79 60 80 61 81 69 82 62 83 63 84 67 85 70 86 64 87
REMARK SMILES IDX 65 88 68 89 66 90 45 91 46 92 54 93 47 94 48 95 52 96 55 97
REMARK SMILES IDX 49 98 50 99 53 100 51 101
REMARK H PARENT 11 5 82 18 16 35 75 54 43 65
REMARK Flexibility Score: inf
ROOT
ATOM      1  C   UNL A   1      34.257  29.359  27.267  1.00  0.00     0.116 C 
ENDROOT
BRANCH   1   2
ATOM      2  N   UNL A   1      33.088  28.794  27.904  1.00  0.00    -0.356 N 
ATOM      3  C   UNL A   1      32.178  27.942  27.347  1.00  0.00     0.222 C 
ATOM      4  O   UNL A   1      31.055  27.882  27.848  1.00  0.00    -0.275 OA
ATOM      5  H   UNL A   1      32.931  29.052  28.841  1.00  0.00     0.163 HD
BRANCH   3   6
ATOM      6  C   UNL A   1      32.570  27.048  26.185  1.00  0.00     0.129 C 
BRANCH   6   7
ATOM      7  C   UNL A   1      31.449  26.197  25.553  1.00  0.00     0.122 C 
BRANCH   7   8
ATOM      8  C   UNL A   1      30.542  26.926  24.567  1.00  0.00    -0.025 A 
ATOM      9  C   UNL A   1      28.805  28.577  23.102  1.00  0.00     0.118 A 
ATOM     10  C   UNL A   1      28.381  27.310  23.501  1.00  0.00     0.047 A 
ATOM     11  C   UNL A   1      30.121  28.973  23.305  1.00  0.00     0.047 A 
ATOM     12  C   UNL A   1      29.257  26.476  24.215  1.00  0.00     0.010 A 
ATOM     13  C   UNL A   1      30.987  28.149  24.027  1.00  0.00     0.010 A 
BRANCH   9  14
ATOM     14  O   UNL A   1      27.896  29.563  22.829  1.00  0.00    -0.497 OA
ATOM     15  C   UNL A   1      28.058  30.139  21.542  1.00  0.00     0.278 C 
ENDBRANCH   9  14
ENDBRANCH   7   8
BRANCH   7  16
ATOM     16  N   UNL A   1      30.719  25.406  26.540  1.00  0.00    -0.345 N 
ATOM     17  C   UNL A   1      30.762  24.051  26.762  1.00  0.00     0.252 C 
ATOM     18  H   UNL A   1      30.113  25.913  27.127  1.00  0.00     0.164 HD
ATOM     19  O   UNL A   1      29.906  23.483  27.420  1.00  0.00    -0.269 OA
BRANCH  17  20
ATOM     20  C   UNL A   1      31.874  23.270  26.180  1.00  0.00     0.046 A 
ATOM     21  C   UNL A   1      33.186  23.569  26.546  1.00  0.00     0.016 A 
ATOM     22  C   UNL A   1      31.610  22.221  25.296  1.00  0.00     0.101 A 
ATOM     23  C   UNL A   1      34.232  22.763  26.086  1.00  0.00     0.028 A 
ATOM     24  C   UNL A   1      32.659  21.388  24.881  1.00  0.00     0.288 A 
ATOM     25  C   UNL A   1      33.975  21.647  25.274  1.00  0.00     0.118 A 
ATOM     26  Cl  UNL A   1      35.326  20.647  24.885  1.00  0.00    -0.077 Cl
BRANCH  24  27
ATOM     27  N   UNL A   1      32.294  20.201  24.123  1.00  0.00     0.064 N 
ATOM     28  O   UNL A   1      32.155  19.133  24.727  1.00  0.00    -0.258 OA
ATOM     29  O   UNL A   1      32.185  20.343  22.894  1.00  0.00    -0.258 OA
ENDBRANCH  24  27
ENDBRANCH  17  20
ENDBRANCH   7  16
ENDBRANCH   6   7
ENDBRANCH   3   6
ENDBRANCH   1   2
BRANCH   1  30
ATOM     30  C   UNL A   1      34.540  30.720  27.882  1.00  0.00     0.023 C 
BRANCH  30  31
ATOM     31  C   UNL A   1      33.383  31.689  27.958  1.00  0.00     0.023 C 
BRANCH  31  32
ATOM     32  C   UNL A   1      33.628  32.966  27.185  1.00  0.00     0.116 C 
BRANCH  32  33
ATOM     33  N   UNL A   1      32.876  34.123  27.665  1.00  0.00    -0.352 N 
ATOM     34  C   UNL A   1      33.132  34.929  28.752  1.00  0.00     0.251 C 
ATOM     35  H   UNL A   1      32.078  34.359  27.138  1.00  0.00     0.163 HD
ATOM     36  O   UNL A   1      32.387  35.857  29.048  1.00  0.00    -0.269 OA
BRANCH  34  37
ATOM     37  C   UNL A   1      34.284  34.601  29.614  1.00  0.00     0.039 A 
ATOM     38  C   UNL A   1      34.048  34.007  30.855  1.00  0.00     0.014 A 
ATOM     39  C   UNL A   1      35.584  34.735  29.129  1.00  0.00     0.014 A 
ATOM     40  C   UNL A   1      35.115  33.446  31.558  1.00  0.00     0.010 A 
ATOM     41  C   UNL A   1      36.608  34.038  29.747  1.00  0.00     0.010 A 
ATOM     42  C   UNL A   1      36.392  33.400  30.977  1.00  0.00    -0.014 A 
BRANCH  42  43
ATOM     43  C   UNL A   1      37.532  32.718  31.641  1.00  0.00     0.031 A 
ATOM     44  C   UNL A   1      38.206  31.563  30.950  1.00  0.00     0.074 A 
ATOM     45  C   UNL A   1      37.905  33.075  32.885  1.00  0.00     0.049 A 
ATOM     46  N   UNL A   1      39.156  30.775  31.384  1.00  0.00    -0.248 NA
ATOM     47  C   UNL A   1      37.706  31.213  29.611  1.00  0.00     0.031 C 
ATOM     48  C   UNL A   1      37.289  34.134  33.687  1.00  0.00     0.029 A 
ATOM     49  N   UNL A   1      38.898  32.584  33.695  1.00  0.00    -0.354 N 
ATOM     50  C   UNL A   1      39.336  29.824  30.387  1.00  0.00     0.074 A 
ATOM     51  C   UNL A   1      38.339  30.076  29.373  1.00  0.00     0.031 C 
ATOM     52  C   UNL A   1      37.956  34.252  34.847  1.00  0.00     0.029 A 
ATOM     53  C   UNL A   1      39.011  33.247  34.892  1.00  0.00     0.049 A 
ATOM     54  H   UNL A   1      39.474  31.827  33.441  1.00  0.00     0.167 HD
ATOM     55  C   UNL A   1      40.276  28.853  30.301  1.00  0.00     0.037 A 
ATOM     56  C   UNL A   1      39.878  33.066  35.907  1.00  0.00     0.037 A 
ATOM     57  C   UNL A   1      41.292  28.639  31.294  1.00  0.00     0.049 A 
ATOM     58  C   UNL A   1      40.912  31.978  35.795  1.00  0.00     0.074 A 
ATOM     59  C   UNL A   1      42.342  27.740  31.277  1.00  0.00     0.029 A 
ATOM     60  N   UNL A   1      41.379  29.335  32.493  1.00  0.00    -0.354 N 
ATOM     61  N   UNL A   1      41.132  31.139  34.812  1.00  0.00    -0.248 NA
ATOM     62  C   UNL A   1      41.822  31.815  36.938  1.00  0.00     0.031 C 
ATOM     63  C   UNL A   1      43.030  27.851  32.489  1.00  0.00     0.029 A 
ATOM     64  C   UNL A   1      42.448  28.864  33.237  1.00  0.00     0.049 A 
ATOM     65  H   UNL A   1      40.772  30.057  32.772  1.00  0.00     0.167 HD
ATOM     66  C   UNL A   1      42.224  30.373  35.198  1.00  0.00     0.074 A 
ATOM     67  C   UNL A   1      42.627  30.856  36.503  1.00  0.00     0.031 C 
ATOM     68  C   UNL A   1      42.837  29.363  34.533  1.00  0.00     0.037 A 
BRANCH  55  69
ATOM     69  C   UNL A   1      40.231  27.960  29.093  1.00  0.00     0.064 A 
ATOM     70  C   UNL A   1      39.511  26.754  29.087  1.00  0.00     0.173 A 
ATOM     71  C   UNL A   1      40.941  28.300  27.932  1.00  0.00     0.173 A 
ATOM     72  F   UNL A   1      38.824  26.370  30.175  1.00  0.00    -0.203 F 
ATOM     73  C   UNL A   1      39.554  25.896  27.991  1.00  0.00     0.198 A 
ATOM     74  C   UNL A   1      40.947  27.459  26.821  1.00  0.00     0.198 A 
ATOM     75  F   UNL A   1      41.643  29.442  27.877  1.00  0.00    -0.203 F 
ATOM     76  F   UNL A   1      38.931  24.710  28.046  1.00  0.00    -0.200 F 
ATOM     77  C   UNL A   1      40.268  26.251  26.857  1.00  0.00     0.200 A 
ATOM     78  F   UNL A   1      41.625  27.811  25.721  1.00  0.00    -0.200 F 
ATOM     79  F   UNL A   1      40.315  25.422  25.806  1.00  0.00    -0.200 F 
ENDBRANCH  55  69
BRANCH  56  80
ATOM     80  C   UNL A   1      39.846  33.974  37.084  1.00  0.00     0.064 A 
ATOM     81  C   UNL A   1      40.592  35.161  37.087  1.00  0.00     0.173 A 
ATOM     82  C   UNL A   1      39.067  33.692  38.215  1.00  0.00     0.173 A 
ATOM     83  F   UNL A   1      41.367  35.467  36.035  1.00  0.00    -0.203 F 
ATOM     84  C   UNL A   1      40.572  36.024  38.180  1.00  0.00     0.198 A 
ATOM     85  C   UNL A   1      39.027  34.569  39.298  1.00  0.00     0.198 A 
ATOM     86  F   UNL A   1      38.331  32.573  38.262  1.00  0.00    -0.203 F 
ATOM     87  F   UNL A   1      41.324  37.133  38.170  1.00  0.00    -0.200 F 
ATOM     88  C   UNL A   1      39.784  35.732  39.283  1.00  0.00     0.200 A 
ATOM     89  F   UNL A   1      38.252  34.290  40.355  1.00  0.00    -0.200 F 
ATOM     90  F   UNL A   1      39.758  36.566  40.330  1.00  0.00    -0.200 F 
ENDBRANCH  56  80
BRANCH  68  91
ATOM     91  C   UNL A   1      44.037  28.738  35.184  1.00  0.00     0.064 A 
ATOM     92  C   UNL A   1      45.327  29.266  35.019  1.00  0.00     0.173 A 
ATOM     93  C   UNL A   1      43.887  27.622  36.022  1.00  0.00     0.173 A 
ATOM     94  F   UNL A   1      45.526  30.322  34.217  1.00  0.00    -0.203 F 
ATOM     95  C   UNL A   1      46.424  28.682  35.646  1.00  0.00     0.198 A 
ATOM     96  C   UNL A   1      44.980  27.064  36.676  1.00  0.00     0.198 A 
ATOM     97  F   UNL A   1      42.674  27.084  36.221  1.00  0.00    -0.203 F 
ATOM     98  F   UNL A   1      47.653  29.171  35.432  1.00  0.00    -0.200 F 
ATOM     99  C   UNL A   1      46.249  27.588  36.482  1.00  0.00     0.200 A 
ATOM    100  F   UNL A   1      44.806  26.019  37.497  1.00  0.00    -0.200 F 
ATOM    101  F   UNL A   1      47.305  27.035  37.094  1.00  0.00    -0.200 F 
ENDBRANCH  68  91
ENDBRANCH  42  43
ENDBRANCH  34  37
ENDBRANCH  32  33
ENDBRANCH  31  32
ENDBRANCH  30  31
ENDBRANCH   1  30
TORSDOF 17
ENDMDL
