MODEL 1
REMARK VINA RESULT:     -11.7      0.000      0.000
REMARK SMILES O=C(C[C@H]([NH2+]Cc1ccccc1C1CC1)c1cccs1)NCCCCNC(=O)c1ccc(-c2c3nc(c(-c4c(F)c(F)c(F)c(F)c4F)c4ccc([nH]4)c(-c4c(F)c(F)c(F)c(F)c4F)c4nc(c(-c5c(F)c(F)c(F)c(F)c5F)c5ccc2[nH]5)C=C4)C=C3)cc1
REMARK SMILES IDX 22 1 21 2 1 3 2 4 3 6 4 7 16 8 17 9 20 10 18 11 19 12 5 13
REMARK SMILES IDX 6 16 7 17 8 18 12 19 9 20 11 21 10 22 13 23 14 24 15 25
REMARK SMILES IDX 23 26 24 27 25 28 26 29 27 30 28 32 29 33 30 34 91 35 31 36
REMARK SMILES IDX 90 37 32 38 33 39 34 40 84 41 35 42 89 43 83 44 85 45 36 46
REMARK SMILES IDX 88 47 82 48 81 49 37 51 69 52 49 53 68 54 50 55 53 56 67 57
REMARK SMILES IDX 86 58 51 59 52 60 66 62 87 63 54 64 38 65 39 66 47 67 40 68
REMARK SMILES IDX 41 69 45 70 48 71 42 72 43 73 46 74 44 75 70 76 71 77 79 78
REMARK SMILES IDX 72 79 73 80 77 81 80 82 74 83 75 84 78 85 76 86 55 87 56 88
REMARK SMILES IDX 64 89 57 90 58 91 62 92 65 93 59 94 60 95 63 96 61 97
REMARK H PARENT 21 5 5 14 5 15 26 31 85 50 53 61
REMARK Flexibility Score: inf
ROOT
ATOM      1  C   UNL A   1      32.406  29.833  27.041  1.00  0.00     0.116 C 
ENDROOT
BRANCH   1   2
ATOM      2  N   UNL A   1      31.954  28.452  26.982  1.00  0.00    -0.356 N 
ATOM      3  O   UNL A   1      33.887  27.618  26.067  1.00  0.00    -0.275 OA
ATOM      4  C   UNL A   1      32.739  27.442  26.462  1.00  0.00     0.226 C 
ATOM      5  H   UNL A   1      31.059  28.230  27.324  1.00  0.00     0.163 HD
BRANCH   4   6
ATOM      6  C   UNL A   1      32.070  26.082  26.419  1.00  0.00     0.171 C 
BRANCH   6   7
ATOM      7  C   UNL A   1      31.848  25.603  24.976  1.00  0.00     0.233 C 
BRANCH   7   8
ATOM      8  C   UNL A   1      31.107  26.631  24.140  1.00  0.00     0.062 A 
ATOM      9  C   UNL A   1      29.762  26.949  24.211  1.00  0.00     0.021 A 
ATOM     10  S   UNL A   1      31.880  27.487  22.867  1.00  0.00    -0.143 S 
ATOM     11  C   UNL A   1      29.357  27.846  23.182  1.00  0.00     0.012 A 
ATOM     12  C   UNL A   1      30.412  28.215  22.378  1.00  0.00     0.065 A 
ENDBRANCH   7   8
BRANCH   7  13
ATOM     13  N   UNL A   1      33.106  25.217  24.306  1.00  0.00    -0.335 N 
ATOM     14  H   UNL A   1      33.895  25.544  24.863  1.00  0.00     0.347 HD
ATOM     15  H   UNL A   1      33.123  25.638  23.378  1.00  0.00     0.347 HD
BRANCH  13  16
ATOM     16  C   UNL A   1      33.197  23.761  24.158  1.00  0.00     0.298 C 
BRANCH  16  17
ATOM     17  C   UNL A   1      34.463  23.171  24.733  1.00  0.00     0.010 A 
ATOM     18  C   UNL A   1      35.401  24.099  25.250  1.00  0.00     0.010 A 
ATOM     19  C   UNL A   1      34.770  21.789  24.716  1.00  0.00    -0.036 A 
ATOM     20  C   UNL A   1      36.654  23.701  25.703  1.00  0.00     0.001 A 
ATOM     21  C   UNL A   1      36.063  21.433  25.180  1.00  0.00     0.004 A 
ATOM     22  C   UNL A   1      36.992  22.361  25.657  1.00  0.00     0.000 A 
BRANCH  19  23
ATOM     23  C   UNL A   1      33.896  20.620  24.270  1.00  0.00     0.020 C 
ATOM     24  C   UNL A   1      33.919  19.182  24.699  1.00  0.00     0.009 C 
ATOM     25  C   UNL A   1      32.858  20.089  25.235  1.00  0.00     0.009 C 
ENDBRANCH  19  23
ENDBRANCH  16  17
ENDBRANCH  13  16
ENDBRANCH   7  13
ENDBRANCH   6   7
ENDBRANCH   4   6
ENDBRANCH   1   2
BRANCH   1  26
ATOM     26  C   UNL A   1      31.638  30.730  26.070  1.00  0.00     0.023 C 
BRANCH  26  27
ATOM     27  C   UNL A   1      31.404  32.165  26.553  1.00  0.00     0.023 C 
BRANCH  27  28
ATOM     28  C   UNL A   1      32.583  32.811  27.276  1.00  0.00     0.116 C 
BRANCH  28  29
ATOM     29  N   UNL A   1      32.344  34.201  27.626  1.00  0.00    -0.352 N 
ATOM     30  C   UNL A   1      32.965  34.991  28.565  1.00  0.00     0.251 C 
ATOM     31  H   UNL A   1      31.629  34.645  27.113  1.00  0.00     0.163 HD
ATOM     32  O   UNL A   1      32.529  36.109  28.811  1.00  0.00    -0.269 OA
BRANCH  30  33
ATOM     33  C   UNL A   1      34.143  34.485  29.310  1.00  0.00     0.039 A 
ATOM     34  C   UNL A   1      33.942  33.892  30.560  1.00  0.00     0.014 A 
ATOM     35  C   UNL A   1      35.436  34.592  28.792  1.00  0.00     0.014 A 
ATOM     36  C   UNL A   1      35.024  33.342  31.253  1.00  0.00     0.010 A 
ATOM     37  C   UNL A   1      36.501  33.973  29.445  1.00  0.00     0.010 A 
ATOM     38  C   UNL A   1      36.307  33.338  30.681  1.00  0.00    -0.014 A 
BRANCH  38  39
ATOM     39  C   UNL A   1      37.450  32.663  31.354  1.00  0.00     0.031 A 
ATOM     40  C   UNL A   1      38.146  31.504  30.697  1.00  0.00     0.074 A 
ATOM     41  C   UNL A   1      37.821  33.054  32.590  1.00  0.00     0.049 A 
ATOM     42  N   UNL A   1      39.110  30.745  31.158  1.00  0.00    -0.248 NA
ATOM     43  C   UNL A   1      37.679  31.129  29.354  1.00  0.00     0.031 C 
ATOM     44  C   UNL A   1      37.201  34.136  33.356  1.00  0.00     0.029 A 
ATOM     45  N   UNL A   1      38.804  32.579  33.425  1.00  0.00    -0.354 N 
ATOM     46  C   UNL A   1      39.357  29.803  30.169  1.00  0.00     0.074 A 
ATOM     47  C   UNL A   1      38.402  30.046  29.109  1.00  0.00     0.031 C 
ATOM     48  C   UNL A   1      37.828  34.255  34.537  1.00  0.00     0.029 A 
ATOM     49  C   UNL A   1      38.865  33.231  34.632  1.00  0.00     0.049 A 
ATOM     50  H   UNL A   1      39.406  31.839  33.181  1.00  0.00     0.167 HD
ATOM     51  C   UNL A   1      40.311  28.841  30.133  1.00  0.00     0.037 A 
ATOM     52  C   UNL A   1      39.657  33.022  35.702  1.00  0.00     0.037 A 
ATOM     53  C   UNL A   1      41.268  28.608  31.185  1.00  0.00     0.049 A 
ATOM     54  C   UNL A   1      40.691  31.929  35.649  1.00  0.00     0.074 A 
ATOM     55  C   UNL A   1      42.302  27.689  31.222  1.00  0.00     0.029 A 
ATOM     56  N   UNL A   1      41.304  29.297  32.389  1.00  0.00    -0.354 N 
ATOM     57  N   UNL A   1      40.958  31.088  34.681  1.00  0.00    -0.248 NA
ATOM     58  C   UNL A   1      41.538  31.762  36.838  1.00  0.00     0.031 C 
ATOM     59  C   UNL A   1      42.927  27.782  32.469  1.00  0.00     0.029 A 
ATOM     60  C   UNL A   1      42.326  28.804  33.186  1.00  0.00     0.049 A 
ATOM     61  H   UNL A   1      40.695  30.028  32.640  1.00  0.00     0.167 HD
ATOM     62  C   UNL A   1      42.021  30.314  35.128  1.00  0.00     0.074 A 
ATOM     63  C   UNL A   1      42.359  30.797  36.451  1.00  0.00     0.031 C 
ATOM     64  C   UNL A   1      42.658  29.295  34.500  1.00  0.00     0.037 A 
BRANCH  51  65
ATOM     65  C   UNL A   1      40.363  27.960  28.916  1.00  0.00     0.064 A 
ATOM     66  C   UNL A   1      39.636  26.762  28.841  1.00  0.00     0.173 A 
ATOM     67  C   UNL A   1      41.124  28.334  27.797  1.00  0.00     0.173 A 
ATOM     68  F   UNL A   1      38.900  26.352  29.885  1.00  0.00    -0.203 F 
ATOM     69  C   UNL A   1      39.696  25.955  27.707  1.00  0.00     0.198 A 
ATOM     70  C   UNL A   1      41.153  27.542  26.652  1.00  0.00     0.198 A 
ATOM     71  F   UNL A   1      41.832  29.474  27.810  1.00  0.00    -0.203 F 
ATOM     72  F   UNL A   1      39.038  24.788  27.683  1.00  0.00    -0.200 F 
ATOM     73  C   UNL A   1      40.447  26.350  26.611  1.00  0.00     0.200 A 
ATOM     74  F   UNL A   1      41.866  27.934  25.587  1.00  0.00    -0.200 F 
ATOM     75  F   UNL A   1      40.499  25.576  25.518  1.00  0.00    -0.200 F 
ENDBRANCH  51  65
BRANCH  52  76
ATOM     76  C   UNL A   1      39.513  33.876  36.910  1.00  0.00     0.064 A 
ATOM     77  C   UNL A   1      40.155  35.120  36.998  1.00  0.00     0.173 A 
ATOM     78  C   UNL A   1      38.736  33.466  38.004  1.00  0.00     0.173 A 
ATOM     79  F   UNL A   1      40.926  35.547  35.988  1.00  0.00    -0.203 F 
ATOM     80  C   UNL A   1      40.046  35.908  38.143  1.00  0.00     0.198 A 
ATOM     81  C   UNL A   1      38.601  34.271  39.134  1.00  0.00     0.198 A 
ATOM     82  F   UNL A   1      38.096  32.289  37.970  1.00  0.00    -0.203 F 
ATOM     83  F   UNL A   1      40.712  37.068  38.219  1.00  0.00    -0.200 F 
ATOM     84  C   UNL A   1      39.263  35.487  39.206  1.00  0.00     0.200 A 
ATOM     85  F   UNL A   1      37.830  33.867  40.152  1.00  0.00    -0.200 F 
ATOM     86  F   UNL A   1      39.155  36.248  40.304  1.00  0.00    -0.200 F 
ENDBRANCH  52  76
BRANCH  64  87
ATOM     87  C   UNL A   1      43.815  28.656  35.216  1.00  0.00     0.064 A 
ATOM     88  C   UNL A   1      45.131  29.118  35.058  1.00  0.00     0.173 A 
ATOM     89  C   UNL A   1      43.597  27.590  36.103  1.00  0.00     0.173 A 
ATOM     90  F   UNL A   1      45.396  30.125  34.211  1.00  0.00    -0.203 F 
ATOM     91  C   UNL A   1      46.186  28.517  35.738  1.00  0.00     0.198 A 
ATOM     92  C   UNL A   1      44.652  27.015  36.808  1.00  0.00     0.198 A 
ATOM     93  F   UNL A   1      42.359  27.114  36.297  1.00  0.00    -0.203 F 
ATOM     94  F   UNL A   1      47.441  28.941  35.530  1.00  0.00    -0.200 F 
ATOM     95  C   UNL A   1      45.946  27.472  36.618  1.00  0.00     0.200 A 
ATOM     96  F   UNL A   1      44.413  26.017  37.670  1.00  0.00    -0.200 F 
ATOM     97  F   UNL A   1      46.963  26.903  37.279  1.00  0.00    -0.200 F 
ENDBRANCH  64  87
ENDBRANCH  38  39
ENDBRANCH  30  33
ENDBRANCH  28  29
ENDBRANCH  27  28
ENDBRANCH  26  27
ENDBRANCH   1  26
TORSDOF 17
ENDMDL
MODEL 2
REMARK VINA RESULT:     -11.6      6.193     11.812
REMARK SMILES O=C(C[C@H]([NH2+]Cc1ccccc1C1CC1)c1cccs1)NCCCCNC(=O)c1ccc(-c2c3nc(c(-c4c(F)c(F)c(F)c(F)c4F)c4ccc([nH]4)c(-c4c(F)c(F)c(F)c(F)c4F)c4nc(c(-c5c(F)c(F)c(F)c(F)c5F)c5ccc2[nH]5)C=C4)C=C3)cc1
REMARK SMILES IDX 22 1 21 2 1 3 2 4 3 6 4 7 16 8 17 9 20 10 18 11 19 12 5 13
REMARK SMILES IDX 6 16 7 17 8 18 12 19 9 20 11 21 10 22 13 23 14 24 15 25
REMARK SMILES IDX 23 26 24 27 25 28 26 29 27 30 28 32 29 33 30 34 91 35 31 36
REMARK SMILES IDX 90 37 32 38 33 39 34 40 84 41 35 42 89 43 83 44 85 45 36 46
REMARK SMILES IDX 88 47 82 48 81 49 37 51 69 52 49 53 68 54 50 55 53 56 67 57
REMARK SMILES IDX 86 58 51 59 52 60 66 62 87 63 54 64 38 65 39 66 47 67 40 68
REMARK SMILES IDX 41 69 45 70 48 71 42 72 43 73 46 74 44 75 70 76 71 77 79 78
REMARK SMILES IDX 72 79 73 80 77 81 80 82 74 83 75 84 78 85 76 86 55 87 56 88
REMARK SMILES IDX 64 89 57 90 58 91 62 92 65 93 59 94 60 95 63 96 61 97
REMARK H PARENT 21 5 5 14 5 15 26 31 85 50 53 61
REMARK Flexibility Score: inf
ROOT
ATOM      1  C   UNL A   1      44.957  21.607  24.105  1.00  0.00     0.116 C 
ENDROOT
BRANCH   1   2
ATOM      2  N   UNL A   1      45.988  22.570  23.754  1.00  0.00    -0.356 N 
ATOM      3  O   UNL A   1      45.890  23.738  25.728  1.00  0.00    -0.275 OA
ATOM      4  C   UNL A   1      46.358  23.595  24.602  1.00  0.00     0.226 C 
ATOM      5  H   UNL A   1      46.439  22.488  22.883  1.00  0.00     0.163 HD
BRANCH   4   6
ATOM      6  C   UNL A   1      47.399  24.539  24.034  1.00  0.00     0.171 C 
BRANCH   6   7
ATOM      7  C   UNL A   1      47.710  25.692  25.002  1.00  0.00     0.233 C 
BRANCH   7   8
ATOM      8  C   UNL A   1      49.147  26.169  24.879  1.00  0.00     0.062 A 
ATOM      9  C   UNL A   1      50.181  25.934  25.767  1.00  0.00     0.021 A 
ATOM     10  S   UNL A   1      49.649  27.201  23.601  1.00  0.00    -0.143 S 
ATOM     11  C   UNL A   1      51.364  26.652  25.431  1.00  0.00     0.012 A 
ATOM     12  C   UNL A   1      51.209  27.384  24.276  1.00  0.00     0.065 A 
ENDBRANCH   7   8
BRANCH   7  13
ATOM     13  N   UNL A   1      46.783  26.830  24.847  1.00  0.00    -0.335 N 
ATOM     14  H   UNL A   1      46.031  26.564  24.212  1.00  0.00     0.347 HD
ATOM     15  H   UNL A   1      47.302  27.624  24.474  1.00  0.00     0.347 HD
BRANCH  13  16
ATOM     16  C   UNL A   1      46.206  27.216  26.137  1.00  0.00     0.298 C 
BRANCH  16  17
ATOM     17  C   UNL A   1      44.743  27.586  26.061  1.00  0.00     0.010 A 
ATOM     18  C   UNL A   1      43.924  26.722  25.291  1.00  0.00     0.010 A 
ATOM     19  C   UNL A   1      44.189  28.750  26.645  1.00  0.00    -0.036 A 
ATOM     20  C   UNL A   1      42.586  27.007  25.043  1.00  0.00     0.001 A 
ATOM     21  C   UNL A   1      42.823  29.003  26.357  1.00  0.00     0.004 A 
ATOM     22  C   UNL A   1      42.035  28.160  25.569  1.00  0.00     0.000 A 
BRANCH  19  23
ATOM     23  C   UNL A   1      44.861  29.776  27.554  1.00  0.00     0.020 C 
ATOM     24  C   UNL A   1      46.169  30.495  27.394  1.00  0.00     0.009 C 
ATOM     25  C   UNL A   1      44.893  31.222  27.107  1.00  0.00     0.009 C 
ENDBRANCH  19  23
ENDBRANCH  16  17
ENDBRANCH  13  16
ENDBRANCH   7  13
ENDBRANCH   6   7
ENDBRANCH   4   6
ENDBRANCH   1   2
BRANCH   1  26
ATOM     26  C   UNL A   1      45.549  20.287  24.601  1.00  0.00     0.023 C 
BRANCH  26  27
ATOM     27  C   UNL A   1      44.583  19.098  24.601  1.00  0.00     0.023 C 
BRANCH  27  28
ATOM     28  C   UNL A   1      43.840  18.860  25.913  1.00  0.00     0.116 C 
BRANCH  28  29
ATOM     29  N   UNL A   1      42.395  18.876  25.760  1.00  0.00    -0.352 N 
ATOM     30  C   UNL A   1      41.479  19.821  26.159  1.00  0.00     0.251 C 
ATOM     31  H   UNL A   1      42.014  18.091  25.302  1.00  0.00     0.163 HD
ATOM     32  O   UNL A   1      40.279  19.591  26.062  1.00  0.00    -0.269 OA
BRANCH  30  33
ATOM     33  C   UNL A   1      41.933  21.107  26.740  1.00  0.00     0.039 A 
ATOM     34  C   UNL A   1      42.244  22.161  25.875  1.00  0.00     0.014 A 
ATOM     35  C   UNL A   1      42.059  21.281  28.120  1.00  0.00     0.014 A 
ATOM     36  C   UNL A   1      42.606  23.407  26.396  1.00  0.00     0.010 A 
ATOM     37  C   UNL A   1      42.342  22.544  28.640  1.00  0.00     0.010 A 
ATOM     38  C   UNL A   1      42.615  23.622  27.784  1.00  0.00    -0.014 A 
BRANCH  38  39
ATOM     39  C   UNL A   1      42.894  24.968  28.355  1.00  0.00     0.031 A 
ATOM     40  C   UNL A   1      44.270  25.317  28.851  1.00  0.00     0.074 A 
ATOM     41  C   UNL A   1      41.890  25.857  28.487  1.00  0.00     0.049 A 
ATOM     42  N   UNL A   1      44.686  26.409  29.444  1.00  0.00    -0.248 NA
ATOM     43  C   UNL A   1      45.311  24.292  28.683  1.00  0.00     0.031 C 
ATOM     44  C   UNL A   1      40.500  25.628  28.087  1.00  0.00     0.029 A 
ATOM     45  N   UNL A   1      41.879  27.129  29.006  1.00  0.00    -0.354 N 
ATOM     46  C   UNL A   1      46.029  26.198  29.725  1.00  0.00     0.074 A 
ATOM     47  C   UNL A   1      46.344  24.854  29.294  1.00  0.00     0.031 C 
ATOM     48  C   UNL A   1      39.778  26.727  28.355  1.00  0.00     0.029 A 
ATOM     49  C   UNL A   1      40.640  27.723  28.986  1.00  0.00     0.049 A 
ATOM     50  H   UNL A   1      42.683  27.573  29.359  1.00  0.00     0.167 HD
ATOM     51  C   UNL A   1      46.927  27.057  30.268  1.00  0.00     0.037 A 
ATOM     52  C   UNL A   1      40.239  28.927  29.438  1.00  0.00     0.037 A 
ATOM     53  C   UNL A   1      46.614  28.400  30.686  1.00  0.00     0.049 A 
ATOM     54  C   UNL A   1      41.248  29.853  30.062  1.00  0.00     0.074 A 
ATOM     55  C   UNL A   1      47.464  29.362  31.203  1.00  0.00     0.029 A 
ATOM     56  N   UNL A   1      45.349  28.969  30.641  1.00  0.00    -0.354 N 
ATOM     57  N   UNL A   1      42.530  29.668  30.261  1.00  0.00    -0.248 NA
ATOM     58  C   UNL A   1      40.754  31.160  30.517  1.00  0.00     0.031 C 
ATOM     59  C   UNL A   1      46.704  30.492  31.524  1.00  0.00     0.029 A 
ATOM     60  C   UNL A   1      45.391  30.259  31.147  1.00  0.00     0.049 A 
ATOM     61  H   UNL A   1      44.541  28.522  30.300  1.00  0.00     0.167 HD
ATOM     62  C   UNL A   1      43.002  30.841  30.835  1.00  0.00     0.074 A 
ATOM     63  C   UNL A   1      41.870  31.739  30.937  1.00  0.00     0.031 C 
ATOM     64  C   UNL A   1      44.259  31.147  31.240  1.00  0.00     0.037 A 
BRANCH  51  65
ATOM     65  C   UNL A   1      48.337  26.568  30.445  1.00  0.00     0.064 A 
ATOM     66  C   UNL A   1      49.345  26.871  29.517  1.00  0.00     0.173 A 
ATOM     67  C   UNL A   1      48.694  25.815  31.574  1.00  0.00     0.173 A 
ATOM     68  F   UNL A   1      49.057  27.580  28.415  1.00  0.00    -0.203 F 
ATOM     69  C   UNL A   1      50.647  26.410  29.695  1.00  0.00     0.198 A 
ATOM     70  C   UNL A   1      50.005  25.385  31.766  1.00  0.00     0.198 A 
ATOM     71  F   UNL A   1      47.773  25.502  32.499  1.00  0.00    -0.203 F 
ATOM     72  F   UNL A   1      51.577  26.664  28.764  1.00  0.00    -0.200 F 
ATOM     73  C   UNL A   1      50.977  25.675  30.822  1.00  0.00     0.200 A 
ATOM     74  F   UNL A   1      50.326  24.689  32.865  1.00  0.00    -0.200 F 
ATOM     75  F   UNL A   1      52.232  25.237  30.995  1.00  0.00    -0.200 F 
ENDBRANCH  51  65
BRANCH  52  76
ATOM     76  C   UNL A   1      38.814  29.333  29.304  1.00  0.00     0.064 A 
ATOM     77  C   UNL A   1      37.970  29.388  30.423  1.00  0.00     0.173 A 
ATOM     78  C   UNL A   1      38.264  29.667  28.058  1.00  0.00     0.173 A 
ATOM     79  F   UNL A   1      38.442  29.057  31.634  1.00  0.00    -0.203 F 
ATOM     80  C   UNL A   1      36.627  29.738  30.296  1.00  0.00     0.198 A 
ATOM     81  C   UNL A   1      36.929  30.049  27.937  1.00  0.00     0.198 A 
ATOM     82  F   UNL A   1      39.028  29.636  26.956  1.00  0.00    -0.203 F 
ATOM     83  F   UNL A   1      35.832  29.733  31.375  1.00  0.00    -0.200 F 
ATOM     84  C   UNL A   1      36.109  30.075  29.055  1.00  0.00     0.200 A 
ATOM     85  F   UNL A   1      36.439  30.390  26.739  1.00  0.00    -0.200 F 
ATOM     86  F   UNL A   1      34.820  30.417  28.935  1.00  0.00    -0.200 F 
ENDBRANCH  52  76
BRANCH  64  87
ATOM     87  C   UNL A   1      44.492  32.523  31.796  1.00  0.00     0.064 A 
ATOM     88  C   UNL A   1      44.848  33.604  30.974  1.00  0.00     0.173 A 
ATOM     89  C   UNL A   1      44.318  32.773  33.167  1.00  0.00     0.173 A 
ATOM     90  F   UNL A   1      45.041  33.417  29.659  1.00  0.00    -0.203 F 
ATOM     91  C   UNL A   1      45.050  34.873  31.509  1.00  0.00     0.198 A 
ATOM     92  C   UNL A   1      44.486  34.051  33.691  1.00  0.00     0.198 A 
ATOM     93  F   UNL A   1      43.970  31.778  33.996  1.00  0.00    -0.203 F 
ATOM     94  F   UNL A   1      45.442  35.878  30.713  1.00  0.00    -0.200 F 
ATOM     95  C   UNL A   1      44.861  35.098  32.864  1.00  0.00     0.200 A 
ATOM     96  F   UNL A   1      44.286  34.268  34.998  1.00  0.00    -0.200 F 
ATOM     97  F   UNL A   1      45.045  36.323  33.375  1.00  0.00    -0.200 F 
ENDBRANCH  64  87
ENDBRANCH  38  39
ENDBRANCH  30  33
ENDBRANCH  28  29
ENDBRANCH  27  28
ENDBRANCH  26  27
ENDBRANCH   1  26
TORSDOF 17
ENDMDL
MODEL 3
REMARK VINA RESULT:     -11.4      6.282     10.944
REMARK SMILES O=C(C[C@H]([NH2+]Cc1ccccc1C1CC1)c1cccs1)NCCCCNC(=O)c1ccc(-c2c3nc(c(-c4c(F)c(F)c(F)c(F)c4F)c4ccc([nH]4)c(-c4c(F)c(F)c(F)c(F)c4F)c4nc(c(-c5c(F)c(F)c(F)c(F)c5F)c5ccc2[nH]5)C=C4)C=C3)cc1
REMARK SMILES IDX 22 1 21 2 1 3 2 4 3 6 4 7 16 8 17 9 20 10 18 11 19 12 5 13
REMARK SMILES IDX 6 16 7 17 8 18 12 19 9 20 11 21 10 22 13 23 14 24 15 25
REMARK SMILES IDX 23 26 24 27 25 28 26 29 27 30 28 32 29 33 30 34 91 35 31 36
REMARK SMILES IDX 90 37 32 38 33 39 34 40 84 41 35 42 89 43 83 44 85 45 36 46
REMARK SMILES IDX 88 47 82 48 81 49 37 51 69 52 49 53 68 54 50 55 53 56 67 57
REMARK SMILES IDX 86 58 51 59 52 60 66 62 87 63 54 64 38 65 39 66 47 67 40 68
REMARK SMILES IDX 41 69 45 70 48 71 42 72 43 73 46 74 44 75 70 76 71 77 79 78
REMARK SMILES IDX 72 79 73 80 77 81 80 82 74 83 75 84 78 85 76 86 55 87 56 88
REMARK SMILES IDX 64 89 57 90 58 91 62 92 65 93 59 94 60 95 63 96 61 97
REMARK H PARENT 21 5 5 14 5 15 26 31 85 50 53 61
REMARK Flexibility Score: inf
ROOT
ATOM      1  C   UNL A   1      39.987  22.155  26.279  1.00  0.00     0.116 C 
ENDROOT
BRANCH   1   2
ATOM      2  N   UNL A   1      38.580  21.841  26.088  1.00  0.00    -0.356 N 
ATOM      3  O   UNL A   1      37.908  24.007  25.736  1.00  0.00    -0.275 OA
ATOM      4  C   UNL A   1      37.633  22.817  25.855  1.00  0.00     0.226 C 
ATOM      5  H   UNL A   1      38.294  20.900  26.126  1.00  0.00     0.163 HD
BRANCH   4   6
ATOM      6  C   UNL A   1      36.210  22.303  25.753  1.00  0.00     0.171 C 
BRANCH   6   7
ATOM      7  C   UNL A   1      35.464  22.926  24.562  1.00  0.00     0.233 C 
BRANCH   7   8
ATOM      8  C   UNL A   1      34.269  22.092  24.137  1.00  0.00     0.062 A 
ATOM      9  C   UNL A   1      33.294  22.440  23.218  1.00  0.00     0.021 A 
ATOM     10  S   UNL A   1      33.918  20.577  24.868  1.00  0.00    -0.143 S 
ATOM     11  C   UNL A   1      32.231  21.494  23.164  1.00  0.00     0.012 A 
ATOM     12  C   UNL A   1      32.444  20.434  24.015  1.00  0.00     0.065 A 
ENDBRANCH   7   8
BRANCH   7  13
ATOM     13  N   UNL A   1      35.043  24.318  24.820  1.00  0.00    -0.335 N 
ATOM     14  H   UNL A   1      34.389  24.609  24.094  1.00  0.00     0.347 HD
ATOM     15  H   UNL A   1      35.871  24.913  24.817  1.00  0.00     0.347 HD
BRANCH  13  16
ATOM     16  C   UNL A   1      34.390  24.435  26.127  1.00  0.00     0.298 C 
BRANCH  16  17
ATOM     17  C   UNL A   1      32.990  24.998  26.056  1.00  0.00     0.010 A 
ATOM     18  C   UNL A   1      31.937  24.067  26.247  1.00  0.00     0.010 A 
ATOM     19  C   UNL A   1      32.694  26.348  25.752  1.00  0.00    -0.036 A 
ATOM     20  C   UNL A   1      30.603  24.428  26.093  1.00  0.00     0.001 A 
ATOM     21  C   UNL A   1      31.319  26.665  25.598  1.00  0.00     0.004 A 
ATOM     22  C   UNL A   1      30.292  25.731  25.756  1.00  0.00     0.000 A 
BRANCH  19  23
ATOM     23  C   UNL A   1      33.654  27.521  25.571  1.00  0.00     0.020 C 
ATOM     24  C   UNL A   1      33.391  28.998  25.626  1.00  0.00     0.009 C 
ATOM     25  C   UNL A   1      34.044  28.326  26.792  1.00  0.00     0.009 C 
ENDBRANCH  19  23
ENDBRANCH  16  17
ENDBRANCH  13  16
ENDBRANCH   7  13
ENDBRANCH   6   7
ENDBRANCH   4   6
ENDBRANCH   1   2
BRANCH   1  26
ATOM     26  C   UNL A   1      40.721  21.055  27.048  1.00  0.00     0.023 C 
BRANCH  26  27
ATOM     27  C   UNL A   1      41.156  19.851  26.208  1.00  0.00     0.023 C 
BRANCH  27  28
ATOM     28  C   UNL A   1      42.476  19.207  26.622  1.00  0.00     0.116 C 
BRANCH  28  29
ATOM     29  N   UNL A   1      43.269  18.753  25.492  1.00  0.00    -0.352 N 
ATOM     30  C   UNL A   1      44.132  19.456  24.684  1.00  0.00     0.251 C 
ATOM     31  H   UNL A   1      43.174  17.798  25.271  1.00  0.00     0.163 HD
ATOM     32  O   UNL A   1      44.608  18.925  23.688  1.00  0.00    -0.269 OA
BRANCH  30  33
ATOM     33  C   UNL A   1      44.464  20.868  24.991  1.00  0.00     0.039 A 
ATOM     34  C   UNL A   1      43.879  21.878  24.220  1.00  0.00     0.014 A 
ATOM     35  C   UNL A   1      45.345  21.203  26.021  1.00  0.00     0.014 A 
ATOM     36  C   UNL A   1      44.117  23.219  24.532  1.00  0.00     0.010 A 
ATOM     37  C   UNL A   1      45.519  22.539  26.382  1.00  0.00     0.010 A 
ATOM     38  C   UNL A   1      44.905  23.562  25.644  1.00  0.00    -0.014 A 
BRANCH  38  39
ATOM     39  C   UNL A   1      45.083  24.981  26.055  1.00  0.00     0.031 A 
ATOM     40  C   UNL A   1      46.435  25.635  25.973  1.00  0.00     0.074 A 
ATOM     41  C   UNL A   1      44.039  25.664  26.565  1.00  0.00     0.049 A 
ATOM     42  N   UNL A   1      46.800  26.835  26.352  1.00  0.00    -0.248 NA
ATOM     43  C   UNL A   1      47.528  24.824  25.416  1.00  0.00     0.031 C 
ATOM     44  C   UNL A   1      42.686  25.133  26.739  1.00  0.00     0.029 A 
ATOM     45  N   UNL A   1      43.954  26.950  27.041  1.00  0.00    -0.354 N 
ATOM     46  C   UNL A   1      48.160  26.918  26.088  1.00  0.00     0.074 A 
ATOM     47  C   UNL A   1      48.569  25.629  25.574  1.00  0.00     0.031 C 
ATOM     48  C   UNL A   1      41.903  26.088  27.263  1.00  0.00     0.029 A 
ATOM     49  C   UNL A   1      42.704  27.285  27.504  1.00  0.00     0.049 A 
ATOM     50  H   UNL A   1      44.716  27.573  27.050  1.00  0.00     0.167 HD
ATOM     51  C   UNL A   1      48.990  27.980  26.234  1.00  0.00     0.037 A 
ATOM     52  C   UNL A   1      42.256  28.422  28.071  1.00  0.00     0.037 A 
ATOM     53  C   UNL A   1      48.579  29.267  26.735  1.00  0.00     0.049 A 
ATOM     54  C   UNL A   1      43.202  29.578  28.248  1.00  0.00     0.074 A 
ATOM     55  C   UNL A   1      49.333  30.419  26.876  1.00  0.00     0.029 A 
ATOM     56  N   UNL A   1      47.302  29.570  27.185  1.00  0.00    -0.354 N 
ATOM     57  N   UNL A   1      44.471  29.667  27.933  1.00  0.00    -0.248 NA
ATOM     58  C   UNL A   1      42.651  30.798  28.855  1.00  0.00     0.031 C 
ATOM     59  C   UNL A   1      48.529  31.401  27.463  1.00  0.00     0.029 A 
ATOM     60  C   UNL A   1      47.255  30.883  27.629  1.00  0.00     0.049 A 
ATOM     61  H   UNL A   1      46.541  28.945  27.189  1.00  0.00     0.167 HD
ATOM     62  C   UNL A   1      44.862  30.955  28.272  1.00  0.00     0.074 A 
ATOM     63  C   UNL A   1      43.690  31.619  28.804  1.00  0.00     0.031 C 
ATOM     64  C   UNL A   1      46.081  31.536  28.153  1.00  0.00     0.037 A 
BRANCH  51  65
ATOM     65  C   UNL A   1      50.431  27.795  25.849  1.00  0.00     0.064 A 
ATOM     66  C   UNL A   1      51.424  27.548  26.809  1.00  0.00     0.173 A 
ATOM     67  C   UNL A   1      50.820  27.830  24.501  1.00  0.00     0.173 A 
ATOM     68  F   UNL A   1      51.110  27.512  28.113  1.00  0.00    -0.203 F 
ATOM     69  C   UNL A   1      52.756  27.378  26.438  1.00  0.00     0.198 A 
ATOM     70  C   UNL A   1      52.147  27.625  24.131  1.00  0.00     0.198 A 
ATOM     71  F   UNL A   1      49.911  28.054  23.539  1.00  0.00    -0.203 F 
ATOM     72  F   UNL A   1      53.694  27.202  27.379  1.00  0.00    -0.200 F 
ATOM     73  C   UNL A   1      53.115  27.410  25.099  1.00  0.00     0.200 A 
ATOM     74  F   UNL A   1      52.489  27.639  22.835  1.00  0.00    -0.200 F 
ATOM     75  F   UNL A   1      54.395  27.241  24.743  1.00  0.00    -0.200 F 
ENDBRANCH  51  65
BRANCH  52  76
ATOM     76  C   UNL A   1      40.837  28.526  28.502  1.00  0.00     0.064 A 
ATOM     77  C   UNL A   1      39.843  28.974  27.619  1.00  0.00     0.173 A 
ATOM     78  C   UNL A   1      40.443  28.188  29.806  1.00  0.00     0.173 A 
ATOM     79  F   UNL A   1      40.172  29.329  26.368  1.00  0.00    -0.203 F 
ATOM     80  C   UNL A   1      38.518  29.101  28.029  1.00  0.00     0.198 A 
ATOM     81  C   UNL A   1      39.111  28.285  30.205  1.00  0.00     0.198 A 
ATOM     82  F   UNL A   1      41.351  27.750  30.689  1.00  0.00    -0.203 F 
ATOM     83  F   UNL A   1      37.600  29.580  27.179  1.00  0.00    -0.200 F 
ATOM     84  C   UNL A   1      38.151  28.750  29.319  1.00  0.00     0.200 A 
ATOM     85  F   UNL A   1      38.760  27.928  31.447  1.00  0.00    -0.200 F 
ATOM     86  F   UNL A   1      36.876  28.869  29.711  1.00  0.00    -0.200 F 
ENDBRANCH  52  76
BRANCH  64  87
ATOM     87  C   UNL A   1      46.206  32.975  28.569  1.00  0.00     0.064 A 
ATOM     88  C   UNL A   1      46.580  33.340  29.871  1.00  0.00     0.173 A 
ATOM     89  C   UNL A   1      45.985  34.003  27.638  1.00  0.00     0.173 A 
ATOM     90  F   UNL A   1      46.790  32.397  30.803  1.00  0.00    -0.203 F 
ATOM     91  C   UNL A   1      46.699  34.679  30.232  1.00  0.00     0.198 A 
ATOM     92  C   UNL A   1      46.140  35.340  27.995  1.00  0.00     0.198 A 
ATOM     93  F   UNL A   1      45.632  33.710  26.378  1.00  0.00    -0.203 F 
ATOM     94  F   UNL A   1      47.007  35.005  31.496  1.00  0.00    -0.200 F 
ATOM     95  C   UNL A   1      46.488  35.677  29.293  1.00  0.00     0.200 A 
ATOM     96  F   UNL A   1      45.951  36.301  27.080  1.00  0.00    -0.200 F 
ATOM     97  F   UNL A   1      46.613  36.965  29.641  1.00  0.00    -0.200 F 
ENDBRANCH  64  87
ENDBRANCH  38  39
ENDBRANCH  30  33
ENDBRANCH  28  29
ENDBRANCH  27  28
ENDBRANCH  26  27
ENDBRANCH   1  26
TORSDOF 17
ENDMDL
