MODEL 1
REMARK VINA RESULT:     -13.9      0.000      0.000
REMARK SMILES Cn1cc(S(=O)(=O)N2CCCc3cc(C(=O)NCCCCNC(=O)c4ccc(-c5c6nc(c(-c7c(F)c(F)c(F)c(F)c7F)c7ccc([nH]7)c(-c7c(F)c(F)c(F)c(F)c7F)c7nc(c(-c8c(F)c(F)c(F)c(F)c8F)c8ccc5[nH]8)C=C7)C=C6)cc4)ccc32)cc1C(N)=O
REMARK SMILES IDX 19 1 18 2 17 3 15 4 16 5 14 7 8 8 9 9 90 10 10 11 12 12
REMARK SMILES IDX 89 13 11 14 13 15 88 16 5 17 6 18 7 19 4 20 1 21 2 22 3 23
REMARK SMILES IDX 92 24 91 25 93 26 94 27 95 28 20 31 21 32 22 33 23 34 24 36
REMARK SMILES IDX 25 37 26 38 87 39 27 40 86 41 28 42 29 43 30 44 80 45 31 46
REMARK SMILES IDX 85 47 79 48 81 49 32 50 84 51 78 52 77 53 33 55 65 56 45 57
REMARK SMILES IDX 64 58 46 59 49 60 63 61 82 62 47 63 48 64 62 66 83 67 50 68
REMARK SMILES IDX 34 69 35 70 43 71 36 72 37 73 41 74 44 75 38 76 39 77 42 78
REMARK SMILES IDX 40 79 66 80 67 81 75 82 68 83 69 84 73 85 76 86 70 87 71 88
REMARK SMILES IDX 74 89 72 90 51 91 52 92 60 93 53 94 54 95 58 96 61 97 55 98
REMARK SMILES IDX 56 99 59 100 57 101
REMARK H PARENT 17 6 94 29 94 30 22 35 81 54 49 65
REMARK Flexibility Score: inf
ROOT
ATOM      1  C   UNL A   1      31.925  30.499  26.746  1.00  0.00     0.023 C 
ENDROOT
BRANCH   1   2
ATOM      2  C   UNL A   1      32.295  30.095  25.317  1.00  0.00     0.116 C 
BRANCH   2   3
ATOM      3  N   UNL A   1      31.107  29.766  24.558  1.00  0.00    -0.352 N 
ATOM      4  C   UNL A   1      30.627  28.575  24.077  1.00  0.00     0.251 C 
ATOM      5  O   UNL A   1      29.556  28.604  23.467  1.00  0.00    -0.269 OA
ATOM      6  H   UNL A   1      30.536  30.542  24.350  1.00  0.00     0.163 HD
BRANCH   4   7
ATOM      7  C   UNL A   1      31.303  27.262  24.289  1.00  0.00     0.040 A 
ATOM      8  N   UNL A   1      33.149  23.431  24.557  1.00  0.00    -0.266 N 
ATOM      9  C   UNL A   1      34.056  23.027  23.468  1.00  0.00     0.136 C 
ATOM     10  C   UNL A   1      32.543  24.727  24.483  1.00  0.00     0.055 A 
ATOM     11  C   UNL A   1      33.366  23.273  22.136  1.00  0.00     0.028 C 
ATOM     12  C   UNL A   1      32.409  25.347  23.232  1.00  0.00    -0.023 A 
ATOM     13  C   UNL A   1      32.151  25.419  25.627  1.00  0.00     0.028 A 
ATOM     14  C   UNL A   1      33.017  24.751  21.987  1.00  0.00     0.039 C 
ATOM     15  C   UNL A   1      31.775  26.599  23.145  1.00  0.00     0.019 A 
ATOM     16  C   UNL A   1      31.553  26.679  25.531  1.00  0.00     0.016 A 
BRANCH   8  17
ATOM     17  S   UNL A   1      32.538  22.223  25.582  1.00  0.00     0.265 S 
ATOM     18  O   UNL A   1      31.101  22.136  25.404  1.00  0.00    -0.201 OA
ATOM     19  O   UNL A   1      33.142  22.273  26.892  1.00  0.00    -0.201 OA
BRANCH  17  20
ATOM     20  C   UNL A   1      33.102  20.712  24.944  1.00  0.00     0.106 A 
ATOM     21  C   UNL A   1      35.422  17.959  24.711  1.00  0.00     0.150 C 
ATOM     22  N   UNL A   1      34.316  18.885  24.572  1.00  0.00    -0.345 N 
ATOM     23  C   UNL A   1      34.262  20.060  25.287  1.00  0.00     0.108 A 
ATOM     24  C   UNL A   1      33.199  18.764  23.758  1.00  0.00     0.107 A 
ATOM     25  C   UNL A   1      32.450  19.919  23.971  1.00  0.00     0.056 A 
BRANCH  24  26
ATOM     26  C   UNL A   1      32.902  17.646  22.878  1.00  0.00     0.265 C 
ATOM     27  N   UNL A   1      31.775  17.766  22.116  1.00  0.00    -0.364 N 
ATOM     28  O   UNL A   1      33.571  16.623  22.777  1.00  0.00    -0.268 OA
ATOM     29  H   UNL A   1      31.221  18.577  22.181  1.00  0.00     0.160 HD
ATOM     30  H   UNL A   1      31.516  17.040  21.503  1.00  0.00     0.160 HD
ENDBRANCH  24  26
ENDBRANCH  17  20
ENDBRANCH   8  17
ENDBRANCH   4   7
ENDBRANCH   2   3
ENDBRANCH   1   2
BRANCH   1  31
ATOM     31  C   UNL A   1      31.605  31.985  26.919  1.00  0.00     0.023 C 
BRANCH  31  32
ATOM     32  C   UNL A   1      32.793  32.850  27.324  1.00  0.00     0.116 C 
BRANCH  32  33
ATOM     33  N   UNL A   1      32.423  34.216  27.662  1.00  0.00    -0.352 N 
ATOM     34  C   UNL A   1      32.978  35.038  28.612  1.00  0.00     0.251 C 
ATOM     35  H   UNL A   1      31.681  34.600  27.142  1.00  0.00     0.163 HD
ATOM     36  O   UNL A   1      32.490  36.137  28.852  1.00  0.00    -0.269 OA
BRANCH  34  37
ATOM     37  C   UNL A   1      34.146  34.561  29.379  1.00  0.00     0.039 A 
ATOM     38  C   UNL A   1      33.937  33.993  30.636  1.00  0.00     0.014 A 
ATOM     39  C   UNL A   1      35.431  34.634  28.835  1.00  0.00     0.014 A 
ATOM     40  C   UNL A   1      35.014  33.431  31.323  1.00  0.00     0.010 A 
ATOM     41  C   UNL A   1      36.490  34.013  29.488  1.00  0.00     0.010 A 
ATOM     42  C   UNL A   1      36.290  33.404  30.736  1.00  0.00    -0.014 A 
BRANCH  42  43
ATOM     43  C   UNL A   1      37.430  32.736  31.411  1.00  0.00     0.031 A 
ATOM     44  C   UNL A   1      38.121  31.579  30.750  1.00  0.00     0.074 A 
ATOM     45  C   UNL A   1      37.792  33.128  32.648  1.00  0.00     0.049 A 
ATOM     46  N   UNL A   1      39.086  30.820  31.204  1.00  0.00    -0.248 NA
ATOM     47  C   UNL A   1      37.644  31.204  29.409  1.00  0.00     0.031 C 
ATOM     48  C   UNL A   1      37.161  34.205  33.413  1.00  0.00     0.029 A 
ATOM     49  N   UNL A   1      38.773  32.657  33.483  1.00  0.00    -0.354 N 
ATOM     50  C   UNL A   1      39.319  29.875  30.216  1.00  0.00     0.074 A 
ATOM     51  C   UNL A   1      38.360  30.118  29.160  1.00  0.00     0.031 C 
ATOM     52  C   UNL A   1      37.785  34.326  34.596  1.00  0.00     0.029 A 
ATOM     53  C   UNL A   1      38.834  33.315  34.687  1.00  0.00     0.049 A 
ATOM     54  H   UNL A   1      39.376  31.916  33.243  1.00  0.00     0.167 HD
ATOM     55  C   UNL A   1      40.263  28.905  30.182  1.00  0.00     0.037 A 
ATOM     56  C   UNL A   1      39.642  33.121  35.746  1.00  0.00     0.037 A 
ATOM     57  C   UNL A   1      41.233  28.684  31.224  1.00  0.00     0.049 A 
ATOM     58  C   UNL A   1      40.686  32.038  35.681  1.00  0.00     0.074 A 
ATOM     59  C   UNL A   1      42.272  27.772  31.256  1.00  0.00     0.029 A 
ATOM     60  N   UNL A   1      41.279  29.388  32.419  1.00  0.00    -0.354 N 
ATOM     61  N   UNL A   1      40.946  31.197  34.710  1.00  0.00    -0.248 NA
ATOM     62  C   UNL A   1      41.553  31.885  36.858  1.00  0.00     0.031 C 
ATOM     63  C   UNL A   1      42.922  27.894  32.490  1.00  0.00     0.029 A 
ATOM     64  C   UNL A   1      42.317  28.915  33.205  1.00  0.00     0.049 A 
ATOM     65  H   UNL A   1      40.665  30.114  32.671  1.00  0.00     0.167 HD
ATOM     66  C   UNL A   1      42.022  30.434  35.145  1.00  0.00     0.074 A 
ATOM     67  C   UNL A   1      42.374  30.922  36.461  1.00  0.00     0.031 C 
ATOM     68  C   UNL A   1      42.659  29.420  34.510  1.00  0.00     0.037 A 
BRANCH  55  69
ATOM     69  C   UNL A   1      40.297  28.012  28.977  1.00  0.00     0.064 A 
ATOM     70  C   UNL A   1      41.040  28.348  27.834  1.00  0.00     0.173 A 
ATOM     71  C   UNL A   1      39.606  26.792  28.974  1.00  0.00     0.173 A 
ATOM     72  F   UNL A   1      41.708  29.509  27.781  1.00  0.00    -0.203 F 
ATOM     73  C   UNL A   1      41.063  27.510  26.722  1.00  0.00     0.198 A 
ATOM     74  C   UNL A   1      39.656  25.941  27.872  1.00  0.00     0.198 A 
ATOM     75  F   UNL A   1      38.885  26.420  30.042  1.00  0.00    -0.203 F 
ATOM     76  F   UNL A   1      41.737  27.877  25.624  1.00  0.00    -0.200 F 
ATOM     77  C   UNL A   1      40.378  26.305  26.745  1.00  0.00     0.200 A 
ATOM     78  F   UNL A   1      39.003  24.771  27.900  1.00  0.00    -0.200 F 
ATOM     79  F   UNL A   1      40.405  25.496  25.676  1.00  0.00    -0.200 F 
ENDBRANCH  55  69
BRANCH  56  80
ATOM     80  C   UNL A   1      39.519  33.989  36.945  1.00  0.00     0.064 A 
ATOM     81  C   UNL A   1      38.762  33.583  38.052  1.00  0.00     0.173 A 
ATOM     82  C   UNL A   1      40.150  35.240  37.008  1.00  0.00     0.173 A 
ATOM     83  F   UNL A   1      38.124  32.403  38.029  1.00  0.00    -0.203 F 
ATOM     84  C   UNL A   1      38.622  34.403  39.169  1.00  0.00     0.198 A 
ATOM     85  C   UNL A   1      40.031  36.048  38.138  1.00  0.00     0.198 A 
ATOM     86  F   UNL A   1      40.890  35.674  35.979  1.00  0.00    -0.203 F 
ATOM     87  F   UNL A   1      37.855  34.009  40.195  1.00  0.00    -0.200 F 
ATOM     88  C   UNL A   1      39.261  35.633  39.214  1.00  0.00     0.200 A 
ATOM     89  F   UNL A   1      40.661  37.230  38.183  1.00  0.00    -0.200 F 
ATOM     90  F   UNL A   1      39.128  36.420  40.290  1.00  0.00    -0.200 F 
ENDBRANCH  56  80
BRANCH  68  91
ATOM     91  C   UNL A   1      43.828  28.795  35.215  1.00  0.00     0.064 A 
ATOM     92  C   UNL A   1      45.128  29.302  35.074  1.00  0.00     0.173 A 
ATOM     93  C   UNL A   1      43.636  27.703  36.074  1.00  0.00     0.173 A 
ATOM     94  F   UNL A   1      45.364  30.336  34.253  1.00  0.00    -0.203 F 
ATOM     95  C   UNL A   1      46.197  28.721  35.750  1.00  0.00     0.198 A 
ATOM     96  C   UNL A   1      44.703  27.144  36.771  1.00  0.00     0.198 A 
ATOM     97  F   UNL A   1      42.411  27.185  36.247  1.00  0.00    -0.203 F 
ATOM     98  F   UNL A   1      47.438  29.192  35.566  1.00  0.00    -0.200 F 
ATOM     99  C   UNL A   1      45.984  27.649  36.603  1.00  0.00     0.200 A 
ATOM    100  F   UNL A   1      44.492  26.116  37.605  1.00  0.00    -0.200 F 
ATOM    101  F   UNL A   1      47.014  27.096  37.259  1.00  0.00    -0.200 F 
ENDBRANCH  68  91
ENDBRANCH  42  43
ENDBRANCH  34  37
ENDBRANCH  32  33
ENDBRANCH  31  32
ENDBRANCH   1  31
TORSDOF 14
ENDMDL
MODEL 2
REMARK VINA RESULT:     -13.8      1.051      7.239
REMARK SMILES Cn1cc(S(=O)(=O)N2CCCc3cc(C(=O)NCCCCNC(=O)c4ccc(-c5c6nc(c(-c7c(F)c(F)c(F)c(F)c7F)c7ccc([nH]7)c(-c7c(F)c(F)c(F)c(F)c7F)c7nc(c(-c8c(F)c(F)c(F)c(F)c8F)c8ccc5[nH]8)C=C7)C=C6)cc4)ccc32)cc1C(N)=O
REMARK SMILES IDX 19 1 18 2 17 3 15 4 16 5 14 7 8 8 9 9 90 10 10 11 12 12
REMARK SMILES IDX 89 13 11 14 13 15 88 16 5 17 6 18 7 19 4 20 1 21 2 22 3 23
REMARK SMILES IDX 92 24 91 25 93 26 94 27 95 28 20 31 21 32 22 33 23 34 24 36
REMARK SMILES IDX 25 37 26 38 87 39 27 40 86 41 28 42 29 43 30 44 80 45 31 46
REMARK SMILES IDX 85 47 79 48 81 49 32 50 84 51 78 52 77 53 33 55 65 56 45 57
REMARK SMILES IDX 64 58 46 59 49 60 63 61 82 62 47 63 48 64 62 66 83 67 50 68
REMARK SMILES IDX 34 69 35 70 43 71 36 72 37 73 41 74 44 75 38 76 39 77 42 78
REMARK SMILES IDX 40 79 66 80 67 81 75 82 68 83 69 84 73 85 76 86 70 87 71 88
REMARK SMILES IDX 74 89 72 90 51 91 52 92 60 93 53 94 54 95 58 96 61 97 55 98
REMARK SMILES IDX 56 99 59 100 57 101
REMARK H PARENT 17 6 94 29 94 30 22 35 81 54 49 65
REMARK Flexibility Score: inf
ROOT
ATOM      1  C   UNL A   1      31.734  30.500  26.814  1.00  0.00     0.023 C 
ENDROOT
BRANCH   1   2
ATOM      2  C   UNL A   1      32.193  29.947  25.462  1.00  0.00     0.116 C 
BRANCH   2   3
ATOM      3  N   UNL A   1      31.110  29.989  24.503  1.00  0.00    -0.352 N 
ATOM      4  C   UNL A   1      30.487  29.003  23.780  1.00  0.00     0.251 C 
ATOM      5  O   UNL A   1      29.565  29.345  23.038  1.00  0.00    -0.269 OA
ATOM      6  H   UNL A   1      30.752  30.892  24.340  1.00  0.00     0.163 HD
BRANCH   4   7
ATOM      7  C   UNL A   1      30.838  27.556  23.878  1.00  0.00     0.040 A 
ATOM      8  N   UNL A   1      31.796  23.453  24.514  1.00  0.00    -0.266 N 
ATOM      9  C   UNL A   1      30.913  22.670  25.396  1.00  0.00     0.136 C 
ATOM     10  C   UNL A   1      31.466  24.827  24.279  1.00  0.00     0.055 A 
ATOM     11  C   UNL A   1      30.689  23.444  26.684  1.00  0.00     0.028 C 
ATOM     12  C   UNL A   1      30.674  25.508  25.215  1.00  0.00    -0.023 A 
ATOM     13  C   UNL A   1      31.848  25.483  23.110  1.00  0.00     0.028 A 
ATOM     14  C   UNL A   1      30.043  24.793  26.384  1.00  0.00     0.039 C 
ATOM     15  C   UNL A   1      30.383  26.869  25.015  1.00  0.00     0.019 A 
ATOM     16  C   UNL A   1      31.522  26.827  22.906  1.00  0.00     0.016 A 
BRANCH   8  17
ATOM     17  S   UNL A   1      33.347  22.845  24.186  1.00  0.00     0.265 S 
ATOM     18  O   UNL A   1      34.178  23.011  25.364  1.00  0.00    -0.201 OA
ATOM     19  O   UNL A   1      33.806  23.223  22.871  1.00  0.00    -0.201 OA
BRANCH  17  20
ATOM     20  C   UNL A   1      33.180  21.122  24.067  1.00  0.00     0.106 A 
ATOM     21  C   UNL A   1      32.120  18.076  22.450  1.00  0.00     0.150 C 
ATOM     22  N   UNL A   1      32.673  19.084  23.332  1.00  0.00    -0.345 N 
ATOM     23  C   UNL A   1      32.557  20.428  23.057  1.00  0.00     0.108 A 
ATOM     24  C   UNL A   1      33.364  18.893  24.520  1.00  0.00     0.107 A 
ATOM     25  C   UNL A   1      33.660  20.169  24.995  1.00  0.00     0.056 A 
BRANCH  24  26
ATOM     26  C   UNL A   1      33.696  17.610  25.117  1.00  0.00     0.265 C 
ATOM     27  N   UNL A   1      32.930  17.228  26.181  1.00  0.00    -0.364 N 
ATOM     28  O   UNL A   1      34.597  16.865  24.746  1.00  0.00    -0.268 OA
ATOM     29  H   UNL A   1      32.201  17.809  26.496  1.00  0.00     0.160 HD
ATOM     30  H   UNL A   1      33.108  16.371  26.632  1.00  0.00     0.160 HD
ENDBRANCH  24  26
ENDBRANCH  17  20
ENDBRANCH   8  17
ENDBRANCH   4   7
ENDBRANCH   2   3
ENDBRANCH   1   2
BRANCH   1  31
ATOM     31  C   UNL A   1      31.520  32.014  26.837  1.00  0.00     0.023 C 
BRANCH  31  32
ATOM     32  C   UNL A   1      32.750  32.828  27.220  1.00  0.00     0.116 C 
BRANCH  32  33
ATOM     33  N   UNL A   1      32.436  34.183  27.643  1.00  0.00    -0.352 N 
ATOM     34  C   UNL A   1      33.032  34.926  28.633  1.00  0.00     0.251 C 
ATOM     35  H   UNL A   1      31.704  34.626  27.156  1.00  0.00     0.163 HD
ATOM     36  O   UNL A   1      32.589  36.026  28.944  1.00  0.00    -0.269 OA
BRANCH  34  37
ATOM     37  C   UNL A   1      34.189  34.361  29.355  1.00  0.00     0.039 A 
ATOM     38  C   UNL A   1      33.956  33.536  30.457  1.00  0.00     0.014 A 
ATOM     39  C   UNL A   1      35.492  34.608  28.914  1.00  0.00     0.014 A 
ATOM     40  C   UNL A   1      35.031  32.900  31.078  1.00  0.00     0.010 A 
ATOM     41  C   UNL A   1      36.554  33.919  29.490  1.00  0.00     0.010 A 
ATOM     42  C   UNL A   1      36.332  33.058  30.574  1.00  0.00    -0.014 A 
BRANCH  42  43
ATOM     43  C   UNL A   1      37.478  32.324  31.167  1.00  0.00     0.031 A 
ATOM     44  C   UNL A   1      37.989  32.701  32.528  1.00  0.00     0.074 A 
ATOM     45  C   UNL A   1      38.099  31.370  30.448  1.00  0.00     0.049 A 
ATOM     46  N   UNL A   1      39.017  32.231  33.186  1.00  0.00    -0.248 NA
ATOM     47  C   UNL A   1      37.263  33.770  33.232  1.00  0.00     0.031 C 
ATOM     48  C   UNL A   1      37.727  30.953  29.094  1.00  0.00     0.029 A 
ATOM     49  N   UNL A   1      39.182  30.585  30.751  1.00  0.00    -0.354 N 
ATOM     50  C   UNL A   1      39.071  32.954  34.368  1.00  0.00     0.074 A 
ATOM     51  C   UNL A   1      38.006  33.933  34.316  1.00  0.00     0.031 C 
ATOM     52  C   UNL A   1      38.554  29.975  28.693  1.00  0.00     0.029 A 
ATOM     53  C   UNL A   1      39.534  29.719  29.745  1.00  0.00     0.049 A 
ATOM     54  H   UNL A   1      39.662  30.637  31.609  1.00  0.00     0.167 HD
ATOM     55  C   UNL A   1      39.918  32.802  35.413  1.00  0.00     0.037 A 
ATOM     56  C   UNL A   1      40.538  28.825  29.676  1.00  0.00     0.037 A 
ATOM     57  C   UNL A   1      40.959  31.808  35.471  1.00  0.00     0.049 A 
ATOM     58  C   UNL A   1      41.463  28.671  30.854  1.00  0.00     0.074 A 
ATOM     59  C   UNL A   1      41.827  31.528  36.512  1.00  0.00     0.029 A 
ATOM     60  N   UNL A   1      41.270  30.932  34.441  1.00  0.00    -0.354 N 
ATOM     61  N   UNL A   1      41.459  29.312  31.998  1.00  0.00    -0.248 NA
ATOM     62  C   UNL A   1      42.528  27.667  30.732  1.00  0.00     0.031 C 
ATOM     63  C   UNL A   1      42.693  30.511  36.095  1.00  0.00     0.029 A 
ATOM     64  C   UNL A   1      42.332  30.124  34.814  1.00  0.00     0.049 A 
ATOM     65  H   UNL A   1      40.806  30.892  33.575  1.00  0.00     0.167 HD
ATOM     66  C   UNL A   1      42.498  28.769  32.742  1.00  0.00     0.074 A 
ATOM     67  C   UNL A   1      43.103  27.738  31.925  1.00  0.00     0.031 C 
ATOM     68  C   UNL A   1      42.914  29.096  33.990  1.00  0.00     0.037 A 
BRANCH  55  69
ATOM     69  C   UNL A   1      39.750  33.727  36.583  1.00  0.00     0.064 A 
ATOM     70  C   UNL A   1      40.404  34.968  36.638  1.00  0.00     0.173 A 
ATOM     71  C   UNL A   1      38.902  33.385  37.647  1.00  0.00     0.173 A 
ATOM     72  F   UNL A   1      41.235  35.337  35.652  1.00  0.00    -0.203 F 
ATOM     73  C   UNL A   1      40.239  35.818  37.729  1.00  0.00     0.198 A 
ATOM     74  C   UNL A   1      38.716  34.251  38.722  1.00  0.00     0.198 A 
ATOM     75  F   UNL A   1      38.250  32.213  37.642  1.00  0.00    -0.203 F 
ATOM     76  F   UNL A   1      40.914  36.974  37.782  1.00  0.00    -0.200 F 
ATOM     77  C   UNL A   1      39.390  35.462  38.765  1.00  0.00     0.200 A 
ATOM     78  F   UNL A   1      37.886  33.911  39.717  1.00  0.00    -0.200 F 
ATOM     79  F   UNL A   1      39.228  36.283  39.812  1.00  0.00    -0.200 F 
ENDBRANCH  55  69
BRANCH  56  80
ATOM     80  C   UNL A   1      40.702  27.981  28.464  1.00  0.00     0.064 A 
ATOM     81  C   UNL A   1      41.475  28.423  27.382  1.00  0.00     0.173 A 
ATOM     82  C   UNL A   1      40.090  26.724  28.361  1.00  0.00     0.173 A 
ATOM     83  F   UNL A   1      42.063  29.628  27.427  1.00  0.00    -0.203 F 
ATOM     84  C   UNL A   1      41.612  27.648  26.232  1.00  0.00     0.198 A 
ATOM     85  C   UNL A   1      40.251  25.938  27.221  1.00  0.00     0.198 A 
ATOM     86  F   UNL A   1      39.345  26.253  29.371  1.00  0.00    -0.203 F 
ATOM     87  F   UNL A   1      42.320  28.115  25.194  1.00  0.00    -0.200 F 
ATOM     88  C   UNL A   1      41.005  26.404  26.155  1.00  0.00     0.200 A 
ATOM     89  F   UNL A   1      39.674  24.731  27.155  1.00  0.00    -0.200 F 
ATOM     90  F   UNL A   1      41.140  25.658  25.050  1.00  0.00    -0.200 F 
ENDBRANCH  56  80
BRANCH  68  91
ATOM     91  C   UNL A   1      44.055  28.306  34.563  1.00  0.00     0.064 A 
ATOM     92  C   UNL A   1      45.380  28.756  34.470  1.00  0.00     0.173 A 
ATOM     93  C   UNL A   1      43.812  27.108  35.249  1.00  0.00     0.173 A 
ATOM     94  F   UNL A   1      45.664  29.889  33.810  1.00  0.00    -0.203 F 
ATOM     95  C   UNL A   1      46.424  28.020  35.024  1.00  0.00     0.198 A 
ATOM     96  C   UNL A   1      44.855  26.390  35.828  1.00  0.00     0.198 A 
ATOM     97  F   UNL A   1      42.561  26.639  35.371  1.00  0.00    -0.203 F 
ATOM     98  F   UNL A   1      47.687  28.444  34.884  1.00  0.00    -0.200 F 
ATOM     99  C   UNL A   1      46.161  26.843  35.709  1.00  0.00     0.200 A 
ATOM    100  F   UNL A   1      44.597  25.260  36.500  1.00  0.00    -0.200 F 
ATOM    101  F   UNL A   1      47.166  26.140  36.248  1.00  0.00    -0.200 F 
ENDBRANCH  68  91
ENDBRANCH  42  43
ENDBRANCH  34  37
ENDBRANCH  32  33
ENDBRANCH  31  32
ENDBRANCH   1  31
TORSDOF 14
ENDMDL
MODEL 3
REMARK VINA RESULT:     -13.7      1.053      7.320
REMARK SMILES Cn1cc(S(=O)(=O)N2CCCc3cc(C(=O)NCCCCNC(=O)c4ccc(-c5c6nc(c(-c7c(F)c(F)c(F)c(F)c7F)c7ccc([nH]7)c(-c7c(F)c(F)c(F)c(F)c7F)c7nc(c(-c8c(F)c(F)c(F)c(F)c8F)c8ccc5[nH]8)C=C7)C=C6)cc4)ccc32)cc1C(N)=O
REMARK SMILES IDX 19 1 18 2 17 3 15 4 16 5 14 7 8 8 9 9 90 10 10 11 12 12
REMARK SMILES IDX 89 13 11 14 13 15 88 16 5 17 6 18 7 19 4 20 1 21 2 22 3 23
REMARK SMILES IDX 92 24 91 25 93 26 94 27 95 28 20 31 21 32 22 33 23 34 24 36
REMARK SMILES IDX 25 37 26 38 87 39 27 40 86 41 28 42 29 43 30 44 80 45 31 46
REMARK SMILES IDX 85 47 79 48 81 49 32 50 84 51 78 52 77 53 33 55 65 56 45 57
REMARK SMILES IDX 64 58 46 59 49 60 63 61 82 62 47 63 48 64 62 66 83 67 50 68
REMARK SMILES IDX 34 69 35 70 43 71 36 72 37 73 41 74 44 75 38 76 39 77 42 78
REMARK SMILES IDX 40 79 66 80 67 81 75 82 68 83 69 84 73 85 76 86 70 87 71 88
REMARK SMILES IDX 74 89 72 90 51 91 52 92 60 93 53 94 54 95 58 96 61 97 55 98
REMARK SMILES IDX 56 99 59 100 57 101
REMARK H PARENT 17 6 94 29 94 30 22 35 81 54 49 65
REMARK Flexibility Score: inf
ROOT
ATOM      1  C   UNL A   1      31.777  30.466  26.792  1.00  0.00     0.023 C 
ENDROOT
BRANCH   1   2
ATOM      2  C   UNL A   1      32.213  29.916  25.431  1.00  0.00     0.116 C 
BRANCH   2   3
ATOM      3  N   UNL A   1      31.106  29.940  24.497  1.00  0.00    -0.352 N 
ATOM      4  C   UNL A   1      30.471  28.942  23.802  1.00  0.00     0.251 C 
ATOM      5  O   UNL A   1      29.530  29.271  23.078  1.00  0.00    -0.269 OA
ATOM      6  H   UNL A   1      30.741  30.840  24.330  1.00  0.00     0.163 HD
BRANCH   4   7
ATOM      7  C   UNL A   1      30.829  27.498  23.913  1.00  0.00     0.040 A 
ATOM      8  N   UNL A   1      31.799  23.403  24.581  1.00  0.00    -0.266 N 
ATOM      9  C   UNL A   1      30.896  22.613  25.437  1.00  0.00     0.136 C 
ATOM     10  C   UNL A   1      31.466  24.774  24.335  1.00  0.00     0.055 A 
ATOM     11  C   UNL A   1      30.629  23.388  26.718  1.00  0.00     0.028 C 
ATOM     12  C   UNL A   1      30.642  25.450  25.247  1.00  0.00    -0.023 A 
ATOM     13  C   UNL A   1      31.876  25.431  23.177  1.00  0.00     0.028 A 
ATOM     14  C   UNL A   1      29.982  24.732  26.397  1.00  0.00     0.039 C 
ATOM     15  C   UNL A   1      30.346  26.809  25.037  1.00  0.00     0.019 A 
ATOM     16  C   UNL A   1      31.547  26.773  22.962  1.00  0.00     0.016 A 
BRANCH   8  17
ATOM     17  S   UNL A   1      33.363  22.806  24.300  1.00  0.00     0.265 S 
ATOM     18  O   UNL A   1      34.146  22.942  25.514  1.00  0.00    -0.201 OA
ATOM     19  O   UNL A   1      33.873  23.219  23.014  1.00  0.00    -0.201 OA
BRANCH  17  20
ATOM     20  C   UNL A   1      33.205  21.087  24.129  1.00  0.00     0.106 A 
ATOM     21  C   UNL A   1      32.136  18.086  22.435  1.00  0.00     0.150 C 
ATOM     22  N   UNL A   1      32.698  19.070  23.339  1.00  0.00    -0.345 N 
ATOM     23  C   UNL A   1      32.569  20.420  23.109  1.00  0.00     0.108 A 
ATOM     24  C   UNL A   1      33.413  18.845  24.507  1.00  0.00     0.107 A 
ATOM     25  C   UNL A   1      33.709  20.108  25.016  1.00  0.00     0.056 A 
BRANCH  24  26
ATOM     26  C   UNL A   1      33.764  17.546  25.056  1.00  0.00     0.265 C 
ATOM     27  N   UNL A   1      33.025  17.128  26.126  1.00  0.00    -0.364 N 
ATOM     28  O   UNL A   1      34.659  16.818  24.642  1.00  0.00    -0.268 OA
ATOM     29  H   UNL A   1      32.302  17.697  26.476  1.00  0.00     0.160 HD
ATOM     30  H   UNL A   1      33.217  16.259  26.547  1.00  0.00     0.160 HD
ENDBRANCH  24  26
ENDBRANCH  17  20
ENDBRANCH   8  17
ENDBRANCH   4   7
ENDBRANCH   2   3
ENDBRANCH   1   2
BRANCH   1  31
ATOM     31  C   UNL A   1      31.547  31.978  26.817  1.00  0.00     0.023 C 
BRANCH  31  32
ATOM     32  C   UNL A   1      32.770  32.804  27.199  1.00  0.00     0.116 C 
BRANCH  32  33
ATOM     33  N   UNL A   1      32.443  34.154  27.627  1.00  0.00    -0.352 N 
ATOM     34  C   UNL A   1      33.027  34.897  28.624  1.00  0.00     0.251 C 
ATOM     35  H   UNL A   1      31.708  34.594  27.140  1.00  0.00     0.163 HD
ATOM     36  O   UNL A   1      32.573  35.991  28.939  1.00  0.00    -0.269 OA
BRANCH  34  37
ATOM     37  C   UNL A   1      34.186  34.338  29.348  1.00  0.00     0.039 A 
ATOM     38  C   UNL A   1      33.955  33.514  30.451  1.00  0.00     0.014 A 
ATOM     39  C   UNL A   1      35.488  34.590  28.909  1.00  0.00     0.014 A 
ATOM     40  C   UNL A   1      35.032  32.883  31.074  1.00  0.00     0.010 A 
ATOM     41  C   UNL A   1      36.553  33.907  29.487  1.00  0.00     0.010 A 
ATOM     42  C   UNL A   1      36.333  33.046  30.572  1.00  0.00    -0.014 A 
BRANCH  42  43
ATOM     43  C   UNL A   1      37.481  32.317  31.167  1.00  0.00     0.031 A 
ATOM     44  C   UNL A   1      37.988  32.697  32.529  1.00  0.00     0.074 A 
ATOM     45  C   UNL A   1      38.109  31.366  30.450  1.00  0.00     0.049 A 
ATOM     46  N   UNL A   1      39.017  32.232  33.189  1.00  0.00    -0.248 NA
ATOM     47  C   UNL A   1      37.256  33.763  33.231  1.00  0.00     0.031 C 
ATOM     48  C   UNL A   1      37.742  30.948  29.095  1.00  0.00     0.029 A 
ATOM     49  N   UNL A   1      39.195  30.587  30.755  1.00  0.00    -0.354 N 
ATOM     50  C   UNL A   1      39.065  32.956  34.372  1.00  0.00     0.074 A 
ATOM     51  C   UNL A   1      37.995  33.929  34.318  1.00  0.00     0.031 C 
ATOM     52  C   UNL A   1      38.574  29.973  28.696  1.00  0.00     0.029 A 
ATOM     53  C   UNL A   1      39.554  29.723  29.749  1.00  0.00     0.049 A 
ATOM     54  H   UNL A   1      39.673  30.641  31.614  1.00  0.00     0.167 HD
ATOM     55  C   UNL A   1      39.910  32.807  35.419  1.00  0.00     0.037 A 
ATOM     56  C   UNL A   1      40.562  28.834  29.683  1.00  0.00     0.037 A 
ATOM     57  C   UNL A   1      40.956  31.820  35.479  1.00  0.00     0.049 A 
ATOM     58  C   UNL A   1      41.486  28.685  30.862  1.00  0.00     0.074 A 
ATOM     59  C   UNL A   1      41.823  31.543  36.521  1.00  0.00     0.029 A 
ATOM     60  N   UNL A   1      41.274  30.945  34.449  1.00  0.00    -0.354 N 
ATOM     61  N   UNL A   1      41.476  29.325  32.007  1.00  0.00    -0.248 NA
ATOM     62  C   UNL A   1      42.556  27.685  30.743  1.00  0.00     0.031 C 
ATOM     63  C   UNL A   1      42.695  30.531  36.106  1.00  0.00     0.029 A 
ATOM     64  C   UNL A   1      42.339  30.142  34.824  1.00  0.00     0.049 A 
ATOM     65  H   UNL A   1      40.811  30.902  33.582  1.00  0.00     0.167 HD
ATOM     66  C   UNL A   1      42.516  28.788  32.753  1.00  0.00     0.074 A 
ATOM     67  C   UNL A   1      43.128  27.760  31.937  1.00  0.00     0.031 C 
ATOM     68  C   UNL A   1      42.928  29.117  34.001  1.00  0.00     0.037 A 
BRANCH  55  69
ATOM     69  C   UNL A   1      39.735  33.732  36.588  1.00  0.00     0.064 A 
ATOM     70  C   UNL A   1      40.377  34.979  36.641  1.00  0.00     0.173 A 
ATOM     71  C   UNL A   1      38.893  33.383  37.654  1.00  0.00     0.173 A 
ATOM     72  F   UNL A   1      41.203  35.356  35.653  1.00  0.00    -0.203 F 
ATOM     73  C   UNL A   1      40.206  35.828  37.731  1.00  0.00     0.198 A 
ATOM     74  C   UNL A   1      38.700  34.247  38.728  1.00  0.00     0.198 A 
ATOM     75  F   UNL A   1      38.252  32.204  37.651  1.00  0.00    -0.203 F 
ATOM     76  F   UNL A   1      40.869  36.991  37.782  1.00  0.00    -0.200 F 
ATOM     77  C   UNL A   1      39.363  35.465  38.769  1.00  0.00     0.200 A 
ATOM     78  F   UNL A   1      37.875  33.900  39.725  1.00  0.00    -0.200 F 
ATOM     79  F   UNL A   1      39.194  36.285  39.816  1.00  0.00    -0.200 F 
ENDBRANCH  55  69
BRANCH  56  80
ATOM     80  C   UNL A   1      40.733  27.991  28.472  1.00  0.00     0.064 A 
ATOM     81  C   UNL A   1      41.506  28.436  27.391  1.00  0.00     0.173 A 
ATOM     82  C   UNL A   1      40.128  26.730  28.367  1.00  0.00     0.173 A 
ATOM     83  F   UNL A   1      42.087  29.644  27.436  1.00  0.00    -0.203 F 
ATOM     84  C   UNL A   1      41.649  27.662  26.241  1.00  0.00     0.198 A 
ATOM     85  C   UNL A   1      40.295  25.945  27.227  1.00  0.00     0.198 A 
ATOM     86  F   UNL A   1      39.383  26.256  29.375  1.00  0.00    -0.203 F 
ATOM     87  F   UNL A   1      42.357  28.132  25.204  1.00  0.00    -0.200 F 
ATOM     88  C   UNL A   1      41.048  26.415  26.162  1.00  0.00     0.200 A 
ATOM     89  F   UNL A   1      39.724  24.735  27.161  1.00  0.00    -0.200 F 
ATOM     90  F   UNL A   1      41.189  25.670  25.058  1.00  0.00    -0.200 F 
ENDBRANCH  56  80
BRANCH  68  91
ATOM     91  C   UNL A   1      44.071  28.333  34.577  1.00  0.00     0.064 A 
ATOM     92  C   UNL A   1      43.864  27.127  35.262  1.00  0.00     0.173 A 
ATOM     93  C   UNL A   1      45.392  28.773  34.403  1.00  0.00     0.173 A 
ATOM     94  F   UNL A   1      42.618  26.672  35.468  1.00  0.00    -0.203 F 
ATOM     95  C   UNL A   1      44.937  26.403  35.773  1.00  0.00     0.198 A 
ATOM     96  C   UNL A   1      46.464  28.031  34.890  1.00  0.00     0.198 A 
ATOM     97  F   UNL A   1      45.643  29.917  33.749  1.00  0.00    -0.203 F 
ATOM     98  F   UNL A   1      44.714  25.277  36.465  1.00  0.00    -0.200 F 
ATOM     99  C   UNL A   1      46.236  26.851  35.580  1.00  0.00     0.200 A 
ATOM    100  F   UNL A   1      47.718  28.459  34.690  1.00  0.00    -0.200 F 
ATOM    101  F   UNL A   1      47.268  26.148  36.066  1.00  0.00    -0.200 F 
ENDBRANCH  68  91
ENDBRANCH  42  43
ENDBRANCH  34  37
ENDBRANCH  32  33
ENDBRANCH  31  32
ENDBRANCH   1  31
TORSDOF 14
ENDMDL
