MODEL 1
REMARK VINA RESULT:     -11.4      0.000      0.000
REMARK SMILES O=C(CCCOc1ccc([N+](=O)[O-])cc1F)NCCCCNC(=O)c1ccc(-c2c3nc(c(-c4c(F)c(F)c(F)c(F)c4F)c4ccc([nH]4)c(-c4c(F)c(F)c(F)c(F)c4F)c4nc(c(-c5c(F)c(F)c(F)c(F)c5F)c5ccc2[nH]5)C=C4)C=C3)cc1
REMARK SMILES IDX 18 1 17 2 1 3 2 4 3 6 4 7 5 8 6 9 7 10 8 11 15 12 9 13 14 14
REMARK SMILES IDX 16 15 10 16 11 17 12 18 13 19 19 20 20 21 21 22 22 23 23 24
REMARK SMILES IDX 24 26 25 27 26 28 87 29 27 30 86 31 28 32 29 33 30 34 80 35
REMARK SMILES IDX 31 36 85 37 79 38 81 39 32 40 84 41 78 42 77 43 33 45 65 46
REMARK SMILES IDX 45 47 64 48 46 49 49 50 63 51 82 52 47 53 48 54 62 56 83 57
REMARK SMILES IDX 50 58 34 59 35 60 43 61 36 62 37 63 41 64 44 65 38 66 39 67
REMARK SMILES IDX 42 68 40 69 66 70 67 71 75 72 68 73 69 74 73 75 76 76 70 77
REMARK SMILES IDX 71 78 74 79 72 80 51 81 52 82 60 83 53 84 54 85 58 86 61 87
REMARK SMILES IDX 55 88 56 89 59 90 57 91
REMARK H PARENT 17 5 22 25 81 44 49 55
REMARK Flexibility Score: inf
ROOT
ATOM      1  C   UNL A   1      36.687  21.728  25.221  1.00  0.00     0.116 C 
ENDROOT
BRANCH   1   2
ATOM      2  N   UNL A   1      35.516  22.427  24.732  1.00  0.00    -0.356 N 
ATOM      3  O   UNL A   1      36.471  22.983  22.725  1.00  0.00    -0.275 OA
ATOM      4  C   UNL A   1      35.509  23.011  23.484  1.00  0.00     0.220 C 
ATOM      5  H   UNL A   1      34.713  22.485  25.300  1.00  0.00     0.163 HD
BRANCH   4   6
ATOM      6  C   UNL A   1      34.224  23.728  23.128  1.00  0.00     0.103 C 
BRANCH   6   7
ATOM      7  C   UNL A   1      33.314  22.975  22.152  1.00  0.00     0.051 C 
BRANCH   7   8
ATOM      8  C   UNL A   1      32.344  21.929  22.726  1.00  0.00     0.230 C 
BRANCH   8   9
ATOM      9  O   UNL A   1      32.637  21.542  24.081  1.00  0.00    -0.490 OA
BRANCH   9  10
ATOM     10  C   UNL A   1      32.657  20.191  24.261  1.00  0.00     0.155 A 
ATOM     11  C   UNL A   1      32.332  19.322  23.222  1.00  0.00     0.056 A 
ATOM     12  C   UNL A   1      32.990  19.682  25.516  1.00  0.00     0.171 A 
ATOM     13  C   UNL A   1      32.492  17.944  23.402  1.00  0.00     0.089 A 
ATOM     14  C   UNL A   1      33.182  18.320  25.707  1.00  0.00     0.128 A 
ATOM     15  F   UNL A   1      33.247  20.520  26.530  1.00  0.00    -0.203 F 
ATOM     16  C   UNL A   1      32.963  17.456  24.632  1.00  0.00     0.272 A 
BRANCH  16  17
ATOM     17  N   UNL A   1      33.284  16.033  24.777  1.00  0.00     0.062 N 
ATOM     18  O   UNL A   1      34.470  15.699  24.661  1.00  0.00    -0.258 OA
ATOM     19  O   UNL A   1      32.352  15.261  25.040  1.00  0.00    -0.258 OA
ENDBRANCH  16  17
ENDBRANCH   9  10
ENDBRANCH   8   9
ENDBRANCH   7   8
ENDBRANCH   6   7
ENDBRANCH   4   6
ENDBRANCH   1   2
BRANCH   1  20
ATOM     20  C   UNL A   1      36.624  20.221  24.983  1.00  0.00     0.023 C 
BRANCH  20  21
ATOM     21  C   UNL A   1      37.977  19.522  24.844  1.00  0.00     0.023 C 
BRANCH  21  22
ATOM     22  C   UNL A   1      39.099  20.040  25.734  1.00  0.00     0.116 C 
BRANCH  22  23
ATOM     23  N   UNL A   1      40.187  19.092  25.878  1.00  0.00    -0.352 N 
ATOM     24  C   UNL A   1      41.520  19.309  26.132  1.00  0.00     0.251 C 
ATOM     25  H   UNL A   1      39.930  18.147  25.780  1.00  0.00     0.163 HD
ATOM     26  O   UNL A   1      42.311  18.373  26.067  1.00  0.00    -0.269 OA
BRANCH  24  27
ATOM     27  C   UNL A   1      42.021  20.667  26.452  1.00  0.00     0.039 A 
ATOM     28  C   UNL A   1      42.367  21.516  25.396  1.00  0.00     0.014 A 
ATOM     29  C   UNL A   1      42.178  21.102  27.771  1.00  0.00     0.014 A 
ATOM     30  C   UNL A   1      42.803  22.817  25.660  1.00  0.00     0.010 A 
ATOM     31  C   UNL A   1      42.538  22.425  28.031  1.00  0.00     0.010 A 
ATOM     32  C   UNL A   1      42.856  23.297  26.978  1.00  0.00    -0.014 A 
BRANCH  32  33
ATOM     33  C   UNL A   1      43.229  24.708  27.271  1.00  0.00     0.031 A 
ATOM     34  C   UNL A   1      44.630  25.194  27.016  1.00  0.00     0.074 A 
ATOM     35  C   UNL A   1      42.319  25.540  27.813  1.00  0.00     0.049 A 
ATOM     36  N   UNL A   1      45.156  26.367  27.269  1.00  0.00    -0.248 NA
ATOM     37  C   UNL A   1      45.569  24.234  26.417  1.00  0.00     0.031 C 
ATOM     38  C   UNL A   1      40.937  25.184  28.137  1.00  0.00     0.029 A 
ATOM     39  N   UNL A   1      42.418  26.857  28.194  1.00  0.00    -0.354 N 
ATOM     40  C   UNL A   1      46.483  26.281  26.871  1.00  0.00     0.074 A 
ATOM     41  C   UNL A   1      46.699  24.928  26.407  1.00  0.00     0.031 C 
ATOM     42  C   UNL A   1      40.310  26.259  28.637  1.00  0.00     0.029 A 
ATOM     43  C   UNL A   1      41.255  27.370  28.714  1.00  0.00     0.049 A 
ATOM     44  H   UNL A   1      43.245  27.383  28.102  1.00  0.00     0.167 HD
ATOM     45  C   UNL A   1      47.429  27.251  26.869  1.00  0.00     0.037 A 
ATOM     46  C   UNL A   1      40.979  28.595  29.205  1.00  0.00     0.037 A 
ATOM     47  C   UNL A   1      47.205  28.605  27.303  1.00  0.00     0.049 A 
ATOM     48  C   UNL A   1      42.055  29.646  29.216  1.00  0.00     0.074 A 
ATOM     49  C   UNL A   1      48.089  29.669  27.286  1.00  0.00     0.029 A 
ATOM     50  N   UNL A   1      46.014  29.082  27.831  1.00  0.00    -0.354 N 
ATOM     51  N   UNL A   1      43.292  29.565  28.789  1.00  0.00    -0.248 NA
ATOM     52  C   UNL A   1      41.699  30.960  29.772  1.00  0.00     0.031 C 
ATOM     53  C   UNL A   1      47.453  30.776  27.852  1.00  0.00     0.029 A 
ATOM     54  C   UNL A   1      46.151  30.420  28.167  1.00  0.00     0.049 A 
ATOM     55  H   UNL A   1      45.194  28.550  27.948  1.00  0.00     0.167 HD
ATOM     56  C   UNL A   1      43.852  30.818  29.000  1.00  0.00     0.074 A 
ATOM     57  C   UNL A   1      42.818  31.646  29.582  1.00  0.00     0.031 C 
ATOM     58  C   UNL A   1      45.112  31.239  28.735  1.00  0.00     0.037 A 
BRANCH  45  59
ATOM     59  C   UNL A   1      48.799  26.899  26.369  1.00  0.00     0.064 A 
ATOM     60  C   UNL A   1      49.131  27.074  25.016  1.00  0.00     0.173 A 
ATOM     61  C   UNL A   1      49.754  26.302  27.205  1.00  0.00     0.173 A 
ATOM     62  F   UNL A   1      48.251  27.634  24.171  1.00  0.00    -0.203 F 
ATOM     63  C   UNL A   1      50.358  26.647  24.517  1.00  0.00     0.198 A 
ATOM     64  C   UNL A   1      50.993  25.903  26.709  1.00  0.00     0.198 A 
ATOM     65  F   UNL A   1      49.491  26.119  28.508  1.00  0.00    -0.203 F 
ATOM     66  F   UNL A   1      50.637  26.789  23.214  1.00  0.00    -0.200 F 
ATOM     67  C   UNL A   1      51.289  26.064  25.364  1.00  0.00     0.200 A 
ATOM     68  F   UNL A   1      51.899  25.361  27.534  1.00  0.00    -0.200 F 
ATOM     69  F   UNL A   1      52.472  25.658  24.884  1.00  0.00    -0.200 F 
ENDBRANCH  45  59
BRANCH  46  70
ATOM     70  C   UNL A   1      39.610  28.898  29.702  1.00  0.00     0.064 A 
ATOM     71  C   UNL A   1      39.233  28.621  31.024  1.00  0.00     0.173 A 
ATOM     72  C   UNL A   1      38.644  29.454  28.852  1.00  0.00     0.173 A 
ATOM     73  F   UNL A   1      40.118  28.085  31.877  1.00  0.00    -0.203 F 
ATOM     74  C   UNL A   1      37.936  28.869  31.471  1.00  0.00     0.198 A 
ATOM     75  C   UNL A   1      37.357  29.730  29.308  1.00  0.00     0.198 A 
ATOM     76  F   UNL A   1      38.962  29.757  27.585  1.00  0.00    -0.203 F 
ATOM     77  F   UNL A   1      37.593  28.561  32.729  1.00  0.00    -0.200 F 
ATOM     78  C   UNL A   1      37.001  29.430  30.614  1.00  0.00     0.200 A 
ATOM     79  F   UNL A   1      36.464  30.295  28.483  1.00  0.00    -0.200 F 
ATOM     80  F   UNL A   1      35.759  29.681  31.047  1.00  0.00    -0.200 F 
ENDBRANCH  46  70
BRANCH  58  81
ATOM     81  C   UNL A   1      45.452  32.670  29.039  1.00  0.00     0.064 A 
ATOM     82  C   UNL A   1      45.248  33.669  28.074  1.00  0.00     0.173 A 
ATOM     83  C   UNL A   1      46.064  33.038  30.246  1.00  0.00     0.173 A 
ATOM     84  F   UNL A   1      44.675  33.366  26.899  1.00  0.00    -0.203 F 
ATOM     85  C   UNL A   1      45.663  34.979  28.298  1.00  0.00     0.198 A 
ATOM     86  C   UNL A   1      46.449  34.356  30.480  1.00  0.00     0.198 A 
ATOM     87  F   UNL A   1      46.269  32.124  31.206  1.00  0.00    -0.203 F 
ATOM     88  F   UNL A   1      45.496  35.905  27.344  1.00  0.00    -0.200 F 
ATOM     89  C   UNL A   1      46.259  35.322  29.501  1.00  0.00     0.200 A 
ATOM     90  F   UNL A   1      47.004  34.693  31.652  1.00  0.00    -0.200 F 
ATOM     91  F   UNL A   1      46.653  36.584  29.719  1.00  0.00    -0.200 F 
ENDBRANCH  58  81
ENDBRANCH  32  33
ENDBRANCH  24  27
ENDBRANCH  22  23
ENDBRANCH  21  22
ENDBRANCH  20  21
ENDBRANCH   1  20
TORSDOF 16
ENDMDL
MODEL 2
REMARK VINA RESULT:     -11.4      0.868      7.462
REMARK SMILES O=C(CCCOc1ccc([N+](=O)[O-])cc1F)NCCCCNC(=O)c1ccc(-c2c3nc(c(-c4c(F)c(F)c(F)c(F)c4F)c4ccc([nH]4)c(-c4c(F)c(F)c(F)c(F)c4F)c4nc(c(-c5c(F)c(F)c(F)c(F)c5F)c5ccc2[nH]5)C=C4)C=C3)cc1
REMARK SMILES IDX 18 1 17 2 1 3 2 4 3 6 4 7 5 8 6 9 7 10 8 11 15 12 9 13 14 14
REMARK SMILES IDX 16 15 10 16 11 17 12 18 13 19 19 20 20 21 21 22 22 23 23 24
REMARK SMILES IDX 24 26 25 27 26 28 87 29 27 30 86 31 28 32 29 33 30 34 80 35
REMARK SMILES IDX 31 36 85 37 79 38 81 39 32 40 84 41 78 42 77 43 33 45 65 46
REMARK SMILES IDX 45 47 64 48 46 49 49 50 63 51 82 52 47 53 48 54 62 56 83 57
REMARK SMILES IDX 50 58 34 59 35 60 43 61 36 62 37 63 41 64 44 65 38 66 39 67
REMARK SMILES IDX 42 68 40 69 66 70 67 71 75 72 68 73 69 74 73 75 76 76 70 77
REMARK SMILES IDX 71 78 74 79 72 80 51 81 52 82 60 83 53 84 54 85 58 86 61 87
REMARK SMILES IDX 55 88 56 89 59 90 57 91
REMARK H PARENT 17 5 22 25 81 44 49 55
REMARK Flexibility Score: inf
ROOT
ATOM      1  C   UNL A   1      37.024  21.807  24.661  1.00  0.00     0.116 C 
ENDROOT
BRANCH   1   2
ATOM      2  N   UNL A   1      36.009  22.409  23.819  1.00  0.00    -0.356 N 
ATOM      3  O   UNL A   1      34.955  23.472  25.554  1.00  0.00    -0.275 OA
ATOM      4  C   UNL A   1      35.032  23.218  24.356  1.00  0.00     0.220 C 
ATOM      5  H   UNL A   1      36.018  22.237  22.850  1.00  0.00     0.163 HD
BRANCH   4   6
ATOM      6  C   UNL A   1      34.028  23.748  23.355  1.00  0.00     0.103 C 
BRANCH   6   7
ATOM      7  C   UNL A   1      33.077  22.696  22.776  1.00  0.00     0.051 C 
BRANCH   7   8
ATOM      8  C   UNL A   1      32.583  21.576  23.706  1.00  0.00     0.230 C 
BRANCH   8   9
ATOM      9  O   UNL A   1      32.153  20.390  23.013  1.00  0.00    -0.490 OA
BRANCH   9  10
ATOM     10  C   UNL A   1      32.525  19.237  23.640  1.00  0.00     0.155 A 
ATOM     11  C   UNL A   1      32.680  19.189  25.023  1.00  0.00     0.056 A 
ATOM     12  C   UNL A   1      32.771  18.099  22.871  1.00  0.00     0.171 A 
ATOM     13  C   UNL A   1      32.932  17.961  25.645  1.00  0.00     0.089 A 
ATOM     14  C   UNL A   1      32.992  16.867  23.470  1.00  0.00     0.128 A 
ATOM     15  F   UNL A   1      32.675  18.163  21.536  1.00  0.00    -0.203 F 
ATOM     16  C   UNL A   1      33.038  16.798  24.864  1.00  0.00     0.272 A 
BRANCH  16  17
ATOM     17  N   UNL A   1      33.142  15.489  25.516  1.00  0.00     0.062 N 
ATOM     18  O   UNL A   1      32.153  15.078  26.136  1.00  0.00    -0.258 OA
ATOM     19  O   UNL A   1      34.202  14.864  25.376  1.00  0.00    -0.258 OA
ENDBRANCH  16  17
ENDBRANCH   9  10
ENDBRANCH   8   9
ENDBRANCH   7   8
ENDBRANCH   6   7
ENDBRANCH   4   6
ENDBRANCH   1   2
BRANCH   1  20
ATOM     20  C   UNL A   1      36.736  20.345  24.990  1.00  0.00     0.023 C 
BRANCH  20  21
ATOM     21  C   UNL A   1      37.955  19.421  25.001  1.00  0.00     0.023 C 
BRANCH  21  22
ATOM     22  C   UNL A   1      39.179  19.930  25.753  1.00  0.00     0.116 C 
BRANCH  22  23
ATOM     23  N   UNL A   1      40.246  18.950  25.818  1.00  0.00    -0.352 N 
ATOM     24  C   UNL A   1      41.595  19.126  26.015  1.00  0.00     0.251 C 
ATOM     25  H   UNL A   1      39.959  18.015  25.704  1.00  0.00     0.163 HD
ATOM     26  O   UNL A   1      42.356  18.172  25.886  1.00  0.00    -0.269 OA
BRANCH  24  27
ATOM     27  C   UNL A   1      42.146  20.460  26.351  1.00  0.00     0.039 A 
ATOM     28  C   UNL A   1      42.586  21.280  25.308  1.00  0.00     0.014 A 
ATOM     29  C   UNL A   1      42.259  20.899  27.673  1.00  0.00     0.014 A 
ATOM     30  C   UNL A   1      43.073  22.561  25.584  1.00  0.00     0.010 A 
ATOM     31  C   UNL A   1      42.672  22.204  27.942  1.00  0.00     0.010 A 
ATOM     32  C   UNL A   1      43.084  23.050  26.900  1.00  0.00    -0.014 A 
BRANCH  32  33
ATOM     33  C   UNL A   1      43.512  24.443  27.201  1.00  0.00     0.031 A 
ATOM     34  C   UNL A   1      42.527  25.445  27.736  1.00  0.00     0.074 A 
ATOM     35  C   UNL A   1      44.780  24.821  26.945  1.00  0.00     0.049 A 
ATOM     36  N   UNL A   1      42.700  26.718  27.995  1.00  0.00    -0.248 NA
ATOM     37  C   UNL A   1      41.162  24.963  27.998  1.00  0.00     0.031 C 
ATOM     38  C   UNL A   1      45.825  23.954  26.398  1.00  0.00     0.029 A 
ATOM     39  N   UNL A   1      45.408  26.032  27.107  1.00  0.00    -0.354 N 
ATOM     40  C   UNL A   1      41.471  27.186  28.437  1.00  0.00     0.074 A 
ATOM     41  C   UNL A   1      40.545  26.077  28.365  1.00  0.00     0.031 C 
ATOM     42  C   UNL A   1      46.967  24.649  26.297  1.00  0.00     0.029 A 
ATOM     43  C   UNL A   1      46.729  26.024  26.729  1.00  0.00     0.049 A 
ATOM     44  H   UNL A   1      44.954  26.831  27.460  1.00  0.00     0.167 HD
ATOM     45  C   UNL A   1      41.150  28.423  28.887  1.00  0.00     0.037 A 
ATOM     46  C   UNL A   1      47.645  27.013  26.722  1.00  0.00     0.037 A 
ATOM     47  C   UNL A   1      42.079  29.517  28.987  1.00  0.00     0.049 A 
ATOM     48  C   UNL A   1      47.255  28.385  27.202  1.00  0.00     0.074 A 
ATOM     49  C   UNL A   1      41.857  30.790  29.482  1.00  0.00     0.029 A 
ATOM     50  N   UNL A   1      43.407  29.470  28.586  1.00  0.00    -0.354 N 
ATOM     51  N   UNL A   1      46.101  28.800  27.665  1.00  0.00    -0.248 NA
ATOM     52  C   UNL A   1      48.294  29.425  27.163  1.00  0.00     0.031 C 
ATOM     53  C   UNL A   1      43.032  31.530  29.332  1.00  0.00     0.029 A 
ATOM     54  C   UNL A   1      44.007  30.701  28.800  1.00  0.00     0.049 A 
ATOM     55  H   UNL A   1      43.855  28.680  28.208  1.00  0.00     0.167 HD
ATOM     56  C   UNL A   1      46.282  30.136  27.996  1.00  0.00     0.074 A 
ATOM     57  C   UNL A   1      47.658  30.461  27.692  1.00  0.00     0.031 C 
ATOM     58  C   UNL A   1      45.381  31.012  28.505  1.00  0.00     0.037 A 
BRANCH  45  59
ATOM     59  C   UNL A   1      39.736  28.670  29.326  1.00  0.00     0.064 A 
ATOM     60  C   UNL A   1      38.801  29.227  28.438  1.00  0.00     0.173 A 
ATOM     61  C   UNL A   1      39.329  28.444  30.649  1.00  0.00     0.173 A 
ATOM     62  F   UNL A   1      39.141  29.469  27.163  1.00  0.00    -0.203 F 
ATOM     63  C   UNL A   1      37.520  29.565  28.866  1.00  0.00     0.198 A 
ATOM     64  C   UNL A   1      38.037  28.756  31.065  1.00  0.00     0.198 A 
ATOM     65  F   UNL A   1      40.181  27.905  31.535  1.00  0.00    -0.203 F 
ATOM     66  F   UNL A   1      36.658  30.133  28.011  1.00  0.00    -0.200 F 
ATOM     67  C   UNL A   1      37.139  29.327  30.177  1.00  0.00     0.200 A 
ATOM     68  F   UNL A   1      37.663  28.504  32.327  1.00  0.00    -0.200 F 
ATOM     69  F   UNL A   1      35.903  29.649  30.586  1.00  0.00    -0.200 F 
ENDBRANCH  45  59
BRANCH  46  70
ATOM     70  C   UNL A   1      49.033  26.728  26.269  1.00  0.00     0.064 A 
ATOM     71  C   UNL A   1      50.008  26.245  27.154  1.00  0.00     0.173 A 
ATOM     72  C   UNL A   1      49.417  26.957  24.940  1.00  0.00     0.173 A 
ATOM     73  F   UNL A   1      49.694  26.013  28.438  1.00  0.00    -0.203 F 
ATOM     74  C   UNL A   1      51.317  26.021  26.732  1.00  0.00     0.198 A 
ATOM     75  C   UNL A   1      50.718  26.704  24.512  1.00  0.00     0.198 A 
ATOM     76  F   UNL A   1      48.516  27.399  24.051  1.00  0.00    -0.203 F 
ATOM     77  F   UNL A   1      52.237  25.593  27.608  1.00  0.00    -0.200 F 
ATOM     78  C   UNL A   1      51.669  26.245  25.410  1.00  0.00     0.200 A 
ATOM     79  F   UNL A   1      51.048  26.898  23.228  1.00  0.00    -0.200 F 
ATOM     80  F   UNL A   1      52.924  26.016  25.002  1.00  0.00    -0.200 F 
ENDBRANCH  46  70
BRANCH  58  81
ATOM     81  C   UNL A   1      45.851  32.408  28.799  1.00  0.00     0.064 A 
ATOM     82  C   UNL A   1      46.357  32.734  30.068  1.00  0.00     0.173 A 
ATOM     83  C   UNL A   1      45.714  33.442  27.862  1.00  0.00     0.173 A 
ATOM     84  F   UNL A   1      46.498  31.783  31.003  1.00  0.00    -0.203 F 
ATOM     85  C   UNL A   1      46.689  34.046  30.392  1.00  0.00     0.198 A 
ATOM     86  C   UNL A   1      46.077  34.749  28.179  1.00  0.00     0.198 A 
ATOM     87  F   UNL A   1      45.247  33.180  26.632  1.00  0.00    -0.203 F 
ATOM     88  F   UNL A   1      47.129  34.339  31.624  1.00  0.00    -0.200 F 
ATOM     89  C   UNL A   1      46.552  35.051  29.448  1.00  0.00     0.200 A 
ATOM     90  F   UNL A   1      45.967  35.716  27.258  1.00  0.00    -0.200 F 
ATOM     91  F   UNL A   1      46.877  36.313  29.759  1.00  0.00    -0.200 F 
ENDBRANCH  58  81
ENDBRANCH  32  33
ENDBRANCH  24  27
ENDBRANCH  22  23
ENDBRANCH  21  22
ENDBRANCH  20  21
ENDBRANCH   1  20
TORSDOF 16
ENDMDL
MODEL 3
REMARK VINA RESULT:     -11.3      6.409     10.410
REMARK SMILES O=C(CCCOc1ccc([N+](=O)[O-])cc1F)NCCCCNC(=O)c1ccc(-c2c3nc(c(-c4c(F)c(F)c(F)c(F)c4F)c4ccc([nH]4)c(-c4c(F)c(F)c(F)c(F)c4F)c4nc(c(-c5c(F)c(F)c(F)c(F)c5F)c5ccc2[nH]5)C=C4)C=C3)cc1
REMARK SMILES IDX 18 1 17 2 1 3 2 4 3 6 4 7 5 8 6 9 7 10 8 11 15 12 9 13 14 14
REMARK SMILES IDX 16 15 10 16 11 17 12 18 13 19 19 20 20 21 21 22 22 23 23 24
REMARK SMILES IDX 24 26 25 27 26 28 87 29 27 30 86 31 28 32 29 33 30 34 80 35
REMARK SMILES IDX 31 36 85 37 79 38 81 39 32 40 84 41 78 42 77 43 33 45 65 46
REMARK SMILES IDX 45 47 64 48 46 49 49 50 63 51 82 52 47 53 48 54 62 56 83 57
REMARK SMILES IDX 50 58 34 59 35 60 43 61 36 62 37 63 41 64 44 65 38 66 39 67
REMARK SMILES IDX 42 68 40 69 66 70 67 71 75 72 68 73 69 74 73 75 76 76 70 77
REMARK SMILES IDX 71 78 74 79 72 80 51 81 52 82 60 83 53 84 54 85 58 86 61 87
REMARK SMILES IDX 55 88 56 89 59 90 57 91
REMARK H PARENT 17 5 22 25 81 44 49 55
REMARK Flexibility Score: inf
ROOT
ATOM      1  C   UNL A   1      32.742  29.783  26.073  1.00  0.00     0.116 C 
ENDROOT
BRANCH   1   2
ATOM      2  N   UNL A   1      32.662  28.349  25.878  1.00  0.00    -0.356 N 
ATOM      3  O   UNL A   1      31.442  27.985  27.783  1.00  0.00    -0.275 OA
ATOM      4  C   UNL A   1      31.994  27.548  26.779  1.00  0.00     0.220 C 
ATOM      5  H   UNL A   1      33.090  27.942  25.090  1.00  0.00     0.163 HD
BRANCH   4   6
ATOM      6  C   UNL A   1      32.022  26.070  26.454  1.00  0.00     0.103 C 
BRANCH   6   7
ATOM      7  C   UNL A   1      30.707  25.505  25.908  1.00  0.00     0.051 C 
BRANCH   7   8
ATOM      8  C   UNL A   1      29.873  26.389  24.967  1.00  0.00     0.230 C 
BRANCH   8   9
ATOM      9  O   UNL A   1      30.647  27.049  23.948  1.00  0.00    -0.490 OA
BRANCH   9  10
ATOM     10  C   UNL A   1      29.942  27.997  23.268  1.00  0.00     0.155 A 
ATOM     11  C   UNL A   1      28.551  28.048  23.338  1.00  0.00     0.056 A 
ATOM     12  C   UNL A   1      30.633  28.914  22.476  1.00  0.00     0.171 A 
ATOM     13  C   UNL A   1      27.870  29.112  22.737  1.00  0.00     0.089 A 
ATOM     14  C   UNL A   1      29.979  29.993  21.896  1.00  0.00     0.128 A 
ATOM     15  F   UNL A   1      31.966  28.828  22.364  1.00  0.00    -0.203 F 
ATOM     16  C   UNL A   1      28.597  30.105  22.060  1.00  0.00     0.272 A 
BRANCH  16  17
ATOM     17  N   UNL A   1      27.909  31.302  21.565  1.00  0.00     0.062 N 
ATOM     18  O   UNL A   1      27.669  32.201  22.382  1.00  0.00    -0.258 OA
ATOM     19  O   UNL A   1      27.644  31.350  20.357  1.00  0.00    -0.258 OA
ENDBRANCH  16  17
ENDBRANCH   9  10
ENDBRANCH   8   9
ENDBRANCH   7   8
ENDBRANCH   6   7
ENDBRANCH   4   6
ENDBRANCH   1   2
BRANCH   1  20
ATOM     20  C   UNL A   1      31.440  30.504  25.736  1.00  0.00     0.023 C 
BRANCH  20  21
ATOM     21  C   UNL A   1      31.254  31.868  26.402  1.00  0.00     0.023 C 
BRANCH  21  22
ATOM     22  C   UNL A   1      32.447  32.407  27.180  1.00  0.00     0.116 C 
BRANCH  22  23
ATOM     23  N   UNL A   1      32.315  33.813  27.511  1.00  0.00    -0.352 N 
ATOM     24  C   UNL A   1      33.018  34.579  28.410  1.00  0.00     0.251 C 
ATOM     25  H   UNL A   1      31.613  34.293  27.014  1.00  0.00     0.163 HD
ATOM     26  O   UNL A   1      32.649  35.723  28.651  1.00  0.00    -0.269 OA
BRANCH  24  27
ATOM     27  C   UNL A   1      34.200  34.028  29.116  1.00  0.00     0.039 A 
ATOM     28  C   UNL A   1      33.989  33.126  30.163  1.00  0.00     0.014 A 
ATOM     29  C   UNL A   1      35.501  34.407  28.779  1.00  0.00     0.014 A 
ATOM     30  C   UNL A   1      35.080  32.555  30.824  1.00  0.00     0.010 A 
ATOM     31  C   UNL A   1      36.591  33.779  29.386  1.00  0.00     0.010 A 
ATOM     32  C   UNL A   1      36.392  32.846  30.415  1.00  0.00    -0.014 A 
BRANCH  32  33
ATOM     33  C   UNL A   1      37.561  32.177  31.046  1.00  0.00     0.031 A 
ATOM     34  C   UNL A   1      38.326  31.116  30.302  1.00  0.00     0.074 A 
ATOM     35  C   UNL A   1      37.908  32.490  32.310  1.00  0.00     0.049 A 
ATOM     36  N   UNL A   1      39.328  30.379  30.713  1.00  0.00    -0.248 NA
ATOM     37  C   UNL A   1      37.898  30.829  28.925  1.00  0.00     0.031 C 
ATOM     38  C   UNL A   1      37.230  33.479  33.150  1.00  0.00     0.029 A 
ATOM     39  N   UNL A   1      38.912  32.008  33.114  1.00  0.00    -0.354 N 
ATOM     40  C   UNL A   1      39.641  29.540  29.652  1.00  0.00     0.074 A 
ATOM     41  C   UNL A   1      38.692  29.820  28.597  1.00  0.00     0.031 C 
ATOM     42  C   UNL A   1      37.853  33.552  34.335  1.00  0.00     0.029 A 
ATOM     43  C   UNL A   1      38.947  32.584  34.360  1.00  0.00     0.049 A 
ATOM     44  H   UNL A   1      39.547  31.314  32.824  1.00  0.00     0.167 HD
ATOM     45  C   UNL A   1      40.645  28.636  29.559  1.00  0.00     0.037 A 
ATOM     46  C   UNL A   1      39.761  32.356  35.410  1.00  0.00     0.037 A 
ATOM     47  C   UNL A   1      41.608  28.379  30.598  1.00  0.00     0.049 A 
ATOM     48  C   UNL A   1      40.852  31.327  35.288  1.00  0.00     0.074 A 
ATOM     49  C   UNL A   1      42.693  27.521  30.571  1.00  0.00     0.029 A 
ATOM     50  N   UNL A   1      41.603  28.979  31.849  1.00  0.00    -0.354 N 
ATOM     51  N   UNL A   1      41.168  30.577  34.261  1.00  0.00    -0.248 NA
ATOM     52  C   UNL A   1      41.703  31.115  36.468  1.00  0.00     0.031 C 
ATOM     53  C   UNL A   1      43.313  27.559  31.822  1.00  0.00     0.029 A 
ATOM     54  C   UNL A   1      42.652  28.488  32.610  1.00  0.00     0.049 A 
ATOM     55  H   UNL A   1      40.952  29.654  32.150  1.00  0.00     0.167 HD
ATOM     56  C   UNL A   1      42.265  29.825  34.660  1.00  0.00     0.074 A 
ATOM     57  C   UNL A   1      42.570  30.218  36.019  1.00  0.00     0.031 C 
ATOM     58  C   UNL A   1      42.955  28.893  33.958  1.00  0.00     0.037 A 
BRANCH  45  59
ATOM     59  C   UNL A   1      40.777  27.857  28.282  1.00  0.00     0.064 A 
ATOM     60  C   UNL A   1      40.217  26.574  28.169  1.00  0.00     0.173 A 
ATOM     61  C   UNL A   1      41.536  28.338  27.205  1.00  0.00     0.173 A 
ATOM     62  F   UNL A   1      39.488  26.064  29.173  1.00  0.00    -0.203 F 
ATOM     63  C   UNL A   1      40.429  25.797  27.033  1.00  0.00     0.198 A 
ATOM     64  C   UNL A   1      41.720  27.570  26.058  1.00  0.00     0.198 A 
ATOM     65  F   UNL A   1      42.085  29.561  27.258  1.00  0.00    -0.203 F 
ATOM     66  F   UNL A   1      39.918  24.560  26.965  1.00  0.00    -0.200 F 
ATOM     67  C   UNL A   1      41.178  26.296  25.979  1.00  0.00     0.200 A 
ATOM     68  F   UNL A   1      42.425  28.063  25.030  1.00  0.00    -0.200 F 
ATOM     69  F   UNL A   1      41.377  25.549  24.884  1.00  0.00    -0.200 F 
ENDBRANCH  45  59
BRANCH  46  70
ATOM     70  C   UNL A   1      39.589  33.142  36.661  1.00  0.00     0.064 A 
ATOM     71  C   UNL A   1      40.297  34.334  36.879  1.00  0.00     0.173 A 
ATOM     72  C   UNL A   1      38.727  32.702  37.675  1.00  0.00     0.173 A 
ATOM     73  F   UNL A   1      41.138  34.798  35.943  1.00  0.00    -0.203 F 
ATOM     74  C   UNL A   1      40.163  35.043  38.072  1.00  0.00     0.198 A 
ATOM     75  C   UNL A   1      38.571  33.428  38.853  1.00  0.00     0.198 A 
ATOM     76  F   UNL A   1      38.013  31.580  37.504  1.00  0.00    -0.203 F 
ATOM     77  F   UNL A   1      40.878  36.159  38.269  1.00  0.00    -0.200 F 
ATOM     78  C   UNL A   1      39.295  34.593  39.055  1.00  0.00     0.200 A 
ATOM     79  F   UNL A   1      37.712  33.002  39.790  1.00  0.00    -0.200 F 
ATOM     80  F   UNL A   1      39.156  35.282  40.195  1.00  0.00    -0.200 F 
ENDBRANCH  46  70
BRANCH  58  81
ATOM     81  C   UNL A   1      44.131  28.242  34.626  1.00  0.00     0.064 A 
ATOM     82  C   UNL A   1      43.961  27.069  35.379  1.00  0.00     0.173 A 
ATOM     83  C   UNL A   1      45.406  28.826  34.600  1.00  0.00     0.173 A 
ATOM     84  F   UNL A   1      42.759  26.477  35.444  1.00  0.00    -0.203 F 
ATOM     85  C   UNL A   1      45.019  26.518  36.097  1.00  0.00     0.198 A 
ATOM     86  C   UNL A   1      46.470  28.254  35.294  1.00  0.00     0.198 A 
ATOM     87  F   UNL A   1      45.624  29.940  33.885  1.00  0.00    -0.203 F 
ATOM     88  F   UNL A   1      44.820  25.422  36.843  1.00  0.00    -0.200 F 
ATOM     89  C   UNL A   1      46.272  27.108  36.051  1.00  0.00     0.200 A 
ATOM     90  F   UNL A   1      47.687  28.811  35.230  1.00  0.00    -0.200 F 
ATOM     91  F   UNL A   1      47.291  26.573  36.738  1.00  0.00    -0.200 F 
ENDBRANCH  58  81
ENDBRANCH  32  33
ENDBRANCH  24  27
ENDBRANCH  22  23
ENDBRANCH  21  22
ENDBRANCH  20  21
ENDBRANCH   1  20
TORSDOF 16
ENDMDL
