MODEL 1
REMARK VINA RESULT:     -13.5      0.000      0.000
REMARK SMILES Cc1ccc(Nc2c(F)cccc2I)c(CC(=O)NCCCCNC(=O)c2ccc(-c3c4nc(c(-c5c(F)c(F)c(F)c(F)c5F)c5ccc([nH]5)c(-c5c(F)c(F)c(F)c(F)c5F)c5nc(c(-c6c(F)c(F)c(F)c(F)c6F)c6ccc3[nH]6)C=C5)C=C4)cc2)c1
REMARK SMILES IDX 21 1 20 2 19 3 17 4 18 5 16 7 15 8 1 9 2 10 3 11 90 12 4 13
REMARK SMILES IDX 5 14 6 15 7 17 8 18 13 19 9 20 10 21 12 22 14 23 11 24 22 25
REMARK SMILES IDX 23 26 24 27 25 28 26 30 27 31 28 32 89 33 29 34 88 35 30 36
REMARK SMILES IDX 31 37 32 38 82 39 33 40 87 41 81 42 83 43 34 44 86 45 80 46
REMARK SMILES IDX 79 47 35 49 67 50 47 51 66 52 48 53 51 54 65 55 84 56 49 57
REMARK SMILES IDX 50 58 64 60 85 61 52 62 36 63 37 64 45 65 38 66 39 67 43 68
REMARK SMILES IDX 46 69 40 70 41 71 44 72 42 73 68 74 69 75 77 76 70 77 71 78
REMARK SMILES IDX 75 79 78 80 72 81 73 82 76 83 74 84 53 85 54 86 62 87 55 88
REMARK SMILES IDX 56 89 60 90 63 91 57 92 58 93 61 94 59 95
REMARK H PARENT 19 6 6 16 24 29 83 48 51 59
REMARK Flexibility Score: inf
ROOT
ATOM      1  C   UNL A   1      31.653  29.325  27.264  1.00  0.00     0.023 C 
ENDROOT
BRANCH   1   2
ATOM      2  C   UNL A   1      31.932  28.222  26.230  1.00  0.00     0.116 C 
BRANCH   2   3
ATOM      3  N   UNL A   1      31.448  26.909  26.625  1.00  0.00    -0.356 N 
ATOM      4  C   UNL A   1      32.032  25.685  26.502  1.00  0.00     0.224 C 
ATOM      5  O   UNL A   1      31.393  24.695  26.870  1.00  0.00    -0.275 OA
ATOM      6  H   UNL A   1      30.558  26.905  27.047  1.00  0.00     0.163 HD
BRANCH   4   7
ATOM      7  C   UNL A   1      33.424  25.521  25.925  1.00  0.00     0.137 C 
BRANCH   7   8
ATOM      8  C   UNL A   1      33.447  24.938  24.530  1.00  0.00    -0.015 A 
ATOM      9  C   UNL A   1      32.004  26.011  21.155  1.00  0.00     0.044 C 
ATOM     10  C   UNL A   1      32.731  25.225  22.204  1.00  0.00    -0.051 A 
ATOM     11  C   UNL A   1      33.225  23.956  21.918  1.00  0.00     0.005 A 
ATOM     12  C   UNL A   1      32.884  25.724  23.498  1.00  0.00     0.009 A 
ATOM     13  C   UNL A   1      33.836  23.190  22.918  1.00  0.00     0.026 A 
ATOM     14  C   UNL A   1      33.942  23.645  24.243  1.00  0.00     0.042 A 
BRANCH  14  15
ATOM     15  N   UNL A   1      34.519  22.837  25.246  1.00  0.00    -0.352 N 
ATOM     16  H   UNL A   1      34.109  22.927  26.137  1.00  0.00     0.167 HD
BRANCH  15  17
ATOM     17  C   UNL A   1      35.593  21.917  25.178  1.00  0.00     0.088 A 
ATOM     18  C   UNL A   1      36.934  22.338  25.211  1.00  0.00     0.147 A 
ATOM     19  C   UNL A   1      35.363  20.538  25.008  1.00  0.00     0.040 A 
ATOM     20  F   UNL A   1      37.235  23.633  25.393  1.00  0.00    -0.205 F 
ATOM     21  C   UNL A   1      37.996  21.440  25.088  1.00  0.00     0.041 A 
ATOM     22  C   UNL A   1      36.425  19.631  24.880  1.00  0.00     0.017 A 
ATOM     23  I   UNL A   1      33.423  19.737  24.870  1.00  0.00    -0.042 I 
ATOM     24  C   UNL A   1      37.741  20.084  24.920  1.00  0.00     0.004 A 
ENDBRANCH  15  17
ENDBRANCH  14  15
ENDBRANCH   7   8
ENDBRANCH   4   7
ENDBRANCH   2   3
ENDBRANCH   1   2
BRANCH   1  25
ATOM     25  C   UNL A   1      32.590  30.532  27.224  1.00  0.00     0.023 C 
BRANCH  25  26
ATOM     26  C   UNL A   1      34.046  30.196  27.501  1.00  0.00     0.116 C 
BRANCH  26  27
ATOM     27  N   UNL A   1      34.775  31.211  28.251  1.00  0.00    -0.352 N 
ATOM     28  C   UNL A   1      35.978  31.098  28.934  1.00  0.00     0.251 C 
ATOM     29  H   UNL A   1      34.356  32.102  28.279  1.00  0.00     0.163 HD
ATOM     30  O   UNL A   1      36.418  32.036  29.576  1.00  0.00    -0.269 OA
BRANCH  28  31
ATOM     31  C   UNL A   1      36.797  29.873  28.751  1.00  0.00     0.039 A 
ATOM     32  C   UNL A   1      37.011  29.062  29.872  1.00  0.00     0.014 A 
ATOM     33  C   UNL A   1      37.532  29.666  27.587  1.00  0.00     0.014 A 
ATOM     34  C   UNL A   1      38.143  28.253  29.918  1.00  0.00     0.010 A 
ATOM     35  C   UNL A   1      38.710  28.951  27.669  1.00  0.00     0.010 A 
ATOM     36  C   UNL A   1      39.055  28.321  28.868  1.00  0.00    -0.014 A 
BRANCH  36  37
ATOM     37  C   UNL A   1      40.446  27.902  28.989  1.00  0.00     0.031 A 
ATOM     38  C   UNL A   1      40.868  26.554  28.564  1.00  0.00     0.074 A 
ATOM     39  C   UNL A   1      41.370  28.808  29.387  1.00  0.00     0.049 A 
ATOM     40  N   UNL A   1      42.030  26.059  28.820  1.00  0.00    -0.248 NA
ATOM     41  C   UNL A   1      39.985  25.616  27.874  1.00  0.00     0.031 C 
ATOM     42  C   UNL A   1      42.826  28.717  29.271  1.00  0.00     0.029 A 
ATOM     43  N   UNL A   1      41.164  29.921  30.222  1.00  0.00    -0.354 N 
ATOM     44  C   UNL A   1      42.156  24.903  28.095  1.00  0.00     0.074 A 
ATOM     45  C   UNL A   1      40.823  24.600  27.641  1.00  0.00     0.031 C 
ATOM     46  C   UNL A   1      43.382  29.482  30.223  1.00  0.00     0.029 A 
ATOM     47  C   UNL A   1      42.304  29.960  31.066  1.00  0.00     0.049 A 
ATOM     48  H   UNL A   1      40.396  30.539  30.222  1.00  0.00     0.167 HD
ATOM     49  C   UNL A   1      43.406  24.417  27.866  1.00  0.00     0.037 A 
ATOM     50  C   UNL A   1      42.187  29.716  32.405  1.00  0.00     0.037 A 
ATOM     51  C   UNL A   1      44.379  24.999  28.793  1.00  0.00     0.049 A 
ATOM     52  C   UNL A   1      42.965  28.514  32.907  1.00  0.00     0.074 A 
ATOM     53  C   UNL A   1      45.447  25.872  28.703  1.00  0.00     0.029 A 
ATOM     54  N   UNL A   1      44.146  24.826  30.149  1.00  0.00    -0.354 N 
ATOM     55  N   UNL A   1      43.656  27.706  32.150  1.00  0.00    -0.248 NA
ATOM     56  C   UNL A   1      42.930  28.072  34.302  1.00  0.00     0.031 C 
ATOM     57  C   UNL A   1      45.806  26.266  30.034  1.00  0.00     0.029 A 
ATOM     58  C   UNL A   1      44.980  25.602  30.924  1.00  0.00     0.049 A 
ATOM     59  H   UNL A   1      43.463  24.218  30.515  1.00  0.00     0.167 HD
ATOM     60  C   UNL A   1      44.096  26.647  32.897  1.00  0.00     0.074 A 
ATOM     61  C   UNL A   1      43.616  26.919  34.239  1.00  0.00     0.031 C 
ATOM     62  C   UNL A   1      44.783  25.597  32.364  1.00  0.00     0.037 A 
BRANCH  49  63
ATOM     63  C   UNL A   1      43.775  23.483  26.736  1.00  0.00     0.064 A 
ATOM     64  C   UNL A   1      43.404  22.122  26.788  1.00  0.00     0.173 A 
ATOM     65  C   UNL A   1      44.603  23.827  25.643  1.00  0.00     0.173 A 
ATOM     66  F   UNL A   1      42.644  21.649  27.785  1.00  0.00    -0.203 F 
ATOM     67  C   UNL A   1      43.823  21.194  25.827  1.00  0.00     0.198 A 
ATOM     68  C   UNL A   1      44.970  22.911  24.653  1.00  0.00     0.198 A 
ATOM     69  F   UNL A   1      45.152  25.039  25.516  1.00  0.00    -0.203 F 
ATOM     70  F   UNL A   1      43.490  19.902  25.960  1.00  0.00    -0.200 F 
ATOM     71  C   UNL A   1      44.593  21.591  24.753  1.00  0.00     0.200 A 
ATOM     72  F   UNL A   1      45.724  23.320  23.622  1.00  0.00    -0.200 F 
ATOM     73  F   UNL A   1      44.990  20.705  23.830  1.00  0.00    -0.200 F 
ENDBRANCH  49  63
BRANCH  50  74
ATOM     74  C   UNL A   1      40.891  30.191  32.963  1.00  0.00     0.064 A 
ATOM     75  C   UNL A   1      40.674  31.579  33.070  1.00  0.00     0.173 A 
ATOM     76  C   UNL A   1      39.772  29.355  33.039  1.00  0.00     0.173 A 
ATOM     77  F   UNL A   1      41.713  32.428  33.001  1.00  0.00    -0.203 F 
ATOM     78  C   UNL A   1      39.388  32.110  33.122  1.00  0.00     0.198 A 
ATOM     79  C   UNL A   1      38.486  29.890  33.116  1.00  0.00     0.198 A 
ATOM     80  F   UNL A   1      39.905  28.027  32.917  1.00  0.00    -0.203 F 
ATOM     81  F   UNL A   1      39.212  33.439  33.095  1.00  0.00    -0.200 F 
ATOM     82  C   UNL A   1      38.293  31.264  33.119  1.00  0.00     0.200 A 
ATOM     83  F   UNL A   1      37.425  29.072  33.082  1.00  0.00    -0.200 F 
ATOM     84  F   UNL A   1      37.052  31.770  33.073  1.00  0.00    -0.200 F 
ENDBRANCH  50  74
BRANCH  62  85
ATOM     85  C   UNL A   1      45.282  24.443  33.189  1.00  0.00     0.064 A 
ATOM     86  C   UNL A   1      44.478  23.331  33.485  1.00  0.00     0.173 A 
ATOM     87  C   UNL A   1      46.557  24.466  33.793  1.00  0.00     0.173 A 
ATOM     88  F   UNL A   1      43.226  23.245  33.009  1.00  0.00    -0.203 F 
ATOM     89  C   UNL A   1      44.938  22.285  34.288  1.00  0.00     0.198 A 
ATOM     90  C   UNL A   1      46.994  23.445  34.638  1.00  0.00     0.198 A 
ATOM     91  F   UNL A   1      47.426  25.459  33.559  1.00  0.00    -0.203 F 
ATOM     92  F   UNL A   1      44.159  21.215  34.497  1.00  0.00    -0.200 F 
ATOM     93  C   UNL A   1      46.190  22.348  34.874  1.00  0.00     0.200 A 
ATOM     94  F   UNL A   1      48.203  23.530  35.213  1.00  0.00    -0.200 F 
ATOM     95  F   UNL A   1      46.623  21.353  35.659  1.00  0.00    -0.200 F 
ENDBRANCH  62  85
ENDBRANCH  36  37
ENDBRANCH  28  31
ENDBRANCH  26  27
ENDBRANCH  25  26
ENDBRANCH   1  25
TORSDOF 14
ENDMDL
MODEL 2
REMARK VINA RESULT:     -13.3      3.949     10.306
REMARK SMILES Cc1ccc(Nc2c(F)cccc2I)c(CC(=O)NCCCCNC(=O)c2ccc(-c3c4nc(c(-c5c(F)c(F)c(F)c(F)c5F)c5ccc([nH]5)c(-c5c(F)c(F)c(F)c(F)c5F)c5nc(c(-c6c(F)c(F)c(F)c(F)c6F)c6ccc3[nH]6)C=C5)C=C4)cc2)c1
REMARK SMILES IDX 21 1 20 2 19 3 17 4 18 5 16 7 15 8 1 9 2 10 3 11 90 12 4 13
REMARK SMILES IDX 5 14 6 15 7 17 8 18 13 19 9 20 10 21 12 22 14 23 11 24 22 25
REMARK SMILES IDX 23 26 24 27 25 28 26 30 27 31 28 32 89 33 29 34 88 35 30 36
REMARK SMILES IDX 31 37 32 38 82 39 33 40 87 41 81 42 83 43 34 44 86 45 80 46
REMARK SMILES IDX 79 47 35 49 67 50 47 51 66 52 48 53 51 54 65 55 84 56 49 57
REMARK SMILES IDX 50 58 64 60 85 61 52 62 36 63 37 64 45 65 38 66 39 67 43 68
REMARK SMILES IDX 46 69 40 70 41 71 44 72 42 73 68 74 69 75 77 76 70 77 71 78
REMARK SMILES IDX 75 79 78 80 72 81 73 82 76 83 74 84 53 85 54 86 62 87 55 88
REMARK SMILES IDX 56 89 60 90 63 91 57 92 58 93 61 94 59 95
REMARK H PARENT 19 6 6 16 24 29 83 48 51 59
REMARK Flexibility Score: inf
ROOT
ATOM      1  C   UNL A   1      36.937  21.361  24.926  1.00  0.00     0.023 C 
ENDROOT
BRANCH   1   2
ATOM      2  C   UNL A   1      36.085  22.597  25.260  1.00  0.00     0.116 C 
BRANCH   2   3
ATOM      3  N   UNL A   1      35.478  23.224  24.097  1.00  0.00    -0.356 N 
ATOM      4  C   UNL A   1      34.700  24.339  24.008  1.00  0.00     0.224 C 
ATOM      5  O   UNL A   1      34.253  24.649  22.900  1.00  0.00    -0.275 OA
ATOM      6  H   UNL A   1      35.656  22.771  23.241  1.00  0.00     0.163 HD
BRANCH   4   7
ATOM      7  C   UNL A   1      34.376  25.184  25.223  1.00  0.00     0.137 C 
BRANCH   7   8
ATOM      8  C   UNL A   1      32.909  25.191  25.594  1.00  0.00    -0.015 A 
ATOM      9  C   UNL A   1      30.365  22.490  26.516  1.00  0.00     0.044 C 
ATOM     10  C   UNL A   1      30.975  23.829  26.228  1.00  0.00    -0.051 A 
ATOM     11  C   UNL A   1      30.173  24.963  26.135  1.00  0.00     0.005 A 
ATOM     12  C   UNL A   1      32.345  23.960  25.998  1.00  0.00     0.009 A 
ATOM     13  C   UNL A   1      30.731  26.200  25.791  1.00  0.00     0.026 A 
ATOM     14  C   UNL A   1      32.095  26.343  25.490  1.00  0.00     0.042 A 
BRANCH  14  15
ATOM     15  N   UNL A   1      32.627  27.590  25.100  1.00  0.00    -0.352 N 
ATOM     16  H   UNL A   1      33.284  27.548  24.367  1.00  0.00     0.167 HD
BRANCH  15  17
ATOM     17  C   UNL A   1      32.369  28.893  25.591  1.00  0.00     0.088 A 
ATOM     18  C   UNL A   1      33.019  29.398  26.730  1.00  0.00     0.147 A 
ATOM     19  C   UNL A   1      31.396  29.718  24.992  1.00  0.00     0.040 A 
ATOM     20  F   UNL A   1      33.972  28.681  27.343  1.00  0.00    -0.205 F 
ATOM     21  C   UNL A   1      32.726  30.660  27.251  1.00  0.00     0.041 A 
ATOM     22  C   UNL A   1      31.096  30.986  25.512  1.00  0.00     0.017 A 
ATOM     23  I   UNL A   1      30.280  29.100  23.321  1.00  0.00    -0.042 I 
ATOM     24  C   UNL A   1      31.761  31.455  26.642  1.00  0.00     0.004 A 
ENDBRANCH  15  17
ENDBRANCH  14  15
ENDBRANCH   7   8
ENDBRANCH   4   7
ENDBRANCH   2   3
ENDBRANCH   1   2
BRANCH   1  25
ATOM     25  C   UNL A   1      38.387  21.398  25.409  1.00  0.00     0.023 C 
BRANCH  25  26
ATOM     26  C   UNL A   1      38.816  22.740  25.977  1.00  0.00     0.116 C 
BRANCH  26  27
ATOM     27  N   UNL A   1      40.218  22.818  26.366  1.00  0.00    -0.352 N 
ATOM     28  C   UNL A   1      40.954  23.923  26.770  1.00  0.00     0.251 C 
ATOM     29  H   UNL A   1      40.715  21.968  26.339  1.00  0.00     0.163 HD
ATOM     30  O   UNL A   1      42.148  23.827  26.994  1.00  0.00    -0.269 OA
BRANCH  28  31
ATOM     31  C   UNL A   1      40.242  25.191  27.070  1.00  0.00     0.039 A 
ATOM     32  C   UNL A   1      40.590  26.324  26.325  1.00  0.00     0.014 A 
ATOM     33  C   UNL A   1      39.448  25.318  28.207  1.00  0.00     0.014 A 
ATOM     34  C   UNL A   1      40.388  27.586  26.876  1.00  0.00     0.010 A 
ATOM     35  C   UNL A   1      39.344  26.558  28.804  1.00  0.00     0.010 A 
ATOM     36  C   UNL A   1      39.897  27.677  28.175  1.00  0.00    -0.014 A 
BRANCH  36  37
ATOM     37  C   UNL A   1      40.065  28.859  29.012  1.00  0.00     0.031 A 
ATOM     38  C   UNL A   1      39.048  29.927  29.021  1.00  0.00     0.074 A 
ATOM     39  C   UNL A   1      41.109  28.910  29.872  1.00  0.00     0.049 A 
ATOM     40  N   UNL A   1      39.226  31.073  29.584  1.00  0.00    -0.248 NA
ATOM     41  C   UNL A   1      37.766  29.823  28.328  1.00  0.00     0.031 C 
ATOM     42  C   UNL A   1      41.295  29.812  31.009  1.00  0.00     0.029 A 
ATOM     43  N   UNL A   1      42.361  28.283  29.727  1.00  0.00    -0.354 N 
ATOM     44  C   UNL A   1      38.018  31.721  29.595  1.00  0.00     0.074 A 
ATOM     45  C   UNL A   1      37.186  30.973  28.688  1.00  0.00     0.031 C 
ATOM     46  C   UNL A   1      42.608  29.936  31.250  1.00  0.00     0.029 A 
ATOM     47  C   UNL A   1      43.303  29.241  30.184  1.00  0.00     0.049 A 
ATOM     48  H   UNL A   1      42.544  27.378  29.384  1.00  0.00     0.167 HD
ATOM     49  C   UNL A   1      37.840  32.742  30.476  1.00  0.00     0.037 A 
ATOM     50  C   UNL A   1      44.186  29.816  29.316  1.00  0.00     0.037 A 
ATOM     51  C   UNL A   1      39.123  33.240  30.977  1.00  0.00     0.049 A 
ATOM     52  C   UNL A   1      44.061  31.323  29.181  1.00  0.00     0.074 A 
ATOM     53  C   UNL A   1      39.798  33.228  32.183  1.00  0.00     0.029 A 
ATOM     54  N   UNL A   1      40.034  33.701  30.038  1.00  0.00    -0.354 N 
ATOM     55  N   UNL A   1      43.157  32.051  29.778  1.00  0.00    -0.248 NA
ATOM     56  C   UNL A   1      44.893  32.110  28.269  1.00  0.00     0.031 C 
ATOM     57  C   UNL A   1      41.151  33.632  31.933  1.00  0.00     0.029 A 
ATOM     58  C   UNL A   1      41.279  33.922  30.587  1.00  0.00     0.049 A 
ATOM     59  H   UNL A   1      39.817  33.853  29.090  1.00  0.00     0.167 HD
ATOM     60  C   UNL A   1      43.231  33.337  29.316  1.00  0.00     0.074 A 
ATOM     61  C   UNL A   1      44.332  33.327  28.371  1.00  0.00     0.031 C 
ATOM     62  C   UNL A   1      42.362  34.315  29.699  1.00  0.00     0.037 A 
BRANCH  49  63
ATOM     63  C   UNL A   1      36.498  33.234  30.967  1.00  0.00     0.064 A 
ATOM     64  C   UNL A   1      35.665  33.994  30.118  1.00  0.00     0.173 A 
ATOM     65  C   UNL A   1      36.029  33.110  32.295  1.00  0.00     0.173 A 
ATOM     66  F   UNL A   1      35.999  34.218  28.840  1.00  0.00    -0.203 F 
ATOM     67  C   UNL A   1      34.470  34.572  30.562  1.00  0.00     0.198 A 
ATOM     68  C   UNL A   1      34.807  33.637  32.720  1.00  0.00     0.198 A 
ATOM     69  F   UNL A   1      36.757  32.537  33.259  1.00  0.00    -0.203 F 
ATOM     70  F   UNL A   1      33.749  35.335  29.728  1.00  0.00    -0.200 F 
ATOM     71  C   UNL A   1      34.033  34.381  31.858  1.00  0.00     0.200 A 
ATOM     72  F   UNL A   1      34.408  33.443  33.985  1.00  0.00    -0.200 F 
ATOM     73  F   UNL A   1      32.888  34.929  32.282  1.00  0.00    -0.200 F 
ENDBRANCH  49  63
BRANCH  50  74
ATOM     74  C   UNL A   1      44.604  28.892  28.227  1.00  0.00     0.064 A 
ATOM     75  C   UNL A   1      45.463  27.822  28.548  1.00  0.00     0.173 A 
ATOM     76  C   UNL A   1      43.913  28.823  27.013  1.00  0.00     0.173 A 
ATOM     77  F   UNL A   1      46.149  27.835  29.703  1.00  0.00    -0.203 F 
ATOM     78  C   UNL A   1      45.527  26.680  27.753  1.00  0.00     0.198 A 
ATOM     79  C   UNL A   1      43.999  27.687  26.206  1.00  0.00     0.198 A 
ATOM     80  F   UNL A   1      43.060  29.795  26.659  1.00  0.00    -0.203 F 
ATOM     81  F   UNL A   1      46.255  25.628  28.153  1.00  0.00    -0.200 F 
ATOM     82  C   UNL A   1      44.774  26.604  26.595  1.00  0.00     0.200 A 
ATOM     83  F   UNL A   1      43.246  27.602  25.101  1.00  0.00    -0.200 F 
ATOM     84  F   UNL A   1      44.758  25.473  25.876  1.00  0.00    -0.200 F 
ENDBRANCH  50  74
BRANCH  62  85
ATOM     85  C   UNL A   1      42.455  35.732  29.206  1.00  0.00     0.064 A 
ATOM     86  C   UNL A   1      41.800  36.165  28.042  1.00  0.00     0.173 A 
ATOM     87  C   UNL A   1      43.291  36.679  29.836  1.00  0.00     0.173 A 
ATOM     88  F   UNL A   1      41.031  35.322  27.336  1.00  0.00    -0.203 F 
ATOM     89  C   UNL A   1      41.929  37.473  27.570  1.00  0.00     0.198 A 
ATOM     90  C   UNL A   1      43.460  37.969  29.332  1.00  0.00     0.198 A 
ATOM     91  F   UNL A   1      43.942  36.392  30.972  1.00  0.00    -0.203 F 
ATOM     92  F   UNL A   1      41.239  37.861  26.489  1.00  0.00    -0.200 F 
ATOM     93  C   UNL A   1      42.768  38.370  28.207  1.00  0.00     0.200 A 
ATOM     94  F   UNL A   1      44.291  38.820  29.951  1.00  0.00    -0.200 F 
ATOM     95  F   UNL A   1      42.905  39.619  27.742  1.00  0.00    -0.200 F 
ENDBRANCH  62  85
ENDBRANCH  36  37
ENDBRANCH  28  31
ENDBRANCH  26  27
ENDBRANCH  25  26
ENDBRANCH   1  25
TORSDOF 14
ENDMDL
MODEL 3
REMARK VINA RESULT:     -13.3      1.674      2.992
REMARK SMILES Cc1ccc(Nc2c(F)cccc2I)c(CC(=O)NCCCCNC(=O)c2ccc(-c3c4nc(c(-c5c(F)c(F)c(F)c(F)c5F)c5ccc([nH]5)c(-c5c(F)c(F)c(F)c(F)c5F)c5nc(c(-c6c(F)c(F)c(F)c(F)c6F)c6ccc3[nH]6)C=C5)C=C4)cc2)c1
REMARK SMILES IDX 21 1 20 2 19 3 17 4 18 5 16 7 15 8 1 9 2 10 3 11 90 12 4 13
REMARK SMILES IDX 5 14 6 15 7 17 8 18 13 19 9 20 10 21 12 22 14 23 11 24 22 25
REMARK SMILES IDX 23 26 24 27 25 28 26 30 27 31 28 32 89 33 29 34 88 35 30 36
REMARK SMILES IDX 31 37 32 38 82 39 33 40 87 41 81 42 83 43 34 44 86 45 80 46
REMARK SMILES IDX 79 47 35 49 67 50 47 51 66 52 48 53 51 54 65 55 84 56 49 57
REMARK SMILES IDX 50 58 64 60 85 61 52 62 36 63 37 64 45 65 38 66 39 67 43 68
REMARK SMILES IDX 46 69 40 70 41 71 44 72 42 73 68 74 69 75 77 76 70 77 71 78
REMARK SMILES IDX 75 79 78 80 72 81 73 82 76 83 74 84 53 85 54 86 62 87 55 88
REMARK SMILES IDX 56 89 60 90 63 91 57 92 58 93 61 94 59 95
REMARK H PARENT 19 6 6 16 24 29 83 48 51 59
REMARK Flexibility Score: inf
ROOT
ATOM      1  C   UNL A   1      31.799  29.274  26.685  1.00  0.00     0.023 C 
ENDROOT
BRANCH   1   2
ATOM      2  C   UNL A   1      32.452  27.885  26.778  1.00  0.00     0.116 C 
BRANCH   2   3
ATOM      3  N   UNL A   1      31.500  26.797  26.928  1.00  0.00    -0.356 N 
ATOM      4  C   UNL A   1      31.623  25.474  26.623  1.00  0.00     0.224 C 
ATOM      5  O   UNL A   1      30.644  24.743  26.796  1.00  0.00    -0.275 OA
ATOM      6  H   UNL A   1      30.630  27.056  27.311  1.00  0.00     0.163 HD
BRANCH   4   7
ATOM      7  C   UNL A   1      32.916  24.900  26.078  1.00  0.00     0.137 C 
BRANCH   7   8
ATOM      8  C   UNL A   1      32.719  23.857  25.000  1.00  0.00    -0.015 A 
ATOM      9  C   UNL A   1      32.874  20.038  24.908  1.00  0.00     0.044 C 
ATOM     10  C   UNL A   1      32.707  21.464  24.477  1.00  0.00    -0.051 A 
ATOM     11  C   UNL A   1      32.563  21.781  23.130  1.00  0.00     0.005 A 
ATOM     12  C   UNL A   1      32.741  22.504  25.408  1.00  0.00     0.009 A 
ATOM     13  C   UNL A   1      32.484  23.117  22.720  1.00  0.00     0.026 A 
ATOM     14  C   UNL A   1      32.582  24.182  23.631  1.00  0.00     0.042 A 
BRANCH  14  15
ATOM     15  N   UNL A   1      32.547  25.522  23.190  1.00  0.00    -0.352 N 
ATOM     16  H   UNL A   1      33.371  25.834  22.749  1.00  0.00     0.167 HD
BRANCH  15  17
ATOM     17  C   UNL A   1      31.519  26.490  23.278  1.00  0.00     0.088 A 
ATOM     18  C   UNL A   1      30.174  26.130  23.470  1.00  0.00     0.147 A 
ATOM     19  C   UNL A   1      31.793  27.863  23.112  1.00  0.00     0.040 A 
ATOM     20  F   UNL A   1      29.835  24.845  23.657  1.00  0.00    -0.205 F 
ATOM     21  C   UNL A   1      29.150  27.078  23.501  1.00  0.00     0.041 A 
ATOM     22  C   UNL A   1      30.768  28.820  23.140  1.00  0.00     0.017 A 
ATOM     23  I   UNL A   1      33.737  28.578  22.751  1.00  0.00    -0.042 I 
ATOM     24  C   UNL A   1      29.447  28.426  23.334  1.00  0.00     0.004 A 
ENDBRANCH  15  17
ENDBRANCH  14  15
ENDBRANCH   7   8
ENDBRANCH   4   7
ENDBRANCH   2   3
ENDBRANCH   1   2
BRANCH   1  25
ATOM     25  C   UNL A   1      32.617  30.436  27.248  1.00  0.00     0.023 C 
BRANCH  25  26
ATOM     26  C   UNL A   1      34.046  30.069  27.612  1.00  0.00     0.116 C 
BRANCH  26  27
ATOM     27  N   UNL A   1      34.775  31.099  28.340  1.00  0.00    -0.352 N 
ATOM     28  C   UNL A   1      36.000  31.013  28.986  1.00  0.00     0.251 C 
ATOM     29  H   UNL A   1      34.338  31.981  28.380  1.00  0.00     0.163 HD
ATOM     30  O   UNL A   1      36.440  31.960  29.615  1.00  0.00    -0.269 OA
BRANCH  28  31
ATOM     31  C   UNL A   1      36.839  29.805  28.779  1.00  0.00     0.039 A 
ATOM     32  C   UNL A   1      37.031  28.953  29.873  1.00  0.00     0.014 A 
ATOM     33  C   UNL A   1      37.610  29.654  27.630  1.00  0.00     0.014 A 
ATOM     34  C   UNL A   1      38.171  28.156  29.920  1.00  0.00     0.010 A 
ATOM     35  C   UNL A   1      38.794  28.949  27.717  1.00  0.00     0.010 A 
ATOM     36  C   UNL A   1      39.112  28.276  28.900  1.00  0.00    -0.014 A 
BRANCH  36  37
ATOM     37  C   UNL A   1      40.504  27.868  29.045  1.00  0.00     0.031 A 
ATOM     38  C   UNL A   1      40.949  26.532  28.607  1.00  0.00     0.074 A 
ATOM     39  C   UNL A   1      41.411  28.776  29.479  1.00  0.00     0.049 A 
ATOM     40  N   UNL A   1      42.110  26.043  28.880  1.00  0.00    -0.248 NA
ATOM     41  C   UNL A   1      40.091  25.597  27.883  1.00  0.00     0.031 C 
ATOM     42  C   UNL A   1      42.869  28.701  29.393  1.00  0.00     0.029 A 
ATOM     43  N   UNL A   1      41.175  29.873  30.327  1.00  0.00    -0.354 N 
ATOM     44  C   UNL A   1      42.264  24.901  28.140  1.00  0.00     0.074 A 
ATOM     45  C   UNL A   1      40.944  24.593  27.651  1.00  0.00     0.031 C 
ATOM     46  C   UNL A   1      43.397  29.455  30.369  1.00  0.00     0.029 A 
ATOM     47  C   UNL A   1      42.296  29.909  31.197  1.00  0.00     0.049 A 
ATOM     48  H   UNL A   1      40.402  30.484  30.320  1.00  0.00     0.167 HD
ATOM     49  C   UNL A   1      43.523  24.431  27.931  1.00  0.00     0.037 A 
ATOM     50  C   UNL A   1      42.152  29.642  32.528  1.00  0.00     0.037 A 
ATOM     51  C   UNL A   1      44.470  25.006  28.888  1.00  0.00     0.049 A 
ATOM     52  C   UNL A   1      42.931  28.438  33.028  1.00  0.00     0.074 A 
ATOM     53  C   UNL A   1      45.531  25.891  28.836  1.00  0.00     0.029 A 
ATOM     54  N   UNL A   1      44.208  24.809  30.235  1.00  0.00    -0.354 N 
ATOM     55  N   UNL A   1      43.646  27.650  32.272  1.00  0.00    -0.248 NA
ATOM     56  C   UNL A   1      42.870  27.973  34.414  1.00  0.00     0.031 C 
ATOM     57  C   UNL A   1      45.856  26.266  30.181  1.00  0.00     0.029 A 
ATOM     58  C   UNL A   1      45.018  25.580  31.041  1.00  0.00     0.049 A 
ATOM     59  H   UNL A   1      43.524  24.188  30.577  1.00  0.00     0.167 HD
ATOM     60  C   UNL A   1      44.080  26.583  33.011  1.00  0.00     0.074 A 
ATOM     61  C   UNL A   1      43.568  26.827  34.347  1.00  0.00     0.031 C 
ATOM     62  C   UNL A   1      44.789  25.548  32.477  1.00  0.00     0.037 A 
BRANCH  49  63
ATOM     63  C   UNL A   1      43.926  23.520  26.794  1.00  0.00     0.064 A 
ATOM     64  C   UNL A   1      43.443  22.195  26.738  1.00  0.00     0.173 A 
ATOM     65  C   UNL A   1      44.884  23.839  25.804  1.00  0.00     0.173 A 
ATOM     66  F   UNL A   1      42.551  21.745  27.632  1.00  0.00    -0.203 F 
ATOM     67  C   UNL A   1      43.878  21.278  25.774  1.00  0.00     0.198 A 
ATOM     68  C   UNL A   1      45.272  22.940  24.807  1.00  0.00     0.198 A 
ATOM     69  F   UNL A   1      45.539  25.004  25.794  1.00  0.00    -0.203 F 
ATOM     70  F   UNL A   1      43.430  20.015  25.807  1.00  0.00    -0.200 F 
ATOM     71  C   UNL A   1      44.781  21.654  24.801  1.00  0.00     0.200 A 
ATOM     72  F   UNL A   1      46.156  23.328  23.876  1.00  0.00    -0.200 F 
ATOM     73  F   UNL A   1      45.195  20.779  23.875  1.00  0.00    -0.200 F 
ENDBRANCH  49  63
BRANCH  50  74
ATOM     74  C   UNL A   1      40.840  30.094  33.065  1.00  0.00     0.064 A 
ATOM     75  C   UNL A   1      40.610  31.478  33.198  1.00  0.00     0.173 A 
ATOM     76  C   UNL A   1      39.726  29.249  33.096  1.00  0.00     0.173 A 
ATOM     77  F   UNL A   1      41.643  32.336  33.173  1.00  0.00    -0.203 F 
ATOM     78  C   UNL A   1      39.319  31.998  33.231  1.00  0.00     0.198 A 
ATOM     79  C   UNL A   1      38.434  29.773  33.154  1.00  0.00     0.198 A 
ATOM     80  F   UNL A   1      39.872  27.924  32.948  1.00  0.00    -0.203 F 
ATOM     81  F   UNL A   1      39.133  33.326  33.228  1.00  0.00    -0.200 F 
ATOM     82  C   UNL A   1      38.230  31.145  33.182  1.00  0.00     0.200 A 
ATOM     83  F   UNL A   1      37.380  28.948  33.076  1.00  0.00    -0.200 F 
ATOM     84  F   UNL A   1      36.988  31.643  33.118  1.00  0.00    -0.200 F 
ENDBRANCH  50  74
BRANCH  62  85
ATOM     85  C   UNL A   1      45.282  24.386  33.293  1.00  0.00     0.064 A 
ATOM     86  C   UNL A   1      44.478  23.268  33.565  1.00  0.00     0.173 A 
ATOM     87  C   UNL A   1      46.549  24.405  33.914  1.00  0.00     0.173 A 
ATOM     88  F   UNL A   1      43.232  23.183  33.073  1.00  0.00    -0.203 F 
ATOM     89  C   UNL A   1      44.931  22.213  34.360  1.00  0.00     0.198 A 
ATOM     90  C   UNL A   1      46.978  23.375  34.751  1.00  0.00     0.198 A 
ATOM     91  F   UNL A   1      47.417  25.404  33.703  1.00  0.00    -0.203 F 
ATOM     92  F   UNL A   1      44.153  21.138  34.546  1.00  0.00    -0.200 F 
ATOM     93  C   UNL A   1      46.175  22.273  34.963  1.00  0.00     0.200 A 
ATOM     94  F   UNL A   1      48.180  23.456  35.342  1.00  0.00    -0.200 F 
ATOM     95  F   UNL A   1      46.601  21.269  35.741  1.00  0.00    -0.200 F 
ENDBRANCH  62  85
ENDBRANCH  36  37
ENDBRANCH  28  31
ENDBRANCH  26  27
ENDBRANCH  25  26
ENDBRANCH   1  25
TORSDOF 14
ENDMDL
