MODEL 1
REMARK VINA RESULT:     -13.1      0.000      0.000
REMARK SMILES Cc1ccc(F)c(NC(=O)NC(=O)CCCCC(=O)NCCCCNC(=O)c2ccc(-c3c4nc(c(-c5c(F)c(F)c(F)c(F)c5F)c5ccc([nH]5)c(-c5c(F)c(F)c(F)c(F)c5F)c5nc(c(-c6c(F)c(F)c(F)c(F)c6F)c6ccc3[nH]6)C=C5)C=C4)cc2)c1
REMARK SMILES IDX 21 1 20 2 18 3 19 4 17 6 16 7 15 8 14 9 12 10 8 11 9 12
REMARK SMILES IDX 10 14 11 15 13 17 7 18 1 19 2 20 3 21 91 22 4 23 5 24 6 25
REMARK SMILES IDX 22 26 23 27 24 28 25 29 26 30 27 32 28 33 29 34 90 35 30 36
REMARK SMILES IDX 89 37 31 38 32 39 33 40 83 41 34 42 88 43 82 44 84 45 35 46
REMARK SMILES IDX 87 47 81 48 80 49 36 51 68 52 48 53 67 54 49 55 52 56 66 57
REMARK SMILES IDX 85 58 50 59 51 60 65 62 86 63 53 64 37 65 38 66 46 67 39 68
REMARK SMILES IDX 40 69 44 70 47 71 41 72 42 73 45 74 43 75 69 76 70 77 78 78
REMARK SMILES IDX 71 79 72 80 76 81 79 82 73 83 74 84 77 85 75 86 54 87 55 88
REMARK SMILES IDX 63 89 56 90 57 91 61 92 64 93 58 94 59 95 62 96 60 97
REMARK H PARENT 20 5 8 13 11 16 25 31 84 50 52 61
REMARK Flexibility Score: inf
ROOT
ATOM      1  C   UNL A   1      31.769  29.340  24.862  1.00  0.00     0.116 C 
ENDROOT
BRANCH   1   2
ATOM      2  N   UNL A   1      33.002  29.373  24.115  1.00  0.00    -0.356 N 
ATOM      3  C   UNL A   1      33.426  28.533  23.131  1.00  0.00     0.219 C 
ATOM      4  O   UNL A   1      34.477  28.803  22.549  1.00  0.00    -0.275 OA
ATOM      5  H   UNL A   1      33.622  30.102  24.348  1.00  0.00     0.163 HD
BRANCH   3   6
ATOM      6  C   UNL A   1      32.557  27.367  22.699  1.00  0.00     0.100 C 
BRANCH   6   7
ATOM      7  C   UNL A   1      33.037  25.941  22.938  1.00  0.00     0.010 C 
BRANCH   7   8
ATOM      8  C   UNL A   1      33.201  25.434  24.377  1.00  0.00     0.010 C 
BRANCH   8   9
ATOM      9  C   UNL A   1      32.109  25.663  25.428  1.00  0.00     0.100 C 
BRANCH   9  10
ATOM     10  C   UNL A   1      30.713  25.121  25.201  1.00  0.00     0.227 C 
ATOM     11  N   UNL A   1      31.625  22.352  26.916  1.00  0.00    -0.305 N 
ATOM     12  C   UNL A   1      30.570  23.172  26.687  1.00  0.00     0.325 C 
ATOM     13  H   UNL A   1      31.544  21.861  27.765  1.00  0.00     0.171 HD
ATOM     14  O   UNL A   1      29.700  23.240  27.559  1.00  0.00    -0.248 OA
ATOM     15  N   UNL A   1      30.399  23.816  25.509  1.00  0.00    -0.278 N 
ATOM     16  H   UNL A   1      30.002  23.284  24.782  1.00  0.00     0.174 HD
ATOM     17  O   UNL A   1      29.852  25.816  24.653  1.00  0.00    -0.275 OA
BRANCH  11  18
ATOM     18  C   UNL A   1      32.810  22.040  26.221  1.00  0.00     0.079 A 
ATOM     19  C   UNL A   1      36.304  23.607  26.209  1.00  0.00     0.044 C 
ATOM     20  C   UNL A   1      35.159  22.677  25.914  1.00  0.00    -0.049 A 
ATOM     21  C   UNL A   1      35.238  21.803  24.829  1.00  0.00     0.006 A 
ATOM     22  C   UNL A   1      33.954  22.761  26.626  1.00  0.00     0.032 A 
ATOM     23  C   UNL A   1      34.125  21.067  24.432  1.00  0.00     0.042 A 
ATOM     24  C   UNL A   1      32.926  21.181  25.129  1.00  0.00     0.146 A 
ATOM     25  F   UNL A   1      31.900  20.442  24.695  1.00  0.00    -0.205 F 
ENDBRANCH  11  18
ENDBRANCH   9  10
ENDBRANCH   8   9
ENDBRANCH   7   8
ENDBRANCH   6   7
ENDBRANCH   3   6
ENDBRANCH   1   2
BRANCH   1  26
ATOM     26  C   UNL A   1      31.979  29.674  26.336  1.00  0.00     0.023 C 
BRANCH  26  27
ATOM     27  C   UNL A   1      32.721  28.572  27.095  1.00  0.00     0.023 C 
BRANCH  27  28
ATOM     28  C   UNL A   1      34.157  28.957  27.402  1.00  0.00     0.116 C 
BRANCH  28  29
ATOM     29  N   UNL A   1      34.285  30.347  27.837  1.00  0.00    -0.352 N 
ATOM     30  C   UNL A   1      35.262  30.863  28.659  1.00  0.00     0.251 C 
ATOM     31  H   UNL A   1      33.604  30.977  27.508  1.00  0.00     0.163 HD
ATOM     32  O   UNL A   1      35.120  31.942  29.235  1.00  0.00    -0.269 OA
BRANCH  30  33
ATOM     33  C   UNL A   1      36.518  30.113  28.784  1.00  0.00     0.039 A 
ATOM     34  C   UNL A   1      36.820  29.300  29.879  1.00  0.00     0.014 A 
ATOM     35  C   UNL A   1      37.430  30.285  27.747  1.00  0.00     0.014 A 
ATOM     36  C   UNL A   1      38.047  28.639  29.908  1.00  0.00     0.010 A 
ATOM     37  C   UNL A   1      38.551  29.516  27.690  1.00  0.00     0.010 A 
ATOM     38  C   UNL A   1      38.897  28.762  28.806  1.00  0.00    -0.014 A 
BRANCH  38  39
ATOM     39  C   UNL A   1      40.222  28.187  28.703  1.00  0.00     0.031 A 
ATOM     40  C   UNL A   1      40.356  26.746  28.486  1.00  0.00     0.074 A 
ATOM     41  C   UNL A   1      41.243  29.074  28.678  1.00  0.00     0.049 A 
ATOM     42  N   UNL A   1      41.352  26.051  28.892  1.00  0.00    -0.248 NA
ATOM     43  C   UNL A   1      39.329  25.946  27.824  1.00  0.00     0.031 C 
ATOM     44  C   UNL A   1      42.645  28.894  28.346  1.00  0.00     0.029 A 
ATOM     45  N   UNL A   1      41.170  30.413  29.109  1.00  0.00    -0.354 N 
ATOM     46  C   UNL A   1      41.273  24.819  28.275  1.00  0.00     0.074 A 
ATOM     47  C   UNL A   1      39.927  24.749  27.761  1.00  0.00     0.031 C 
ATOM     48  C   UNL A   1      43.345  29.913  28.885  1.00  0.00     0.029 A 
ATOM     49  C   UNL A   1      42.418  30.708  29.677  1.00  0.00     0.049 A 
ATOM     50  H   UNL A   1      40.400  31.019  29.026  1.00  0.00     0.167 HD
ATOM     51  C   UNL A   1      42.427  24.108  28.126  1.00  0.00     0.037 A 
ATOM     52  C   UNL A   1      42.488  30.925  31.025  1.00  0.00     0.037 A 
ATOM     53  C   UNL A   1      43.535  24.881  28.689  1.00  0.00     0.049 A 
ATOM     54  C   UNL A   1      43.269  29.833  31.700  1.00  0.00     0.074 A 
ATOM     55  C   UNL A   1      44.423  25.765  28.098  1.00  0.00     0.029 A 
ATOM     56  N   UNL A   1      43.578  25.122  30.055  1.00  0.00    -0.354 N 
ATOM     57  N   UNL A   1      43.353  28.613  31.241  1.00  0.00    -0.248 NA
ATOM     58  C   UNL A   1      44.089  30.052  32.885  1.00  0.00     0.031 C 
ATOM     59  C   UNL A   1      44.953  26.592  29.122  1.00  0.00     0.029 A 
ATOM     60  C   UNL A   1      44.400  26.199  30.330  1.00  0.00     0.049 A 
ATOM     61  H   UNL A   1      43.092  24.600  30.733  1.00  0.00     0.167 HD
ATOM     62  C   UNL A   1      44.259  27.914  31.989  1.00  0.00     0.074 A 
ATOM     63  C   UNL A   1      44.683  28.853  33.013  1.00  0.00     0.031 C 
ATOM     64  C   UNL A   1      44.622  26.629  31.699  1.00  0.00     0.037 A 
BRANCH  51  65
ATOM     65  C   UNL A   1      42.663  22.895  27.248  1.00  0.00     0.064 A 
ATOM     66  C   UNL A   1      42.003  21.676  27.538  1.00  0.00     0.173 A 
ATOM     67  C   UNL A   1      43.514  22.842  26.130  1.00  0.00     0.173 A 
ATOM     68  F   UNL A   1      41.112  21.578  28.534  1.00  0.00    -0.203 F 
ATOM     69  C   UNL A   1      42.224  20.500  26.816  1.00  0.00     0.198 A 
ATOM     70  C   UNL A   1      43.752  21.657  25.418  1.00  0.00     0.198 A 
ATOM     71  F   UNL A   1      44.113  23.934  25.646  1.00  0.00    -0.203 F 
ATOM     72  F   UNL A   1      41.570  19.379  27.154  1.00  0.00    -0.200 F 
ATOM     73  C   UNL A   1      43.111  20.487  25.763  1.00  0.00     0.200 A 
ATOM     74  F   UNL A   1      44.608  21.666  24.384  1.00  0.00    -0.200 F 
ATOM     75  F   UNL A   1      43.330  19.360  25.073  1.00  0.00    -0.200 F 
ENDBRANCH  51  65
BRANCH  52  76
ATOM     76  C   UNL A   1      41.258  31.613  31.536  1.00  0.00     0.064 A 
ATOM     77  C   UNL A   1      40.908  32.814  30.878  1.00  0.00     0.173 A 
ATOM     78  C   UNL A   1      40.229  30.916  32.186  1.00  0.00     0.173 A 
ATOM     79  F   UNL A   1      41.858  33.541  30.270  1.00  0.00    -0.203 F 
ATOM     80  C   UNL A   1      39.575  33.168  30.679  1.00  0.00     0.198 A 
ATOM     81  C   UNL A   1      38.894  31.309  32.028  1.00  0.00     0.198 A 
ATOM     82  F   UNL A   1      40.491  29.788  32.860  1.00  0.00    -0.203 F 
ATOM     83  F   UNL A   1      39.272  34.195  29.872  1.00  0.00    -0.200 F 
ATOM     84  C   UNL A   1      38.567  32.390  31.219  1.00  0.00     0.200 A 
ATOM     85  F   UNL A   1      37.914  30.585  32.588  1.00  0.00    -0.200 F 
ATOM     86  F   UNL A   1      37.289  32.657  30.919  1.00  0.00    -0.200 F 
ENDBRANCH  52  76
BRANCH  64  87
ATOM     87  C   UNL A   1      45.315  25.679  32.645  1.00  0.00     0.064 A 
ATOM     88  C   UNL A   1      46.700  25.453  32.636  1.00  0.00     0.173 A 
ATOM     89  C   UNL A   1      44.610  25.092  33.725  1.00  0.00     0.173 A 
ATOM     90  F   UNL A   1      47.507  26.065  31.760  1.00  0.00    -0.203 F 
ATOM     91  C   UNL A   1      47.319  24.635  33.582  1.00  0.00     0.198 A 
ATOM     92  C   UNL A   1      45.244  24.348  34.715  1.00  0.00     0.198 A 
ATOM     93  F   UNL A   1      43.286  25.250  33.880  1.00  0.00    -0.203 F 
ATOM     94  F   UNL A   1      48.635  24.401  33.489  1.00  0.00    -0.200 F 
ATOM     95  C   UNL A   1      46.596  24.097  34.629  1.00  0.00     0.200 A 
ATOM     96  F   UNL A   1      44.540  23.899  35.764  1.00  0.00    -0.200 F 
ATOM     97  F   UNL A   1      47.206  23.359  35.565  1.00  0.00    -0.200 F 
ENDBRANCH  64  87
ENDBRANCH  38  39
ENDBRANCH  30  33
ENDBRANCH  28  29
ENDBRANCH  27  28
ENDBRANCH  26  27
ENDBRANCH   1  26
TORSDOF 16
ENDMDL
MODEL 2
REMARK VINA RESULT:     -13.0      1.734      2.639
REMARK SMILES Cc1ccc(F)c(NC(=O)NC(=O)CCCCC(=O)NCCCCNC(=O)c2ccc(-c3c4nc(c(-c5c(F)c(F)c(F)c(F)c5F)c5ccc([nH]5)c(-c5c(F)c(F)c(F)c(F)c5F)c5nc(c(-c6c(F)c(F)c(F)c(F)c6F)c6ccc3[nH]6)C=C5)C=C4)cc2)c1
REMARK SMILES IDX 21 1 20 2 18 3 19 4 17 6 16 7 15 8 14 9 12 10 8 11 9 12
REMARK SMILES IDX 10 14 11 15 13 17 7 18 1 19 2 20 3 21 91 22 4 23 5 24 6 25
REMARK SMILES IDX 22 26 23 27 24 28 25 29 26 30 27 32 28 33 29 34 90 35 30 36
REMARK SMILES IDX 89 37 31 38 32 39 33 40 83 41 34 42 88 43 82 44 84 45 35 46
REMARK SMILES IDX 87 47 81 48 80 49 36 51 68 52 48 53 67 54 49 55 52 56 66 57
REMARK SMILES IDX 85 58 50 59 51 60 65 62 86 63 53 64 37 65 38 66 46 67 39 68
REMARK SMILES IDX 40 69 44 70 47 71 41 72 42 73 45 74 43 75 69 76 70 77 78 78
REMARK SMILES IDX 71 79 72 80 76 81 79 82 73 83 74 84 77 85 75 86 54 87 55 88
REMARK SMILES IDX 63 89 56 90 57 91 61 92 64 93 58 94 59 95 62 96 60 97
REMARK H PARENT 20 5 8 13 11 16 25 31 84 50 52 61
REMARK Flexibility Score: inf
ROOT
ATOM      1  C   UNL A   1      33.660  28.650  24.481  1.00  0.00     0.116 C 
ENDROOT
BRANCH   1   2
ATOM      2  N   UNL A   1      33.535  27.642  23.456  1.00  0.00    -0.356 N 
ATOM      3  C   UNL A   1      33.757  26.301  23.547  1.00  0.00     0.219 C 
ATOM      4  O   UNL A   1      33.489  25.601  22.571  1.00  0.00    -0.275 OA
ATOM      5  H   UNL A   1      33.250  27.967  22.572  1.00  0.00     0.163 HD
BRANCH   3   6
ATOM      6  C   UNL A   1      34.211  25.692  24.860  1.00  0.00     0.100 C 
BRANCH   6   7
ATOM      7  C   UNL A   1      34.524  24.203  24.931  1.00  0.00     0.010 C 
BRANCH   7   8
ATOM      8  C   UNL A   1      35.840  23.683  24.337  1.00  0.00     0.010 C 
BRANCH   8   9
ATOM      9  C   UNL A   1      36.018  22.204  23.977  1.00  0.00     0.100 C 
BRANCH   9  10
ATOM     10  C   UNL A   1      36.133  21.165  25.073  1.00  0.00     0.227 C 
ATOM     11  N   UNL A   1      33.048  20.074  24.216  1.00  0.00    -0.305 N 
ATOM     12  C   UNL A   1      34.252  19.641  24.665  1.00  0.00     0.325 C 
ATOM     13  H   UNL A   1      32.534  19.364  23.768  1.00  0.00     0.171 HD
ATOM     14  O   UNL A   1      34.566  18.474  24.419  1.00  0.00    -0.248 OA
ATOM     15  N   UNL A   1      35.047  20.405  25.448  1.00  0.00    -0.278 N 
ATOM     16  H   UNL A   1      34.820  20.421  26.406  1.00  0.00     0.174 HD
ATOM     17  O   UNL A   1      37.183  21.040  25.710  1.00  0.00    -0.275 OA
BRANCH  11  18
ATOM     18  C   UNL A   1      32.362  21.304  24.243  1.00  0.00     0.079 A 
ATOM     19  C   UNL A   1      30.230  23.032  26.913  1.00  0.00     0.044 C 
ATOM     20  C   UNL A   1      30.977  22.776  25.634  1.00  0.00    -0.049 A 
ATOM     21  C   UNL A   1      30.728  23.572  24.515  1.00  0.00     0.006 A 
ATOM     22  C   UNL A   1      31.824  21.668  25.497  1.00  0.00     0.032 A 
ATOM     23  C   UNL A   1      31.271  23.242  23.276  1.00  0.00     0.042 A 
ATOM     24  C   UNL A   1      32.087  22.122  23.147  1.00  0.00     0.146 A 
ATOM     25  F   UNL A   1      32.577  21.865  21.930  1.00  0.00    -0.205 F 
ENDBRANCH  11  18
ENDBRANCH   9  10
ENDBRANCH   8   9
ENDBRANCH   7   8
ENDBRANCH   6   7
ENDBRANCH   3   6
ENDBRANCH   1   2
BRANCH   1  26
ATOM     26  C   UNL A   1      32.410  28.747  25.349  1.00  0.00     0.023 C 
BRANCH  26  27
ATOM     27  C   UNL A   1      32.681  28.422  26.820  1.00  0.00     0.023 C 
BRANCH  27  28
ATOM     28  C   UNL A   1      34.077  28.836  27.249  1.00  0.00     0.116 C 
BRANCH  28  29
ATOM     29  N   UNL A   1      34.148  30.243  27.643  1.00  0.00    -0.352 N 
ATOM     30  C   UNL A   1      35.072  30.812  28.491  1.00  0.00     0.251 C 
ATOM     31  H   UNL A   1      33.466  30.843  27.263  1.00  0.00     0.163 HD
ATOM     32  O   UNL A   1      34.876  31.905  29.024  1.00  0.00    -0.269 OA
BRANCH  30  33
ATOM     33  C   UNL A   1      36.340  30.101  28.696  1.00  0.00     0.039 A 
ATOM     34  C   UNL A   1      36.646  29.401  29.865  1.00  0.00     0.014 A 
ATOM     35  C   UNL A   1      37.260  30.194  27.657  1.00  0.00     0.014 A 
ATOM     36  C   UNL A   1      37.885  28.770  29.968  1.00  0.00     0.010 A 
ATOM     37  C   UNL A   1      38.396  29.445  27.681  1.00  0.00     0.010 A 
ATOM     38  C   UNL A   1      38.744  28.806  28.866  1.00  0.00    -0.014 A 
BRANCH  38  39
ATOM     39  C   UNL A   1      40.081  28.250  28.830  1.00  0.00     0.031 A 
ATOM     40  C   UNL A   1      40.249  26.824  28.546  1.00  0.00     0.074 A 
ATOM     41  C   UNL A   1      41.089  29.147  28.926  1.00  0.00     0.049 A 
ATOM     42  N   UNL A   1      41.223  26.117  28.986  1.00  0.00    -0.248 NA
ATOM     43  C   UNL A   1      39.283  26.051  27.770  1.00  0.00     0.031 C 
ATOM     44  C   UNL A   1      42.513  28.998  28.687  1.00  0.00     0.029 A 
ATOM     45  N   UNL A   1      40.967  30.459  29.420  1.00  0.00    -0.354 N 
ATOM     46  C   UNL A   1      41.205  24.920  28.300  1.00  0.00     0.074 A 
ATOM     47  C   UNL A   1      39.900  24.865  27.687  1.00  0.00     0.031 C 
ATOM     48  C   UNL A   1      43.159  29.993  29.329  1.00  0.00     0.029 A 
ATOM     49  C   UNL A   1      42.167  30.736  30.093  1.00  0.00     0.049 A 
ATOM     50  H   UNL A   1      40.197  31.062  29.315  1.00  0.00     0.167 HD
ATOM     51  C   UNL A   1      42.377  24.229  28.198  1.00  0.00     0.037 A 
ATOM     52  C   UNL A   1      42.137  30.880  31.452  1.00  0.00     0.037 A 
ATOM     53  C   UNL A   1      43.430  24.981  28.881  1.00  0.00     0.049 A 
ATOM     54  C   UNL A   1      42.882  29.760  32.123  1.00  0.00     0.074 A 
ATOM     55  C   UNL A   1      44.347  25.905  28.403  1.00  0.00     0.029 A 
ATOM     56  N   UNL A   1      43.372  25.149  30.257  1.00  0.00    -0.354 N 
ATOM     57  N   UNL A   1      43.015  28.568  31.607  1.00  0.00    -0.248 NA
ATOM     58  C   UNL A   1      43.612  29.924  33.374  1.00  0.00     0.031 C 
ATOM     59  C   UNL A   1      44.791  26.680  29.505  1.00  0.00     0.029 A 
ATOM     60  C   UNL A   1      44.157  26.217  30.647  1.00  0.00     0.049 A 
ATOM     61  H   UNL A   1      42.845  24.586  30.869  1.00  0.00     0.167 HD
ATOM     62  C   UNL A   1      43.874  27.839  32.381  1.00  0.00     0.074 A 
ATOM     63  C   UNL A   1      44.211  28.725  33.481  1.00  0.00     0.031 C 
ATOM     64  C   UNL A   1      44.274  26.574  32.050  1.00  0.00     0.037 A 
BRANCH  51  65
ATOM     65  C   UNL A   1      42.691  23.068  27.277  1.00  0.00     0.064 A 
ATOM     66  C   UNL A   1      42.089  21.806  27.501  1.00  0.00     0.173 A 
ATOM     67  C   UNL A   1      43.566  23.105  26.176  1.00  0.00     0.173 A 
ATOM     68  F   UNL A   1      41.184  21.622  28.472  1.00  0.00    -0.203 F 
ATOM     69  C   UNL A   1      42.384  20.674  26.737  1.00  0.00     0.198 A 
ATOM     70  C   UNL A   1      43.879  21.965  25.421  1.00  0.00     0.198 A 
ATOM     71  F   UNL A   1      44.118  24.245  25.750  1.00  0.00    -0.203 F 
ATOM     72  F   UNL A   1      41.781  19.509  27.014  1.00  0.00    -0.200 F 
ATOM     73  C   UNL A   1      43.291  20.750  25.704  1.00  0.00     0.200 A 
ATOM     74  F   UNL A   1      44.753  22.060  24.408  1.00  0.00    -0.200 F 
ATOM     75  F   UNL A   1      43.581  19.666  24.972  1.00  0.00    -0.200 F 
ENDBRANCH  51  65
BRANCH  52  76
ATOM     76  C   UNL A   1      40.864  31.528  31.908  1.00  0.00     0.064 A 
ATOM     77  C   UNL A   1      39.961  30.689  32.600  1.00  0.00     0.173 A 
ATOM     78  C   UNL A   1      40.775  32.905  32.156  1.00  0.00     0.173 A 
ATOM     79  F   UNL A   1      39.978  29.366  32.375  1.00  0.00    -0.203 F 
ATOM     80  C   UNL A   1      39.185  31.172  33.650  1.00  0.00     0.198 A 
ATOM     81  C   UNL A   1      39.950  33.392  33.177  1.00  0.00     0.198 A 
ATOM     82  F   UNL A   1      41.574  33.766  31.510  1.00  0.00    -0.203 F 
ATOM     83  F   UNL A   1      38.501  30.315  34.423  1.00  0.00    -0.200 F 
ATOM     84  C   UNL A   1      39.212  32.518  33.965  1.00  0.00     0.200 A 
ATOM     85  F   UNL A   1      39.936  34.703  33.457  1.00  0.00    -0.200 F 
ATOM     86  F   UNL A   1      38.567  32.959  35.055  1.00  0.00    -0.200 F 
ENDBRANCH  52  76
BRANCH  64  87
ATOM     87  C   UNL A   1      44.910  25.582  32.992  1.00  0.00     0.064 A 
ATOM     88  C   UNL A   1      46.278  25.269  32.977  1.00  0.00     0.173 A 
ATOM     89  C   UNL A   1      44.174  25.039  34.074  1.00  0.00     0.173 A 
ATOM     90  F   UNL A   1      47.118  25.830  32.098  1.00  0.00    -0.203 F 
ATOM     91  C   UNL A   1      46.848  24.412  33.919  1.00  0.00     0.198 A 
ATOM     92  C   UNL A   1      44.764  24.255  35.060  1.00  0.00     0.198 A 
ATOM     93  F   UNL A   1      42.864  25.280  34.235  1.00  0.00    -0.203 F 
ATOM     94  F   UNL A   1      48.146  24.095  33.820  1.00  0.00    -0.200 F 
ATOM     95  C   UNL A   1      46.097  23.919  34.969  1.00  0.00     0.200 A 
ATOM     96  F   UNL A   1      44.038  23.850  36.112  1.00  0.00    -0.200 F 
ATOM     97  F   UNL A   1      46.663  23.143  35.901  1.00  0.00    -0.200 F 
ENDBRANCH  64  87
ENDBRANCH  38  39
ENDBRANCH  30  33
ENDBRANCH  28  29
ENDBRANCH  27  28
ENDBRANCH  26  27
ENDBRANCH   1  26
TORSDOF 16
ENDMDL
MODEL 3
REMARK VINA RESULT:     -12.9      3.295      9.195
REMARK SMILES Cc1ccc(F)c(NC(=O)NC(=O)CCCCC(=O)NCCCCNC(=O)c2ccc(-c3c4nc(c(-c5c(F)c(F)c(F)c(F)c5F)c5ccc([nH]5)c(-c5c(F)c(F)c(F)c(F)c5F)c5nc(c(-c6c(F)c(F)c(F)c(F)c6F)c6ccc3[nH]6)C=C5)C=C4)cc2)c1
REMARK SMILES IDX 21 1 20 2 18 3 19 4 17 6 16 7 15 8 14 9 12 10 8 11 9 12
REMARK SMILES IDX 10 14 11 15 13 17 7 18 1 19 2 20 3 21 91 22 4 23 5 24 6 25
REMARK SMILES IDX 22 26 23 27 24 28 25 29 26 30 27 32 28 33 29 34 90 35 30 36
REMARK SMILES IDX 89 37 31 38 32 39 33 40 83 41 34 42 88 43 82 44 84 45 35 46
REMARK SMILES IDX 87 47 81 48 80 49 36 51 68 52 48 53 67 54 49 55 52 56 66 57
REMARK SMILES IDX 85 58 50 59 51 60 65 62 86 63 53 64 37 65 38 66 46 67 39 68
REMARK SMILES IDX 40 69 44 70 47 71 41 72 42 73 45 74 43 75 69 76 70 77 78 78
REMARK SMILES IDX 71 79 72 80 76 81 79 82 73 83 74 84 77 85 75 86 54 87 55 88
REMARK SMILES IDX 63 89 56 90 57 91 61 92 64 93 58 94 59 95 62 96 60 97
REMARK H PARENT 20 5 8 13 11 16 25 31 84 50 52 61
REMARK Flexibility Score: inf
ROOT
ATOM      1  C   UNL A   1      35.520  20.592  24.993  1.00  0.00     0.116 C 
ENDROOT
BRANCH   1   2
ATOM      2  N   UNL A   1      34.275  19.946  25.325  1.00  0.00    -0.356 N 
ATOM      3  C   UNL A   1      33.054  20.095  24.740  1.00  0.00     0.219 C 
ATOM      4  O   UNL A   1      32.137  19.364  25.117  1.00  0.00    -0.275 OA
ATOM      5  H   UNL A   1      34.312  19.311  26.077  1.00  0.00     0.163 HD
BRANCH   3   6
ATOM      6  C   UNL A   1      32.877  21.057  23.581  1.00  0.00     0.100 C 
BRANCH   6   7
ATOM      7  C   UNL A   1      32.379  22.472  23.846  1.00  0.00     0.010 C 
BRANCH   7   8
ATOM      8  C   UNL A   1      32.170  23.428  22.664  1.00  0.00     0.010 C 
BRANCH   8   9
ATOM      9  C   UNL A   1      33.295  24.347  22.177  1.00  0.00     0.100 C 
BRANCH   9  10
ATOM     10  C   UNL A   1      32.971  25.559  21.328  1.00  0.00     0.227 C 
ATOM     11  N   UNL A   1      32.916  27.398  24.167  1.00  0.00    -0.305 N 
ATOM     12  C   UNL A   1      33.253  27.461  22.855  1.00  0.00     0.325 C 
ATOM     13  H   UNL A   1      33.396  28.063  24.712  1.00  0.00     0.171 HD
ATOM     14  O   UNL A   1      34.122  28.273  22.527  1.00  0.00    -0.248 OA
ATOM     15  N   UNL A   1      32.597  26.752  21.908  1.00  0.00    -0.278 N 
ATOM     16  H   UNL A   1      31.747  27.136  21.594  1.00  0.00     0.174 HD
ATOM     17  O   UNL A   1      32.951  25.475  20.097  1.00  0.00    -0.275 OA
BRANCH  11  18
ATOM     18  C   UNL A   1      32.039  26.603  24.930  1.00  0.00     0.079 A 
ATOM     19  C   UNL A   1      32.586  23.539  27.160  1.00  0.00     0.044 C 
ATOM     20  C   UNL A   1      31.915  24.683  26.453  1.00  0.00    -0.049 A 
ATOM     21  C   UNL A   1      30.523  24.718  26.357  1.00  0.00     0.006 A 
ATOM     22  C   UNL A   1      32.662  25.651  25.767  1.00  0.00     0.032 A 
ATOM     23  C   UNL A   1      29.892  25.666  25.556  1.00  0.00     0.042 A 
ATOM     24  C   UNL A   1      30.647  26.603  24.857  1.00  0.00     0.146 A 
ATOM     25  F   UNL A   1      29.976  27.486  24.109  1.00  0.00    -0.205 F 
ENDBRANCH  11  18
ENDBRANCH   9  10
ENDBRANCH   8   9
ENDBRANCH   7   8
ENDBRANCH   6   7
ENDBRANCH   3   6
ENDBRANCH   1   2
BRANCH   1  26
ATOM     26  C   UNL A   1      35.705  21.907  25.745  1.00  0.00     0.023 C 
BRANCH  26  27
ATOM     27  C   UNL A   1      36.245  23.029  24.856  1.00  0.00     0.023 C 
BRANCH  27  28
ATOM     28  C   UNL A   1      37.401  23.768  25.506  1.00  0.00     0.116 C 
BRANCH  28  29
ATOM     29  N   UNL A   1      38.505  22.878  25.864  1.00  0.00    -0.352 N 
ATOM     30  C   UNL A   1      39.744  23.256  26.332  1.00  0.00     0.251 C 
ATOM     31  H   UNL A   1      38.345  21.913  25.762  1.00  0.00     0.163 HD
ATOM     32  O   UNL A   1      40.710  22.491  26.297  1.00  0.00    -0.269 OA
BRANCH  30  33
ATOM     33  C   UNL A   1      39.871  24.587  26.936  1.00  0.00     0.039 A 
ATOM     34  C   UNL A   1      40.441  25.678  26.275  1.00  0.00     0.014 A 
ATOM     35  C   UNL A   1      39.417  24.702  28.246  1.00  0.00     0.014 A 
ATOM     36  C   UNL A   1      40.528  26.899  26.943  1.00  0.00     0.010 A 
ATOM     37  C   UNL A   1      39.345  25.924  28.839  1.00  0.00     0.010 A 
ATOM     38  C   UNL A   1      39.975  27.000  28.223  1.00  0.00    -0.014 A 
BRANCH  38  39
ATOM     39  C   UNL A   1      40.030  28.175  29.067  1.00  0.00     0.031 A 
ATOM     40  C   UNL A   1      39.028  29.227  28.885  1.00  0.00     0.074 A 
ATOM     41  C   UNL A   1      40.940  28.134  30.067  1.00  0.00     0.049 A 
ATOM     42  N   UNL A   1      39.238  30.466  29.134  1.00  0.00    -0.248 NA
ATOM     43  C   UNL A   1      37.696  28.968  28.344  1.00  0.00     0.031 C 
ATOM     44  C   UNL A   1      41.110  28.991  31.226  1.00  0.00     0.029 A 
ATOM     45  N   UNL A   1      42.046  27.266  30.127  1.00  0.00    -0.354 N 
ATOM     46  C   UNL A   1      38.014  31.102  29.117  1.00  0.00     0.074 A 
ATOM     47  C   UNL A   1      37.124  30.172  28.465  1.00  0.00     0.031 C 
ATOM     48  C   UNL A   1      42.374  28.854  31.676  1.00  0.00     0.029 A 
ATOM     49  C   UNL A   1      43.079  27.991  30.739  1.00  0.00     0.049 A 
ATOM     50  H   UNL A   1      42.086  26.337  29.805  1.00  0.00     0.167 HD
ATOM     51  C   UNL A   1      37.889  32.258  29.829  1.00  0.00     0.037 A 
ATOM     52  C   UNL A   1      44.170  28.334  29.989  1.00  0.00     0.037 A 
ATOM     53  C   UNL A   1      39.165  32.551  30.482  1.00  0.00     0.049 A 
ATOM     54  C   UNL A   1      44.239  29.823  29.799  1.00  0.00     0.074 A 
ATOM     55  C   UNL A   1      39.635  32.241  31.749  1.00  0.00     0.029 A 
ATOM     56  N   UNL A   1      40.274  32.867  29.710  1.00  0.00    -0.354 N 
ATOM     57  N   UNL A   1      43.191  30.602  29.800  1.00  0.00    -0.248 NA
ATOM     58  C   UNL A   1      45.494  30.558  29.691  1.00  0.00     0.031 C 
ATOM     59  C   UNL A   1      41.051  32.306  31.711  1.00  0.00     0.029 A 
ATOM     60  C   UNL A   1      41.436  32.671  30.432  1.00  0.00     0.049 A 
ATOM     61  H   UNL A   1      40.238  33.185  28.779  1.00  0.00     0.167 HD
ATOM     62  C   UNL A   1      43.602  31.906  29.766  1.00  0.00     0.074 A 
ATOM     63  C   UNL A   1      45.050  31.826  29.686  1.00  0.00     0.031 C 
ATOM     64  C   UNL A   1      42.731  32.957  29.839  1.00  0.00     0.037 A 
BRANCH  51  65
ATOM     65  C   UNL A   1      36.612  32.981  30.208  1.00  0.00     0.064 A 
ATOM     66  C   UNL A   1      35.865  33.660  29.215  1.00  0.00     0.173 A 
ATOM     67  C   UNL A   1      36.066  33.063  31.502  1.00  0.00     0.173 A 
ATOM     68  F   UNL A   1      36.218  33.624  27.923  1.00  0.00    -0.203 F 
ATOM     69  C   UNL A   1      34.717  34.405  29.501  1.00  0.00     0.198 A 
ATOM     70  C   UNL A   1      34.927  33.828  31.793  1.00  0.00     0.198 A 
ATOM     71  F   UNL A   1      36.575  32.377  32.528  1.00  0.00    -0.203 F 
ATOM     72  F   UNL A   1      34.066  35.030  28.510  1.00  0.00    -0.200 F 
ATOM     73  C   UNL A   1      34.255  34.500  30.795  1.00  0.00     0.200 A 
ATOM     74  F   UNL A   1      34.481  33.898  33.057  1.00  0.00    -0.200 F 
ATOM     75  F   UNL A   1      33.159  35.218  31.074  1.00  0.00    -0.200 F 
ENDBRANCH  51  65
BRANCH  52  76
ATOM     76  C   UNL A   1      44.503  27.272  28.985  1.00  0.00     0.064 A 
ATOM     77  C   UNL A   1      44.250  27.603  27.635  1.00  0.00     0.173 A 
ATOM     78  C   UNL A   1      45.472  26.289  29.231  1.00  0.00     0.173 A 
ATOM     79  F   UNL A   1      43.307  28.512  27.337  1.00  0.00    -0.203 F 
ATOM     80  C   UNL A   1      45.082  27.155  26.611  1.00  0.00     0.198 A 
ATOM     81  C   UNL A   1      46.270  25.800  28.190  1.00  0.00     0.198 A 
ATOM     82  F   UNL A   1      45.741  25.898  30.485  1.00  0.00    -0.203 F 
ATOM     83  F   UNL A   1      44.946  27.654  25.374  1.00  0.00    -0.200 F 
ATOM     84  C   UNL A   1      46.119  26.286  26.897  1.00  0.00     0.200 A 
ATOM     85  F   UNL A   1      47.248  24.921  28.453  1.00  0.00    -0.200 F 
ATOM     86  F   UNL A   1      46.996  25.959  25.937  1.00  0.00    -0.200 F 
ENDBRANCH  52  76
BRANCH  64  87
ATOM     87  C   UNL A   1      43.044  34.382  29.454  1.00  0.00     0.064 A 
ATOM     88  C   UNL A   1      43.173  35.423  30.386  1.00  0.00     0.173 A 
ATOM     89  C   UNL A   1      43.404  34.709  28.123  1.00  0.00     0.173 A 
ATOM     90  F   UNL A   1      43.007  35.217  31.698  1.00  0.00    -0.203 F 
ATOM     91  C   UNL A   1      43.549  36.712  30.004  1.00  0.00     0.198 A 
ATOM     92  C   UNL A   1      43.861  35.972  27.762  1.00  0.00     0.198 A 
ATOM     93  F   UNL A   1      43.361  33.805  27.133  1.00  0.00    -0.203 F 
ATOM     94  F   UNL A   1      43.594  37.685  30.924  1.00  0.00    -0.200 F 
ATOM     95  C   UNL A   1      43.909  36.982  28.698  1.00  0.00     0.200 A 
ATOM     96  F   UNL A   1      44.279  36.195  26.508  1.00  0.00    -0.200 F 
ATOM     97  F   UNL A   1      44.323  38.206  28.349  1.00  0.00    -0.200 F 
ENDBRANCH  64  87
ENDBRANCH  38  39
ENDBRANCH  30  33
ENDBRANCH  28  29
ENDBRANCH  27  28
ENDBRANCH  26  27
ENDBRANCH   1  26
TORSDOF 16
ENDMDL
