MODEL 1
REMARK VINA RESULT:      -9.9      0.000      0.000
REMARK SMILES O=C(NCCCCNC(=O)c1ccc(-c2c3nc(c(-c4c(F)c(F)c(F)c(F)c4F)c4ccc([nH]4)c(-c4c(F)c(F)c(F)c(F)c4F)c4nc(c(-c5c(F)c(F)c(F)c(F)c5F)c5ccc2[nH]5)C=C4)C=C3)cc1)c1ccc(N[C@H]2OC[C@@H](O)[C@@H](O)[C@H]2O)cc1
REMARK SMILES IDX 5 1 4 2 3 3 1 4 2 5 74 7 75 8 89 9 76 10 88 11 77 12 78 13
REMARK SMILES IDX 79 15 80 16 86 17 81 18 84 19 82 20 87 21 85 23 83 25 6 27
REMARK SMILES IDX 7 28 8 29 9 30 10 32 11 33 12 34 73 35 13 36 72 37 14 38
REMARK SMILES IDX 15 39 16 40 66 41 17 42 71 43 65 44 67 45 18 46 70 47 64 48
REMARK SMILES IDX 63 49 19 51 51 52 31 53 50 54 32 55 35 56 49 57 68 58 33 59
REMARK SMILES IDX 34 60 48 62 69 63 36 64 20 65 21 66 29 67 22 68 23 69 27 70
REMARK SMILES IDX 30 71 24 72 25 73 28 74 26 75 52 76 53 77 61 78 54 79 55 80
REMARK SMILES IDX 59 81 62 82 56 83 57 84 60 85 58 86 37 87 38 88 46 89 39 90
REMARK SMILES IDX 40 91 44 92 47 93 41 94 42 95 45 96 43 97
REMARK H PARENT 3 6 78 14 87 22 85 24 83 26 8 31 67 50 35 61
REMARK Flexibility Score: inf
ROOT
ATOM      1  C   UNL A   1      37.488  33.498  29.285  1.00  0.00     0.023 C 
ENDROOT
BRANCH   1   2
ATOM      2  C   UNL A   1      38.389  34.005  30.406  1.00  0.00     0.116 C 
BRANCH   2   3
ATOM      3  N   UNL A   1      37.665  34.765  31.412  1.00  0.00    -0.352 N 
ATOM      4  O   UNL A   1      36.642  35.132  33.393  1.00  0.00    -0.269 OA
ATOM      5  C   UNL A   1      37.390  34.433  32.717  1.00  0.00     0.251 C 
ATOM      6  H   UNL A   1      37.323  35.640  31.116  1.00  0.00     0.163 HD
BRANCH   5   7
ATOM      7  C   UNL A   1      37.971  33.203  33.286  1.00  0.00     0.039 A 
ATOM      8  C   UNL A   1      37.391  31.959  33.044  1.00  0.00     0.016 A 
ATOM      9  C   UNL A   1      39.099  33.301  34.095  1.00  0.00     0.016 A 
ATOM     10  C   UNL A   1      37.864  30.831  33.717  1.00  0.00     0.026 A 
ATOM     11  C   UNL A   1      39.580  32.158  34.740  1.00  0.00     0.026 A 
ATOM     12  C   UNL A   1      38.941  30.913  34.605  1.00  0.00     0.036 A 
BRANCH  12  13
ATOM     13  N   UNL A   1      39.438  29.835  35.317  1.00  0.00    -0.358 N 
ATOM     14  H   UNL A   1      38.805  29.318  35.867  1.00  0.00     0.163 HD
BRANCH  13  15
ATOM     15  C   UNL A   1      40.833  29.409  35.311  1.00  0.00     0.244 C 
ATOM     16  O   UNL A   1      41.031  28.400  36.304  1.00  0.00    -0.353 OA
ATOM     17  C   UNL A   1      41.128  28.789  33.924  1.00  0.00     0.195 C 
ATOM     18  C   UNL A   1      42.387  27.943  36.372  1.00  0.00     0.197 C 
ATOM     19  C   UNL A   1      42.563  28.255  33.895  1.00  0.00     0.178 C 
ATOM     20  C   UNL A   1      42.815  27.285  35.058  1.00  0.00     0.171 C 
BRANCH  17  21
ATOM     21  O   UNL A   1      40.205  27.694  33.687  1.00  0.00    -0.386 OA
ATOM     22  H   UNL A   1      39.675  27.540  34.484  1.00  0.00     0.211 HD
ENDBRANCH  17  21
BRANCH  19  23
ATOM     23  O   UNL A   1      42.817  27.604  32.647  1.00  0.00    -0.387 OA
ATOM     24  H   UNL A   1      42.150  27.879  31.999  1.00  0.00     0.211 HD
ENDBRANCH  19  23
BRANCH  20  25
ATOM     25  O   UNL A   1      42.073  26.071  34.863  1.00  0.00    -0.388 OA
ATOM     26  H   UNL A   1      41.619  25.835  35.687  1.00  0.00     0.211 HD
ENDBRANCH  20  25
ENDBRANCH  13  15
ENDBRANCH  12  13
ENDBRANCH   5   7
ENDBRANCH   2   3
ENDBRANCH   1   2
BRANCH   1  27
ATOM     27  C   UNL A   1      36.001  33.795  29.459  1.00  0.00     0.023 C 
BRANCH  27  28
ATOM     28  C   UNL A   1      35.170  32.659  30.043  1.00  0.00     0.116 C 
BRANCH  28  29
ATOM     29  N   UNL A   1      34.388  31.941  29.048  1.00  0.00    -0.352 N 
ATOM     30  C   UNL A   1      34.737  30.832  28.313  1.00  0.00     0.251 C 
ATOM     31  H   UNL A   1      33.486  32.297  28.878  1.00  0.00     0.163 HD
ATOM     32  O   UNL A   1      33.991  30.403  27.438  1.00  0.00    -0.269 OA
BRANCH  30  33
ATOM     33  C   UNL A   1      36.042  30.184  28.556  1.00  0.00     0.039 A 
ATOM     34  C   UNL A   1      37.034  30.271  27.576  1.00  0.00     0.014 A 
ATOM     35  C   UNL A   1      36.299  29.541  29.769  1.00  0.00     0.014 A 
ATOM     36  C   UNL A   1      38.317  29.789  27.848  1.00  0.00     0.010 A 
ATOM     37  C   UNL A   1      37.593  29.124  30.063  1.00  0.00     0.010 A 
ATOM     38  C   UNL A   1      38.617  29.255  29.111  1.00  0.00    -0.014 A 
BRANCH  38  39
ATOM     39  C   UNL A   1      39.993  28.832  29.477  1.00  0.00     0.031 A 
ATOM     40  C   UNL A   1      40.871  29.760  30.269  1.00  0.00     0.074 A 
ATOM     41  C   UNL A   1      40.489  27.672  29.002  1.00  0.00     0.049 A 
ATOM     42  N   UNL A   1      42.149  29.665  30.536  1.00  0.00    -0.248 NA
ATOM     43  C   UNL A   1      40.233  30.973  30.803  1.00  0.00     0.031 C 
ATOM     44  C   UNL A   1      39.752  26.703  28.188  1.00  0.00     0.029 A 
ATOM     45  N   UNL A   1      41.743  27.123  29.111  1.00  0.00    -0.354 N 
ATOM     46  C   UNL A   1      42.474  30.822  31.230  1.00  0.00     0.074 A 
ATOM     47  C   UNL A   1      41.268  31.615  31.325  1.00  0.00     0.031 C 
ATOM     48  C   UNL A   1      40.566  25.682  27.873  1.00  0.00     0.029 A 
ATOM     49  C   UNL A   1      41.891  25.942  28.426  1.00  0.00     0.049 A 
ATOM     50  H   UNL A   1      42.468  27.538  29.632  1.00  0.00     0.167 HD
ATOM     51  C   UNL A   1      43.670  31.183  31.751  1.00  0.00     0.037 A 
ATOM     52  C   UNL A   1      42.980  25.168  28.244  1.00  0.00     0.037 A 
ATOM     53  C   UNL A   1      44.851  30.364  31.710  1.00  0.00     0.049 A 
ATOM     54  C   UNL A   1      44.290  25.584  28.860  1.00  0.00     0.074 A 
ATOM     55  C   UNL A   1      46.084  30.603  32.292  1.00  0.00     0.029 A 
ATOM     56  N   UNL A   1      44.944  29.146  31.056  1.00  0.00    -0.354 N 
ATOM     57  N   UNL A   1      44.568  26.647  29.574  1.00  0.00    -0.248 NA
ATOM     58  C   UNL A   1      45.438  24.690  28.647  1.00  0.00     0.031 C 
ATOM     59  C   UNL A   1      46.935  29.544  31.960  1.00  0.00     0.029 A 
ATOM     60  C   UNL A   1      46.220  28.629  31.206  1.00  0.00     0.049 A 
ATOM     61  H   UNL A   1      44.214  28.713  30.558  1.00  0.00     0.167 HD
ATOM     62  C   UNL A   1      45.906  26.532  29.924  1.00  0.00     0.074 A 
ATOM     63  C   UNL A   1      46.386  25.294  29.348  1.00  0.00     0.031 C 
ATOM     64  C   UNL A   1      46.670  27.378  30.655  1.00  0.00     0.037 A 
BRANCH  51  65
ATOM     65  C   UNL A   1      43.769  32.519  32.422  1.00  0.00     0.064 A 
ATOM     66  C   UNL A   1      43.493  32.680  33.786  1.00  0.00     0.173 A 
ATOM     67  C   UNL A   1      44.217  33.638  31.703  1.00  0.00     0.173 A 
ATOM     68  F   UNL A   1      43.052  31.642  34.512  1.00  0.00    -0.203 F 
ATOM     69  C   UNL A   1      43.649  33.917  34.406  1.00  0.00     0.198 A 
ATOM     70  C   UNL A   1      44.396  34.867  32.331  1.00  0.00     0.198 A 
ATOM     71  F   UNL A   1      44.499  33.534  30.395  1.00  0.00    -0.203 F 
ATOM     72  F   UNL A   1      43.350  34.055  35.705  1.00  0.00    -0.200 F 
ATOM     73  C   UNL A   1      44.108  35.006  33.681  1.00  0.00     0.200 A 
ATOM     74  F   UNL A   1      44.850  35.916  31.632  1.00  0.00    -0.200 F 
ATOM     75  F   UNL A   1      44.273  36.192  34.283  1.00  0.00    -0.200 F 
ENDBRANCH  51  65
BRANCH  52  76
ATOM     76  C   UNL A   1      42.888  23.917  27.449  1.00  0.00     0.064 A 
ATOM     77  C   UNL A   1      42.516  22.708  28.053  1.00  0.00     0.173 A 
ATOM     78  C   UNL A   1      43.203  23.894  26.082  1.00  0.00     0.173 A 
ATOM     79  F   UNL A   1      42.229  22.675  29.362  1.00  0.00    -0.203 F 
ATOM     80  C   UNL A   1      42.493  21.518  27.329  1.00  0.00     0.198 A 
ATOM     81  C   UNL A   1      43.153  22.708  25.352  1.00  0.00     0.198 A 
ATOM     82  F   UNL A   1      43.562  25.024  25.456  1.00  0.00    -0.203 F 
ATOM     83  F   UNL A   1      42.190  20.368  27.944  1.00  0.00    -0.200 F 
ATOM     84  C   UNL A   1      42.809  21.519  25.978  1.00  0.00     0.200 A 
ATOM     85  F   UNL A   1      43.448  22.715  24.045  1.00  0.00    -0.200 F 
ATOM     86  F   UNL A   1      42.793  20.374  25.283  1.00  0.00    -0.200 F 
ENDBRANCH  52  76
BRANCH  64  87
ATOM     87  C   UNL A   1      48.086  26.972  30.929  1.00  0.00     0.064 A 
ATOM     88  C   UNL A   1      48.416  26.129  31.999  1.00  0.00     0.173 A 
ATOM     89  C   UNL A   1      49.116  27.382  30.069  1.00  0.00     0.173 A 
ATOM     90  F   UNL A   1      47.467  25.723  32.855  1.00  0.00    -0.203 F 
ATOM     91  C   UNL A   1      49.731  25.721  32.207  1.00  0.00     0.198 A 
ATOM     92  C   UNL A   1      50.425  26.954  30.265  1.00  0.00     0.198 A 
ATOM     93  F   UNL A   1      48.849  28.185  29.028  1.00  0.00    -0.203 F 
ATOM     94  F   UNL A   1      50.031  24.942  33.254  1.00  0.00    -0.200 F 
ATOM     95  C   UNL A   1      50.733  26.126  31.336  1.00  0.00     0.200 A 
ATOM     96  F   UNL A   1      51.389  27.335  29.416  1.00  0.00    -0.200 F 
ATOM     97  F   UNL A   1      51.995  25.722  31.530  1.00  0.00    -0.200 F 
ENDBRANCH  64  87
ENDBRANCH  38  39
ENDBRANCH  30  33
ENDBRANCH  28  29
ENDBRANCH  27  28
ENDBRANCH   1  27
TORSDOF 16
ENDMDL
MODEL 2
REMARK VINA RESULT:      -9.7      3.643     10.032
REMARK SMILES O=C(NCCCCNC(=O)c1ccc(-c2c3nc(c(-c4c(F)c(F)c(F)c(F)c4F)c4ccc([nH]4)c(-c4c(F)c(F)c(F)c(F)c4F)c4nc(c(-c5c(F)c(F)c(F)c(F)c5F)c5ccc2[nH]5)C=C4)C=C3)cc1)c1ccc(N[C@H]2OC[C@@H](O)[C@@H](O)[C@H]2O)cc1
REMARK SMILES IDX 5 1 4 2 3 3 1 4 2 5 74 7 75 8 89 9 76 10 88 11 77 12 78 13
REMARK SMILES IDX 79 15 80 16 86 17 81 18 84 19 82 20 87 21 85 23 83 25 6 27
REMARK SMILES IDX 7 28 8 29 9 30 10 32 11 33 12 34 73 35 13 36 72 37 14 38
REMARK SMILES IDX 15 39 16 40 66 41 17 42 71 43 65 44 67 45 18 46 70 47 64 48
REMARK SMILES IDX 63 49 19 51 51 52 31 53 50 54 32 55 35 56 49 57 68 58 33 59
REMARK SMILES IDX 34 60 48 62 69 63 36 64 20 65 21 66 29 67 22 68 23 69 27 70
REMARK SMILES IDX 30 71 24 72 25 73 28 74 26 75 52 76 53 77 61 78 54 79 55 80
REMARK SMILES IDX 59 81 62 82 56 83 57 84 60 85 58 86 37 87 38 88 46 89 39 90
REMARK SMILES IDX 40 91 44 92 47 93 41 94 42 95 45 96 43 97
REMARK H PARENT 3 6 78 14 87 22 85 24 83 26 8 31 67 50 35 61
REMARK Flexibility Score: inf
ROOT
ATOM      1  C   UNL A   1      42.657  23.470  28.532  1.00  0.00     0.023 C 
ENDROOT
BRANCH   1   2
ATOM      2  C   UNL A   1      44.114  23.429  28.981  1.00  0.00     0.116 C 
BRANCH   2   3
ATOM      3  N   UNL A   1      44.979  22.752  28.027  1.00  0.00    -0.352 N 
ATOM      4  O   UNL A   1      46.174  22.507  26.126  1.00  0.00    -0.269 OA
ATOM      5  C   UNL A   1      45.586  23.254  26.901  1.00  0.00     0.251 C 
ATOM      6  H   UNL A   1      45.153  21.801  28.215  1.00  0.00     0.163 HD
BRANCH   5   7
ATOM      7  C   UNL A   1      45.487  24.696  26.610  1.00  0.00     0.039 A 
ATOM      8  C   UNL A   1      44.461  25.197  25.811  1.00  0.00     0.016 A 
ATOM      9  C   UNL A   1      46.453  25.556  27.126  1.00  0.00     0.016 A 
ATOM     10  C   UNL A   1      44.477  26.538  25.422  1.00  0.00     0.026 A 
ATOM     11  C   UNL A   1      46.440  26.903  26.753  1.00  0.00     0.026 A 
ATOM     12  C   UNL A   1      45.484  27.407  25.853  1.00  0.00     0.036 A 
BRANCH  12  13
ATOM     13  N   UNL A   1      45.565  28.739  25.483  1.00  0.00    -0.358 N 
ATOM     14  H   UNL A   1      45.477  28.954  24.525  1.00  0.00     0.163 HD
BRANCH  13  15
ATOM     15  C   UNL A   1      45.770  29.847  26.409  1.00  0.00     0.244 C 
ATOM     16  O   UNL A   1      46.111  31.027  25.678  1.00  0.00    -0.353 OA
ATOM     17  C   UNL A   1      44.429  30.101  27.141  1.00  0.00     0.195 C 
ATOM     18  C   UNL A   1      46.348  32.159  26.525  1.00  0.00     0.197 C 
ATOM     19  C   UNL A   1      44.573  31.308  28.071  1.00  0.00     0.178 C 
ATOM     20  C   UNL A   1      45.088  32.536  27.306  1.00  0.00     0.171 C 
BRANCH  17  21
ATOM     21  O   UNL A   1      43.396  30.373  26.158  1.00  0.00    -0.386 OA
ATOM     22  H   UNL A   1      43.759  30.256  25.267  1.00  0.00     0.211 HD
ENDBRANCH  17  21
BRANCH  19  23
ATOM     23  O   UNL A   1      43.316  31.602  28.687  1.00  0.00    -0.387 OA
ATOM     24  H   UNL A   1      43.463  32.151  29.473  1.00  0.00     0.211 HD
ENDBRANCH  19  23
BRANCH  20  25
ATOM     25  O   UNL A   1      44.083  33.014  26.399  1.00  0.00    -0.388 OA
ATOM     26  H   UNL A   1      43.216  32.981  26.832  1.00  0.00     0.211 HD
ENDBRANCH  20  25
ENDBRANCH  13  15
ENDBRANCH  12  13
ENDBRANCH   5   7
ENDBRANCH   2   3
ENDBRANCH   1   2
BRANCH   1  27
ATOM     27  C   UNL A   1      42.222  22.324  27.622  1.00  0.00     0.023 C 
BRANCH  27  28
ATOM     28  C   UNL A   1      40.855  21.726  27.930  1.00  0.00     0.116 C 
BRANCH  28  29
ATOM     29  N   UNL A   1      39.935  21.771  26.803  1.00  0.00    -0.352 N 
ATOM     30  C   UNL A   1      39.252  22.849  26.291  1.00  0.00     0.251 C 
ATOM     31  H   UNL A   1      39.781  20.913  26.346  1.00  0.00     0.163 HD
ATOM     32  O   UNL A   1      38.434  22.698  25.389  1.00  0.00    -0.269 OA
BRANCH  30  33
ATOM     33  C   UNL A   1      39.480  24.190  26.867  1.00  0.00     0.039 A 
ATOM     34  C   UNL A   1      38.998  24.467  28.148  1.00  0.00     0.014 A 
ATOM     35  C   UNL A   1      40.213  25.149  26.162  1.00  0.00     0.014 A 
ATOM     36  C   UNL A   1      39.328  25.678  28.763  1.00  0.00     0.010 A 
ATOM     37  C   UNL A   1      40.597  26.323  26.802  1.00  0.00     0.010 A 
ATOM     38  C   UNL A   1      40.169  26.594  28.111  1.00  0.00    -0.014 A 
BRANCH  38  39
ATOM     39  C   UNL A   1      40.631  27.841  28.772  1.00  0.00     0.031 A 
ATOM     40  C   UNL A   1      42.037  27.929  29.296  1.00  0.00     0.074 A 
ATOM     41  C   UNL A   1      39.759  28.844  29.001  1.00  0.00     0.049 A 
ATOM     42  N   UNL A   1      42.582  28.845  30.056  1.00  0.00    -0.248 NA
ATOM     43  C   UNL A   1      42.940  26.821  28.947  1.00  0.00     0.031 C 
ATOM     44  C   UNL A   1      38.357  28.863  28.579  1.00  0.00     0.029 A 
ATOM     45  N   UNL A   1      39.917  30.031  29.674  1.00  0.00    -0.354 N 
ATOM     46  C   UNL A   1      43.874  28.403  30.309  1.00  0.00     0.074 A 
ATOM     47  C   UNL A   1      44.026  27.128  29.641  1.00  0.00     0.031 C 
ATOM     48  C   UNL A   1      37.785  30.004  29.002  1.00  0.00     0.029 A 
ATOM     49  C   UNL A   1      38.766  30.775  29.758  1.00  0.00     0.049 A 
ATOM     50  H   UNL A   1      40.776  30.320  30.059  1.00  0.00     0.167 HD
ATOM     51  C   UNL A   1      44.847  29.013  31.024  1.00  0.00     0.037 A 
ATOM     52  C   UNL A   1      38.522  31.938  30.395  1.00  0.00     0.037 A 
ATOM     53  C   UNL A   1      44.713  30.309  31.633  1.00  0.00     0.049 A 
ATOM     54  C   UNL A   1      39.635  32.606  31.160  1.00  0.00     0.074 A 
ATOM     55  C   UNL A   1      45.674  31.051  32.297  1.00  0.00     0.029 A 
ATOM     56  N   UNL A   1      43.547  31.058  31.646  1.00  0.00    -0.354 N 
ATOM     57  N   UNL A   1      40.873  32.211  31.333  1.00  0.00    -0.248 NA
ATOM     58  C   UNL A   1      39.317  33.883  31.817  1.00  0.00     0.031 C 
ATOM     59  C   UNL A   1      45.080  32.235  32.743  1.00  0.00     0.029 A 
ATOM     60  C   UNL A   1      43.760  32.247  32.323  1.00  0.00     0.049 A 
ATOM     61  H   UNL A   1      42.695  30.785  31.237  1.00  0.00     0.167 HD
ATOM     62  C   UNL A   1      41.488  33.204  32.083  1.00  0.00     0.074 A 
ATOM     63  C   UNL A   1      40.490  34.222  32.331  1.00  0.00     0.031 C 
ATOM     64  C   UNL A   1      42.765  33.265  32.529  1.00  0.00     0.037 A 
BRANCH  51  65
ATOM     65  C   UNL A   1      46.153  28.297  31.185  1.00  0.00     0.064 A 
ATOM     66  C   UNL A   1      46.375  27.399  32.239  1.00  0.00     0.173 A 
ATOM     67  C   UNL A   1      47.169  28.457  30.231  1.00  0.00     0.173 A 
ATOM     68  F   UNL A   1      45.438  27.221  33.182  1.00  0.00    -0.203 F 
ATOM     69  C   UNL A   1      47.574  26.697  32.339  1.00  0.00     0.198 A 
ATOM     70  C   UNL A   1      48.355  27.736  30.319  1.00  0.00     0.198 A 
ATOM     71  F   UNL A   1      47.002  29.302  29.201  1.00  0.00    -0.203 F 
ATOM     72  F   UNL A   1      47.777  25.867  33.370  1.00  0.00    -0.200 F 
ATOM     73  C   UNL A   1      48.558  26.859  31.375  1.00  0.00     0.200 A 
ATOM     74  F   UNL A   1      49.301  27.884  29.382  1.00  0.00    -0.200 F 
ATOM     75  F   UNL A   1      49.704  26.170  31.465  1.00  0.00    -0.200 F 
ENDBRANCH  51  65
BRANCH  52  76
ATOM     76  C   UNL A   1      37.172  32.556  30.341  1.00  0.00     0.064 A 
ATOM     77  C   UNL A   1      36.830  33.441  29.309  1.00  0.00     0.173 A 
ATOM     78  C   UNL A   1      36.213  32.307  31.333  1.00  0.00     0.173 A 
ATOM     79  F   UNL A   1      37.723  33.729  28.351  1.00  0.00    -0.203 F 
ATOM     80  C   UNL A   1      35.590  34.077  29.288  1.00  0.00     0.198 A 
ATOM     81  C   UNL A   1      34.963  32.923  31.296  1.00  0.00     0.198 A 
ATOM     82  F   UNL A   1      36.491  31.466  32.340  1.00  0.00    -0.203 F 
ATOM     83  F   UNL A   1      35.310  34.961  28.321  1.00  0.00    -0.200 F 
ATOM     84  C   UNL A   1      34.657  33.815  30.280  1.00  0.00     0.200 A 
ATOM     85  F   UNL A   1      34.060  32.658  32.250  1.00  0.00    -0.200 F 
ATOM     86  F   UNL A   1      33.467  34.432  30.263  1.00  0.00    -0.200 F 
ENDBRANCH  52  76
BRANCH  64  87
ATOM     87  C   UNL A   1      43.179  34.495  33.278  1.00  0.00     0.064 A 
ATOM     88  C   UNL A   1      43.561  35.668  32.612  1.00  0.00     0.173 A 
ATOM     89  C   UNL A   1      43.132  34.516  34.680  1.00  0.00     0.173 A 
ATOM     90  F   UNL A   1      43.635  35.690  31.273  1.00  0.00    -0.203 F 
ATOM     91  C   UNL A   1      43.894  36.817  33.325  1.00  0.00     0.198 A 
ATOM     92  C   UNL A   1      43.441  35.673  35.389  1.00  0.00     0.198 A 
ATOM     93  F   UNL A   1      42.767  33.420  35.362  1.00  0.00    -0.203 F 
ATOM     94  F   UNL A   1      44.287  37.917  32.672  1.00  0.00    -0.200 F 
ATOM     95  C   UNL A   1      43.826  36.821  34.711  1.00  0.00     0.200 A 
ATOM     96  F   UNL A   1      43.363  35.680  36.726  1.00  0.00    -0.200 F 
ATOM     97  F   UNL A   1      44.134  37.932  35.395  1.00  0.00    -0.200 F 
ENDBRANCH  64  87
ENDBRANCH  38  39
ENDBRANCH  30  33
ENDBRANCH  28  29
ENDBRANCH  27  28
ENDBRANCH   1  27
TORSDOF 16
ENDMDL
MODEL 3
REMARK VINA RESULT:      -9.7      4.463     12.549
REMARK SMILES O=C(NCCCCNC(=O)c1ccc(-c2c3nc(c(-c4c(F)c(F)c(F)c(F)c4F)c4ccc([nH]4)c(-c4c(F)c(F)c(F)c(F)c4F)c4nc(c(-c5c(F)c(F)c(F)c(F)c5F)c5ccc2[nH]5)C=C4)C=C3)cc1)c1ccc(N[C@H]2OC[C@@H](O)[C@@H](O)[C@H]2O)cc1
REMARK SMILES IDX 5 1 4 2 3 3 1 4 2 5 74 7 75 8 89 9 76 10 88 11 77 12 78 13
REMARK SMILES IDX 79 15 80 16 86 17 81 18 84 19 82 20 87 21 85 23 83 25 6 27
REMARK SMILES IDX 7 28 8 29 9 30 10 32 11 33 12 34 73 35 13 36 72 37 14 38
REMARK SMILES IDX 15 39 16 40 66 41 17 42 71 43 65 44 67 45 18 46 70 47 64 48
REMARK SMILES IDX 63 49 19 51 51 52 31 53 50 54 32 55 35 56 49 57 68 58 33 59
REMARK SMILES IDX 34 60 48 62 69 63 36 64 20 65 21 66 29 67 22 68 23 69 27 70
REMARK SMILES IDX 30 71 24 72 25 73 28 74 26 75 52 76 53 77 61 78 54 79 55 80
REMARK SMILES IDX 59 81 62 82 56 83 57 84 60 85 58 86 37 87 38 88 46 89 39 90
REMARK SMILES IDX 40 91 44 92 47 93 41 94 42 95 45 96 43 97
REMARK H PARENT 3 6 78 14 87 22 85 24 83 26 8 31 67 50 35 61
REMARK Flexibility Score: inf
ROOT
ATOM      1  C   UNL A   1      47.706  25.948  31.463  1.00  0.00     0.023 C 
ENDROOT
BRANCH   1   2
ATOM      2  C   UNL A   1      48.052  25.858  29.980  1.00  0.00     0.116 C 
BRANCH   2   3
ATOM      3  N   UNL A   1      47.724  27.072  29.250  1.00  0.00    -0.352 N 
ATOM      4  O   UNL A   1      47.151  28.319  27.455  1.00  0.00    -0.269 OA
ATOM      5  C   UNL A   1      47.243  27.209  27.970  1.00  0.00     0.251 C 
ATOM      6  H   UNL A   1      47.868  27.913  29.741  1.00  0.00     0.163 HD
BRANCH   5   7
ATOM      7  C   UNL A   1      46.874  26.004  27.205  1.00  0.00     0.039 A 
ATOM      8  C   UNL A   1      46.107  24.994  27.785  1.00  0.00     0.016 A 
ATOM      9  C   UNL A   1      47.326  25.872  25.895  1.00  0.00     0.016 A 
ATOM     10  C   UNL A   1      45.904  23.797  27.096  1.00  0.00     0.026 A 
ATOM     11  C   UNL A   1      47.089  24.679  25.206  1.00  0.00     0.026 A 
ATOM     12  C   UNL A   1      46.420  23.601  25.812  1.00  0.00     0.036 A 
BRANCH  12  13
ATOM     13  N   UNL A   1      46.270  22.428  25.090  1.00  0.00    -0.358 N 
ATOM     14  H   UNL A   1      46.707  22.374  24.209  1.00  0.00     0.163 HD
BRANCH  13  15
ATOM     15  C   UNL A   1      45.511  21.267  25.541  1.00  0.00     0.244 C 
ATOM     16  O   UNL A   1      44.310  21.151  24.776  1.00  0.00    -0.353 OA
ATOM     17  C   UNL A   1      46.377  20.010  25.280  1.00  0.00     0.195 C 
ATOM     18  C   UNL A   1      43.498  20.040  25.175  1.00  0.00     0.197 C 
ATOM     19  C   UNL A   1      45.590  18.755  25.667  1.00  0.00     0.178 C 
ATOM     20  C   UNL A   1      44.230  18.714  24.954  1.00  0.00     0.171 C 
BRANCH  17  21
ATOM     21  O   UNL A   1      46.711  19.949  23.868  1.00  0.00    -0.386 OA
ATOM     22  H   UNL A   1      46.991  19.049  23.641  1.00  0.00     0.211 HD
ENDBRANCH  17  21
BRANCH  19  23
ATOM     23  O   UNL A   1      46.349  17.586  25.349  1.00  0.00    -0.387 OA
ATOM     24  H   UNL A   1      45.780  16.947  24.891  1.00  0.00     0.211 HD
ENDBRANCH  19  23
BRANCH  20  25
ATOM     25  O   UNL A   1      44.413  18.493  23.547  1.00  0.00    -0.388 OA
ATOM     26  H   UNL A   1      43.653  18.851  23.063  1.00  0.00     0.211 HD
ENDBRANCH  20  25
ENDBRANCH  13  15
ENDBRANCH  12  13
ENDBRANCH   5   7
ENDBRANCH   2   3
ENDBRANCH   1   2
BRANCH   1  27
ATOM     27  C   UNL A   1      48.803  25.481  32.418  1.00  0.00     0.023 C 
BRANCH  27  28
ATOM     28  C   UNL A   1      48.337  24.597  33.568  1.00  0.00     0.116 C 
BRANCH  28  29
ATOM     29  N   UNL A   1      48.732  25.094  34.878  1.00  0.00    -0.352 N 
ATOM     30  C   UNL A   1      48.124  26.051  35.656  1.00  0.00     0.251 C 
ATOM     31  H   UNL A   1      49.544  24.689  35.259  1.00  0.00     0.163 HD
ATOM     32  O   UNL A   1      48.642  26.427  36.702  1.00  0.00    -0.269 OA
BRANCH  30  33
ATOM     33  C   UNL A   1      46.857  26.657  35.199  1.00  0.00     0.039 A 
ATOM     34  C   UNL A   1      46.893  27.900  34.561  1.00  0.00     0.014 A 
ATOM     35  C   UNL A   1      45.647  25.975  35.354  1.00  0.00     0.014 A 
ATOM     36  C   UNL A   1      45.725  28.420  33.996  1.00  0.00     0.010 A 
ATOM     37  C   UNL A   1      44.502  26.462  34.733  1.00  0.00     0.010 A 
ATOM     38  C   UNL A   1      44.532  27.682  34.037  1.00  0.00    -0.014 A 
BRANCH  38  39
ATOM     39  C   UNL A   1      43.297  28.148  33.357  1.00  0.00     0.031 A 
ATOM     40  C   UNL A   1      43.060  27.788  31.917  1.00  0.00     0.074 A 
ATOM     41  C   UNL A   1      42.453  28.985  33.993  1.00  0.00     0.049 A 
ATOM     42  N   UNL A   1      42.150  28.236  31.089  1.00  0.00    -0.248 NA
ATOM     43  C   UNL A   1      43.992  26.820  31.318  1.00  0.00     0.031 C 
ATOM     44  C   UNL A   1      42.593  29.442  35.377  1.00  0.00     0.029 A 
ATOM     45  N   UNL A   1      41.322  29.625  33.548  1.00  0.00    -0.354 N 
ATOM     46  C   UNL A   1      42.426  27.638  29.867  1.00  0.00     0.074 A 
ATOM     47  C   UNL A   1      43.600  26.813  30.052  1.00  0.00     0.031 C 
ATOM     48  C   UNL A   1      41.589  30.287  35.666  1.00  0.00     0.029 A 
ATOM     49  C   UNL A   1      40.758  30.462  34.479  1.00  0.00     0.049 A 
ATOM     50  H   UNL A   1      40.950  29.494  32.645  1.00  0.00     0.167 HD
ATOM     51  C   UNL A   1      41.752  27.760  28.700  1.00  0.00     0.037 A 
ATOM     52  C   UNL A   1      39.705  31.297  34.379  1.00  0.00     0.037 A 
ATOM     53  C   UNL A   1      40.549  28.530  28.535  1.00  0.00     0.049 A 
ATOM     54  C   UNL A   1      38.959  31.388  33.073  1.00  0.00     0.074 A 
ATOM     55  C   UNL A   1      39.743  28.638  27.416  1.00  0.00     0.029 A 
ATOM     56  N   UNL A   1      39.977  29.319  29.520  1.00  0.00    -0.354 N 
ATOM     57  N   UNL A   1      39.189  30.764  31.944  1.00  0.00    -0.248 NA
ATOM     58  C   UNL A   1      37.805  32.299  33.029  1.00  0.00     0.031 C 
ATOM     59  C   UNL A   1      38.700  29.521  27.713  1.00  0.00     0.029 A 
ATOM     60  C   UNL A   1      38.836  29.931  29.028  1.00  0.00     0.049 A 
ATOM     61  H   UNL A   1      40.329  29.430  30.432  1.00  0.00     0.167 HD
ATOM     62  C   UNL A   1      38.192  31.177  31.071  1.00  0.00     0.074 A 
ATOM     63  C   UNL A   1      37.352  32.102  31.799  1.00  0.00     0.031 C 
ATOM     64  C   UNL A   1      37.992  30.822  29.779  1.00  0.00     0.037 A 
BRANCH  51  65
ATOM     65  C   UNL A   1      42.288  27.037  27.502  1.00  0.00     0.064 A 
ATOM     66  C   UNL A   1      43.247  27.617  26.660  1.00  0.00     0.173 A 
ATOM     67  C   UNL A   1      41.890  25.718  27.236  1.00  0.00     0.173 A 
ATOM     68  F   UNL A   1      43.651  28.880  26.868  1.00  0.00    -0.203 F 
ATOM     69  C   UNL A   1      43.779  26.908  25.586  1.00  0.00     0.198 A 
ATOM     70  C   UNL A   1      42.441  25.003  26.177  1.00  0.00     0.198 A 
ATOM     71  F   UNL A   1      40.978  25.117  28.016  1.00  0.00    -0.203 F 
ATOM     72  F   UNL A   1      44.672  27.493  24.777  1.00  0.00    -0.200 F 
ATOM     73  C   UNL A   1      43.382  25.600  25.351  1.00  0.00     0.200 A 
ATOM     74  F   UNL A   1      42.065  23.736  25.957  1.00  0.00    -0.200 F 
ATOM     75  F   UNL A   1      43.907  24.914  24.327  1.00  0.00    -0.200 F 
ENDBRANCH  51  65
BRANCH  52  76
ATOM     76  C   UNL A   1      39.281  32.115  35.544  1.00  0.00     0.064 A 
ATOM     77  C   UNL A   1      39.745  33.428  35.706  1.00  0.00     0.173 A 
ATOM     78  C   UNL A   1      38.437  31.594  36.536  1.00  0.00     0.173 A 
ATOM     79  F   UNL A   1      40.573  33.961  34.796  1.00  0.00    -0.203 F 
ATOM     80  C   UNL A   1      39.405  34.178  36.830  1.00  0.00     0.198 A 
ATOM     81  C   UNL A   1      38.076  32.355  37.646  1.00  0.00     0.198 A 
ATOM     82  F   UNL A   1      37.964  30.344  36.426  1.00  0.00    -0.203 F 
ATOM     83  F   UNL A   1      39.909  35.409  36.987  1.00  0.00    -0.200 F 
ATOM     84  C   UNL A   1      38.569  33.642  37.797  1.00  0.00     0.200 A 
ATOM     85  F   UNL A   1      37.258  31.837  38.573  1.00  0.00    -0.200 F 
ATOM     86  F   UNL A   1      38.248  34.361  38.882  1.00  0.00    -0.200 F 
ENDBRANCH  52  76
BRANCH  64  87
ATOM     87  C   UNL A   1      36.790  31.384  29.085  1.00  0.00     0.064 A 
ATOM     88  C   UNL A   1      35.663  30.597  28.810  1.00  0.00     0.173 A 
ATOM     89  C   UNL A   1      36.742  32.745  28.747  1.00  0.00     0.173 A 
ATOM     90  F   UNL A   1      35.668  29.287  29.101  1.00  0.00    -0.203 F 
ATOM     91  C   UNL A   1      34.535  31.149  28.209  1.00  0.00     0.198 A 
ATOM     92  C   UNL A   1      35.605  33.300  28.169  1.00  0.00     0.198 A 
ATOM     93  F   UNL A   1      37.794  33.541  28.995  1.00  0.00    -0.203 F 
ATOM     94  F   UNL A   1      33.482  30.373  27.926  1.00  0.00    -0.200 F 
ATOM     95  C   UNL A   1      34.503  32.501  27.898  1.00  0.00     0.200 A 
ATOM     96  F   UNL A   1      35.570  34.608  27.880  1.00  0.00    -0.200 F 
ATOM     97  F   UNL A   1      33.412  33.034  27.331  1.00  0.00    -0.200 F 
ENDBRANCH  64  87
ENDBRANCH  38  39
ENDBRANCH  30  33
ENDBRANCH  28  29
ENDBRANCH  27  28
ENDBRANCH   1  27
TORSDOF 16
ENDMDL
