MODEL 1
REMARK VINA RESULT:     -12.5      0.000      0.000
REMARK SMILES CN(CC(=O)NCCCCNC(=O)c1ccc(-c2c3nc(c(-c4c(F)c(F)c(F)c(F)c4F)c4ccc([nH]4)c(-c4c(F)c(F)c(F)c(F)c4F)c4nc(c(-c5c(F)c(F)c(F)c(F)c5F)c5ccc2[nH]5)C=C4)C=C3)cc1)c1ncc(-c2nnnn2-c2ccccc2)c(-c2ccc(Cl)cc2)n1
REMARK SMILES IDX 7 1 6 2 4 3 5 4 3 6 2 7 1 8 77 9 78 10 100 11 79 12 92 13
REMARK SMILES IDX 80 14 93 15 94 16 99 17 95 18 98 19 96 20 97 21 81 22 82 23
REMARK SMILES IDX 85 24 83 25 84 26 86 27 87 28 91 29 88 30 90 31 89 32 8 33
REMARK SMILES IDX 9 34 10 35 11 36 12 37 13 39 14 40 15 41 76 42 16 43 75 44
REMARK SMILES IDX 17 45 18 46 19 47 69 48 20 49 74 50 68 51 70 52 21 53 73 54
REMARK SMILES IDX 67 55 66 56 22 58 54 59 34 60 53 61 35 62 38 63 52 64 71 65
REMARK SMILES IDX 36 66 37 67 51 69 72 70 39 71 23 72 24 73 32 74 25 75 26 76
REMARK SMILES IDX 30 77 33 78 27 79 28 80 31 81 29 82 55 83 56 84 64 85 57 86
REMARK SMILES IDX 58 87 62 88 65 89 59 90 60 91 63 92 61 93 40 94 41 95 49 96
REMARK SMILES IDX 42 97 43 98 47 99 50 100 44 101 45 102 48 103 46 104
REMARK H PARENT 6 5 11 38 70 57 38 68
REMARK Flexibility Score: inf
ROOT
ATOM      1  C   UNL A   1      40.218  22.180  26.372  1.00  0.00     0.116 C 
ENDROOT
BRANCH   1   2
ATOM      2  N   UNL A   1      39.163  21.288  25.944  1.00  0.00    -0.355 N 
ATOM      3  C   UNL A   1      37.875  21.600  25.601  1.00  0.00     0.239 C 
ATOM      4  O   UNL A   1      37.142  20.680  25.227  1.00  0.00    -0.273 OA
ATOM      5  H   UNL A   1      39.402  20.336  25.892  1.00  0.00     0.163 HD
BRANCH   3   6
ATOM      6  C   UNL A   1      37.419  23.065  25.555  1.00  0.00     0.219 C 
BRANCH   6   7
ATOM      7  N   UNL A   1      36.569  23.417  24.416  1.00  0.00    -0.335 N 
ATOM      8  C   UNL A   1      36.923  22.993  23.080  1.00  0.00     0.147 C 
BRANCH   7   9
ATOM      9  C   UNL A   1      35.244  23.691  24.669  1.00  0.00     0.226 A 
ATOM     10  N   UNL A   1      34.355  22.712  24.493  1.00  0.00    -0.221 NA
ATOM     11  N   UNL A   1      34.897  24.901  25.137  1.00  0.00    -0.212 NA
ATOM     12  C   UNL A   1      33.090  22.944  24.879  1.00  0.00     0.129 A 
ATOM     13  C   UNL A   1      33.599  25.137  25.463  1.00  0.00     0.087 A 
ATOM     14  C   UNL A   1      32.648  24.134  25.420  1.00  0.00     0.066 A 
BRANCH  13  15
ATOM     15  C   UNL A   1      33.324  26.536  25.837  1.00  0.00     0.001 A 
ATOM     16  C   UNL A   1      33.682  27.572  24.954  1.00  0.00     0.012 A 
ATOM     17  C   UNL A   1      32.718  26.891  27.053  1.00  0.00     0.012 A 
ATOM     18  C   UNL A   1      33.432  28.912  25.265  1.00  0.00     0.021 A 
ATOM     19  C   UNL A   1      32.468  28.232  27.370  1.00  0.00     0.021 A 
ATOM     20  C   UNL A   1      32.824  29.236  26.474  1.00  0.00     0.041 A 
ATOM     21  Cl  UNL A   1      32.519  30.881  26.867  1.00  0.00    -0.084 Cl
ENDBRANCH  13  15
BRANCH  14  22
ATOM     22  C   UNL A   1      31.285  24.242  25.901  1.00  0.00     0.190 A 
ATOM     23  N   UNL A   1      30.748  23.575  26.903  1.00  0.00    -0.108 NA
ATOM     24  N   UNL A   1      30.385  25.228  25.511  1.00  0.00    -0.193 N 
ATOM     25  N   UNL A   1      29.574  24.215  27.205  1.00  0.00    -0.023 NA
ATOM     26  N   UNL A   1      29.384  25.263  26.418  1.00  0.00    -0.040 NA
BRANCH  24  27
ATOM     27  C   UNL A   1      30.425  26.109  24.403  1.00  0.00     0.069 A 
ATOM     28  C   UNL A   1      29.962  27.422  24.552  1.00  0.00     0.028 A 
ATOM     29  C   UNL A   1      30.914  25.682  23.160  1.00  0.00     0.028 A 
ATOM     30  C   UNL A   1      30.033  28.308  23.475  1.00  0.00     0.002 A 
ATOM     31  C   UNL A   1      30.940  26.563  22.078  1.00  0.00     0.002 A 
ATOM     32  C   UNL A   1      30.513  27.878  22.239  1.00  0.00     0.000 A 
ENDBRANCH  24  27
ENDBRANCH  14  22
ENDBRANCH   7   9
ENDBRANCH   6   7
ENDBRANCH   3   6
ENDBRANCH   1   2
BRANCH   1  33
ATOM     33  C   UNL A   1      41.549  21.452  26.553  1.00  0.00     0.023 C 
BRANCH  33  34
ATOM     34  C   UNL A   1      41.574  20.027  25.996  1.00  0.00     0.023 C 
BRANCH  34  35
ATOM     35  C   UNL A   1      42.805  19.207  26.366  1.00  0.00     0.116 C 
BRANCH  35  36
ATOM     36  N   UNL A   1      43.584  18.794  25.208  1.00  0.00    -0.352 N 
ATOM     37  C   UNL A   1      44.436  19.539  24.431  1.00  0.00     0.251 C 
ATOM     38  H   UNL A   1      43.487  17.850  24.946  1.00  0.00     0.163 HD
ATOM     39  O   UNL A   1      44.917  19.063  23.406  1.00  0.00    -0.269 OA
BRANCH  37  40
ATOM     40  C   UNL A   1      44.745  20.935  24.811  1.00  0.00     0.039 A 
ATOM     41  C   UNL A   1      44.348  21.969  23.960  1.00  0.00     0.014 A 
ATOM     42  C   UNL A   1      45.404  21.223  26.010  1.00  0.00     0.014 A 
ATOM     43  C   UNL A   1      44.550  23.296  24.344  1.00  0.00     0.010 A 
ATOM     44  C   UNL A   1      45.535  22.546  26.425  1.00  0.00     0.010 A 
ATOM     45  C   UNL A   1      45.110  23.596  25.597  1.00  0.00    -0.014 A 
BRANCH  45  46
ATOM     46  C   UNL A   1      45.259  25.001  26.057  1.00  0.00     0.031 A 
ATOM     47  C   UNL A   1      46.602  25.675  25.995  1.00  0.00     0.074 A 
ATOM     48  C   UNL A   1      44.201  25.651  26.579  1.00  0.00     0.049 A 
ATOM     49  N   UNL A   1      46.953  26.866  26.413  1.00  0.00    -0.248 NA
ATOM     50  C   UNL A   1      47.705  24.899  25.406  1.00  0.00     0.031 C 
ATOM     51  C   UNL A   1      42.854  25.097  26.726  1.00  0.00     0.029 A 
ATOM     52  N   UNL A   1      44.092  26.922  27.090  1.00  0.00    -0.354 N 
ATOM     53  C   UNL A   1      48.309  26.979  26.138  1.00  0.00     0.074 A 
ATOM     54  C   UNL A   1      48.735  25.714  25.580  1.00  0.00     0.031 C 
ATOM     55  C   UNL A   1      42.050  26.029  27.264  1.00  0.00     0.029 A 
ATOM     56  C   UNL A   1      42.832  27.230  27.540  1.00  0.00     0.049 A 
ATOM     57  H   UNL A   1      44.848  27.552  27.130  1.00  0.00     0.167 HD
ATOM     58  C   UNL A   1      49.120  28.050  26.306  1.00  0.00     0.037 A 
ATOM     59  C   UNL A   1      42.362  28.352  28.118  1.00  0.00     0.037 A 
ATOM     60  C   UNL A   1      48.693  29.312  26.851  1.00  0.00     0.049 A 
ATOM     61  C   UNL A   1      43.300  29.512  28.335  1.00  0.00     0.074 A 
ATOM     62  C   UNL A   1      49.435  30.465  27.043  1.00  0.00     0.029 A 
ATOM     63  N   UNL A   1      47.407  29.587  27.292  1.00  0.00    -0.354 N 
ATOM     64  N   UNL A   1      44.568  29.624  28.021  1.00  0.00    -0.248 NA
ATOM     65  C   UNL A   1      42.737  30.705  28.984  1.00  0.00     0.031 C 
ATOM     66  C   UNL A   1      48.609  31.423  27.639  1.00  0.00     0.029 A 
ATOM     67  C   UNL A   1      47.338  30.886  27.768  1.00  0.00     0.049 A 
ATOM     68  H   UNL A   1      46.655  28.952  27.271  1.00  0.00     0.167 HD
ATOM     69  C   UNL A   1      44.941  30.910  28.393  1.00  0.00     0.074 A 
ATOM     70  C   UNL A   1      43.762  31.543  28.944  1.00  0.00     0.031 C 
ATOM     71  C   UNL A   1      46.151  31.511  28.289  1.00  0.00     0.037 A 
BRANCH  58  72
ATOM     72  C   UNL A   1      50.552  27.911  25.876  1.00  0.00     0.064 A 
ATOM     73  C   UNL A   1      50.926  28.032  24.527  1.00  0.00     0.173 A 
ATOM     74  C   UNL A   1      51.568  27.698  26.820  1.00  0.00     0.173 A 
ATOM     75  F   UNL A   1      49.992  28.224  23.583  1.00  0.00    -0.203 F 
ATOM     76  C   UNL A   1      52.258  27.922  24.139  1.00  0.00     0.198 A 
ATOM     77  C   UNL A   1      52.903  27.620  26.431  1.00  0.00     0.198 A 
ATOM     78  F   UNL A   1      51.268  27.580  28.122  1.00  0.00    -0.203 F 
ATOM     79  F   UNL A   1      52.583  27.994  22.841  1.00  0.00    -0.200 F 
ATOM     80  C   UNL A   1      53.246  27.725  25.091  1.00  0.00     0.200 A 
ATOM     81  F   UNL A   1      53.859  27.445  27.354  1.00  0.00    -0.200 F 
ATOM     82  F   UNL A   1      54.529  27.629  24.717  1.00  0.00    -0.200 F 
ENDBRANCH  58  72
BRANCH  59  83
ATOM     83  C   UNL A   1      40.934  28.455  28.522  1.00  0.00     0.064 A 
ATOM     84  C   UNL A   1      39.972  28.966  27.638  1.00  0.00     0.173 A 
ATOM     85  C   UNL A   1      40.507  28.088  29.806  1.00  0.00     0.173 A 
ATOM     86  F   UNL A   1      40.334  29.350  26.405  1.00  0.00    -0.203 F 
ATOM     87  C   UNL A   1      38.649  29.143  28.035  1.00  0.00     0.198 A 
ATOM     88  C   UNL A   1      39.175  28.233  30.191  1.00  0.00     0.198 A 
ATOM     89  F   UNL A   1      41.383  27.587  30.690  1.00  0.00    -0.203 F 
ATOM     90  F   UNL A   1      37.767  29.696  27.192  1.00  0.00    -0.200 F 
ATOM     91  C   UNL A   1      38.250  28.773  29.310  1.00  0.00     0.200 A 
ATOM     92  F   UNL A   1      38.790  27.859  31.419  1.00  0.00    -0.200 F 
ATOM     93  F   UNL A   1      36.979  28.949  29.694  1.00  0.00    -0.200 F 
ENDBRANCH  59  83
BRANCH  71  94
ATOM     94  C   UNL A   1      46.248  32.945  28.725  1.00  0.00     0.064 A 
ATOM     95  C   UNL A   1      46.008  34.007  27.840  1.00  0.00     0.173 A 
ATOM     96  C   UNL A   1      46.551  33.258  30.060  1.00  0.00     0.173 A 
ATOM     97  F   UNL A   1      45.730  33.761  26.551  1.00  0.00    -0.203 F 
ATOM     98  C   UNL A   1      46.099  35.329  28.269  1.00  0.00     0.198 A 
ATOM     99  C   UNL A   1      46.607  34.581  30.492  1.00  0.00     0.198 A 
ATOM    100  F   UNL A   1      46.781  32.280  30.949  1.00  0.00    -0.203 F 
ATOM    101  F   UNL A   1      45.922  36.328  27.392  1.00  0.00    -0.200 F 
ATOM    102  C   UNL A   1      46.391  35.614  29.594  1.00  0.00     0.200 A 
ATOM    103  F   UNL A   1      46.873  34.853  31.776  1.00  0.00    -0.200 F 
ATOM    104  F   UNL A   1      46.471  36.888  30.005  1.00  0.00    -0.200 F 
ENDBRANCH  71  94
ENDBRANCH  45  46
ENDBRANCH  37  40
ENDBRANCH  35  36
ENDBRANCH  34  35
ENDBRANCH  33  34
ENDBRANCH   1  33
TORSDOF 16
ENDMDL
MODEL 2
REMARK VINA RESULT:     -12.4      3.451      5.801
REMARK SMILES CN(CC(=O)NCCCCNC(=O)c1ccc(-c2c3nc(c(-c4c(F)c(F)c(F)c(F)c4F)c4ccc([nH]4)c(-c4c(F)c(F)c(F)c(F)c4F)c4nc(c(-c5c(F)c(F)c(F)c(F)c5F)c5ccc2[nH]5)C=C4)C=C3)cc1)c1ncc(-c2nnnn2-c2ccccc2)c(-c2ccc(Cl)cc2)n1
REMARK SMILES IDX 7 1 6 2 4 3 5 4 3 6 2 7 1 8 77 9 78 10 100 11 79 12 92 13
REMARK SMILES IDX 80 14 93 15 94 16 99 17 95 18 98 19 96 20 97 21 81 22 82 23
REMARK SMILES IDX 85 24 83 25 84 26 86 27 87 28 91 29 88 30 90 31 89 32 8 33
REMARK SMILES IDX 9 34 10 35 11 36 12 37 13 39 14 40 15 41 76 42 16 43 75 44
REMARK SMILES IDX 17 45 18 46 19 47 69 48 20 49 74 50 68 51 70 52 21 53 73 54
REMARK SMILES IDX 67 55 66 56 22 58 54 59 34 60 53 61 35 62 38 63 52 64 71 65
REMARK SMILES IDX 36 66 37 67 51 69 72 70 39 71 23 72 24 73 32 74 25 75 26 76
REMARK SMILES IDX 30 77 33 78 27 79 28 80 31 81 29 82 55 83 56 84 64 85 57 86
REMARK SMILES IDX 58 87 62 88 65 89 59 90 60 91 63 92 61 93 40 94 41 95 49 96
REMARK SMILES IDX 42 97 43 98 47 99 50 100 44 101 45 102 48 103 46 104
REMARK H PARENT 6 5 11 38 70 57 38 68
REMARK Flexibility Score: inf
ROOT
ATOM      1  C   UNL A   1      34.783  20.588  25.035  1.00  0.00     0.116 C 
ENDROOT
BRANCH   1   2
ATOM      2  N   UNL A   1      34.453  21.106  26.345  1.00  0.00    -0.355 N 
ATOM      3  C   UNL A   1      33.246  21.568  26.795  1.00  0.00     0.239 C 
ATOM      4  O   UNL A   1      33.175  21.935  27.972  1.00  0.00    -0.273 OA
ATOM      5  H   UNL A   1      35.191  21.129  26.994  1.00  0.00     0.163 HD
BRANCH   3   6
ATOM      6  C   UNL A   1      32.003  21.491  25.897  1.00  0.00     0.219 C 
BRANCH   6   7
ATOM      7  N   UNL A   1      31.167  22.692  25.888  1.00  0.00    -0.335 N 
ATOM      8  C   UNL A   1      30.080  22.835  26.831  1.00  0.00     0.147 C 
BRANCH   7   9
ATOM      9  C   UNL A   1      31.706  23.842  25.357  1.00  0.00     0.226 A 
ATOM     10  N   UNL A   1      33.031  23.989  25.394  1.00  0.00    -0.221 NA
ATOM     11  N   UNL A   1      30.899  24.741  24.770  1.00  0.00    -0.212 NA
ATOM     12  C   UNL A   1      33.558  25.042  24.746  1.00  0.00     0.129 A 
ATOM     13  C   UNL A   1      31.447  25.831  24.174  1.00  0.00     0.087 A 
ATOM     14  C   UNL A   1      32.817  25.989  24.070  1.00  0.00     0.066 A 
BRANCH  13  15
ATOM     15  C   UNL A   1      30.454  26.805  23.684  1.00  0.00     0.001 A 
ATOM     16  C   UNL A   1      29.109  26.683  24.085  1.00  0.00     0.012 A 
ATOM     17  C   UNL A   1      30.787  27.860  22.819  1.00  0.00     0.012 A 
ATOM     18  C   UNL A   1      28.137  27.589  23.651  1.00  0.00     0.021 A 
ATOM     19  C   UNL A   1      29.815  28.767  22.381  1.00  0.00     0.021 A 
ATOM     20  C   UNL A   1      28.495  28.629  22.800  1.00  0.00     0.041 A 
ATOM     21  Cl  UNL A   1      27.304  29.743  22.257  1.00  0.00    -0.084 Cl
ENDBRANCH  13  15
BRANCH  14  22
ATOM     22  C   UNL A   1      33.493  27.025  23.315  1.00  0.00     0.190 A 
ATOM     23  N   UNL A   1      33.876  26.961  22.056  1.00  0.00    -0.108 NA
ATOM     24  N   UNL A   1      33.656  28.338  23.747  1.00  0.00    -0.193 N 
ATOM     25  N   UNL A   1      34.167  28.245  21.676  1.00  0.00    -0.023 NA
ATOM     26  N   UNL A   1      33.962  29.096  22.672  1.00  0.00    -0.040 NA
BRANCH  24  27
ATOM     27  C   UNL A   1      33.524  28.892  25.043  1.00  0.00     0.069 A 
ATOM     28  C   UNL A   1      32.454  29.754  25.315  1.00  0.00     0.028 A 
ATOM     29  C   UNL A   1      34.452  28.596  26.052  1.00  0.00     0.028 A 
ATOM     30  C   UNL A   1      32.295  30.275  26.601  1.00  0.00     0.002 A 
ATOM     31  C   UNL A   1      34.308  29.157  27.322  1.00  0.00     0.002 A 
ATOM     32  C   UNL A   1      33.223  29.984  27.600  1.00  0.00     0.000 A 
ENDBRANCH  24  27
ENDBRANCH  14  22
ENDBRANCH   7   9
ENDBRANCH   6   7
ENDBRANCH   3   6
ENDBRANCH   1   2
BRANCH   1  33
ATOM     33  C   UNL A   1      36.127  21.111  24.531  1.00  0.00     0.023 C 
BRANCH  33  34
ATOM     34  C   UNL A   1      36.192  22.631  24.359  1.00  0.00     0.023 C 
BRANCH  34  35
ATOM     35  C   UNL A   1      37.298  23.326  25.146  1.00  0.00     0.116 C 
BRANCH  35  36
ATOM     36  N   UNL A   1      38.293  22.403  25.670  1.00  0.00    -0.352 N 
ATOM     37  C   UNL A   1      39.408  22.672  26.425  1.00  0.00     0.251 C 
ATOM     38  H   UNL A   1      38.145  21.453  25.454  1.00  0.00     0.163 HD
ATOM     39  O   UNL A   1      40.216  21.782  26.675  1.00  0.00    -0.269 OA
BRANCH  37  40
ATOM     40  C   UNL A   1      39.654  24.049  26.904  1.00  0.00     0.039 A 
ATOM     41  C   UNL A   1      39.313  24.376  28.219  1.00  0.00     0.014 A 
ATOM     42  C   UNL A   1      40.237  25.007  26.070  1.00  0.00     0.014 A 
ATOM     43  C   UNL A   1      39.619  25.643  28.718  1.00  0.00     0.010 A 
ATOM     44  C   UNL A   1      40.610  26.243  26.591  1.00  0.00     0.010 A 
ATOM     45  C   UNL A   1      40.306  26.574  27.921  1.00  0.00    -0.014 A 
BRANCH  45  46
ATOM     46  C   UNL A   1      40.712  27.898  28.459  1.00  0.00     0.031 A 
ATOM     47  C   UNL A   1      42.153  28.163  28.800  1.00  0.00     0.074 A 
ATOM     48  C   UNL A   1      39.779  28.842  28.690  1.00  0.00     0.049 A 
ATOM     49  N   UNL A   1      42.695  29.223  29.345  1.00  0.00    -0.248 NA
ATOM     50  C   UNL A   1      43.110  27.083  28.512  1.00  0.00     0.031 C 
ATOM     51  C   UNL A   1      38.345  28.696  28.434  1.00  0.00     0.029 A 
ATOM     52  N   UNL A   1      39.896  30.112  29.200  1.00  0.00    -0.354 N 
ATOM     53  C   UNL A   1      44.048  28.938  29.464  1.00  0.00     0.074 A 
ATOM     54  C   UNL A   1      44.237  27.582  28.998  1.00  0.00     0.031 C 
ATOM     55  C   UNL A   1      37.721  29.839  28.763  1.00  0.00     0.029 A 
ATOM     56  C   UNL A   1      38.700  30.782  29.292  1.00  0.00     0.049 A 
ATOM     57  H   UNL A   1      40.756  30.505  29.473  1.00  0.00     0.167 HD
ATOM     58  C   UNL A   1      45.048  29.743  29.893  1.00  0.00     0.037 A 
ATOM     59  C   UNL A   1      38.426  32.015  29.760  1.00  0.00     0.037 A 
ATOM     60  C   UNL A   1      44.862  31.096  30.346  1.00  0.00     0.049 A 
ATOM     61  C   UNL A   1      39.554  32.871  30.275  1.00  0.00     0.074 A 
ATOM     62  C   UNL A   1      45.814  32.001  30.782  1.00  0.00     0.029 A 
ATOM     63  N   UNL A   1      43.636  31.741  30.422  1.00  0.00    -0.354 N 
ATOM     64  N   UNL A   1      40.837  32.608  30.331  1.00  0.00    -0.248 NA
ATOM     65  C   UNL A   1      39.193  34.201  30.787  1.00  0.00     0.031 C 
ATOM     66  C   UNL A   1      45.161  33.177  31.161  1.00  0.00     0.029 A 
ATOM     67  C   UNL A   1      43.807  33.026  30.910  1.00  0.00     0.049 A 
ATOM     68  H   UNL A   1      42.772  31.344  30.167  1.00  0.00     0.167 HD
ATOM     69  C   UNL A   1      41.438  33.751  30.842  1.00  0.00     0.074 A 
ATOM     70  C   UNL A   1      40.381  34.714  31.067  1.00  0.00     0.031 C 
ATOM     71  C   UNL A   1      42.748  33.983  31.104  1.00  0.00     0.037 A 
BRANCH  58  72
ATOM     72  C   UNL A   1      46.444  29.188  29.874  1.00  0.00     0.064 A 
ATOM     73  C   UNL A   1      46.933  28.405  30.932  1.00  0.00     0.173 A 
ATOM     74  C   UNL A   1      47.286  29.400  28.772  1.00  0.00     0.173 A 
ATOM     75  F   UNL A   1      46.172  28.181  32.014  1.00  0.00    -0.203 F 
ATOM     76  C   UNL A   1      48.221  27.876  30.898  1.00  0.00     0.198 A 
ATOM     77  C   UNL A   1      48.563  28.843  28.728  1.00  0.00     0.198 A 
ATOM     78  F   UNL A   1      46.868  30.136  27.732  1.00  0.00    -0.203 F 
ATOM     79  F   UNL A   1      48.680  27.172  31.942  1.00  0.00    -0.200 F 
ATOM     80  C   UNL A   1      49.031  28.089  29.794  1.00  0.00     0.200 A 
ATOM     81  F   UNL A   1      49.340  29.036  27.653  1.00  0.00    -0.200 F 
ATOM     82  F   UNL A   1      50.266  27.571  29.758  1.00  0.00    -0.200 F 
ENDBRANCH  58  72
BRANCH  59  83
ATOM     83  C   UNL A   1      37.031  32.533  29.753  1.00  0.00     0.064 A 
ATOM     84  C   UNL A   1      36.540  33.261  28.660  1.00  0.00     0.173 A 
ATOM     85  C   UNL A   1      36.176  32.352  30.850  1.00  0.00     0.173 A 
ATOM     86  F   UNL A   1      37.325  33.479  27.594  1.00  0.00    -0.203 F 
ATOM     87  C   UNL A   1      35.264  33.821  28.679  1.00  0.00     0.198 A 
ATOM     88  C   UNL A   1      34.887  32.883  30.854  1.00  0.00     0.198 A 
ATOM     89  F   UNL A   1      36.591  31.658  31.920  1.00  0.00    -0.203 F 
ATOM     90  F   UNL A   1      34.847  34.567  27.648  1.00  0.00    -0.200 F 
ATOM     91  C   UNL A   1      34.437  33.628  29.775  1.00  0.00     0.200 A 
ATOM     92  F   UNL A   1      34.085  32.681  31.909  1.00  0.00    -0.200 F 
ATOM     93  F   UNL A   1      33.213  34.171  29.796  1.00  0.00    -0.200 F 
ENDBRANCH  59  83
BRANCH  71  94
ATOM     94  C   UNL A   1      43.121  35.348  31.605  1.00  0.00     0.064 A 
ATOM     95  C   UNL A   1      43.093  35.671  32.970  1.00  0.00     0.173 A 
ATOM     96  C   UNL A   1      43.547  36.338  30.705  1.00  0.00     0.173 A 
ATOM     97  F   UNL A   1      42.679  34.765  33.869  1.00  0.00    -0.203 F 
ATOM     98  C   UNL A   1      43.449  36.943  33.411  1.00  0.00     0.198 A 
ATOM     99  C   UNL A   1      43.934  37.598  31.154  1.00  0.00     0.198 A 
ATOM    100  F   UNL A   1      43.600  36.079  29.390  1.00  0.00    -0.203 F 
ATOM    101  F   UNL A   1      43.360  37.245  34.714  1.00  0.00    -0.200 F 
ATOM    102  C   UNL A   1      43.875  37.902  32.505  1.00  0.00     0.200 A 
ATOM    103  F   UNL A   1      44.362  38.517  30.278  1.00  0.00    -0.200 F 
ATOM    104  F   UNL A   1      44.224  39.123  32.934  1.00  0.00    -0.200 F 
ENDBRANCH  71  94
ENDBRANCH  45  46
ENDBRANCH  37  40
ENDBRANCH  35  36
ENDBRANCH  34  35
ENDBRANCH  33  34
ENDBRANCH   1  33
TORSDOF 16
ENDMDL
MODEL 3
REMARK VINA RESULT:     -12.4      2.018      3.348
REMARK SMILES CN(CC(=O)NCCCCNC(=O)c1ccc(-c2c3nc(c(-c4c(F)c(F)c(F)c(F)c4F)c4ccc([nH]4)c(-c4c(F)c(F)c(F)c(F)c4F)c4nc(c(-c5c(F)c(F)c(F)c(F)c5F)c5ccc2[nH]5)C=C4)C=C3)cc1)c1ncc(-c2nnnn2-c2ccccc2)c(-c2ccc(Cl)cc2)n1
REMARK SMILES IDX 7 1 6 2 4 3 5 4 3 6 2 7 1 8 77 9 78 10 100 11 79 12 92 13
REMARK SMILES IDX 80 14 93 15 94 16 99 17 95 18 98 19 96 20 97 21 81 22 82 23
REMARK SMILES IDX 85 24 83 25 84 26 86 27 87 28 91 29 88 30 90 31 89 32 8 33
REMARK SMILES IDX 9 34 10 35 11 36 12 37 13 39 14 40 15 41 76 42 16 43 75 44
REMARK SMILES IDX 17 45 18 46 19 47 69 48 20 49 74 50 68 51 70 52 21 53 73 54
REMARK SMILES IDX 67 55 66 56 22 58 54 59 34 60 53 61 35 62 38 63 52 64 71 65
REMARK SMILES IDX 36 66 37 67 51 69 72 70 39 71 23 72 24 73 32 74 25 75 26 76
REMARK SMILES IDX 30 77 33 78 27 79 28 80 31 81 29 82 55 83 56 84 64 85 57 86
REMARK SMILES IDX 58 87 62 88 65 89 59 90 60 91 63 92 61 93 40 94 41 95 49 96
REMARK SMILES IDX 42 97 43 98 47 99 50 100 44 101 45 102 48 103 46 104
REMARK H PARENT 6 5 11 38 70 57 38 68
REMARK Flexibility Score: inf
ROOT
ATOM      1  C   UNL A   1      36.292  21.408  25.243  1.00  0.00     0.116 C 
ENDROOT
BRANCH   1   2
ATOM      2  N   UNL A   1      35.501  21.492  26.451  1.00  0.00    -0.355 N 
ATOM      3  C   UNL A   1      34.141  21.419  26.581  1.00  0.00     0.239 C 
ATOM      4  O   UNL A   1      33.669  21.478  27.720  1.00  0.00    -0.273 OA
ATOM      5  H   UNL A   1      36.006  21.618  27.286  1.00  0.00     0.163 HD
BRANCH   3   6
ATOM      6  C   UNL A   1      33.260  21.130  25.357  1.00  0.00     0.219 C 
BRANCH   6   7
ATOM      7  N   UNL A   1      32.165  22.078  25.141  1.00  0.00    -0.335 N 
ATOM      8  C   UNL A   1      30.895  21.894  25.808  1.00  0.00     0.147 C 
BRANCH   7   9
ATOM      9  C   UNL A   1      32.493  23.351  24.732  1.00  0.00     0.226 A 
ATOM     10  N   UNL A   1      33.785  23.677  24.672  1.00  0.00    -0.221 NA
ATOM     11  N   UNL A   1      31.520  24.195  24.354  1.00  0.00    -0.212 NA
ATOM     12  C   UNL A   1      34.101  24.868  24.136  1.00  0.00     0.129 A 
ATOM     13  C   UNL A   1      31.857  25.420  23.872  1.00  0.00     0.087 A 
ATOM     14  C   UNL A   1      33.177  25.780  23.671  1.00  0.00     0.066 A 
BRANCH  13  15
ATOM     15  C   UNL A   1      30.701  26.299  23.617  1.00  0.00     0.001 A 
ATOM     16  C   UNL A   1      29.473  26.029  24.251  1.00  0.00     0.012 A 
ATOM     17  C   UNL A   1      30.765  27.405  22.754  1.00  0.00     0.012 A 
ATOM     18  C   UNL A   1      28.354  26.841  24.044  1.00  0.00     0.021 A 
ATOM     19  C   UNL A   1      29.645  28.219  22.542  1.00  0.00     0.021 A 
ATOM     20  C   UNL A   1      28.446  27.935  23.189  1.00  0.00     0.041 A 
ATOM     21  Cl  UNL A   1      27.073  28.934  22.923  1.00  0.00    -0.084 Cl
ENDBRANCH  13  15
BRANCH  14  22
ATOM     22  C   UNL A   1      33.631  26.990  23.013  1.00  0.00     0.190 A 
ATOM     23  N   UNL A   1      34.037  27.105  21.765  1.00  0.00    -0.108 NA
ATOM     24  N   UNL A   1      33.508  28.271  23.544  1.00  0.00    -0.193 N 
ATOM     25  N   UNL A   1      34.056  28.447  21.488  1.00  0.00    -0.023 NA
ATOM     26  N   UNL A   1      33.662  29.157  22.536  1.00  0.00    -0.040 NA
BRANCH  24  27
ATOM     27  C   UNL A   1      33.243  28.684  24.872  1.00  0.00     0.069 A 
ATOM     28  C   UNL A   1      32.290  29.684  25.103  1.00  0.00     0.028 A 
ATOM     29  C   UNL A   1      33.926  28.111  25.955  1.00  0.00     0.028 A 
ATOM     30  C   UNL A   1      31.995  30.070  26.413  1.00  0.00     0.002 A 
ATOM     31  C   UNL A   1      33.655  28.535  27.256  1.00  0.00     0.002 A 
ATOM     32  C   UNL A   1      32.681  29.503  27.486  1.00  0.00     0.000 A 
ENDBRANCH  24  27
ENDBRANCH  14  22
ENDBRANCH   7   9
ENDBRANCH   6   7
ENDBRANCH   3   6
ENDBRANCH   1   2
BRANCH   1  33
ATOM     33  C   UNL A   1      36.760  19.982  24.959  1.00  0.00     0.023 C 
BRANCH  33  34
ATOM     34  C   UNL A   1      38.251  19.855  24.637  1.00  0.00     0.023 C 
BRANCH  34  35
ATOM     35  C   UNL A   1      39.188  20.006  25.831  1.00  0.00     0.116 C 
BRANCH  35  36
ATOM     36  N   UNL A   1      40.247  19.008  25.855  1.00  0.00    -0.352 N 
ATOM     37  C   UNL A   1      41.594  19.183  26.056  1.00  0.00     0.251 C 
ATOM     38  H   UNL A   1      39.957  18.078  25.708  1.00  0.00     0.163 HD
ATOM     39  O   UNL A   1      42.368  18.240  25.916  1.00  0.00    -0.269 OA
BRANCH  37  40
ATOM     40  C   UNL A   1      42.116  20.522  26.406  1.00  0.00     0.039 A 
ATOM     41  C   UNL A   1      42.467  21.398  25.377  1.00  0.00     0.014 A 
ATOM     42  C   UNL A   1      42.239  20.917  27.740  1.00  0.00     0.014 A 
ATOM     43  C   UNL A   1      42.876  22.696  25.684  1.00  0.00     0.010 A 
ATOM     44  C   UNL A   1      42.574  22.235  28.042  1.00  0.00     0.010 A 
ATOM     45  C   UNL A   1      42.895  23.139  27.018  1.00  0.00    -0.014 A 
BRANCH  45  46
ATOM     46  C   UNL A   1      43.250  24.541  27.359  1.00  0.00     0.031 A 
ATOM     47  C   UNL A   1      44.691  24.972  27.366  1.00  0.00     0.074 A 
ATOM     48  C   UNL A   1      42.283  25.409  27.714  1.00  0.00     0.049 A 
ATOM     49  N   UNL A   1      45.210  26.126  27.705  1.00  0.00    -0.248 NA
ATOM     50  C   UNL A   1      45.685  23.966  26.960  1.00  0.00     0.031 C 
ATOM     51  C   UNL A   1      40.853  25.105  27.780  1.00  0.00     0.029 A 
ATOM     52  N   UNL A   1      42.358  26.727  28.094  1.00  0.00    -0.354 N 
ATOM     53  C   UNL A   1      46.582  25.983  27.554  1.00  0.00     0.074 A 
ATOM     54  C   UNL A   1      46.824  24.613  27.158  1.00  0.00     0.031 C 
ATOM     55  C   UNL A   1      40.184  26.209  28.150  1.00  0.00     0.029 A 
ATOM     56  C   UNL A   1      41.139  27.287  28.389  1.00  0.00     0.049 A 
ATOM     57  H   UNL A   1      43.206  27.224  28.148  1.00  0.00     0.167 HD
ATOM     58  C   UNL A   1      47.551  26.917  27.700  1.00  0.00     0.037 A 
ATOM     59  C   UNL A   1      40.828  28.526  28.813  1.00  0.00     0.037 A 
ATOM     60  C   UNL A   1      47.310  28.283  28.083  1.00  0.00     0.049 A 
ATOM     61  C   UNL A   1      41.933  29.531  29.013  1.00  0.00     0.074 A 
ATOM     62  C   UNL A   1      48.223  29.311  28.240  1.00  0.00     0.029 A 
ATOM     63  N   UNL A   1      46.060  28.812  28.371  1.00  0.00    -0.354 N 
ATOM     64  N   UNL A   1      43.222  29.398  28.814  1.00  0.00    -0.248 NA
ATOM     65  C   UNL A   1      41.537  30.863  29.492  1.00  0.00     0.031 C 
ATOM     66  C   UNL A   1      47.533  30.451  28.663  1.00  0.00     0.029 A 
ATOM     67  C   UNL A   1      46.181  30.148  28.716  1.00  0.00     0.049 A 
ATOM     68  H   UNL A   1      45.213  28.313  28.335  1.00  0.00     0.167 HD
ATOM     69  C   UNL A   1      43.782  30.636  29.101  1.00  0.00     0.074 A 
ATOM     70  C   UNL A   1      42.692  31.511  29.475  1.00  0.00     0.031 C 
ATOM     71  C   UNL A   1      45.083  31.014  29.060  1.00  0.00     0.037 A 
BRANCH  58  72
ATOM     72  C   UNL A   1      48.968  26.497  27.426  1.00  0.00     0.064 A 
ATOM     73  C   UNL A   1      49.478  26.458  26.118  1.00  0.00     0.173 A 
ATOM     74  C   UNL A   1      49.837  26.174  28.478  1.00  0.00     0.173 A 
ATOM     75  F   UNL A   1      48.685  26.746  25.075  1.00  0.00    -0.203 F 
ATOM     76  C   UNL A   1      50.797  26.087  25.873  1.00  0.00     0.198 A 
ATOM     77  C   UNL A   1      51.165  25.834  28.231  1.00  0.00     0.198 A 
ATOM     78  F   UNL A   1      49.404  26.200  29.747  1.00  0.00    -0.203 F 
ATOM     79  F   UNL A   1      51.246  26.011  24.612  1.00  0.00    -0.200 F 
ATOM     80  C   UNL A   1      51.642  25.783  26.930  1.00  0.00     0.200 A 
ATOM     81  F   UNL A   1      51.985  25.556  29.254  1.00  0.00    -0.200 F 
ATOM     82  F   UNL A   1      52.914  25.437  26.693  1.00  0.00    -0.200 F 
ENDBRANCH  58  72
BRANCH  59  83
ATOM     83  C   UNL A   1      39.411  28.907  29.065  1.00  0.00     0.064 A 
ATOM     84  C   UNL A   1      38.599  29.384  28.026  1.00  0.00     0.173 A 
ATOM     85  C   UNL A   1      38.853  28.845  30.350  1.00  0.00     0.173 A 
ATOM     86  F   UNL A   1      39.093  29.481  26.783  1.00  0.00    -0.203 F 
ATOM     87  C   UNL A   1      37.299  29.820  28.269  1.00  0.00     0.198 A 
ATOM     88  C   UNL A   1      37.540  29.249  30.585  1.00  0.00     0.198 A 
ATOM     89  F   UNL A   1      39.582  28.390  31.380  1.00  0.00    -0.203 F 
ATOM     90  F   UNL A   1      36.570  30.333  27.269  1.00  0.00    -0.200 F 
ATOM     91  C   UNL A   1      36.768  29.749  29.547  1.00  0.00     0.200 A 
ATOM     92  F   UNL A   1      37.025  29.163  31.820  1.00  0.00    -0.200 F 
ATOM     93  F   UNL A   1      35.520  30.174  29.782  1.00  0.00    -0.200 F 
ENDBRANCH  59  83
BRANCH  71  94
ATOM     94  C   UNL A   1      45.394  32.450  29.370  1.00  0.00     0.064 A 
ATOM     95  C   UNL A   1      45.384  33.442  28.378  1.00  0.00     0.173 A 
ATOM     96  C   UNL A   1      45.672  32.844  30.689  1.00  0.00     0.173 A 
ATOM     97  F   UNL A   1      45.139  33.115  27.100  1.00  0.00    -0.203 F 
ATOM     98  C   UNL A   1      45.670  34.769  28.690  1.00  0.00     0.198 A 
ATOM     99  C   UNL A   1      45.924  34.177  31.002  1.00  0.00     0.198 A 
ATOM    100  F   UNL A   1      45.687  31.936  31.677  1.00  0.00    -0.203 F 
ATOM    101  F   UNL A   1      45.709  35.689  27.716  1.00  0.00    -0.200 F 
ATOM    102  C   UNL A   1      45.933  35.136  30.001  1.00  0.00     0.200 A 
ATOM    103  F   UNL A   1      46.161  34.531  32.272  1.00  0.00    -0.200 F 
ATOM    104  F   UNL A   1      46.201  36.415  30.300  1.00  0.00    -0.200 F 
ENDBRANCH  71  94
ENDBRANCH  45  46
ENDBRANCH  37  40
ENDBRANCH  35  36
ENDBRANCH  34  35
ENDBRANCH  33  34
ENDBRANCH   1  33
TORSDOF 16
ENDMDL
