MODEL 1
REMARK VINA RESULT:     -12.2      0.000      0.000
REMARK SMILES CCC(C)(C)NC(=O)[C@@H](C)Oc1ccc(C)nc1C(=O)NCCCCNC(=O)c1ccc(-c2c3nc(c(-c4c(F)c(F)c(F)c(F)c4F)c4ccc([nH]4)c(-c4c(F)c(F)c(F)c(F)c4F)c4nc(c(-c5c(F)c(F)c(F)c(F)c5F)c5ccc2[nH]5)C=C4)C=C3)cc1
REMARK SMILES IDX 22 1 21 2 19 3 20 4 18 6 12 7 13 8 14 9 17 10 15 11 16 12
REMARK SMILES IDX 11 13 9 14 10 15 7 16 6 17 8 19 3 20 4 21 5 22 2 23 1 24
REMARK SMILES IDX 23 25 24 26 25 27 26 28 27 29 28 31 29 32 30 33 91 34 31 35
REMARK SMILES IDX 90 36 32 37 33 38 34 39 84 40 35 41 89 42 83 43 85 44 36 45
REMARK SMILES IDX 88 46 82 47 81 48 37 50 69 51 49 52 68 53 50 54 53 55 67 56
REMARK SMILES IDX 86 57 51 58 52 59 66 61 87 62 54 63 38 64 39 65 47 66 40 67
REMARK SMILES IDX 41 68 45 69 48 70 42 71 43 72 46 73 44 74 70 75 71 76 79 77
REMARK SMILES IDX 72 78 73 79 77 80 80 81 74 82 75 83 78 84 76 85 55 86 56 87
REMARK SMILES IDX 64 88 57 89 58 90 62 91 65 92 59 93 60 94 63 95 61 96
REMARK H PARENT 21 5 6 18 26 30 85 49 53 60
REMARK Flexibility Score: inf
ROOT
ATOM      1  C   UNL A   1      36.333  23.268  25.367  1.00  0.00     0.116 C 
ENDROOT
BRANCH   1   2
ATOM      2  N   UNL A   1      35.616  22.806  26.529  1.00  0.00    -0.351 N 
ATOM      3  C   UNL A   1      34.404  22.166  26.670  1.00  0.00     0.273 C 
ATOM      4  O   UNL A   1      33.992  22.088  27.833  1.00  0.00    -0.267 OA
ATOM      5  H   UNL A   1      36.079  22.980  27.381  1.00  0.00     0.163 HD
BRANCH   3   6
ATOM      6  C   UNL A   1      33.638  21.480  25.559  1.00  0.00     0.170 A 
ATOM      7  C   UNL A   1      32.986  22.063  24.465  1.00  0.00     0.151 A 
ATOM      8  C   UNL A   1      32.593  21.208  23.433  1.00  0.00     0.051 A 
ATOM      9  C   UNL A   1      32.532  19.834  23.657  1.00  0.00     0.027 A 
ATOM     10  N   UNL A   1      33.554  20.133  25.784  1.00  0.00    -0.244 NA
ATOM     11  C   UNL A   1      32.906  19.355  24.898  1.00  0.00     0.038 A 
ATOM     12  C   UNL A   1      32.533  17.978  25.351  1.00  0.00     0.067 C 
BRANCH   7  13
ATOM     13  O   UNL A   1      32.573  23.363  24.545  1.00  0.00    -0.478 OA
BRANCH  13  14
ATOM     14  C   UNL A   1      31.256  23.704  24.955  1.00  0.00     0.259 C 
ATOM     15  C   UNL A   1      30.538  24.458  23.813  1.00  0.00     0.064 C 
BRANCH  14  16
ATOM     16  C   UNL A   1      30.865  24.485  26.239  1.00  0.00     0.261 C 
ATOM     17  N   UNL A   1      30.654  25.831  26.241  1.00  0.00    -0.348 N 
ATOM     18  H   UNL A   1      29.707  26.084  26.335  1.00  0.00     0.164 HD
ATOM     19  O   UNL A   1      30.517  23.863  27.250  1.00  0.00    -0.271 OA
BRANCH  17  20
ATOM     20  C   UNL A   1      31.574  26.986  26.128  1.00  0.00     0.034 C 
ATOM     21  C   UNL A   1      31.404  27.837  27.408  1.00  0.00     0.034 C 
ATOM     22  C   UNL A   1      31.065  27.834  24.941  1.00  0.00     0.034 C 
BRANCH  20  23
ATOM     23  C   UNL A   1      33.085  26.730  25.922  1.00  0.00     0.024 C 
ATOM     24  C   UNL A   1      33.634  26.691  24.505  1.00  0.00     0.006 C 
ENDBRANCH  20  23
ENDBRANCH  17  20
ENDBRANCH  14  16
ENDBRANCH  13  14
ENDBRANCH   7  13
ENDBRANCH   3   6
ENDBRANCH   1   2
BRANCH   1  25
ATOM     25  C   UNL A   1      37.820  22.987  25.550  1.00  0.00     0.023 C 
BRANCH  25  26
ATOM     26  C   UNL A   1      38.261  21.533  25.433  1.00  0.00     0.023 C 
BRANCH  26  27
ATOM     27  C   UNL A   1      39.373  21.173  26.401  1.00  0.00     0.116 C 
BRANCH  27  28
ATOM     28  N   UNL A   1      40.017  19.892  26.119  1.00  0.00    -0.352 N 
ATOM     29  C   UNL A   1      41.368  19.631  26.102  1.00  0.00     0.251 C 
ATOM     30  H   UNL A   1      39.421  19.135  25.919  1.00  0.00     0.163 HD
ATOM     31  O   UNL A   1      41.810  18.526  25.813  1.00  0.00    -0.269 OA
BRANCH  29  32
ATOM     32  C   UNL A   1      42.271  20.762  26.372  1.00  0.00     0.039 A 
ATOM     33  C   UNL A   1      42.644  21.587  25.311  1.00  0.00     0.014 A 
ATOM     34  C   UNL A   1      42.556  21.107  27.693  1.00  0.00     0.014 A 
ATOM     35  C   UNL A   1      43.221  22.827  25.586  1.00  0.00     0.010 A 
ATOM     36  C   UNL A   1      43.039  22.377  27.965  1.00  0.00     0.010 A 
ATOM     37  C   UNL A   1      43.364  23.253  26.915  1.00  0.00    -0.014 A 
BRANCH  37  38
ATOM     38  C   UNL A   1      43.855  24.610  27.258  1.00  0.00     0.031 A 
ATOM     39  C   UNL A   1      42.877  25.625  27.776  1.00  0.00     0.074 A 
ATOM     40  C   UNL A   1      45.125  24.962  26.980  1.00  0.00     0.049 A 
ATOM     41  N   UNL A   1      43.029  26.914  27.939  1.00  0.00    -0.248 NA
ATOM     42  C   UNL A   1      41.530  25.130  28.108  1.00  0.00     0.031 C 
ATOM     43  C   UNL A   1      46.151  24.081  26.417  1.00  0.00     0.029 A 
ATOM     44  N   UNL A   1      45.765  26.171  27.109  1.00  0.00    -0.354 N 
ATOM     45  C   UNL A   1      41.786  27.386  28.339  1.00  0.00     0.074 A 
ATOM     46  C   UNL A   1      40.883  26.258  28.358  1.00  0.00     0.031 C 
ATOM     47  C   UNL A   1      47.290  24.776  26.256  1.00  0.00     0.029 A 
ATOM     48  C   UNL A   1      47.065  26.159  26.663  1.00  0.00     0.049 A 
ATOM     49  H   UNL A   1      45.332  26.971  27.486  1.00  0.00     0.167 HD
ATOM     50  C   UNL A   1      41.438  28.649  28.675  1.00  0.00     0.037 A 
ATOM     51  C   UNL A   1      47.964  27.158  26.577  1.00  0.00     0.037 A 
ATOM     52  C   UNL A   1      42.360  29.749  28.729  1.00  0.00     0.049 A 
ATOM     53  C   UNL A   1      47.566  28.540  27.024  1.00  0.00     0.074 A 
ATOM     54  C   UNL A   1      42.133  31.042  29.162  1.00  0.00     0.029 A 
ATOM     55  N   UNL A   1      43.692  29.676  28.352  1.00  0.00    -0.354 N 
ATOM     56  N   UNL A   1      46.408  28.963  27.470  1.00  0.00    -0.248 NA
ATOM     57  C   UNL A   1      48.599  29.584  26.960  1.00  0.00     0.031 C 
ATOM     58  C   UNL A   1      43.321  31.763  29.018  1.00  0.00     0.029 A 
ATOM     59  C   UNL A   1      44.297  30.908  28.532  1.00  0.00     0.049 A 
ATOM     60  H   UNL A   1      44.140  28.871  28.007  1.00  0.00     0.167 HD
ATOM     61  C   UNL A   1      46.580  30.307  27.767  1.00  0.00     0.074 A 
ATOM     62  C   UNL A   1      47.957  30.631  27.460  1.00  0.00     0.031 C 
ATOM     63  C   UNL A   1      45.679  31.196  28.248  1.00  0.00     0.037 A 
BRANCH  50  64
ATOM     64  C   UNL A   1      40.004  28.906  29.026  1.00  0.00     0.064 A 
ATOM     65  C   UNL A   1      39.068  29.301  28.060  1.00  0.00     0.173 A 
ATOM     66  C   UNL A   1      39.552  28.712  30.340  1.00  0.00     0.173 A 
ATOM     67  F   UNL A   1      39.454  29.514  26.793  1.00  0.00    -0.203 F 
ATOM     68  C   UNL A   1      37.735  29.514  28.400  1.00  0.00     0.198 A 
ATOM     69  C   UNL A   1      38.213  28.898  30.671  1.00  0.00     0.198 A 
ATOM     70  F   UNL A   1      40.408  28.333  31.301  1.00  0.00    -0.203 F 
ATOM     71  F   UNL A   1      36.867  29.932  27.469  1.00  0.00    -0.200 F 
ATOM     72  C   UNL A   1      37.307  29.304  29.702  1.00  0.00     0.200 A 
ATOM     73  F   UNL A   1      37.799  28.685  31.928  1.00  0.00    -0.200 F 
ATOM     74  F   UNL A   1      36.021  29.499  30.026  1.00  0.00    -0.200 F 
ENDBRANCH  50  64
BRANCH  51  75
ATOM     75  C   UNL A   1      49.333  26.895  26.059  1.00  0.00     0.064 A 
ATOM     76  C   UNL A   1      49.626  27.044  24.696  1.00  0.00     0.173 A 
ATOM     77  C   UNL A   1      50.366  26.468  26.905  1.00  0.00     0.173 A 
ATOM     78  F   UNL A   1      48.665  27.430  23.844  1.00  0.00    -0.203 F 
ATOM     79  C   UNL A   1      50.891  26.748  24.195  1.00  0.00     0.198 A 
ATOM     80  C   UNL A   1      51.639  26.199  26.407  1.00  0.00     0.198 A 
ATOM     81  F   UNL A   1      50.140  26.317  28.218  1.00  0.00    -0.203 F 
ATOM     82  F   UNL A   1      51.129  26.848  22.880  1.00  0.00    -0.200 F 
ATOM     83  C   UNL A   1      51.898  26.329  25.051  1.00  0.00     0.200 A 
ATOM     84  F   UNL A   1      52.613  25.805  27.239  1.00  0.00    -0.200 F 
ATOM     85  F   UNL A   1      53.115  26.040  24.568  1.00  0.00    -0.200 F 
ENDBRANCH  51  75
BRANCH  63  86
ATOM     86  C   UNL A   1      46.156  32.589  28.522  1.00  0.00     0.064 A 
ATOM     87  C   UNL A   1      46.735  32.936  29.751  1.00  0.00     0.173 A 
ATOM     88  C   UNL A   1      46.106  33.563  27.514  1.00  0.00     0.173 A 
ATOM     89  F   UNL A   1      46.791  32.041  30.748  1.00  0.00    -0.203 F 
ATOM     90  C   UNL A   1      47.240  34.215  29.963  1.00  0.00     0.198 A 
ATOM     91  C   UNL A   1      46.635  34.834  27.722  1.00  0.00     0.198 A 
ATOM     92  F   UNL A   1      45.569  33.274  26.320  1.00  0.00    -0.203 F 
ATOM     93  F   UNL A   1      47.766  34.537  31.153  1.00  0.00    -0.200 F 
ATOM     94  C   UNL A   1      47.200  35.159  28.946  1.00  0.00     0.200 A 
ATOM     95  F   UNL A   1      46.607  35.739  26.734  1.00  0.00    -0.200 F 
ATOM     96  F   UNL A   1      47.703  36.385  29.147  1.00  0.00    -0.200 F 
ENDBRANCH  63  86
ENDBRANCH  37  38
ENDBRANCH  29  32
ENDBRANCH  27  28
ENDBRANCH  26  27
ENDBRANCH  25  26
ENDBRANCH   1  25
TORSDOF 16
ENDMDL
MODEL 2
REMARK VINA RESULT:     -12.0      0.597      1.378
REMARK SMILES CCC(C)(C)NC(=O)[C@@H](C)Oc1ccc(C)nc1C(=O)NCCCCNC(=O)c1ccc(-c2c3nc(c(-c4c(F)c(F)c(F)c(F)c4F)c4ccc([nH]4)c(-c4c(F)c(F)c(F)c(F)c4F)c4nc(c(-c5c(F)c(F)c(F)c(F)c5F)c5ccc2[nH]5)C=C4)C=C3)cc1
REMARK SMILES IDX 22 1 21 2 19 3 20 4 18 6 12 7 13 8 14 9 17 10 15 11 16 12
REMARK SMILES IDX 11 13 9 14 10 15 7 16 6 17 8 19 3 20 4 21 5 22 2 23 1 24
REMARK SMILES IDX 23 25 24 26 25 27 26 28 27 29 28 31 29 32 30 33 91 34 31 35
REMARK SMILES IDX 90 36 32 37 33 38 34 39 84 40 35 41 89 42 83 43 85 44 36 45
REMARK SMILES IDX 88 46 82 47 81 48 37 50 69 51 49 52 68 53 50 54 53 55 67 56
REMARK SMILES IDX 86 57 51 58 52 59 66 61 87 62 54 63 38 64 39 65 47 66 40 67
REMARK SMILES IDX 41 68 45 69 48 70 42 71 43 72 46 73 44 74 70 75 71 76 79 77
REMARK SMILES IDX 72 78 73 79 77 80 80 81 74 82 75 83 78 84 76 85 55 86 56 87
REMARK SMILES IDX 64 88 57 89 58 90 62 91 65 92 59 93 60 94 63 95 61 96
REMARK H PARENT 21 5 6 18 26 30 85 49 53 60
REMARK Flexibility Score: inf
ROOT
ATOM      1  C   UNL A   1      36.343  23.275  25.302  1.00  0.00     0.116 C 
ENDROOT
BRANCH   1   2
ATOM      2  N   UNL A   1      35.601  22.913  26.484  1.00  0.00    -0.351 N 
ATOM      3  C   UNL A   1      34.378  22.304  26.653  1.00  0.00     0.273 C 
ATOM      4  O   UNL A   1      33.947  22.320  27.811  1.00  0.00    -0.267 OA
ATOM      5  H   UNL A   1      36.054  23.144  27.327  1.00  0.00     0.163 HD
BRANCH   3   6
ATOM      6  C   UNL A   1      33.618  21.546  25.585  1.00  0.00     0.170 A 
ATOM      7  C   UNL A   1      32.964  22.057  24.457  1.00  0.00     0.151 A 
ATOM      8  C   UNL A   1      32.578  21.138  23.478  1.00  0.00     0.051 A 
ATOM      9  C   UNL A   1      32.526  19.780  23.785  1.00  0.00     0.027 A 
ATOM     10  N   UNL A   1      33.542  20.215  25.892  1.00  0.00    -0.244 NA
ATOM     11  C   UNL A   1      32.900  19.380  25.053  1.00  0.00     0.038 A 
ATOM     12  C   UNL A   1      32.535  18.031  25.588  1.00  0.00     0.067 C 
BRANCH   7  13
ATOM     13  O   UNL A   1      32.542  23.357  24.457  1.00  0.00    -0.478 OA
BRANCH  13  14
ATOM     14  C   UNL A   1      31.276  23.731  24.981  1.00  0.00     0.259 C 
ATOM     15  C   UNL A   1      30.496  24.539  23.919  1.00  0.00     0.064 C 
BRANCH  14  16
ATOM     16  C   UNL A   1      31.017  24.491  26.310  1.00  0.00     0.261 C 
ATOM     17  N   UNL A   1      30.793  25.834  26.354  1.00  0.00    -0.348 N 
ATOM     18  H   UNL A   1      29.860  26.074  26.554  1.00  0.00     0.164 HD
ATOM     19  O   UNL A   1      30.787  23.851  27.343  1.00  0.00    -0.271 OA
BRANCH  17  20
ATOM     20  C   UNL A   1      31.684  27.001  26.159  1.00  0.00     0.034 C 
ATOM     21  C   UNL A   1      33.137  26.470  26.122  1.00  0.00     0.034 C 
ATOM     22  C   UNL A   1      31.545  27.871  27.428  1.00  0.00     0.034 C 
BRANCH  20  23
ATOM     23  C   UNL A   1      31.478  27.912  24.927  1.00  0.00     0.024 C 
ATOM     24  C   UNL A   1      31.522  29.419  25.116  1.00  0.00     0.006 C 
ENDBRANCH  20  23
ENDBRANCH  17  20
ENDBRANCH  14  16
ENDBRANCH  13  14
ENDBRANCH   7  13
ENDBRANCH   3   6
ENDBRANCH   1   2
BRANCH   1  25
ATOM     25  C   UNL A   1      37.825  22.998  25.535  1.00  0.00     0.023 C 
BRANCH  25  26
ATOM     26  C   UNL A   1      38.282  21.553  25.382  1.00  0.00     0.023 C 
BRANCH  26  27
ATOM     27  C   UNL A   1      39.374  21.173  26.365  1.00  0.00     0.116 C 
BRANCH  27  28
ATOM     28  N   UNL A   1      40.060  19.924  26.040  1.00  0.00    -0.352 N 
ATOM     29  C   UNL A   1      41.417  19.693  26.067  1.00  0.00     0.251 C 
ATOM     30  H   UNL A   1      39.491  19.166  25.774  1.00  0.00     0.163 HD
ATOM     31  O   UNL A   1      41.897  18.617  25.736  1.00  0.00    -0.269 OA
BRANCH  29  32
ATOM     32  C   UNL A   1      42.281  20.826  26.436  1.00  0.00     0.039 A 
ATOM     33  C   UNL A   1      42.711  21.695  25.433  1.00  0.00     0.014 A 
ATOM     34  C   UNL A   1      42.469  21.128  27.785  1.00  0.00     0.014 A 
ATOM     35  C   UNL A   1      43.247  22.932  25.789  1.00  0.00     0.010 A 
ATOM     36  C   UNL A   1      42.912  22.394  28.133  1.00  0.00     0.010 A 
ATOM     37  C   UNL A   1      43.293  23.312  27.139  1.00  0.00    -0.014 A 
BRANCH  37  38
ATOM     38  C   UNL A   1      43.736  24.663  27.561  1.00  0.00     0.031 A 
ATOM     39  C   UNL A   1      42.706  25.654  28.020  1.00  0.00     0.074 A 
ATOM     40  C   UNL A   1      45.022  25.034  27.407  1.00  0.00     0.049 A 
ATOM     41  N   UNL A   1      42.829  26.939  28.231  1.00  0.00    -0.248 NA
ATOM     42  C   UNL A   1      41.341  25.139  28.217  1.00  0.00     0.031 C 
ATOM     43  C   UNL A   1      46.103  24.177  26.912  1.00  0.00     0.029 A 
ATOM     44  N   UNL A   1      45.635  26.243  27.625  1.00  0.00    -0.354 N 
ATOM     45  C   UNL A   1      41.551  27.389  28.533  1.00  0.00     0.074 A 
ATOM     46  C   UNL A   1      40.661  26.253  28.441  1.00  0.00     0.031 C 
ATOM     47  C   UNL A   1      47.245  24.886  26.871  1.00  0.00     0.029 A 
ATOM     48  C   UNL A   1      46.969  26.255  27.296  1.00  0.00     0.049 A 
ATOM     49  H   UNL A   1      45.162  27.029  27.984  1.00  0.00     0.167 HD
ATOM     50  C   UNL A   1      41.160  28.639  28.872  1.00  0.00     0.037 A 
ATOM     51  C   UNL A   1      47.862  27.264  27.318  1.00  0.00     0.037 A 
ATOM     52  C   UNL A   1      42.062  29.744  29.038  1.00  0.00     0.049 A 
ATOM     53  C   UNL A   1      47.411  28.629  27.765  1.00  0.00     0.074 A 
ATOM     54  C   UNL A   1      41.784  31.023  29.484  1.00  0.00     0.029 A 
ATOM     55  N   UNL A   1      43.423  29.694  28.777  1.00  0.00    -0.354 N 
ATOM     56  N   UNL A   1      46.214  29.029  28.119  1.00  0.00    -0.248 NA
ATOM     57  C   UNL A   1      48.434  29.683  27.823  1.00  0.00     0.031 C 
ATOM     58  C   UNL A   1      42.972  31.758  29.466  1.00  0.00     0.029 A 
ATOM     59  C   UNL A   1      43.996  30.925  29.045  1.00  0.00     0.049 A 
ATOM     60  H   UNL A   1      43.908  28.902  28.452  1.00  0.00     0.167 HD
ATOM     61  C   UNL A   1      46.344  30.366  28.467  1.00  0.00     0.074 A 
ATOM     62  C   UNL A   1      47.739  30.710  28.292  1.00  0.00     0.031 C 
ATOM     63  C   UNL A   1      45.394  31.233  28.891  1.00  0.00     0.037 A 
BRANCH  50  64
ATOM     64  C   UNL A   1      39.699  28.874  29.102  1.00  0.00     0.064 A 
ATOM     65  C   UNL A   1      39.114  28.707  30.366  1.00  0.00     0.173 A 
ATOM     66  C   UNL A   1      38.879  29.315  28.052  1.00  0.00     0.173 A 
ATOM     67  F   UNL A   1      39.852  28.273  31.399  1.00  0.00    -0.203 F 
ATOM     68  C   UNL A   1      37.759  28.952  30.566  1.00  0.00     0.198 A 
ATOM     69  C   UNL A   1      37.531  29.587  28.261  1.00  0.00     0.198 A 
ATOM     70  F   UNL A   1      39.391  29.492  26.823  1.00  0.00    -0.203 F 
ATOM     71  F   UNL A   1      37.214  28.744  31.772  1.00  0.00    -0.200 F 
ATOM     72  C   UNL A   1      36.971  29.399  29.516  1.00  0.00     0.200 A 
ATOM     73  F   UNL A   1      36.772  30.029  27.249  1.00  0.00    -0.200 F 
ATOM     74  F   UNL A   1      35.668  29.645  29.713  1.00  0.00    -0.200 F 
ENDBRANCH  50  64
BRANCH  51  75
ATOM     75  C   UNL A   1      49.273  27.027  26.915  1.00  0.00     0.064 A 
ATOM     76  C   UNL A   1      49.685  27.225  25.589  1.00  0.00     0.173 A 
ATOM     77  C   UNL A   1      50.231  26.578  27.835  1.00  0.00     0.173 A 
ATOM     78  F   UNL A   1      48.800  27.634  24.668  1.00  0.00    -0.203 F 
ATOM     79  C   UNL A   1      50.993  26.954  25.193  1.00  0.00     0.198 A 
ATOM     80  C   UNL A   1      51.546  26.334  27.443  1.00  0.00     0.198 A 
ATOM     81  F   UNL A   1      49.891  26.381  29.117  1.00  0.00    -0.203 F 
ATOM     82  F   UNL A   1      51.346  27.100  23.909  1.00  0.00    -0.200 F 
ATOM     83  C   UNL A   1      51.923  26.512  26.121  1.00  0.00     0.200 A 
ATOM     84  F   UNL A   1      52.446  25.919  28.345  1.00  0.00    -0.200 F 
ATOM     85  F   UNL A   1      53.181  26.247  25.739  1.00  0.00    -0.200 F 
ENDBRANCH  51  75
BRANCH  63  86
ATOM     86  C   UNL A   1      45.831  32.621  29.246  1.00  0.00     0.064 A 
ATOM     87  C   UNL A   1      46.376  32.920  30.502  1.00  0.00     0.173 A 
ATOM     88  C   UNL A   1      45.776  33.644  28.287  1.00  0.00     0.173 A 
ATOM     89  F   UNL A   1      46.435  31.976  31.454  1.00  0.00    -0.203 F 
ATOM     90  C   UNL A   1      46.844  34.198  30.789  1.00  0.00     0.198 A 
ATOM     91  C   UNL A   1      46.268  34.915  28.570  1.00  0.00     0.198 A 
ATOM     92  F   UNL A   1      45.269  33.402  27.069  1.00  0.00    -0.203 F 
ATOM     93  F   UNL A   1      47.338  34.472  32.004  1.00  0.00    -0.200 F 
ATOM     94  C   UNL A   1      46.799  35.191  29.820  1.00  0.00     0.200 A 
ATOM     95  F   UNL A   1      46.236  35.868  27.629  1.00  0.00    -0.200 F 
ATOM     96  F   UNL A   1      47.267  36.417  30.094  1.00  0.00    -0.200 F 
ENDBRANCH  63  86
ENDBRANCH  37  38
ENDBRANCH  29  32
ENDBRANCH  27  28
ENDBRANCH  26  27
ENDBRANCH  25  26
ENDBRANCH   1  25
TORSDOF 16
ENDMDL
MODEL 3
REMARK VINA RESULT:     -11.8      5.557      9.684
REMARK SMILES CCC(C)(C)NC(=O)[C@@H](C)Oc1ccc(C)nc1C(=O)NCCCCNC(=O)c1ccc(-c2c3nc(c(-c4c(F)c(F)c(F)c(F)c4F)c4ccc([nH]4)c(-c4c(F)c(F)c(F)c(F)c4F)c4nc(c(-c5c(F)c(F)c(F)c(F)c5F)c5ccc2[nH]5)C=C4)C=C3)cc1
REMARK SMILES IDX 22 1 21 2 19 3 20 4 18 6 12 7 13 8 14 9 17 10 15 11 16 12
REMARK SMILES IDX 11 13 9 14 10 15 7 16 6 17 8 19 3 20 4 21 5 22 2 23 1 24
REMARK SMILES IDX 23 25 24 26 25 27 26 28 27 29 28 31 29 32 30 33 91 34 31 35
REMARK SMILES IDX 90 36 32 37 33 38 34 39 84 40 35 41 89 42 83 43 85 44 36 45
REMARK SMILES IDX 88 46 82 47 81 48 37 50 69 51 49 52 68 53 50 54 53 55 67 56
REMARK SMILES IDX 86 57 51 58 52 59 66 61 87 62 54 63 38 64 39 65 47 66 40 67
REMARK SMILES IDX 41 68 45 69 48 70 42 71 43 72 46 73 44 74 70 75 71 76 79 77
REMARK SMILES IDX 72 78 73 79 77 80 80 81 74 82 75 83 78 84 76 85 55 86 56 87
REMARK SMILES IDX 64 88 57 89 58 90 62 91 65 92 59 93 60 94 63 95 61 96
REMARK H PARENT 21 5 6 18 26 30 85 49 53 60
REMARK Flexibility Score: inf
ROOT
ATOM      1  C   UNL A   1      33.747  29.351  26.569  1.00  0.00     0.116 C 
ENDROOT
BRANCH   1   2
ATOM      2  N   UNL A   1      33.632  29.395  25.132  1.00  0.00    -0.351 N 
ATOM      3  C   UNL A   1      33.545  28.400  24.184  1.00  0.00     0.273 C 
ATOM      4  O   UNL A   1      33.655  28.787  23.015  1.00  0.00    -0.267 OA
ATOM      5  H   UNL A   1      33.610  30.306  24.760  1.00  0.00     0.163 HD
BRANCH   3   6
ATOM      6  C   UNL A   1      33.220  26.947  24.460  1.00  0.00     0.170 A 
ATOM      7  C   UNL A   1      31.962  26.359  24.645  1.00  0.00     0.151 A 
ATOM      8  C   UNL A   1      31.904  24.964  24.605  1.00  0.00     0.051 A 
ATOM      9  C   UNL A   1      33.072  24.218  24.739  1.00  0.00     0.027 A 
ATOM     10  N   UNL A   1      34.363  26.213  24.616  1.00  0.00    -0.244 NA
ATOM     11  C   UNL A   1      34.270  24.894  24.868  1.00  0.00     0.038 A 
ATOM     12  C   UNL A   1      35.502  24.214  25.378  1.00  0.00     0.067 C 
BRANCH   7  13
ATOM     13  O   UNL A   1      30.915  27.131  25.065  1.00  0.00    -0.478 OA
BRANCH  13  14
ATOM     14  C   UNL A   1      29.881  27.532  24.179  1.00  0.00     0.259 C 
ATOM     15  C   UNL A   1      28.962  26.327  23.876  1.00  0.00     0.064 C 
BRANCH  14  16
ATOM     16  C   UNL A   1      30.065  28.231  22.805  1.00  0.00     0.261 C 
ATOM     17  N   UNL A   1      29.831  29.561  22.622  1.00  0.00    -0.348 N 
ATOM     18  H   UNL A   1      30.649  30.095  22.501  1.00  0.00     0.164 HD
ATOM     19  O   UNL A   1      30.647  27.635  21.890  1.00  0.00    -0.271 OA
BRANCH  17  20
ATOM     20  C   UNL A   1      28.582  30.356  22.570  1.00  0.00     0.034 C 
ATOM     21  C   UNL A   1      27.409  29.389  22.856  1.00  0.00     0.034 C 
ATOM     22  C   UNL A   1      28.435  30.839  21.110  1.00  0.00     0.034 C 
BRANCH  20  23
ATOM     23  C   UNL A   1      28.427  31.581  23.500  1.00  0.00     0.024 C 
ATOM     24  C   UNL A   1      28.777  32.958  22.959  1.00  0.00     0.006 C 
ENDBRANCH  20  23
ENDBRANCH  17  20
ENDBRANCH  14  16
ENDBRANCH  13  14
ENDBRANCH   7  13
ENDBRANCH   3   6
ENDBRANCH   1   2
BRANCH   1  25
ATOM     25  C   UNL A   1      32.477  29.919  27.192  1.00  0.00     0.023 C 
BRANCH  25  26
ATOM     26  C   UNL A   1      32.152  31.374  26.876  1.00  0.00     0.023 C 
BRANCH  26  27
ATOM     27  C   UNL A   1      33.199  32.339  27.401  1.00  0.00     0.116 C 
BRANCH  27  28
ATOM     28  N   UNL A   1      32.700  33.695  27.624  1.00  0.00    -0.352 N 
ATOM     29  C   UNL A   1      33.161  34.605  28.547  1.00  0.00     0.251 C 
ATOM     30  H   UNL A   1      31.954  33.988  27.053  1.00  0.00     0.163 HD
ATOM     31  O   UNL A   1      32.646  35.707  28.683  1.00  0.00    -0.269 OA
BRANCH  29  32
ATOM     32  C   UNL A   1      34.258  34.168  29.427  1.00  0.00     0.039 A 
ATOM     33  C   UNL A   1      33.949  33.412  30.557  1.00  0.00     0.014 A 
ATOM     34  C   UNL A   1      35.578  34.331  29.003  1.00  0.00     0.014 A 
ATOM     35  C   UNL A   1      34.968  32.724  31.214  1.00  0.00     0.010 A 
ATOM     36  C   UNL A   1      36.571  33.571  29.599  1.00  0.00     0.010 A 
ATOM     37  C   UNL A   1      36.274  32.751  30.701  1.00  0.00    -0.014 A 
BRANCH  37  38
ATOM     38  C   UNL A   1      37.367  31.938  31.288  1.00  0.00     0.031 A 
ATOM     39  C   UNL A   1      37.856  32.269  32.668  1.00  0.00     0.074 A 
ATOM     40  C   UNL A   1      37.996  31.008  30.543  1.00  0.00     0.049 A 
ATOM     41  N   UNL A   1      38.921  31.841  33.295  1.00  0.00    -0.248 NA
ATOM     42  C   UNL A   1      37.065  33.253  33.427  1.00  0.00     0.031 C 
ATOM     43  C   UNL A   1      37.651  30.641  29.167  1.00  0.00     0.029 A 
ATOM     44  N   UNL A   1      39.082  30.218  30.831  1.00  0.00    -0.354 N 
ATOM     45  C   UNL A   1      38.955  32.544  34.492  1.00  0.00     0.074 A 
ATOM     46  C   UNL A   1      37.829  33.450  34.491  1.00  0.00     0.031 C 
ATOM     47  C   UNL A   1      38.504  29.696  28.736  1.00  0.00     0.029 A 
ATOM     48  C   UNL A   1      39.479  29.420  29.786  1.00  0.00     0.049 A 
ATOM     49  H   UNL A   1      39.534  30.224  31.706  1.00  0.00     0.167 HD
ATOM     50  C   UNL A   1      39.841  32.428  35.507  1.00  0.00     0.037 A 
ATOM     51  C   UNL A   1      40.524  28.576  29.684  1.00  0.00     0.037 A 
ATOM     52  C   UNL A   1      40.910  31.470  35.534  1.00  0.00     0.049 A 
ATOM     53  C   UNL A   1      41.454  28.419  30.857  1.00  0.00     0.074 A 
ATOM     54  C   UNL A   1      41.796  31.197  36.560  1.00  0.00     0.029 A 
ATOM     55  N   UNL A   1      41.228  30.617  34.488  1.00  0.00    -0.354 N 
ATOM     56  N   UNL A   1      41.435  29.035  32.014  1.00  0.00    -0.248 NA
ATOM     57  C   UNL A   1      42.548  27.446  30.715  1.00  0.00     0.031 C 
ATOM     58  C   UNL A   1      42.670  30.197  36.124  1.00  0.00     0.029 A 
ATOM     59  C   UNL A   1      42.304  29.823  34.842  1.00  0.00     0.049 A 
ATOM     60  H   UNL A   1      40.758  30.581  33.624  1.00  0.00     0.167 HD
ATOM     61  C   UNL A   1      42.490  28.506  32.746  1.00  0.00     0.074 A 
ATOM     62  C   UNL A   1      43.124  27.512  31.907  1.00  0.00     0.031 C 
ATOM     63  C   UNL A   1      42.898  28.818  33.999  1.00  0.00     0.037 A 
BRANCH  50  64
ATOM     64  C   UNL A   1      39.681  33.347  36.679  1.00  0.00     0.064 A 
ATOM     65  C   UNL A   1      40.350  34.578  36.747  1.00  0.00     0.173 A 
ATOM     66  C   UNL A   1      38.813  33.012  37.729  1.00  0.00     0.173 A 
ATOM     67  F   UNL A   1      41.202  34.938  35.776  1.00  0.00    -0.203 F 
ATOM     68  C   UNL A   1      40.172  35.430  37.834  1.00  0.00     0.198 A 
ATOM     69  C   UNL A   1      38.615  33.878  38.799  1.00  0.00     0.198 A 
ATOM     70  F   UNL A   1      38.148  31.846  37.710  1.00  0.00    -0.203 F 
ATOM     71  F   UNL A   1      40.854  36.581  37.898  1.00  0.00    -0.200 F 
ATOM     72  C   UNL A   1      39.299  35.084  38.854  1.00  0.00     0.200 A 
ATOM     73  F   UNL A   1      37.763  33.547  39.780  1.00  0.00    -0.200 F 
ATOM     74  F   UNL A   1      39.121  35.909  39.894  1.00  0.00    -0.200 F 
ENDBRANCH  50  64
BRANCH  51  75
ATOM     75  C   UNL A   1      40.747  27.805  28.432  1.00  0.00     0.064 A 
ATOM     76  C   UNL A   1      40.150  26.550  28.245  1.00  0.00     0.173 A 
ATOM     77  C   UNL A   1      41.577  28.290  27.412  1.00  0.00     0.173 A 
ATOM     78  F   UNL A   1      39.364  26.035  29.202  1.00  0.00    -0.203 F 
ATOM     79  C   UNL A   1      40.398  25.799  27.099  1.00  0.00     0.198 A 
ATOM     80  C   UNL A   1      41.802  27.549  26.253  1.00  0.00     0.198 A 
ATOM     81  F   UNL A   1      42.167  29.488  27.538  1.00  0.00    -0.203 F 
ATOM     82  F   UNL A   1      39.856  24.580  26.970  1.00  0.00    -0.200 F 
ATOM     83  C   UNL A   1      41.221  26.300  26.102  1.00  0.00     0.200 A 
ATOM     84  F   UNL A   1      42.589  28.042  25.286  1.00  0.00    -0.200 F 
ATOM     85  F   UNL A   1      41.462  25.574  25.001  1.00  0.00    -0.200 F 
ENDBRANCH  51  75
BRANCH  63  86
ATOM     86  C   UNL A   1      44.051  28.047  34.564  1.00  0.00     0.064 A 
ATOM     87  C   UNL A   1      45.365  28.528  34.484  1.00  0.00     0.173 A 
ATOM     88  C   UNL A   1      43.825  26.851  35.264  1.00  0.00     0.173 A 
ATOM     89  F   UNL A   1      45.630  29.659  33.813  1.00  0.00    -0.203 F 
ATOM     90  C   UNL A   1      46.414  27.835  35.080  1.00  0.00     0.198 A 
ATOM     91  C   UNL A   1      44.873  26.174  35.879  1.00  0.00     0.198 A 
ATOM     92  F   UNL A   1      42.583  26.357  35.373  1.00  0.00    -0.203 F 
ATOM     93  F   UNL A   1      47.667  28.297  34.970  1.00  0.00    -0.200 F 
ATOM     94  C   UNL A   1      46.167  26.665  35.784  1.00  0.00     0.200 A 
ATOM     95  F   UNL A   1      44.631  25.052  36.570  1.00  0.00    -0.200 F 
ATOM     96  F   UNL A   1      47.177  26.008  36.371  1.00  0.00    -0.200 F 
ENDBRANCH  63  86
ENDBRANCH  37  38
ENDBRANCH  29  32
ENDBRANCH  27  28
ENDBRANCH  26  27
ENDBRANCH  25  26
ENDBRANCH   1  25
TORSDOF 16
ENDMDL
