MODEL 1
REMARK VINA RESULT:     -12.0      0.000      0.000
REMARK SMILES COc1cc(Cl)cc(/C=C/C(=O)NCCCCNC(=O)c2ccc(-c3c4nc(c(-c5c(F)c(F)c(F)c(F)c5F)c5ccc([nH]5)c(-c5c(F)c(F)c(F)c(F)c5F)c5nc(c(-c6c(F)c(F)c(F)c(F)c6F)c6ccc3[nH]6)C=C5)C=C4)cc2)c1OC
REMARK SMILES IDX 15 1 14 2 13 3 11 4 12 5 10 7 9 8 8 9 3 10 4 11 84 12 5 13
REMARK SMILES IDX 6 14 7 15 2 16 1 17 85 18 86 19 16 20 17 21 18 22 19 23
REMARK SMILES IDX 20 25 21 26 22 27 83 28 23 29 82 30 24 31 25 32 26 33 76 34
REMARK SMILES IDX 27 35 81 36 75 37 77 38 28 39 80 40 74 41 73 42 29 44 61 45
REMARK SMILES IDX 41 46 60 47 42 48 45 49 59 50 78 51 43 52 44 53 58 55 79 56
REMARK SMILES IDX 46 57 30 58 31 59 39 60 32 61 33 62 37 63 40 64 34 65 35 66
REMARK SMILES IDX 38 67 36 68 62 69 63 70 71 71 64 72 65 73 69 74 72 75 66 76
REMARK SMILES IDX 67 77 70 78 68 79 47 80 48 81 56 82 49 83 50 84 54 85 57 86
REMARK SMILES IDX 51 87 52 88 55 89 53 90
REMARK H PARENT 13 6 18 24 77 43 45 54
REMARK Flexibility Score: inf
ROOT
ATOM      1  C   UNL A   1      31.880  30.308  26.558  1.00  0.00     0.023 C 
ENDROOT
BRANCH   1   2
ATOM      2  C   UNL A   1      31.500  29.664  25.225  1.00  0.00     0.116 C 
BRANCH   2   3
ATOM      3  N   UNL A   1      32.607  29.712  24.288  1.00  0.00    -0.353 N 
ATOM      4  C   UNL A   1      33.392  28.710  23.809  1.00  0.00     0.244 C 
ATOM      5  O   UNL A   1      34.230  28.951  22.944  1.00  0.00    -0.270 OA
ATOM      6  H   UNL A   1      32.824  30.610  23.947  1.00  0.00     0.163 HD
BRANCH   4   7
ATOM      7  C   UNL A   1      33.184  27.313  24.249  1.00  0.00     0.072 C 
ATOM      8  C   UNL A   1      33.605  26.827  25.427  1.00  0.00     0.018 C 
BRANCH   8   9
ATOM      9  C   UNL A   1      33.387  25.434  25.862  1.00  0.00     0.022 A 
ATOM     10  C   UNL A   1      32.023  23.722  26.922  1.00  0.00     0.162 A 
ATOM     11  C   UNL A   1      33.053  22.793  26.725  1.00  0.00     0.071 A 
ATOM     12  C   UNL A   1      32.164  25.047  26.471  1.00  0.00     0.168 A 
ATOM     13  C   UNL A   1      34.247  23.189  26.133  1.00  0.00     0.045 A 
ATOM     14  Cl  UNL A   1      35.517  22.046  25.925  1.00  0.00    -0.084 Cl
ATOM     15  C   UNL A   1      34.424  24.501  25.713  1.00  0.00     0.032 A 
BRANCH  10  16
ATOM     16  O   UNL A   1      30.855  23.283  27.492  1.00  0.00    -0.493 OA
ATOM     17  C   UNL A   1      30.101  22.453  26.607  1.00  0.00     0.278 C 
ENDBRANCH  10  16
BRANCH  12  18
ATOM     18  O   UNL A   1      31.232  26.055  26.558  1.00  0.00    -0.492 OA
ATOM     19  C   UNL A   1      30.093  26.029  25.710  1.00  0.00     0.278 C 
ENDBRANCH  12  18
ENDBRANCH   8   9
ENDBRANCH   4   7
ENDBRANCH   2   3
ENDBRANCH   1   2
BRANCH   1  20
ATOM     20  C   UNL A   1      31.653  31.822  26.616  1.00  0.00     0.023 C 
BRANCH  20  21
ATOM     21  C   UNL A   1      32.790  32.625  27.241  1.00  0.00     0.116 C 
BRANCH  21  22
ATOM     22  N   UNL A   1      32.415  33.988  27.585  1.00  0.00    -0.352 N 
ATOM     23  C   UNL A   1      32.966  34.818  28.532  1.00  0.00     0.251 C 
ATOM     24  H   UNL A   1      31.665  34.367  27.071  1.00  0.00     0.163 HD
ATOM     25  O   UNL A   1      32.467  35.909  28.770  1.00  0.00    -0.269 OA
BRANCH  23  26
ATOM     26  C   UNL A   1      34.147  34.360  29.295  1.00  0.00     0.039 A 
ATOM     27  C   UNL A   1      33.948  33.767  30.543  1.00  0.00     0.014 A 
ATOM     28  C   UNL A   1      35.435  34.490  28.769  1.00  0.00     0.014 A 
ATOM     29  C   UNL A   1      35.038  33.235  31.234  1.00  0.00     0.010 A 
ATOM     30  C   UNL A   1      36.511  33.906  29.430  1.00  0.00     0.010 A 
ATOM     31  C   UNL A   1      36.322  33.267  30.664  1.00  0.00    -0.014 A 
BRANCH  31  32
ATOM     32  C   UNL A   1      37.475  32.623  31.338  1.00  0.00     0.031 A 
ATOM     33  C   UNL A   1      38.209  31.497  30.670  1.00  0.00     0.074 A 
ATOM     34  C   UNL A   1      37.822  33.015  32.580  1.00  0.00     0.049 A 
ATOM     35  N   UNL A   1      39.190  30.761  31.129  1.00  0.00    -0.248 NA
ATOM     36  C   UNL A   1      37.765  31.132  29.316  1.00  0.00     0.031 C 
ATOM     37  C   UNL A   1      37.159  34.070  33.348  1.00  0.00     0.029 A 
ATOM     38  N   UNL A   1      38.813  32.567  33.414  1.00  0.00    -0.354 N 
ATOM     39  C   UNL A   1      39.474  29.845  30.125  1.00  0.00     0.074 A 
ATOM     40  C   UNL A   1      38.529  30.081  29.055  1.00  0.00     0.031 C 
ATOM     41  C   UNL A   1      37.779  34.207  34.531  1.00  0.00     0.029 A 
ATOM     42  C   UNL A   1      38.859  33.228  34.618  1.00  0.00     0.049 A 
ATOM     43  H   UNL A   1      39.434  31.842  33.175  1.00  0.00     0.167 HD
ATOM     44  C   UNL A   1      40.451  28.908  30.091  1.00  0.00     0.037 A 
ATOM     45  C   UNL A   1      39.678  33.060  35.674  1.00  0.00     0.037 A 
ATOM     46  C   UNL A   1      41.401  28.686  31.150  1.00  0.00     0.049 A 
ATOM     47  C   UNL A   1      40.752  32.010  35.611  1.00  0.00     0.074 A 
ATOM     48  C   UNL A   1      42.444  27.778  31.198  1.00  0.00     0.029 A 
ATOM     49  N   UNL A   1      41.424  29.386  32.347  1.00  0.00    -0.354 N 
ATOM     50  N   UNL A   1      41.034  31.172  34.643  1.00  0.00    -0.248 NA
ATOM     51  C   UNL A   1      41.627  31.887  36.785  1.00  0.00     0.031 C 
ATOM     52  C   UNL A   1      43.080  27.907  32.437  1.00  0.00     0.029 A 
ATOM     53  C   UNL A   1      42.461  28.925  33.143  1.00  0.00     0.049 A 
ATOM     54  H   UNL A   1      40.797  30.104  32.595  1.00  0.00     0.167 HD
ATOM     55  C   UNL A   1      42.129  30.440  35.079  1.00  0.00     0.074 A 
ATOM     56  C   UNL A   1      42.471  30.943  36.395  1.00  0.00     0.031 C 
ATOM     57  C   UNL A   1      42.792  29.441  34.447  1.00  0.00     0.037 A 
BRANCH  44  58
ATOM     58  C   UNL A   1      40.550  28.058  28.859  1.00  0.00     0.064 A 
ATOM     59  C   UNL A   1      39.841  26.851  28.746  1.00  0.00     0.173 A 
ATOM     60  C   UNL A   1      41.328  28.466  27.767  1.00  0.00     0.173 A 
ATOM     61  F   UNL A   1      39.093  26.409  29.768  1.00  0.00    -0.203 F 
ATOM     62  C   UNL A   1      39.927  26.076  27.593  1.00  0.00     0.198 A 
ATOM     63  C   UNL A   1      41.390  27.702  26.605  1.00  0.00     0.198 A 
ATOM     64  F   UNL A   1      42.024  29.613  27.822  1.00  0.00    -0.203 F 
ATOM     65  F   UNL A   1      39.274  24.907  27.525  1.00  0.00    -0.200 F 
ATOM     66  C   UNL A   1      40.694  26.505  26.521  1.00  0.00     0.200 A 
ATOM     67  F   UNL A   1      42.123  28.124  25.565  1.00  0.00    -0.200 F 
ATOM     68  F   UNL A   1      40.768  25.761  25.409  1.00  0.00    -0.200 F 
ENDBRANCH  44  58
BRANCH  45  69
ATOM     69  C   UNL A   1      39.537  33.938  36.862  1.00  0.00     0.064 A 
ATOM     70  C   UNL A   1      38.777  33.530  37.966  1.00  0.00     0.173 A 
ATOM     71  C   UNL A   1      40.167  35.190  36.927  1.00  0.00     0.173 A 
ATOM     72  F   UNL A   1      38.141  32.350  37.941  1.00  0.00    -0.203 F 
ATOM     73  C   UNL A   1      38.642  34.346  39.088  1.00  0.00     0.198 A 
ATOM     74  C   UNL A   1      40.050  35.994  38.059  1.00  0.00     0.198 A 
ATOM     75  F   UNL A   1      40.910  35.622  35.898  1.00  0.00    -0.203 F 
ATOM     76  F   UNL A   1      37.881  33.946  40.116  1.00  0.00    -0.200 F 
ATOM     77  C   UNL A   1      39.283  35.574  39.136  1.00  0.00     0.200 A 
ATOM     78  F   UNL A   1      40.683  37.174  38.108  1.00  0.00    -0.200 F 
ATOM     79  F   UNL A   1      39.160  36.354  40.218  1.00  0.00    -0.200 F 
ENDBRANCH  45  69
BRANCH  57  80
ATOM     80  C   UNL A   1      43.974  28.846  35.151  1.00  0.00     0.064 A 
ATOM     81  C   UNL A   1      43.842  27.743  36.006  1.00  0.00     0.173 A 
ATOM     82  C   UNL A   1      45.263  29.356  34.927  1.00  0.00     0.173 A 
ATOM     83  F   UNL A   1      42.629  27.229  36.263  1.00  0.00    -0.203 F 
ATOM     84  C   UNL A   1      44.955  27.186  36.631  1.00  0.00     0.198 A 
ATOM     85  C   UNL A   1      46.376  28.778  35.532  1.00  0.00     0.198 A 
ATOM     86  F   UNL A   1      45.443  30.406  34.113  1.00  0.00    -0.203 F 
ATOM     87  F   UNL A   1      44.800  26.158  37.477  1.00  0.00    -0.200 F 
ATOM     88  C   UNL A   1      46.221  27.698  36.387  1.00  0.00     0.200 A 
ATOM     89  F   UNL A   1      47.599  29.268  35.286  1.00  0.00    -0.200 F 
ATOM     90  F   UNL A   1      47.291  27.154  36.982  1.00  0.00    -0.200 F 
ENDBRANCH  57  80
ENDBRANCH  31  32
ENDBRANCH  23  26
ENDBRANCH  21  22
ENDBRANCH  20  21
ENDBRANCH   1  20
TORSDOF 14
ENDMDL
MODEL 2
REMARK VINA RESULT:     -12.0      0.172      1.629
REMARK SMILES COc1cc(Cl)cc(/C=C/C(=O)NCCCCNC(=O)c2ccc(-c3c4nc(c(-c5c(F)c(F)c(F)c(F)c5F)c5ccc([nH]5)c(-c5c(F)c(F)c(F)c(F)c5F)c5nc(c(-c6c(F)c(F)c(F)c(F)c6F)c6ccc3[nH]6)C=C5)C=C4)cc2)c1OC
REMARK SMILES IDX 15 1 14 2 13 3 11 4 12 5 10 7 9 8 8 9 3 10 4 11 84 12 5 13
REMARK SMILES IDX 6 14 7 15 2 16 1 17 85 18 86 19 16 20 17 21 18 22 19 23
REMARK SMILES IDX 20 25 21 26 22 27 83 28 23 29 82 30 24 31 25 32 26 33 76 34
REMARK SMILES IDX 27 35 81 36 75 37 77 38 28 39 80 40 74 41 73 42 29 44 61 45
REMARK SMILES IDX 41 46 60 47 42 48 45 49 59 50 78 51 43 52 44 53 58 55 79 56
REMARK SMILES IDX 46 57 30 58 31 59 39 60 32 61 33 62 37 63 40 64 34 65 35 66
REMARK SMILES IDX 38 67 36 68 62 69 63 70 71 71 64 72 65 73 69 74 72 75 66 76
REMARK SMILES IDX 67 77 70 78 68 79 47 80 48 81 56 82 49 83 50 84 54 85 57 86
REMARK SMILES IDX 51 87 52 88 55 89 53 90
REMARK H PARENT 13 6 18 24 77 43 45 54
REMARK Flexibility Score: inf
ROOT
ATOM      1  C   UNL A   1      32.040  30.119  26.539  1.00  0.00     0.023 C 
ENDROOT
BRANCH   1   2
ATOM      2  C   UNL A   1      31.624  29.586  25.168  1.00  0.00     0.116 C 
BRANCH   2   3
ATOM      3  N   UNL A   1      32.736  29.618  24.237  1.00  0.00    -0.353 N 
ATOM      4  C   UNL A   1      33.519  28.607  23.773  1.00  0.00     0.244 C 
ATOM      5  O   UNL A   1      34.363  28.834  22.910  1.00  0.00    -0.270 OA
ATOM      6  H   UNL A   1      32.959  30.511  23.887  1.00  0.00     0.163 HD
BRANCH   4   7
ATOM      7  C   UNL A   1      33.301  27.216  24.228  1.00  0.00     0.072 C 
ATOM      8  C   UNL A   1      33.619  26.769  25.452  1.00  0.00     0.018 C 
BRANCH   8   9
ATOM      9  C   UNL A   1      33.392  25.382  25.901  1.00  0.00     0.022 A 
ATOM     10  C   UNL A   1      32.014  23.687  26.971  1.00  0.00     0.162 A 
ATOM     11  C   UNL A   1      33.041  22.751  26.790  1.00  0.00     0.071 A 
ATOM     12  C   UNL A   1      32.164  25.007  26.507  1.00  0.00     0.168 A 
ATOM     13  C   UNL A   1      34.241  23.136  26.201  1.00  0.00     0.045 A 
ATOM     14  Cl  UNL A   1      35.506  21.985  26.012  1.00  0.00    -0.084 Cl
ATOM     15  C   UNL A   1      34.426  24.443  25.768  1.00  0.00     0.032 A 
BRANCH  10  16
ATOM     16  O   UNL A   1      30.841  23.260  27.539  1.00  0.00    -0.493 OA
ATOM     17  C   UNL A   1      30.011  22.566  26.605  1.00  0.00     0.278 C 
ENDBRANCH  10  16
BRANCH  12  18
ATOM     18  O   UNL A   1      31.236  26.019  26.577  1.00  0.00    -0.492 OA
ATOM     19  C   UNL A   1      30.170  26.056  25.641  1.00  0.00     0.278 C 
ENDBRANCH  12  18
ENDBRANCH   8   9
ENDBRANCH   4   7
ENDBRANCH   2   3
ENDBRANCH   1   2
BRANCH   1  20
ATOM     20  C   UNL A   1      31.698  31.594  26.774  1.00  0.00     0.023 C 
BRANCH  20  21
ATOM     21  C   UNL A   1      32.876  32.477  27.177  1.00  0.00     0.116 C 
BRANCH  21  22
ATOM     22  N   UNL A   1      32.487  33.833  27.531  1.00  0.00    -0.352 N 
ATOM     23  C   UNL A   1      33.025  34.657  28.492  1.00  0.00     0.251 C 
ATOM     24  H   UNL A   1      31.739  34.212  27.015  1.00  0.00     0.163 HD
ATOM     25  O   UNL A   1      32.515  35.742  28.736  1.00  0.00    -0.269 OA
BRANCH  23  26
ATOM     26  C   UNL A   1      34.202  34.200  29.260  1.00  0.00     0.039 A 
ATOM     27  C   UNL A   1      33.994  33.494  30.446  1.00  0.00     0.014 A 
ATOM     28  C   UNL A   1      35.498  34.442  28.797  1.00  0.00     0.014 A 
ATOM     29  C   UNL A   1      35.087  32.965  31.133  1.00  0.00     0.010 A 
ATOM     30  C   UNL A   1      36.582  33.862  29.449  1.00  0.00     0.010 A 
ATOM     31  C   UNL A   1      36.386  33.113  30.618  1.00  0.00    -0.014 A 
BRANCH  31  32
ATOM     32  C   UNL A   1      37.550  32.477  31.281  1.00  0.00     0.031 A 
ATOM     33  C   UNL A   1      38.291  31.362  30.603  1.00  0.00     0.074 A 
ATOM     34  C   UNL A   1      37.901  32.866  32.523  1.00  0.00     0.049 A 
ATOM     35  N   UNL A   1      39.282  30.633  31.052  1.00  0.00    -0.248 NA
ATOM     36  C   UNL A   1      37.843  31.000  29.250  1.00  0.00     0.031 C 
ATOM     37  C   UNL A   1      37.232  33.909  33.302  1.00  0.00     0.029 A 
ATOM     38  N   UNL A   1      38.901  32.423  33.350  1.00  0.00    -0.354 N 
ATOM     39  C   UNL A   1      39.570  29.725  30.042  1.00  0.00     0.074 A 
ATOM     40  C   UNL A   1      38.616  29.958  28.978  1.00  0.00     0.031 C 
ATOM     41  C   UNL A   1      37.858  34.046  34.482  1.00  0.00     0.029 A 
ATOM     42  C   UNL A   1      38.948  33.077  34.557  1.00  0.00     0.049 A 
ATOM     43  H   UNL A   1      39.528  31.705  33.102  1.00  0.00     0.167 HD
ATOM     44  C   UNL A   1      40.555  28.798  29.996  1.00  0.00     0.037 A 
ATOM     45  C   UNL A   1      39.775  32.912  35.607  1.00  0.00     0.037 A 
ATOM     46  C   UNL A   1      41.514  28.581  31.048  1.00  0.00     0.049 A 
ATOM     47  C   UNL A   1      40.859  31.874  35.531  1.00  0.00     0.074 A 
ATOM     48  C   UNL A   1      42.567  27.683  31.084  1.00  0.00     0.029 A 
ATOM     49  N   UNL A   1      41.538  29.274  32.249  1.00  0.00    -0.354 N 
ATOM     50  N   UNL A   1      41.143  31.043  34.557  1.00  0.00    -0.248 NA
ATOM     51  C   UNL A   1      41.743  31.752  36.700  1.00  0.00     0.031 C 
ATOM     52  C   UNL A   1      43.208  27.811  32.320  1.00  0.00     0.029 A 
ATOM     53  C   UNL A   1      42.584  28.819  33.036  1.00  0.00     0.049 A 
ATOM     54  H   UNL A   1      40.905  29.984  32.505  1.00  0.00     0.167 HD
ATOM     55  C   UNL A   1      42.248  30.320  34.982  1.00  0.00     0.074 A 
ATOM     56  C   UNL A   1      42.594  30.819  36.299  1.00  0.00     0.031 C 
ATOM     57  C   UNL A   1      42.917  29.331  34.341  1.00  0.00     0.037 A 
BRANCH  44  58
ATOM     58  C   UNL A   1      40.655  27.956  28.759  1.00  0.00     0.064 A 
ATOM     59  C   UNL A   1      39.938  26.757  28.632  1.00  0.00     0.173 A 
ATOM     60  C   UNL A   1      41.444  28.366  27.675  1.00  0.00     0.173 A 
ATOM     61  F   UNL A   1      39.180  26.313  29.647  1.00  0.00    -0.203 F 
ATOM     62  C   UNL A   1      40.024  25.989  27.475  1.00  0.00     0.198 A 
ATOM     63  C   UNL A   1      41.506  27.610  26.507  1.00  0.00     0.198 A 
ATOM     64  F   UNL A   1      42.148  29.507  27.742  1.00  0.00    -0.203 F 
ATOM     65  F   UNL A   1      39.363  24.825  27.395  1.00  0.00    -0.200 F 
ATOM     66  C   UNL A   1      40.802  26.419  26.411  1.00  0.00     0.200 A 
ATOM     67  F   UNL A   1      42.249  28.033  25.475  1.00  0.00    -0.200 F 
ATOM     68  F   UNL A   1      40.877  25.683  25.294  1.00  0.00    -0.200 F 
ENDBRANCH  44  58
BRANCH  45  69
ATOM     69  C   UNL A   1      39.633  33.782  36.800  1.00  0.00     0.064 A 
ATOM     70  C   UNL A   1      40.261  35.034  36.851  1.00  0.00     0.173 A 
ATOM     71  C   UNL A   1      38.859  33.393  37.904  1.00  0.00     0.173 A 
ATOM     72  F   UNL A   1      41.027  35.440  35.827  1.00  0.00    -0.203 F 
ATOM     73  C   UNL A   1      40.130  35.861  37.965  1.00  0.00     0.198 A 
ATOM     74  C   UNL A   1      38.709  34.231  39.006  1.00  0.00     0.198 A 
ATOM     75  F   UNL A   1      38.234  32.207  37.900  1.00  0.00    -0.203 F 
ATOM     76  F   UNL A   1      40.768  37.038  38.001  1.00  0.00    -0.200 F 
ATOM     77  C   UNL A   1      39.349  35.462  39.038  1.00  0.00     0.200 A 
ATOM     78  F   UNL A   1      37.943  33.848  40.037  1.00  0.00    -0.200 F 
ATOM     79  F   UNL A   1      39.217  36.260  40.106  1.00  0.00    -0.200 F 
ENDBRANCH  45  69
BRANCH  57  80
ATOM     80  C   UNL A   1      44.110  28.744  35.034  1.00  0.00     0.064 A 
ATOM     81  C   UNL A   1      45.391  29.294  34.886  1.00  0.00     0.173 A 
ATOM     82  C   UNL A   1      43.959  27.647  35.897  1.00  0.00     0.173 A 
ATOM     83  F   UNL A   1      45.588  30.334  34.061  1.00  0.00    -0.203 F 
ATOM     84  C   UNL A   1      46.483  28.753  35.559  1.00  0.00     0.198 A 
ATOM     85  C   UNL A   1      45.049  27.127  36.590  1.00  0.00     0.198 A 
ATOM     86  F   UNL A   1      42.753  27.089  36.077  1.00  0.00    -0.203 F 
ATOM     87  F   UNL A   1      47.706  29.269  35.371  1.00  0.00    -0.200 F 
ATOM     88  C   UNL A   1      46.310  27.676  36.416  1.00  0.00     0.200 A 
ATOM     89  F   UNL A   1      44.877  26.093  37.425  1.00  0.00    -0.200 F 
ATOM     90  F   UNL A   1      47.361  27.162  37.070  1.00  0.00    -0.200 F 
ENDBRANCH  57  80
ENDBRANCH  31  32
ENDBRANCH  23  26
ENDBRANCH  21  22
ENDBRANCH  20  21
ENDBRANCH   1  20
TORSDOF 14
ENDMDL
MODEL 3
REMARK VINA RESULT:     -11.9      0.606      7.456
REMARK SMILES COc1cc(Cl)cc(/C=C/C(=O)NCCCCNC(=O)c2ccc(-c3c4nc(c(-c5c(F)c(F)c(F)c(F)c5F)c5ccc([nH]5)c(-c5c(F)c(F)c(F)c(F)c5F)c5nc(c(-c6c(F)c(F)c(F)c(F)c6F)c6ccc3[nH]6)C=C5)C=C4)cc2)c1OC
REMARK SMILES IDX 15 1 14 2 13 3 11 4 12 5 10 7 9 8 8 9 3 10 4 11 84 12 5 13
REMARK SMILES IDX 6 14 7 15 2 16 1 17 85 18 86 19 16 20 17 21 18 22 19 23
REMARK SMILES IDX 20 25 21 26 22 27 83 28 23 29 82 30 24 31 25 32 26 33 76 34
REMARK SMILES IDX 27 35 81 36 75 37 77 38 28 39 80 40 74 41 73 42 29 44 61 45
REMARK SMILES IDX 41 46 60 47 42 48 45 49 59 50 78 51 43 52 44 53 58 55 79 56
REMARK SMILES IDX 46 57 30 58 31 59 39 60 32 61 33 62 37 63 40 64 34 65 35 66
REMARK SMILES IDX 38 67 36 68 62 69 63 70 71 71 64 72 65 73 69 74 72 75 66 76
REMARK SMILES IDX 67 77 70 78 68 79 47 80 48 81 56 82 49 83 50 84 54 85 57 86
REMARK SMILES IDX 51 87 52 88 55 89 53 90
REMARK H PARENT 13 6 18 24 77 43 45 54
REMARK Flexibility Score: inf
ROOT
ATOM      1  C   UNL A   1      31.923  30.099  26.548  1.00  0.00     0.023 C 
ENDROOT
BRANCH   1   2
ATOM      2  C   UNL A   1      31.553  29.621  25.144  1.00  0.00     0.116 C 
BRANCH   2   3
ATOM      3  N   UNL A   1      32.704  29.655  24.261  1.00  0.00    -0.353 N 
ATOM      4  C   UNL A   1      33.506  28.645  23.829  1.00  0.00     0.244 C 
ATOM      5  O   UNL A   1      34.386  28.874  23.003  1.00  0.00    -0.270 OA
ATOM      6  H   UNL A   1      32.942  30.549  23.923  1.00  0.00     0.163 HD
BRANCH   4   7
ATOM      7  C   UNL A   1      33.268  27.253  24.270  1.00  0.00     0.072 C 
ATOM      8  C   UNL A   1      33.651  26.769  25.461  1.00  0.00     0.018 C 
BRANCH   8   9
ATOM      9  C   UNL A   1      33.404  25.380  25.897  1.00  0.00     0.022 A 
ATOM     10  C   UNL A   1      32.005  23.697  26.957  1.00  0.00     0.162 A 
ATOM     11  C   UNL A   1      33.016  22.747  26.762  1.00  0.00     0.071 A 
ATOM     12  C   UNL A   1      32.173  25.019  26.505  1.00  0.00     0.168 A 
ATOM     13  C   UNL A   1      34.219  23.118  26.170  1.00  0.00     0.045 A 
ATOM     14  Cl  UNL A   1      35.465  21.950  25.964  1.00  0.00    -0.084 Cl
ATOM     15  C   UNL A   1      34.422  24.426  25.749  1.00  0.00     0.032 A 
BRANCH  10  16
ATOM     16  O   UNL A   1      30.828  23.283  27.526  1.00  0.00    -0.493 OA
ATOM     17  C   UNL A   1      30.010  22.555  26.607  1.00  0.00     0.278 C 
ENDBRANCH  10  16
BRANCH  12  18
ATOM     18  O   UNL A   1      31.262  26.045  26.591  1.00  0.00    -0.492 OA
ATOM     19  C   UNL A   1      30.139  26.057  25.722  1.00  0.00     0.278 C 
ENDBRANCH  12  18
ENDBRANCH   8   9
ENDBRANCH   4   7
ENDBRANCH   2   3
ENDBRANCH   1   2
BRANCH   1  20
ATOM     20  C   UNL A   1      31.597  31.572  26.820  1.00  0.00     0.023 C 
BRANCH  20  21
ATOM     21  C   UNL A   1      32.808  32.477  27.027  1.00  0.00     0.116 C 
BRANCH  21  22
ATOM     22  N   UNL A   1      32.458  33.822  27.455  1.00  0.00    -0.352 N 
ATOM     23  C   UNL A   1      33.024  34.581  28.452  1.00  0.00     0.251 C 
ATOM     24  H   UNL A   1      31.715  34.246  26.967  1.00  0.00     0.163 HD
ATOM     25  O   UNL A   1      32.545  35.664  28.758  1.00  0.00    -0.269 OA
BRANCH  23  26
ATOM     26  C   UNL A   1      34.195  34.054  29.184  1.00  0.00     0.039 A 
ATOM     27  C   UNL A   1      33.982  33.155  30.230  1.00  0.00     0.014 A 
ATOM     28  C   UNL A   1      35.494  34.424  28.821  1.00  0.00     0.014 A 
ATOM     29  C   UNL A   1      35.076  32.567  30.867  1.00  0.00     0.010 A 
ATOM     30  C   UNL A   1      36.581  33.791  29.414  1.00  0.00     0.010 A 
ATOM     31  C   UNL A   1      36.383  32.852  30.437  1.00  0.00    -0.014 A 
BRANCH  31  32
ATOM     32  C   UNL A   1      37.553  32.166  31.036  1.00  0.00     0.031 A 
ATOM     33  C   UNL A   1      38.040  32.554  32.402  1.00  0.00     0.074 A 
ATOM     34  C   UNL A   1      38.214  31.235  30.321  1.00  0.00     0.049 A 
ATOM     35  N   UNL A   1      39.087  32.125  33.060  1.00  0.00    -0.248 NA
ATOM     36  C   UNL A   1      37.261  33.579  33.113  1.00  0.00     0.031 C 
ATOM     37  C   UNL A   1      37.863  30.802  28.968  1.00  0.00     0.029 A 
ATOM     38  N   UNL A   1      39.323  30.490  30.631  1.00  0.00    -0.354 N 
ATOM     39  C   UNL A   1      39.096  32.831  34.255  1.00  0.00     0.074 A 
ATOM     40  C   UNL A   1      37.982  33.754  34.211  1.00  0.00     0.031 C 
ATOM     41  C   UNL A   1      38.721  29.848  28.574  1.00  0.00     0.029 A 
ATOM     42  C   UNL A   1      39.704  29.628  29.631  1.00  0.00     0.049 A 
ATOM     43  H   UNL A   1      39.802  30.566  31.488  1.00  0.00     0.167 HD
ATOM     44  C   UNL A   1      39.943  32.703  35.304  1.00  0.00     0.037 A 
ATOM     45  C   UNL A   1      40.732  28.760  29.574  1.00  0.00     0.037 A 
ATOM     46  C   UNL A   1      41.039  31.772  35.353  1.00  0.00     0.049 A 
ATOM     47  C   UNL A   1      41.659  28.639  30.751  1.00  0.00     0.074 A 
ATOM     48  C   UNL A   1      41.938  31.549  36.382  1.00  0.00     0.029 A 
ATOM     49  N   UNL A   1      41.384  30.905  34.327  1.00  0.00    -0.354 N 
ATOM     50  N   UNL A   1      41.638  29.288  31.890  1.00  0.00    -0.248 NA
ATOM     51  C   UNL A   1      42.750  27.662  30.638  1.00  0.00     0.031 C 
ATOM     52  C   UNL A   1      42.844  30.569  35.967  1.00  0.00     0.029 A 
ATOM     53  C   UNL A   1      42.485  30.149  34.697  1.00  0.00     0.049 A 
ATOM     54  H   UNL A   1      40.915  30.836  33.463  1.00  0.00     0.167 HD
ATOM     55  C   UNL A   1      42.692  28.783  32.637  1.00  0.00     0.074 A 
ATOM     56  C   UNL A   1      43.327  27.762  31.827  1.00  0.00     0.031 C 
ATOM     57  C   UNL A   1      43.099  29.133  33.881  1.00  0.00     0.037 A 
BRANCH  44  58
ATOM     58  C   UNL A   1      39.706  33.585  36.494  1.00  0.00     0.064 A 
ATOM     59  C   UNL A   1      40.307  34.849  36.597  1.00  0.00     0.173 A 
ATOM     60  C   UNL A   1      38.845  33.182  37.524  1.00  0.00     0.173 A 
ATOM     61  F   UNL A   1      41.151  35.275  35.644  1.00  0.00    -0.203 F 
ATOM     62  C   UNL A   1      40.070  35.668  37.697  1.00  0.00     0.198 A 
ATOM     63  C   UNL A   1      38.588  34.015  38.611  1.00  0.00     0.198 A 
ATOM     64  F   UNL A   1      38.242  31.984  37.475  1.00  0.00    -0.203 F 
ATOM     65  F   UNL A   1      40.689  36.853  37.793  1.00  0.00    -0.200 F 
ATOM     66  C   UNL A   1      39.206  35.254  38.699  1.00  0.00     0.200 A 
ATOM     67  F   UNL A   1      37.744  33.619  39.573  1.00  0.00    -0.200 F 
ATOM     68  F   UNL A   1      38.973  36.047  39.754  1.00  0.00    -0.200 F 
ENDBRANCH  44  58
BRANCH  45  69
ATOM     69  C   UNL A   1      40.909  27.907  28.372  1.00  0.00     0.064 A 
ATOM     70  C   UNL A   1      40.301  26.647  28.295  1.00  0.00     0.173 A 
ATOM     71  C   UNL A   1      41.670  28.335  27.275  1.00  0.00     0.173 A 
ATOM     72  F   UNL A   1      39.580  26.187  29.328  1.00  0.00    -0.203 F 
ATOM     73  C   UNL A   1      40.457  25.840  27.170  1.00  0.00     0.198 A 
ATOM     74  C   UNL A   1      41.805  27.537  26.141  1.00  0.00     0.198 A 
ATOM     75  F   UNL A   1      42.266  29.535  27.299  1.00  0.00    -0.203 F 
ATOM     76  F   UNL A   1      39.894  24.625  27.136  1.00  0.00    -0.200 F 
ATOM     77  C   UNL A   1      41.204  26.288  26.091  1.00  0.00     0.200 A 
ATOM     78  F   UNL A   1      42.517  27.979  25.094  1.00  0.00    -0.200 F 
ATOM     79  F   UNL A   1      41.347  25.516  25.006  1.00  0.00    -0.200 F 
ENDBRANCH  45  69
BRANCH  57  80
ATOM     80  C   UNL A   1      44.264  28.386  34.460  1.00  0.00     0.064 A 
ATOM     81  C   UNL A   1      44.091  27.186  35.164  1.00  0.00     0.173 A 
ATOM     82  C   UNL A   1      45.574  28.853  34.265  1.00  0.00     0.173 A 
ATOM     83  F   UNL A   1      42.858  26.707  35.388  1.00  0.00    -0.203 F 
ATOM     84  C   UNL A   1      45.186  26.491  35.671  1.00  0.00     0.198 A 
ATOM     85  C   UNL A   1      46.666  28.141  34.749  1.00  0.00     0.198 A 
ATOM     86  F   UNL A   1      45.791  29.993  33.593  1.00  0.00    -0.203 F 
ATOM     87  F   UNL A   1      44.995  25.368  36.376  1.00  0.00    -0.200 F 
ATOM     88  C   UNL A   1      46.472  26.965  35.457  1.00  0.00     0.200 A 
ATOM     89  F   UNL A   1      47.909  28.595  34.532  1.00  0.00    -0.200 F 
ATOM     90  F   UNL A   1      47.525  26.290  35.938  1.00  0.00    -0.200 F 
ENDBRANCH  57  80
ENDBRANCH  31  32
ENDBRANCH  23  26
ENDBRANCH  21  22
ENDBRANCH  20  21
ENDBRANCH   1  20
TORSDOF 14
ENDMDL
