MODEL 1
REMARK VINA RESULT:     -11.9      0.000      0.000
REMARK SMILES CC[N@@H+]1CCO[C@@H](c2ncc(C(=O)NCCCCNC(=O)c3ccc(-c4c5nc(c(-c6c(F)c(F)c(F)c(F)c6F)c6ccc([nH]6)c(-c6c(F)c(F)c(F)c(F)c6F)c6nc(c(-c7c(F)c(F)c(F)c(F)c7F)c7ccc4[nH]7)C=C6)C=C5)cc3)s2)C1
REMARK SMILES IDX 16 1 15 2 14 3 12 4 13 5 11 7 8 8 9 9 85 10 10 11 7 12 3 13
REMARK SMILES IDX 4 14 86 15 5 17 6 18 2 19 1 20 17 21 18 22 19 23 20 24 21 26
REMARK SMILES IDX 22 27 23 28 84 29 24 30 83 31 25 32 26 33 27 34 77 35 28 36
REMARK SMILES IDX 82 37 76 38 78 39 29 40 81 41 75 42 74 43 30 45 62 46 42 47
REMARK SMILES IDX 61 48 43 49 46 50 60 51 79 52 44 53 45 54 59 56 80 57 47 58
REMARK SMILES IDX 31 59 32 60 40 61 33 62 34 63 38 64 41 65 35 66 36 67 39 68
REMARK SMILES IDX 37 69 63 70 64 71 72 72 65 73 66 74 70 75 73 76 67 77 68 78
REMARK SMILES IDX 71 79 69 80 48 81 49 82 57 83 50 84 51 85 55 86 58 87 52 88
REMARK SMILES IDX 53 89 56 90 54 91
REMARK H PARENT 14 6 3 16 19 25 78 44 46 55
REMARK Flexibility Score: inf
ROOT
ATOM      1  C   UNL A   1      31.811  30.410  26.764  1.00  0.00     0.023 C 
ENDROOT
BRANCH   1   2
ATOM      2  C   UNL A   1      32.472  29.913  25.478  1.00  0.00     0.116 C 
BRANCH   2   3
ATOM      3  N   UNL A   1      31.486  29.546  24.483  1.00  0.00    -0.351 N 
ATOM      4  C   UNL A   1      30.872  28.342  24.218  1.00  0.00     0.263 C 
ATOM      5  O   UNL A   1      29.982  28.386  23.365  1.00  0.00    -0.268 OA
ATOM      6  H   UNL A   1      31.206  30.284  23.895  1.00  0.00     0.163 HD
BRANCH   4   7
ATOM      7  C   UNL A   1      31.257  27.130  24.911  1.00  0.00     0.112 A 
ATOM      8  C   UNL A   1      32.315  25.009  25.517  1.00  0.00     0.128 A 
ATOM      9  N   UNL A   1      31.561  25.440  26.510  1.00  0.00    -0.246 NA
ATOM     10  S   UNL A   1      32.307  26.013  24.122  1.00  0.00    -0.111 S 
ATOM     11  C   UNL A   1      30.988  26.649  26.176  1.00  0.00     0.137 A 
BRANCH   8  12
ATOM     12  C   UNL A   1      33.127  23.741  25.613  1.00  0.00     0.232 C 
ATOM     13  N   UNL A   1      35.183  22.711  26.692  1.00  0.00    -0.331 N 
ATOM     14  C   UNL A   1      34.292  21.578  27.035  1.00  0.00     0.291 C 
ATOM     15  C   UNL A   1      34.333  23.927  26.562  1.00  0.00     0.302 C 
ATOM     16  H   UNL A   1      35.874  22.811  27.436  1.00  0.00     0.348 HD
ATOM     17  C   UNL A   1      33.066  21.435  26.115  1.00  0.00     0.222 C 
ATOM     18  O   UNL A   1      32.301  22.646  26.052  1.00  0.00    -0.359 OA
BRANCH  13  19
ATOM     19  C   UNL A   1      35.970  22.496  25.466  1.00  0.00     0.258 C 
ATOM     20  C   UNL A   1      37.309  23.224  25.473  1.00  0.00     0.071 C 
ENDBRANCH  13  19
ENDBRANCH   8  12
ENDBRANCH   4   7
ENDBRANCH   2   3
ENDBRANCH   1   2
BRANCH   1  21
ATOM     21  C   UNL A   1      31.585  31.924  26.819  1.00  0.00     0.023 C 
BRANCH  21  22
ATOM     22  C   UNL A   1      32.754  32.737  27.366  1.00  0.00     0.116 C 
BRANCH  22  23
ATOM     23  N   UNL A   1      32.407  34.114  27.676  1.00  0.00    -0.352 N 
ATOM     24  C   UNL A   1      32.985  34.960  28.597  1.00  0.00     0.251 C 
ATOM     25  H   UNL A   1      31.660  34.493  27.159  1.00  0.00     0.163 HD
ATOM     26  O   UNL A   1      32.515  36.066  28.807  1.00  0.00    -0.269 OA
BRANCH  24  27
ATOM     27  C   UNL A   1      34.160  34.492  29.364  1.00  0.00     0.039 A 
ATOM     28  C   UNL A   1      33.954  33.925  30.623  1.00  0.00     0.014 A 
ATOM     29  C   UNL A   1      35.447  34.583  28.829  1.00  0.00     0.014 A 
ATOM     30  C   UNL A   1      35.035  33.380  31.318  1.00  0.00     0.010 A 
ATOM     31  C   UNL A   1      36.511  33.983  29.492  1.00  0.00     0.010 A 
ATOM     32  C   UNL A   1      36.314  33.370  30.739  1.00  0.00    -0.014 A 
BRANCH  32  33
ATOM     33  C   UNL A   1      37.458  32.711  31.413  1.00  0.00     0.031 A 
ATOM     34  C   UNL A   1      38.145  31.542  30.767  1.00  0.00     0.074 A 
ATOM     35  C   UNL A   1      37.826  33.116  32.644  1.00  0.00     0.049 A 
ATOM     36  N   UNL A   1      39.106  30.784  31.232  1.00  0.00    -0.248 NA
ATOM     37  C   UNL A   1      37.665  31.154  29.431  1.00  0.00     0.031 C 
ATOM     38  C   UNL A   1      37.201  34.203  33.397  1.00  0.00     0.029 A 
ATOM     39  N   UNL A   1      38.806  32.649  33.485  1.00  0.00    -0.354 N 
ATOM     40  C   UNL A   1      39.333  29.824  30.256  1.00  0.00     0.074 A 
ATOM     41  C   UNL A   1      38.377  30.062  29.197  1.00  0.00     0.031 C 
ATOM     42  C   UNL A   1      37.822  34.332  34.580  1.00  0.00     0.029 A 
ATOM     43  C   UNL A   1      38.865  33.316  34.683  1.00  0.00     0.049 A 
ATOM     44  H   UNL A   1      39.408  31.907  33.250  1.00  0.00     0.167 HD
ATOM     45  C   UNL A   1      40.270  28.846  30.236  1.00  0.00     0.037 A 
ATOM     46  C   UNL A   1      39.666  33.124  35.748  1.00  0.00     0.037 A 
ATOM     47  C   UNL A   1      41.236  28.630  31.282  1.00  0.00     0.049 A 
ATOM     48  C   UNL A   1      40.704  32.036  35.699  1.00  0.00     0.074 A 
ATOM     49  C   UNL A   1      42.270  27.712  31.325  1.00  0.00     0.029 A 
ATOM     50  N   UNL A   1      41.284  29.343  32.471  1.00  0.00    -0.354 N 
ATOM     51  N   UNL A   1      40.959  31.179  34.741  1.00  0.00    -0.248 NA
ATOM     52  C   UNL A   1      41.570  31.894  36.877  1.00  0.00     0.031 C 
ATOM     53  C   UNL A   1      42.916  27.840  32.560  1.00  0.00     0.029 A 
ATOM     54  C   UNL A   1      42.315  28.870  33.265  1.00  0.00     0.049 A 
ATOM     55  H   UNL A   1      40.674  30.077  32.714  1.00  0.00     0.167 HD
ATOM     56  C   UNL A   1      42.026  30.413  35.188  1.00  0.00     0.074 A 
ATOM     57  C   UNL A   1      42.381  30.916  36.499  1.00  0.00     0.031 C 
ATOM     58  C   UNL A   1      42.656  29.385  34.568  1.00  0.00     0.037 A 
BRANCH  45  59
ATOM     59  C   UNL A   1      40.293  27.937  29.042  1.00  0.00     0.064 A 
ATOM     60  C   UNL A   1      41.029  28.255  27.890  1.00  0.00     0.173 A 
ATOM     61  C   UNL A   1      39.589  26.724  29.056  1.00  0.00     0.173 A 
ATOM     62  F   UNL A   1      41.710  29.409  27.820  1.00  0.00    -0.203 F 
ATOM     63  C   UNL A   1      41.028  27.410  26.783  1.00  0.00     0.198 A 
ATOM     64  C   UNL A   1      39.616  25.867  27.959  1.00  0.00     0.198 A 
ATOM     65  F   UNL A   1      38.875  26.369  30.134  1.00  0.00    -0.203 F 
ATOM     66  F   UNL A   1      41.692  27.762  25.673  1.00  0.00    -0.200 F 
ATOM     67  C   UNL A   1      40.328  26.214  26.821  1.00  0.00     0.200 A 
ATOM     68  F   UNL A   1      38.948  24.705  28.002  1.00  0.00    -0.200 F 
ATOM     69  F   UNL A   1      40.330  25.400  25.756  1.00  0.00    -0.200 F 
ENDBRANCH  45  59
BRANCH  46  70
ATOM     70  C   UNL A   1      39.536  34.004  36.938  1.00  0.00     0.064 A 
ATOM     71  C   UNL A   1      40.168  35.255  36.976  1.00  0.00     0.173 A 
ATOM     72  C   UNL A   1      38.772  33.623  38.049  1.00  0.00     0.173 A 
ATOM     73  F   UNL A   1      40.924  35.654  35.943  1.00  0.00    -0.203 F 
ATOM     74  C   UNL A   1      40.051  36.085  38.088  1.00  0.00     0.198 A 
ATOM     75  C   UNL A   1      38.635  34.465  39.150  1.00  0.00     0.198 A 
ATOM     76  F   UNL A   1      38.143  32.438  38.057  1.00  0.00    -0.203 F 
ATOM     77  F   UNL A   1      40.694  37.260  38.114  1.00  0.00    -0.200 F 
ATOM     78  C   UNL A   1      39.279  35.692  39.172  1.00  0.00     0.200 A 
ATOM     79  F   UNL A   1      37.878  34.088  40.190  1.00  0.00    -0.200 F 
ATOM     80  F   UNL A   1      39.161  36.495  40.238  1.00  0.00    -0.200 F 
ENDBRANCH  46  70
BRANCH  58  81
ATOM     81  C   UNL A   1      43.811  28.754  35.288  1.00  0.00     0.064 A 
ATOM     82  C   UNL A   1      45.127  29.201  35.100  1.00  0.00     0.173 A 
ATOM     83  C   UNL A   1      43.593  27.716  36.207  1.00  0.00     0.173 A 
ATOM     84  F   UNL A   1      45.388  30.179  34.221  1.00  0.00    -0.203 F 
ATOM     85  C   UNL A   1      46.186  28.615  35.790  1.00  0.00     0.198 A 
ATOM     86  C   UNL A   1      44.650  27.152  36.914  1.00  0.00     0.198 A 
ATOM     87  F   UNL A   1      42.351  27.256  36.425  1.00  0.00    -0.203 F 
ATOM     88  F   UNL A   1      47.440  29.028  35.562  1.00  0.00    -0.200 F 
ATOM     89  C   UNL A   1      45.945  27.597  36.701  1.00  0.00     0.200 A 
ATOM     90  F   UNL A   1      44.415  26.177  37.804  1.00  0.00    -0.200 F 
ATOM     91  F   UNL A   1      46.965  27.041  37.369  1.00  0.00    -0.200 F 
ENDBRANCH  58  81
ENDBRANCH  32  33
ENDBRANCH  24  27
ENDBRANCH  22  23
ENDBRANCH  21  22
ENDBRANCH   1  21
TORSDOF 13
ENDMDL
MODEL 2
REMARK VINA RESULT:     -11.9      0.792      2.192
REMARK SMILES CC[N@@H+]1CCO[C@@H](c2ncc(C(=O)NCCCCNC(=O)c3ccc(-c4c5nc(c(-c6c(F)c(F)c(F)c(F)c6F)c6ccc([nH]6)c(-c6c(F)c(F)c(F)c(F)c6F)c6nc(c(-c7c(F)c(F)c(F)c(F)c7F)c7ccc4[nH]7)C=C6)C=C5)cc3)s2)C1
REMARK SMILES IDX 16 1 15 2 14 3 12 4 13 5 11 7 8 8 9 9 85 10 10 11 7 12 3 13
REMARK SMILES IDX 4 14 86 15 5 17 6 18 2 19 1 20 17 21 18 22 19 23 20 24 21 26
REMARK SMILES IDX 22 27 23 28 84 29 24 30 83 31 25 32 26 33 27 34 77 35 28 36
REMARK SMILES IDX 82 37 76 38 78 39 29 40 81 41 75 42 74 43 30 45 62 46 42 47
REMARK SMILES IDX 61 48 43 49 46 50 60 51 79 52 44 53 45 54 59 56 80 57 47 58
REMARK SMILES IDX 31 59 32 60 40 61 33 62 34 63 38 64 41 65 35 66 36 67 39 68
REMARK SMILES IDX 37 69 63 70 64 71 72 72 65 73 66 74 70 75 73 76 67 77 68 78
REMARK SMILES IDX 71 79 69 80 48 81 49 82 57 83 50 84 51 85 55 86 58 87 52 88
REMARK SMILES IDX 53 89 56 90 54 91
REMARK H PARENT 14 6 3 16 19 25 78 44 46 55
REMARK Flexibility Score: inf
ROOT
ATOM      1  C   UNL A   1      31.842  30.425  26.845  1.00  0.00     0.023 C 
ENDROOT
BRANCH   1   2
ATOM      2  C   UNL A   1      32.486  29.764  25.626  1.00  0.00     0.116 C 
BRANCH   2   3
ATOM      3  N   UNL A   1      31.557  29.675  24.519  1.00  0.00    -0.351 N 
ATOM      4  C   UNL A   1      30.829  28.612  24.032  1.00  0.00     0.263 C 
ATOM      5  O   UNL A   1      30.032  28.892  23.133  1.00  0.00    -0.268 OA
ATOM      6  H   UNL A   1      31.423  30.519  24.030  1.00  0.00     0.163 HD
BRANCH   4   7
ATOM      7  C   UNL A   1      31.001  27.274  24.560  1.00  0.00     0.112 A 
ATOM      8  C   UNL A   1      31.714  24.959  24.897  1.00  0.00     0.128 A 
ATOM      9  N   UNL A   1      30.976  25.359  25.915  1.00  0.00    -0.246 NA
ATOM     10  S   UNL A   1      31.924  26.131  23.658  1.00  0.00    -0.111 S 
ATOM     11  C   UNL A   1      30.598  26.673  25.735  1.00  0.00     0.137 A 
BRANCH   8  12
ATOM     12  C   UNL A   1      32.332  23.584  24.842  1.00  0.00     0.232 C 
ATOM     13  N   UNL A   1      32.355  21.308  25.972  1.00  0.00    -0.331 N 
ATOM     14  C   UNL A   1      32.213  20.758  24.604  1.00  0.00     0.291 C 
ATOM     15  C   UNL A   1      31.775  22.680  25.966  1.00  0.00     0.302 C 
ATOM     16  H   UNL A   1      31.861  20.693  26.618  1.00  0.00     0.348 HD
ATOM     17  C   UNL A   1      32.723  21.689  23.489  1.00  0.00     0.222 C 
ATOM     18  O   UNL A   1      32.110  22.984  23.552  1.00  0.00    -0.359 OA
BRANCH  13  19
ATOM     19  C   UNL A   1      33.745  21.337  26.458  1.00  0.00     0.258 C 
ATOM     20  C   UNL A   1      33.910  22.096  27.769  1.00  0.00     0.071 C 
ENDBRANCH  13  19
ENDBRANCH   8  12
ENDBRANCH   4   7
ENDBRANCH   2   3
ENDBRANCH   1   2
BRANCH   1  21
ATOM     21  C   UNL A   1      31.671  31.943  26.729  1.00  0.00     0.023 C 
BRANCH  21  22
ATOM     22  C   UNL A   1      32.820  32.773  27.292  1.00  0.00     0.116 C 
BRANCH  22  23
ATOM     23  N   UNL A   1      32.439  34.132  27.639  1.00  0.00    -0.352 N 
ATOM     24  C   UNL A   1      32.991  34.965  28.587  1.00  0.00     0.251 C 
ATOM     25  H   UNL A   1      31.685  34.507  27.130  1.00  0.00     0.163 HD
ATOM     26  O   UNL A   1      32.493  36.053  28.825  1.00  0.00    -0.269 OA
BRANCH  24  27
ATOM     27  C   UNL A   1      34.174  34.504  29.346  1.00  0.00     0.039 A 
ATOM     28  C   UNL A   1      33.979  33.930  30.604  1.00  0.00     0.014 A 
ATOM     29  C   UNL A   1      35.457  34.609  28.806  1.00  0.00     0.014 A 
ATOM     30  C   UNL A   1      35.068  33.391  31.291  1.00  0.00     0.010 A 
ATOM     31  C   UNL A   1      36.530  34.016  29.461  1.00  0.00     0.010 A 
ATOM     32  C   UNL A   1      36.345  33.396  30.706  1.00  0.00    -0.014 A 
BRANCH  32  33
ATOM     33  C   UNL A   1      37.498  32.743  31.372  1.00  0.00     0.031 A 
ATOM     34  C   UNL A   1      38.205  31.598  30.708  1.00  0.00     0.074 A 
ATOM     35  C   UNL A   1      37.855  33.133  32.611  1.00  0.00     0.049 A 
ATOM     36  N   UNL A   1      39.178  30.849  31.162  1.00  0.00    -0.248 NA
ATOM     37  C   UNL A   1      37.736  31.226  29.363  1.00  0.00     0.031 C 
ATOM     38  C   UNL A   1      37.210  34.196  33.381  1.00  0.00     0.029 A 
ATOM     39  N   UNL A   1      38.840  32.667  33.447  1.00  0.00    -0.354 N 
ATOM     40  C   UNL A   1      39.424  29.910  30.170  1.00  0.00     0.074 A 
ATOM     41  C   UNL A   1      38.467  30.150  29.112  1.00  0.00     0.031 C 
ATOM     42  C   UNL A   1      37.825  34.314  34.569  1.00  0.00     0.029 A 
ATOM     43  C   UNL A   1      38.884  33.314  34.657  1.00  0.00     0.049 A 
ATOM     44  H   UNL A   1      39.455  31.940  33.201  1.00  0.00     0.167 HD
ATOM     45  C   UNL A   1      40.377  28.948  30.136  1.00  0.00     0.037 A 
ATOM     46  C   UNL A   1      39.686  33.116  35.721  1.00  0.00     0.037 A 
ATOM     47  C   UNL A   1      41.343  28.730  31.180  1.00  0.00     0.049 A 
ATOM     48  C   UNL A   1      40.742  32.047  35.656  1.00  0.00     0.074 A 
ATOM     49  C   UNL A   1      42.392  27.829  31.211  1.00  0.00     0.029 A 
ATOM     50  N   UNL A   1      41.376  29.422  32.382  1.00  0.00    -0.354 N 
ATOM     51  N   UNL A   1      41.014  31.211  34.684  1.00  0.00    -0.248 NA
ATOM     52  C   UNL A   1      41.606  31.898  36.834  1.00  0.00     0.031 C 
ATOM     53  C   UNL A   1      43.033  27.946  32.449  1.00  0.00     0.029 A 
ATOM     54  C   UNL A   1      42.413  28.952  33.171  1.00  0.00     0.049 A 
ATOM     55  H   UNL A   1      40.753  30.142  32.637  1.00  0.00     0.167 HD
ATOM     56  C   UNL A   1      42.092  30.456  35.120  1.00  0.00     0.074 A 
ATOM     57  C   UNL A   1      42.435  30.941  36.441  1.00  0.00     0.031 C 
ATOM     58  C   UNL A   1      42.741  29.450  34.484  1.00  0.00     0.037 A 
BRANCH  45  59
ATOM     59  C   UNL A   1      40.419  28.061  28.925  1.00  0.00     0.064 A 
ATOM     60  C   UNL A   1      39.701  26.857  28.871  1.00  0.00     0.173 A 
ATOM     61  C   UNL A   1      41.169  28.429  27.798  1.00  0.00     0.173 A 
ATOM     62  F   UNL A   1      38.978  26.453  29.926  1.00  0.00    -0.203 F 
ATOM     63  C   UNL A   1      39.762  26.037  27.747  1.00  0.00     0.198 A 
ATOM     64  C   UNL A   1      41.203  27.622  26.665  1.00  0.00     0.198 A 
ATOM     65  F   UNL A   1      41.869  29.573  27.796  1.00  0.00    -0.203 F 
ATOM     66  F   UNL A   1      39.113  24.864  27.740  1.00  0.00    -0.200 F 
ATOM     67  C   UNL A   1      40.507  26.422  26.643  1.00  0.00     0.200 A 
ATOM     68  F   UNL A   1      41.914  28.002  25.594  1.00  0.00    -0.200 F 
ATOM     69  F   UNL A   1      40.563  25.633  25.561  1.00  0.00    -0.200 F 
ENDBRANCH  45  59
BRANCH  46  70
ATOM     70  C   UNL A   1      39.537  33.973  36.925  1.00  0.00     0.064 A 
ATOM     71  C   UNL A   1      38.752  33.555  38.009  1.00  0.00     0.173 A 
ATOM     72  C   UNL A   1      40.183  35.213  37.025  1.00  0.00     0.173 A 
ATOM     73  F   UNL A   1      38.101  32.385  37.952  1.00  0.00    -0.203 F 
ATOM     74  C   UNL A   1      38.607  34.354  39.142  1.00  0.00     0.198 A 
ATOM     75  C   UNL A   1      40.058  35.999  38.167  1.00  0.00     0.198 A 
ATOM     76  F   UNL A   1      40.950  35.653  36.016  1.00  0.00    -0.203 F 
ATOM     77  F   UNL A   1      37.822  33.948  40.148  1.00  0.00    -0.200 F 
ATOM     78  C   UNL A   1      39.265  35.572  39.222  1.00  0.00     0.200 A 
ATOM     79  F   UNL A   1      40.706  37.169  38.248  1.00  0.00    -0.200 F 
ATOM     80  F   UNL A   1      39.132  36.336  40.315  1.00  0.00    -0.200 F 
ENDBRANCH  46  70
BRANCH  58  81
ATOM     81  C   UNL A   1      43.904  28.825  35.196  1.00  0.00     0.064 A 
ATOM     82  C   UNL A   1      43.736  27.733  36.061  1.00  0.00     0.173 A 
ATOM     83  C   UNL A   1      45.207  29.298  34.979  1.00  0.00     0.173 A 
ATOM     84  F   UNL A   1      42.509  27.255  36.313  1.00  0.00    -0.203 F 
ATOM     85  C   UNL A   1      44.829  27.153  36.700  1.00  0.00     0.198 A 
ATOM     86  C   UNL A   1      46.300  28.698  35.597  1.00  0.00     0.198 A 
ATOM     87  F   UNL A   1      45.421  30.336  34.157  1.00  0.00    -0.203 F 
ATOM     88  F   UNL A   1      44.641  26.140  37.556  1.00  0.00    -0.200 F 
ATOM     89  C   UNL A   1      46.110  27.631  36.462  1.00  0.00     0.200 A 
ATOM     90  F   UNL A   1      47.538  29.152  35.357  1.00  0.00    -0.200 F 
ATOM     91  F   UNL A   1      47.160  27.066  37.072  1.00  0.00    -0.200 F 
ENDBRANCH  58  81
ENDBRANCH  32  33
ENDBRANCH  24  27
ENDBRANCH  22  23
ENDBRANCH  21  22
ENDBRANCH   1  21
TORSDOF 13
ENDMDL
MODEL 3
REMARK VINA RESULT:     -11.8      5.706     11.397
REMARK SMILES CC[N@@H+]1CCO[C@@H](c2ncc(C(=O)NCCCCNC(=O)c3ccc(-c4c5nc(c(-c6c(F)c(F)c(F)c(F)c6F)c6ccc([nH]6)c(-c6c(F)c(F)c(F)c(F)c6F)c6nc(c(-c7c(F)c(F)c(F)c(F)c7F)c7ccc4[nH]7)C=C6)C=C5)cc3)s2)C1
REMARK SMILES IDX 16 1 15 2 14 3 12 4 13 5 11 7 8 8 9 9 85 10 10 11 7 12 3 13
REMARK SMILES IDX 4 14 86 15 5 17 6 18 2 19 1 20 17 21 18 22 19 23 20 24 21 26
REMARK SMILES IDX 22 27 23 28 84 29 24 30 83 31 25 32 26 33 27 34 77 35 28 36
REMARK SMILES IDX 82 37 76 38 78 39 29 40 81 41 75 42 74 43 30 45 62 46 42 47
REMARK SMILES IDX 61 48 43 49 46 50 60 51 79 52 44 53 45 54 59 56 80 57 47 58
REMARK SMILES IDX 31 59 32 60 40 61 33 62 34 63 38 64 41 65 35 66 36 67 39 68
REMARK SMILES IDX 37 69 63 70 64 71 72 72 65 73 66 74 70 75 73 76 67 77 68 78
REMARK SMILES IDX 71 79 69 80 48 81 49 82 57 83 50 84 51 85 55 86 58 87 52 88
REMARK SMILES IDX 53 89 56 90 54 91
REMARK H PARENT 14 6 3 16 19 25 78 44 46 55
REMARK Flexibility Score: inf
ROOT
ATOM      1  C   UNL A   1      37.209  21.185  24.626  1.00  0.00     0.023 C 
ENDROOT
BRANCH   1   2
ATOM      2  C   UNL A   1      35.954  21.359  25.483  1.00  0.00     0.116 C 
BRANCH   2   3
ATOM      3  N   UNL A   1      35.079  20.210  25.379  1.00  0.00    -0.351 N 
ATOM      4  C   UNL A   1      33.798  20.090  24.890  1.00  0.00     0.263 C 
ATOM      5  O   UNL A   1      33.364  18.936  24.838  1.00  0.00    -0.268 OA
ATOM      6  H   UNL A   1      35.467  19.371  25.718  1.00  0.00     0.163 HD
BRANCH   4   7
ATOM      7  C   UNL A   1      33.039  21.249  24.467  1.00  0.00     0.112 A 
ATOM      8  C   UNL A   1      31.814  23.365  24.429  1.00  0.00     0.128 A 
ATOM      9  N   UNL A   1      31.959  22.905  23.202  1.00  0.00    -0.246 NA
ATOM     10  S   UNL A   1      32.477  22.362  25.657  1.00  0.00    -0.111 S 
ATOM     11  C   UNL A   1      32.673  21.725  23.224  1.00  0.00     0.137 A 
BRANCH   8  12
ATOM     12  C   UNL A   1      31.131  24.679  24.721  1.00  0.00     0.232 C 
ATOM     13  N   UNL A   1      31.553  27.138  25.199  1.00  0.00    -0.331 N 
ATOM     14  C   UNL A   1      30.518  27.395  24.171  1.00  0.00     0.291 C 
ATOM     15  C   UNL A   1      32.166  25.814  24.897  1.00  0.00     0.302 C 
ATOM     16  H   UNL A   1      32.241  27.890  25.155  1.00  0.00     0.348 HD
ATOM     17  C   UNL A   1      29.525  26.236  23.967  1.00  0.00     0.222 C 
ATOM     18  O   UNL A   1      30.195  25.003  23.676  1.00  0.00    -0.359 OA
BRANCH  13  19
ATOM     19  C   UNL A   1      31.039  27.168  26.578  1.00  0.00     0.258 C 
ATOM     20  C   UNL A   1      31.753  28.182  27.466  1.00  0.00     0.071 C 
ENDBRANCH  13  19
ENDBRANCH   8  12
ENDBRANCH   4   7
ENDBRANCH   2   3
ENDBRANCH   1   2
BRANCH   1  21
ATOM     21  C   UNL A   1      38.062  19.966  24.988  1.00  0.00     0.023 C 
BRANCH  21  22
ATOM     22  C   UNL A   1      39.308  20.265  25.816  1.00  0.00     0.116 C 
BRANCH  22  23
ATOM     23  N   UNL A   1      40.249  19.159  25.869  1.00  0.00    -0.352 N 
ATOM     24  C   UNL A   1      41.604  19.194  26.112  1.00  0.00     0.251 C 
ATOM     25  H   UNL A   1      39.868  18.266  25.709  1.00  0.00     0.163 HD
ATOM     26  O   UNL A   1      42.278  18.180  26.028  1.00  0.00    -0.269 OA
BRANCH  24  27
ATOM     27  C   UNL A   1      42.244  20.488  26.433  1.00  0.00     0.039 A 
ATOM     28  C   UNL A   1      42.768  21.253  25.389  1.00  0.00     0.014 A 
ATOM     29  C   UNL A   1      42.295  20.955  27.748  1.00  0.00     0.014 A 
ATOM     30  C   UNL A   1      43.279  22.524  25.655  1.00  0.00     0.010 A 
ATOM     31  C   UNL A   1      42.744  22.246  28.003  1.00  0.00     0.010 A 
ATOM     32  C   UNL A   1      43.234  23.045  26.958  1.00  0.00    -0.014 A 
BRANCH  32  33
ATOM     33  C   UNL A   1      43.680  24.428  27.249  1.00  0.00     0.031 A 
ATOM     34  C   UNL A   1      42.702  25.445  27.764  1.00  0.00     0.074 A 
ATOM     35  C   UNL A   1      44.948  24.788  26.972  1.00  0.00     0.049 A 
ATOM     36  N   UNL A   1      42.880  26.720  28.000  1.00  0.00    -0.248 NA
ATOM     37  C   UNL A   1      41.333  24.970  28.019  1.00  0.00     0.031 C 
ATOM     38  C   UNL A   1      45.975  23.905  26.419  1.00  0.00     0.029 A 
ATOM     39  N   UNL A   1      45.585  25.997  27.106  1.00  0.00    -0.354 N 
ATOM     40  C   UNL A   1      41.645  27.201  28.414  1.00  0.00     0.074 A 
ATOM     41  C   UNL A   1      40.715  26.095  28.348  1.00  0.00     0.031 C 
ATOM     42  C   UNL A   1      47.118  24.596  26.276  1.00  0.00     0.029 A 
ATOM     43  C   UNL A   1      46.895  25.976  26.694  1.00  0.00     0.049 A 
ATOM     44  H   UNL A   1      45.144  26.802  27.462  1.00  0.00     0.167 HD
ATOM     45  C   UNL A   1      41.322  28.449  28.832  1.00  0.00     0.037 A 
ATOM     46  C   UNL A   1      47.810  26.963  26.653  1.00  0.00     0.037 A 
ATOM     47  C   UNL A   1      42.257  29.539  28.920  1.00  0.00     0.049 A 
ATOM     48  C   UNL A   1      47.430  28.338  27.130  1.00  0.00     0.074 A 
ATOM     49  C   UNL A   1      42.047  30.821  29.396  1.00  0.00     0.029 A 
ATOM     50  N   UNL A   1      43.584  29.475  28.520  1.00  0.00    -0.354 N 
ATOM     51  N   UNL A   1      46.278  28.765  27.588  1.00  0.00    -0.248 NA
ATOM     52  C   UNL A   1      48.478  29.366  27.090  1.00  0.00     0.031 C 
ATOM     53  C   UNL A   1      43.234  31.545  29.244  1.00  0.00     0.029 A 
ATOM     54  C   UNL A   1      44.198  30.701  28.717  1.00  0.00     0.049 A 
ATOM     55  H   UNL A   1      44.025  28.675  28.150  1.00  0.00     0.167 HD
ATOM     56  C   UNL A   1      46.468  30.100  27.912  1.00  0.00     0.074 A 
ATOM     57  C   UNL A   1      47.852  30.411  27.613  1.00  0.00     0.031 C 
ATOM     58  C   UNL A   1      45.578  30.990  28.414  1.00  0.00     0.037 A 
BRANCH  45  59
ATOM     59  C   UNL A   1      39.895  28.695  29.228  1.00  0.00     0.064 A 
ATOM     60  C   UNL A   1      38.948  29.166  28.306  1.00  0.00     0.173 A 
ATOM     61  C   UNL A   1      39.465  28.439  30.538  1.00  0.00     0.173 A 
ATOM     62  F   UNL A   1      39.310  29.438  27.043  1.00  0.00    -0.203 F 
ATOM     63  C   UNL A   1      37.631  29.405  28.692  1.00  0.00     0.198 A 
ATOM     64  C   UNL A   1      38.141  28.650  30.912  1.00  0.00     0.198 A 
ATOM     65  F   UNL A   1      40.329  27.983  31.457  1.00  0.00    -0.203 F 
ATOM     66  F   UNL A   1      36.757  29.908  27.808  1.00  0.00    -0.200 F 
ATOM     67  C   UNL A   1      37.227  29.141  29.991  1.00  0.00     0.200 A 
ATOM     68  F   UNL A   1      37.749  28.384  32.165  1.00  0.00    -0.200 F 
ATOM     69  F   UNL A   1      35.959  29.370  30.360  1.00  0.00    -0.200 F 
ENDBRANCH  45  59
BRANCH  46  70
ATOM     70  C   UNL A   1      49.184  26.674  26.169  1.00  0.00     0.064 A 
ATOM     71  C   UNL A   1      49.540  26.916  24.835  1.00  0.00     0.173 A 
ATOM     72  C   UNL A   1      50.169  26.166  27.027  1.00  0.00     0.173 A 
ATOM     73  F   UNL A   1      48.626  27.385  23.973  1.00  0.00    -0.203 F 
ATOM     74  C   UNL A   1      50.827  26.647  24.374  1.00  0.00     0.198 A 
ATOM     75  C   UNL A   1      51.462  25.920  26.571  1.00  0.00     0.198 A 
ATOM     76  F   UNL A   1      49.879  25.923  28.314  1.00  0.00    -0.203 F 
ATOM     77  F   UNL A   1      51.131  26.853  23.086  1.00  0.00    -0.200 F 
ATOM     78  C   UNL A   1      51.788  26.155  25.244  1.00  0.00     0.200 A 
ATOM     79  F   UNL A   1      52.393  25.458  27.417  1.00  0.00    -0.200 F 
ATOM     80  F   UNL A   1      53.028  25.903  24.801  1.00  0.00    -0.200 F 
ENDBRANCH  46  70
BRANCH  58  81
ATOM     81  C   UNL A   1      46.077  32.377  28.697  1.00  0.00     0.064 A 
ATOM     82  C   UNL A   1      46.650  32.714  29.932  1.00  0.00     0.173 A 
ATOM     83  C   UNL A   1      46.020  33.368  27.706  1.00  0.00     0.173 A 
ATOM     84  F   UNL A   1      46.714  31.806  30.917  1.00  0.00    -0.203 F 
ATOM     85  C   UNL A   1      47.126  34.001  30.172  1.00  0.00     0.198 A 
ATOM     86  C   UNL A   1      46.521  34.645  27.939  1.00  0.00     0.198 A 
ATOM     87  F   UNL A   1      45.486  33.094  26.506  1.00  0.00    -0.203 F 
ATOM     88  F   UNL A   1      47.628  34.313  31.374  1.00  0.00    -0.200 F 
ATOM     89  C   UNL A   1      47.067  34.962  29.173  1.00  0.00     0.200 A 
ATOM     90  F   UNL A   1      46.476  35.570  26.970  1.00  0.00    -0.200 F 
ATOM     91  F   UNL A   1      47.533  36.197  29.404  1.00  0.00    -0.200 F 
ENDBRANCH  58  81
ENDBRANCH  32  33
ENDBRANCH  24  27
ENDBRANCH  22  23
ENDBRANCH  21  22
ENDBRANCH   1  21
TORSDOF 13
ENDMDL
