MODEL 1
REMARK VINA RESULT:     -14.4      0.000      0.000
REMARK SMILES Cc1ccc(NC(=O)c2ccccc2NC(=O)[C@H]2CCCC[C@H]2C(=O)NCCCCNC(=O)c2ccc(-c3c4nc(c(-c5c(F)c(F)c(F)c(F)c5F)c5ccc([nH]5)c(-c5c(F)c(F)c(F)c(F)c5F)c5nc(c(-c6c(F)c(F)c(F)c(F)c6F)c6ccc3[nH]6)C=C5)C=C4)cc2)cc1
REMARK SMILES IDX 27 1 26 2 24 3 25 4 23 6 18 7 19 8 20 9 22 10 21 11 16 12
REMARK SMILES IDX 15 13 17 15 14 16 9 17 10 18 11 19 13 20 12 21 7 22 6 23
REMARK SMILES IDX 8 25 5 26 1 27 2 28 3 29 98 30 4 31 97 32 28 33 29 34 30 35
REMARK SMILES IDX 31 36 32 37 33 39 34 40 35 41 96 42 36 43 95 44 37 45 38 46
REMARK SMILES IDX 39 47 89 48 40 49 94 50 88 51 90 52 41 53 93 54 87 55 86 56
REMARK SMILES IDX 42 58 74 59 54 60 73 61 55 62 58 63 72 64 91 65 56 66 57 67
REMARK SMILES IDX 71 69 92 70 59 71 43 72 44 73 52 74 45 75 46 76 50 77 53 78
REMARK SMILES IDX 47 79 48 80 51 81 49 82 75 83 76 84 84 85 77 86 78 87 82 88
REMARK SMILES IDX 85 89 79 90 80 91 83 92 81 93 60 94 61 95 69 96 62 97 63 98
REMARK SMILES IDX 67 99 70 100 64 101 65 102 68 103 66 104
REMARK H PARENT 26 5 15 14 6 24 31 38 90 57 58 68
REMARK Flexibility Score: inf
ROOT
ATOM      1  C   UNL A   1      34.439  29.135  27.602  1.00  0.00     0.116 C 
ENDROOT
BRANCH   1   2
ATOM      2  N   UNL A   1      33.125  28.579  27.893  1.00  0.00    -0.356 N 
ATOM      3  C   UNL A   1      32.101  28.139  27.124  1.00  0.00     0.223 C 
ATOM      4  O   UNL A   1      31.048  27.898  27.730  1.00  0.00    -0.275 OA
ATOM      5  H   UNL A   1      32.941  28.510  28.858  1.00  0.00     0.163 HD
BRANCH   3   6
ATOM      6  C   UNL A   1      32.126  27.947  25.604  1.00  0.00     0.091 C 
ATOM      7  C   UNL A   1      33.053  26.811  25.121  1.00  0.00     0.091 C 
ATOM      8  C   UNL A   1      33.193  26.830  23.585  1.00  0.00     0.014 C 
ATOM      9  C   UNL A   1      31.854  26.958  22.847  1.00  0.00     0.001 C 
ATOM     10  C   UNL A   1      30.797  28.077  24.859  1.00  0.00     0.014 C 
ATOM     11  C   UNL A   1      31.027  28.139  23.347  1.00  0.00     0.001 C 
BRANCH   7  12
ATOM     12  C   UNL A   1      32.564  25.439  25.517  1.00  0.00     0.228 C 
ATOM     13  N   UNL A   1      33.312  24.309  25.483  1.00  0.00    -0.325 N 
ATOM     14  H   UNL A   1      32.826  23.565  25.908  1.00  0.00     0.169 HD
ATOM     15  O   UNL A   1      31.415  25.304  25.957  1.00  0.00    -0.274 OA
BRANCH  13  16
ATOM     16  C   UNL A   1      34.568  23.874  25.026  1.00  0.00     0.054 A 
ATOM     17  C   UNL A   1      34.708  23.371  23.702  1.00  0.00     0.063 A 
ATOM     18  C   UNL A   1      35.958  22.852  23.295  1.00  0.00     0.016 A 
ATOM     19  C   UNL A   1      37.058  22.856  24.146  1.00  0.00     0.001 A 
ATOM     20  C   UNL A   1      35.708  23.932  25.837  1.00  0.00     0.027 A 
ATOM     21  C   UNL A   1      36.934  23.410  25.410  1.00  0.00     0.002 A 
BRANCH  17  22
ATOM     22  C   UNL A   1      33.630  23.126  22.693  1.00  0.00     0.257 C 
ATOM     23  N   UNL A   1      32.785  22.044  22.621  1.00  0.00    -0.322 N 
ATOM     24  H   UNL A   1      32.225  22.055  21.811  1.00  0.00     0.170 HD
ATOM     25  O   UNL A   1      33.513  23.957  21.783  1.00  0.00    -0.269 OA
BRANCH  23  26
ATOM     26  C   UNL A   1      32.536  20.931  23.430  1.00  0.00     0.041 A 
ATOM     27  C   UNL A   1      32.997  17.170  25.423  1.00  0.00     0.044 C 
ATOM     28  C   UNL A   1      32.685  18.478  24.759  1.00  0.00    -0.051 A 
ATOM     29  C   UNL A   1      32.829  19.679  25.465  1.00  0.00     0.005 A 
ATOM     30  C   UNL A   1      32.324  18.520  23.411  1.00  0.00     0.005 A 
ATOM     31  C   UNL A   1      32.738  20.907  24.805  1.00  0.00     0.026 A 
ATOM     32  C   UNL A   1      32.221  19.745  22.754  1.00  0.00     0.026 A 
ENDBRANCH  23  26
ENDBRANCH  17  22
ENDBRANCH  13  16
ENDBRANCH   7  12
ENDBRANCH   3   6
ENDBRANCH   1   2
BRANCH   1  33
ATOM     33  C   UNL A   1      34.320  30.462  26.850  1.00  0.00     0.023 C 
BRANCH  33  34
ATOM     34  C   UNL A   1      34.059  31.714  27.667  1.00  0.00     0.023 C 
BRANCH  34  35
ATOM     35  C   UNL A   1      34.559  31.630  29.088  1.00  0.00     0.116 C 
BRANCH  35  36
ATOM     36  N   UNL A   1      35.740  32.443  29.402  1.00  0.00    -0.352 N 
ATOM     37  C   UNL A   1      37.061  32.053  29.567  1.00  0.00     0.251 C 
ATOM     38  H   UNL A   1      35.569  33.407  29.512  1.00  0.00     0.163 HD
ATOM     39  O   UNL A   1      37.913  32.860  29.842  1.00  0.00    -0.269 OA
BRANCH  37  40
ATOM     40  C   UNL A   1      37.433  30.640  29.241  1.00  0.00     0.039 A 
ATOM     41  C   UNL A   1      37.613  29.750  30.306  1.00  0.00     0.014 A 
ATOM     42  C   UNL A   1      37.934  30.331  27.987  1.00  0.00     0.014 A 
ATOM     43  C   UNL A   1      38.567  28.742  30.182  1.00  0.00     0.010 A 
ATOM     44  C   UNL A   1      39.013  29.477  27.930  1.00  0.00     0.010 A 
ATOM     45  C   UNL A   1      39.375  28.720  29.048  1.00  0.00    -0.014 A 
BRANCH  45  46
ATOM     46  C   UNL A   1      40.678  28.057  28.992  1.00  0.00     0.031 A 
ATOM     47  C   UNL A   1      40.772  26.607  28.694  1.00  0.00     0.074 A 
ATOM     48  C   UNL A   1      41.811  28.794  29.083  1.00  0.00     0.049 A 
ATOM     49  N   UNL A   1      41.795  25.873  28.974  1.00  0.00    -0.248 NA
ATOM     50  C   UNL A   1      39.689  25.849  28.079  1.00  0.00     0.031 C 
ATOM     51  C   UNL A   1      43.166  28.368  28.732  1.00  0.00     0.029 A 
ATOM     52  N   UNL A   1      41.993  30.054  29.686  1.00  0.00    -0.354 N 
ATOM     53  C   UNL A   1      41.633  24.652  28.355  1.00  0.00     0.074 A 
ATOM     54  C   UNL A   1      40.284  24.677  27.844  1.00  0.00     0.031 C 
ATOM     55  C   UNL A   1      44.048  29.157  29.364  1.00  0.00     0.029 A 
ATOM     56  C   UNL A   1      43.295  30.030  30.243  1.00  0.00     0.049 A 
ATOM     57  H   UNL A   1      41.348  30.796  29.715  1.00  0.00     0.167 HD
ATOM     58  C   UNL A   1      42.703  23.811  28.250  1.00  0.00     0.037 A 
ATOM     59  C   UNL A   1      43.506  30.152  31.585  1.00  0.00     0.037 A 
ATOM     60  C   UNL A   1      43.864  24.357  28.951  1.00  0.00     0.049 A 
ATOM     61  C   UNL A   1      44.195  28.965  32.216  1.00  0.00     0.074 A 
ATOM     62  C   UNL A   1      44.990  25.039  28.519  1.00  0.00     0.029 A 
ATOM     63  N   UNL A   1      43.824  24.501  30.334  1.00  0.00    -0.354 N 
ATOM     64  N   UNL A   1      44.300  27.800  31.641  1.00  0.00    -0.248 NA
ATOM     65  C   UNL A   1      44.774  28.978  33.557  1.00  0.00     0.031 C 
ATOM     66  C   UNL A   1      45.609  25.627  29.649  1.00  0.00     0.029 A 
ATOM     67  C   UNL A   1      44.869  25.293  30.769  1.00  0.00     0.049 A 
ATOM     68  H   UNL A   1      43.145  24.096  30.921  1.00  0.00     0.167 HD
ATOM     69  C   UNL A   1      44.887  26.914  32.506  1.00  0.00     0.074 A 
ATOM     70  C   UNL A   1      45.192  27.707  33.681  1.00  0.00     0.031 C 
ATOM     71  C   UNL A   1      45.043  25.595  32.181  1.00  0.00     0.037 A 
BRANCH  58  72
ATOM     72  C   UNL A   1      42.794  22.635  27.294  1.00  0.00     0.064 A 
ATOM     73  C   UNL A   1      42.005  21.478  27.497  1.00  0.00     0.173 A 
ATOM     74  C   UNL A   1      43.669  22.548  26.195  1.00  0.00     0.173 A 
ATOM     75  F   UNL A   1      41.033  21.445  28.416  1.00  0.00    -0.203 F 
ATOM     76  C   UNL A   1      42.179  20.304  26.759  1.00  0.00     0.198 A 
ATOM     77  C   UNL A   1      43.885  21.356  25.492  1.00  0.00     0.198 A 
ATOM     78  F   UNL A   1      44.293  23.625  25.709  1.00  0.00    -0.203 F 
ATOM     79  F   UNL A   1      41.406  19.239  27.011  1.00  0.00    -0.200 F 
ATOM     80  C   UNL A   1      43.150  20.229  25.783  1.00  0.00     0.200 A 
ATOM     81  F   UNL A   1      44.810  21.319  24.521  1.00  0.00    -0.200 F 
ATOM     82  F   UNL A   1      43.350  19.092  25.104  1.00  0.00    -0.200 F 
ENDBRANCH  58  72
BRANCH  59  83
ATOM     83  C   UNL A   1      42.510  31.022  32.257  1.00  0.00     0.064 A 
ATOM     84  C   UNL A   1      42.681  32.417  32.167  1.00  0.00     0.173 A 
ATOM     85  C   UNL A   1      41.243  30.545  32.610  1.00  0.00     0.173 A 
ATOM     86  F   UNL A   1      43.879  32.923  31.833  1.00  0.00    -0.203 F 
ATOM     87  C   UNL A   1      41.603  33.289  32.306  1.00  0.00     0.198 A 
ATOM     88  C   UNL A   1      40.166  31.423  32.755  1.00  0.00     0.198 A 
ATOM     89  F   UNL A   1      41.013  29.226  32.685  1.00  0.00    -0.203 F 
ATOM     90  F   UNL A   1      41.775  34.604  32.107  1.00  0.00    -0.200 F 
ATOM     91  C   UNL A   1      40.340  32.787  32.567  1.00  0.00     0.200 A 
ATOM     92  F   UNL A   1      38.935  30.936  32.972  1.00  0.00    -0.200 F 
ATOM     93  F   UNL A   1      39.283  33.611  32.597  1.00  0.00    -0.200 F 
ENDBRANCH  59  83
BRANCH  71  94
ATOM     94  C   UNL A   1      45.444  24.482  33.120  1.00  0.00     0.064 A 
ATOM     95  C   UNL A   1      44.615  23.400  33.458  1.00  0.00     0.173 A 
ATOM     96  C   UNL A   1      46.775  24.398  33.599  1.00  0.00     0.173 A 
ATOM     97  F   UNL A   1      43.368  23.299  32.977  1.00  0.00    -0.203 F 
ATOM     98  C   UNL A   1      45.063  22.346  34.260  1.00  0.00     0.198 A 
ATOM     99  C   UNL A   1      47.236  23.316  34.348  1.00  0.00     0.198 A 
ATOM    100  F   UNL A   1      47.679  25.352  33.328  1.00  0.00    -0.203 F 
ATOM    101  F   UNL A   1      44.219  21.357  34.586  1.00  0.00    -0.200 F 
ATOM    102  C   UNL A   1      46.375  22.297  34.693  1.00  0.00     0.200 A 
ATOM    103  F   UNL A   1      48.525  23.259  34.714  1.00  0.00    -0.200 F 
ATOM    104  F   UNL A   1      46.813  21.260  35.419  1.00  0.00    -0.200 F 
ENDBRANCH  71  94
ENDBRANCH  45  46
ENDBRANCH  37  40
ENDBRANCH  35  36
ENDBRANCH  34  35
ENDBRANCH  33  34
ENDBRANCH   1  33
TORSDOF 15
ENDMDL
MODEL 2
REMARK VINA RESULT:     -14.2      2.966      4.475
REMARK SMILES Cc1ccc(NC(=O)c2ccccc2NC(=O)[C@H]2CCCC[C@H]2C(=O)NCCCCNC(=O)c2ccc(-c3c4nc(c(-c5c(F)c(F)c(F)c(F)c5F)c5ccc([nH]5)c(-c5c(F)c(F)c(F)c(F)c5F)c5nc(c(-c6c(F)c(F)c(F)c(F)c6F)c6ccc3[nH]6)C=C5)C=C4)cc2)cc1
REMARK SMILES IDX 27 1 26 2 24 3 25 4 23 6 18 7 19 8 20 9 22 10 21 11 16 12
REMARK SMILES IDX 15 13 17 15 14 16 9 17 10 18 11 19 13 20 12 21 7 22 6 23
REMARK SMILES IDX 8 25 5 26 1 27 2 28 3 29 98 30 4 31 97 32 28 33 29 34 30 35
REMARK SMILES IDX 31 36 32 37 33 39 34 40 35 41 96 42 36 43 95 44 37 45 38 46
REMARK SMILES IDX 39 47 89 48 40 49 94 50 88 51 90 52 41 53 93 54 87 55 86 56
REMARK SMILES IDX 42 58 74 59 54 60 73 61 55 62 58 63 72 64 91 65 56 66 57 67
REMARK SMILES IDX 71 69 92 70 59 71 43 72 44 73 52 74 45 75 46 76 50 77 53 78
REMARK SMILES IDX 47 79 48 80 51 81 49 82 75 83 76 84 84 85 77 86 78 87 82 88
REMARK SMILES IDX 85 89 79 90 80 91 83 92 81 93 60 94 61 95 69 96 62 97 63 98
REMARK SMILES IDX 67 99 70 100 64 101 65 102 68 103 66 104
REMARK H PARENT 26 5 15 14 6 24 31 38 90 57 58 68
REMARK Flexibility Score: inf
ROOT
ATOM      1  C   UNL A   1      35.253  29.889  27.541  1.00  0.00     0.116 C 
ENDROOT
BRANCH   1   2
ATOM      2  N   UNL A   1      34.003  29.239  27.905  1.00  0.00    -0.356 N 
ATOM      3  C   UNL A   1      32.951  28.767  27.195  1.00  0.00     0.223 C 
ATOM      4  O   UNL A   1      31.964  28.434  27.867  1.00  0.00    -0.275 OA
ATOM      5  H   UNL A   1      33.899  29.117  28.876  1.00  0.00     0.163 HD
BRANCH   3   6
ATOM      6  C   UNL A   1      32.868  28.641  25.670  1.00  0.00     0.091 C 
ATOM      7  C   UNL A   1      33.580  27.398  25.094  1.00  0.00     0.091 C 
ATOM      8  C   UNL A   1      33.643  27.463  23.555  1.00  0.00     0.014 C 
ATOM      9  C   UNL A   1      32.305  27.830  22.900  1.00  0.00     0.001 C 
ATOM     10  C   UNL A   1      31.540  29.008  25.008  1.00  0.00     0.014 C 
ATOM     11  C   UNL A   1      31.699  29.101  23.489  1.00  0.00     0.001 C 
BRANCH   7  12
ATOM     12  C   UNL A   1      32.902  26.102  25.468  1.00  0.00     0.228 C 
ATOM     13  N   UNL A   1      33.472  24.875  25.378  1.00  0.00    -0.325 N 
ATOM     14  H   UNL A   1      32.893  24.198  25.798  1.00  0.00     0.169 HD
ATOM     15  O   UNL A   1      31.759  26.125  25.943  1.00  0.00    -0.274 OA
BRANCH  13  16
ATOM     16  C   UNL A   1      34.635  24.274  24.868  1.00  0.00     0.054 A 
ATOM     17  C   UNL A   1      34.649  23.765  23.538  1.00  0.00     0.063 A 
ATOM     18  C   UNL A   1      35.797  23.081  23.079  1.00  0.00     0.016 A 
ATOM     19  C   UNL A   1      36.921  22.926  23.882  1.00  0.00     0.001 A 
ATOM     20  C   UNL A   1      35.806  24.167  25.630  1.00  0.00     0.027 A 
ATOM     21  C   UNL A   1      36.928  23.483  25.151  1.00  0.00     0.002 A 
BRANCH  17  22
ATOM     22  C   UNL A   1      33.506  23.679  22.576  1.00  0.00     0.257 C 
ATOM     23  N   UNL A   1      32.594  22.658  22.453  1.00  0.00    -0.322 N 
ATOM     24  H   UNL A   1      31.993  22.779  21.682  1.00  0.00     0.170 HD
ATOM     25  O   UNL A   1      33.393  24.599  21.755  1.00  0.00    -0.269 OA
BRANCH  23  26
ATOM     26  C   UNL A   1      32.320  21.489  23.168  1.00  0.00     0.041 A 
ATOM     27  C   UNL A   1      32.771  17.649  25.010  1.00  0.00     0.044 C 
ATOM     28  C   UNL A   1      32.461  18.975  24.380  1.00  0.00    -0.051 A 
ATOM     29  C   UNL A   1      32.447  20.140  25.158  1.00  0.00     0.005 A 
ATOM     30  C   UNL A   1      32.258  19.075  23.002  1.00  0.00     0.005 A 
ATOM     31  C   UNL A   1      32.360  21.397  24.556  1.00  0.00     0.026 A 
ATOM     32  C   UNL A   1      32.159  20.329  22.401  1.00  0.00     0.026 A 
ENDBRANCH  23  26
ENDBRANCH  17  22
ENDBRANCH  13  16
ENDBRANCH   7  12
ENDBRANCH   3   6
ENDBRANCH   1   2
BRANCH   1  33
ATOM     33  C   UNL A   1      35.157  31.406  27.720  1.00  0.00     0.023 C 
BRANCH  33  34
ATOM     34  C   UNL A   1      34.586  31.927  29.025  1.00  0.00     0.023 C 
BRANCH  34  35
ATOM     35  C   UNL A   1      34.940  33.366  29.314  1.00  0.00     0.116 C 
BRANCH  35  36
ATOM     36  N   UNL A   1      33.937  34.137  30.059  1.00  0.00    -0.352 N 
ATOM     37  C   UNL A   1      33.837  34.370  31.422  1.00  0.00     0.251 C 
ATOM     38  H   UNL A   1      33.232  34.549  29.508  1.00  0.00     0.163 HD
ATOM     39  O   UNL A   1      32.928  35.021  31.872  1.00  0.00    -0.269 OA
BRANCH  37  40
ATOM     40  C   UNL A   1      34.964  33.931  32.305  1.00  0.00     0.039 A 
ATOM     41  C   UNL A   1      36.071  34.780  32.422  1.00  0.00     0.014 A 
ATOM     42  C   UNL A   1      35.067  32.602  32.682  1.00  0.00     0.014 A 
ATOM     43  C   UNL A   1      37.333  34.214  32.591  1.00  0.00     0.010 A 
ATOM     44  C   UNL A   1      36.318  32.028  32.642  1.00  0.00     0.010 A 
ATOM     45  C   UNL A   1      37.460  32.829  32.536  1.00  0.00    -0.014 A 
BRANCH  45  46
ATOM     46  C   UNL A   1      38.712  32.139  32.226  1.00  0.00     0.031 A 
ATOM     47  C   UNL A   1      38.713  30.938  31.355  1.00  0.00     0.074 A 
ATOM     48  C   UNL A   1      39.891  32.674  32.627  1.00  0.00     0.049 A 
ATOM     49  N   UNL A   1      39.667  30.069  31.318  1.00  0.00    -0.248 NA
ATOM     50  C   UNL A   1      37.608  30.596  30.468  1.00  0.00     0.031 C 
ATOM     51  C   UNL A   1      41.226  32.316  32.148  1.00  0.00     0.029 A 
ATOM     52  N   UNL A   1      40.135  33.552  33.700  1.00  0.00    -0.354 N 
ATOM     53  C   UNL A   1      39.444  29.231  30.247  1.00  0.00     0.074 A 
ATOM     54  C   UNL A   1      38.126  29.579  29.777  1.00  0.00     0.031 C 
ATOM     55  C   UNL A   1      42.133  32.695  33.060  1.00  0.00     0.029 A 
ATOM     56  C   UNL A   1      41.405  33.190  34.213  1.00  0.00     0.049 A 
ATOM     57  H   UNL A   1      39.546  34.270  34.026  1.00  0.00     0.167 HD
ATOM     58  C   UNL A   1      40.454  28.419  29.816  1.00  0.00     0.037 A 
ATOM     59  C   UNL A   1      41.562  32.731  35.487  1.00  0.00     0.037 A 
ATOM     60  C   UNL A   1      41.618  28.527  30.695  1.00  0.00     0.049 A 
ATOM     61  C   UNL A   1      42.133  31.335  35.578  1.00  0.00     0.074 A 
ATOM     62  C   UNL A   1      42.809  29.227  30.597  1.00  0.00     0.029 A 
ATOM     63  N   UNL A   1      41.524  28.091  32.012  1.00  0.00    -0.354 N 
ATOM     64  N   UNL A   1      42.179  30.505  34.573  1.00  0.00    -0.248 NA
ATOM     65  C   UNL A   1      42.649  30.745  36.811  1.00  0.00     0.031 C 
ATOM     66  C   UNL A   1      43.417  29.243  31.876  1.00  0.00     0.029 A 
ATOM     67  C   UNL A   1      42.603  28.541  32.748  1.00  0.00     0.049 A 
ATOM     68  H   UNL A   1      40.792  27.540  32.370  1.00  0.00     0.167 HD
ATOM     69  C   UNL A   1      42.659  29.295  35.001  1.00  0.00     0.074 A 
ATOM     70  C   UNL A   1      42.967  29.505  36.402  1.00  0.00     0.031 C 
ATOM     71  C   UNL A   1      42.733  28.219  34.161  1.00  0.00     0.037 A 
BRANCH  58  72
ATOM     72  C   UNL A   1      40.503  27.738  28.460  1.00  0.00     0.064 A 
ATOM     73  C   UNL A   1      39.913  26.466  28.271  1.00  0.00     0.173 A 
ATOM     74  C   UNL A   1      41.157  28.243  27.321  1.00  0.00     0.173 A 
ATOM     75  F   UNL A   1      39.144  25.902  29.210  1.00  0.00    -0.203 F 
ATOM     76  C   UNL A   1      40.084  25.718  27.101  1.00  0.00     0.198 A 
ATOM     77  C   UNL A   1      41.378  27.475  26.172  1.00  0.00     0.198 A 
ATOM     78  F   UNL A   1      41.542  29.520  27.243  1.00  0.00    -0.203 F 
ATOM     79  F   UNL A   1      39.507  24.514  26.992  1.00  0.00    -0.200 F 
ATOM     80  C   UNL A   1      40.854  26.206  26.066  1.00  0.00     0.200 A 
ATOM     81  F   UNL A   1      42.099  27.986  25.162  1.00  0.00    -0.200 F 
ATOM     82  F   UNL A   1      41.057  25.474  24.964  1.00  0.00    -0.200 F 
ENDBRANCH  58  72
BRANCH  59  83
ATOM     83  C   UNL A   1      40.602  33.328  36.447  1.00  0.00     0.064 A 
ATOM     84  C   UNL A   1      39.454  32.587  36.783  1.00  0.00     0.173 A 
ATOM     85  C   UNL A   1      40.978  34.367  37.305  1.00  0.00     0.173 A 
ATOM     86  F   UNL A   1      39.052  31.582  35.989  1.00  0.00    -0.203 F 
ATOM     87  C   UNL A   1      38.782  32.798  37.985  1.00  0.00     0.198 A 
ATOM     88  C   UNL A   1      40.298  34.580  38.507  1.00  0.00     0.198 A 
ATOM     89  F   UNL A   1      42.079  35.090  37.052  1.00  0.00    -0.203 F 
ATOM     90  F   UNL A   1      37.757  32.004  38.328  1.00  0.00    -0.200 F 
ATOM     91  C   UNL A   1      39.226  33.773  38.861  1.00  0.00     0.200 A 
ATOM     92  F   UNL A   1      40.749  35.499  39.373  1.00  0.00    -0.200 F 
ATOM     93  F   UNL A   1      38.649  33.909  40.064  1.00  0.00    -0.200 F 
ENDBRANCH  59  83
BRANCH  71  94
ATOM     94  C   UNL A   1      43.008  26.788  34.559  1.00  0.00     0.064 A 
ATOM     95  C   UNL A   1      42.072  25.952  35.188  1.00  0.00     0.173 A 
ATOM     96  C   UNL A   1      44.215  26.158  34.164  1.00  0.00     0.173 A 
ATOM     97  F   UNL A   1      40.848  26.393  35.510  1.00  0.00    -0.203 F 
ATOM     98  C   UNL A   1      42.342  24.607  35.455  1.00  0.00     0.198 A 
ATOM     99  C   UNL A   1      44.457  24.802  34.378  1.00  0.00     0.198 A 
ATOM    100  F   UNL A   1      45.185  26.835  33.532  1.00  0.00    -0.203 F 
ATOM    101  F   UNL A   1      41.429  23.861  36.094  1.00  0.00    -0.200 F 
ATOM    102  C   UNL A   1      43.527  24.028  35.039  1.00  0.00     0.200 A 
ATOM    103  F   UNL A   1      45.589  24.246  33.921  1.00  0.00    -0.200 F 
ATOM    104  F   UNL A   1      43.760  22.727  35.252  1.00  0.00    -0.200 F 
ENDBRANCH  71  94
ENDBRANCH  45  46
ENDBRANCH  37  40
ENDBRANCH  35  36
ENDBRANCH  34  35
ENDBRANCH  33  34
ENDBRANCH   1  33
TORSDOF 15
ENDMDL
MODEL 3
REMARK VINA RESULT:     -14.1      3.316      9.976
REMARK SMILES Cc1ccc(NC(=O)c2ccccc2NC(=O)[C@H]2CCCC[C@H]2C(=O)NCCCCNC(=O)c2ccc(-c3c4nc(c(-c5c(F)c(F)c(F)c(F)c5F)c5ccc([nH]5)c(-c5c(F)c(F)c(F)c(F)c5F)c5nc(c(-c6c(F)c(F)c(F)c(F)c6F)c6ccc3[nH]6)C=C5)C=C4)cc2)cc1
REMARK SMILES IDX 27 1 26 2 24 3 25 4 23 6 18 7 19 8 20 9 22 10 21 11 16 12
REMARK SMILES IDX 15 13 17 15 14 16 9 17 10 18 11 19 13 20 12 21 7 22 6 23
REMARK SMILES IDX 8 25 5 26 1 27 2 28 3 29 98 30 4 31 97 32 28 33 29 34 30 35
REMARK SMILES IDX 31 36 32 37 33 39 34 40 35 41 96 42 36 43 95 44 37 45 38 46
REMARK SMILES IDX 39 47 89 48 40 49 94 50 88 51 90 52 41 53 93 54 87 55 86 56
REMARK SMILES IDX 42 58 74 59 54 60 73 61 55 62 58 63 72 64 91 65 56 66 57 67
REMARK SMILES IDX 71 69 92 70 59 71 43 72 44 73 52 74 45 75 46 76 50 77 53 78
REMARK SMILES IDX 47 79 48 80 51 81 49 82 75 83 76 84 84 85 77 86 78 87 82 88
REMARK SMILES IDX 85 89 79 90 80 91 83 92 81 93 60 94 61 95 69 96 62 97 63 98
REMARK SMILES IDX 67 99 70 100 64 101 65 102 68 103 66 104
REMARK H PARENT 26 5 15 14 6 24 31 38 90 57 58 68
REMARK Flexibility Score: inf
ROOT
ATOM      1  C   UNL A   1      37.890  23.328  25.613  1.00  0.00     0.116 C 
ENDROOT
BRANCH   1   2
ATOM      2  N   UNL A   1      37.340  23.371  24.266  1.00  0.00    -0.356 N 
ATOM      3  C   UNL A   1      36.143  23.034  23.731  1.00  0.00     0.223 C 
ATOM      4  O   UNL A   1      36.094  23.037  22.493  1.00  0.00    -0.275 OA
ATOM      5  H   UNL A   1      37.976  23.718  23.600  1.00  0.00     0.163 HD
BRANCH   3   6
ATOM      6  C   UNL A   1      34.884  22.630  24.507  1.00  0.00     0.091 C 
ATOM      7  C   UNL A   1      34.109  23.815  25.123  1.00  0.00     0.091 C 
ATOM      8  C   UNL A   1      32.994  23.314  26.064  1.00  0.00     0.014 C 
ATOM      9  C   UNL A   1      32.135  22.196  25.459  1.00  0.00     0.001 C 
ATOM     10  C   UNL A   1      34.023  21.514  23.914  1.00  0.00     0.014 C 
ATOM     11  C   UNL A   1      32.978  21.040  24.926  1.00  0.00     0.001 C 
BRANCH   7  12
ATOM     12  C   UNL A   1      33.464  24.703  24.086  1.00  0.00     0.228 C 
ATOM     13  N   UNL A   1      33.006  25.959  24.316  1.00  0.00    -0.325 N 
ATOM     14  H   UNL A   1      32.750  26.389  23.469  1.00  0.00     0.169 HD
ATOM     15  O   UNL A   1      33.374  24.310  22.916  1.00  0.00    -0.274 OA
BRANCH  13  16
ATOM     16  C   UNL A   1      32.786  26.832  25.394  1.00  0.00     0.054 A 
ATOM     17  C   UNL A   1      31.532  26.828  26.069  1.00  0.00     0.063 A 
ATOM     18  C   UNL A   1      31.299  27.778  27.088  1.00  0.00     0.016 A 
ATOM     19  C   UNL A   1      32.276  28.691  27.469  1.00  0.00     0.001 A 
ATOM     20  C   UNL A   1      33.776  27.713  25.846  1.00  0.00     0.027 A 
ATOM     21  C   UNL A   1      33.519  28.646  26.856  1.00  0.00     0.002 A 
BRANCH  17  22
ATOM     22  C   UNL A   1      30.301  26.053  25.715  1.00  0.00     0.257 C 
ATOM     23  N   UNL A   1      29.383  26.348  24.735  1.00  0.00    -0.322 N 
ATOM     24  H   UNL A   1      28.603  25.747  24.755  1.00  0.00     0.170 HD
ATOM     25  O   UNL A   1      30.040  25.064  26.413  1.00  0.00    -0.269 OA
BRANCH  23  26
ATOM     26  C   UNL A   1      29.299  27.302  23.716  1.00  0.00     0.041 A 
ATOM     27  C   UNL A   1      28.864  31.039  21.672  1.00  0.00     0.044 C 
ATOM     28  C   UNL A   1      28.989  29.661  22.252  1.00  0.00    -0.051 A 
ATOM     29  C   UNL A   1      30.248  29.058  22.371  1.00  0.00     0.005 A 
ATOM     30  C   UNL A   1      27.867  28.997  22.751  1.00  0.00     0.005 A 
ATOM     31  C   UNL A   1      30.403  27.869  23.089  1.00  0.00     0.026 A 
ATOM     32  C   UNL A   1      28.018  27.804  23.456  1.00  0.00     0.026 A 
ENDBRANCH  23  26
ENDBRANCH  17  22
ENDBRANCH  13  16
ENDBRANCH   7  12
ENDBRANCH   3   6
ENDBRANCH   1   2
BRANCH   1  33
ATOM     33  C   UNL A   1      38.205  21.891  26.034  1.00  0.00     0.023 C 
BRANCH  33  34
ATOM     34  C   UNL A   1      39.663  21.517  26.226  1.00  0.00     0.023 C 
BRANCH  34  35
ATOM     35  C   UNL A   1      40.374  22.349  27.266  1.00  0.00     0.116 C 
BRANCH  35  36
ATOM     36  N   UNL A   1      41.661  22.924  26.858  1.00  0.00    -0.352 N 
ATOM     37  C   UNL A   1      41.977  24.233  26.528  1.00  0.00     0.251 C 
ATOM     38  H   UNL A   1      42.410  22.285  26.811  1.00  0.00     0.163 HD
ATOM     39  O   UNL A   1      43.096  24.533  26.195  1.00  0.00    -0.269 OA
BRANCH  37  40
ATOM     40  C   UNL A   1      40.942  25.293  26.746  1.00  0.00     0.039 A 
ATOM     41  C   UNL A   1      41.098  26.508  26.070  1.00  0.00     0.014 A 
ATOM     42  C   UNL A   1      40.090  25.211  27.836  1.00  0.00     0.014 A 
ATOM     43  C   UNL A   1      40.670  27.679  26.690  1.00  0.00     0.010 A 
ATOM     44  C   UNL A   1      39.853  26.369  28.542  1.00  0.00     0.010 A 
ATOM     45  C   UNL A   1      40.197  27.611  27.999  1.00  0.00    -0.014 A 
BRANCH  45  46
ATOM     46  C   UNL A   1      40.167  28.752  28.913  1.00  0.00     0.031 A 
ATOM     47  C   UNL A   1      39.112  29.787  28.789  1.00  0.00     0.074 A 
ATOM     48  C   UNL A   1      41.028  28.798  29.959  1.00  0.00     0.049 A 
ATOM     49  N   UNL A   1      39.201  30.978  29.279  1.00  0.00    -0.248 NA
ATOM     50  C   UNL A   1      37.867  29.572  28.061  1.00  0.00     0.031 C 
ATOM     51  C   UNL A   1      40.937  29.667  31.132  1.00  0.00     0.029 A 
ATOM     52  N   UNL A   1      42.281  28.170  30.092  1.00  0.00    -0.354 N 
ATOM     53  C   UNL A   1      37.964  31.578  29.179  1.00  0.00     0.074 A 
ATOM     54  C   UNL A   1      37.181  30.673  28.375  1.00  0.00     0.031 C 
ATOM     55  C   UNL A   1      42.150  29.765  31.697  1.00  0.00     0.029 A 
ATOM     56  C   UNL A   1      43.085  29.071  30.834  1.00  0.00     0.049 A 
ATOM     57  H   UNL A   1      42.544  27.289  29.742  1.00  0.00     0.167 HD
ATOM     58  C   UNL A   1      37.720  32.720  29.888  1.00  0.00     0.037 A 
ATOM     59  C   UNL A   1      44.217  29.623  30.310  1.00  0.00     0.037 A 
ATOM     60  C   UNL A   1      38.926  33.170  30.579  1.00  0.00     0.049 A 
ATOM     61  C   UNL A   1      44.191  31.131  30.230  1.00  0.00     0.074 A 
ATOM     62  C   UNL A   1      39.364  33.045  31.888  1.00  0.00     0.029 A 
ATOM     63  N   UNL A   1      40.023  33.597  29.837  1.00  0.00    -0.354 N 
ATOM     64  N   UNL A   1      43.104  31.843  30.335  1.00  0.00    -0.248 NA
ATOM     65  C   UNL A   1      45.372  31.953  29.976  1.00  0.00     0.031 C 
ATOM     66  C   UNL A   1      40.744  33.363  31.923  1.00  0.00     0.029 A 
ATOM     67  C   UNL A   1      41.143  33.694  30.640  1.00  0.00     0.049 A 
ATOM     68  H   UNL A   1      40.004  33.799  28.874  1.00  0.00     0.167 HD
ATOM     69  C   UNL A   1      43.399  33.164  30.120  1.00  0.00     0.074 A 
ATOM     70  C   UNL A   1      44.836  33.185  29.929  1.00  0.00     0.031 C 
ATOM     71  C   UNL A   1      42.422  34.119  30.094  1.00  0.00     0.037 A 
BRANCH  58  72
ATOM     72  C   UNL A   1      36.339  33.279  30.185  1.00  0.00     0.064 A 
ATOM     73  C   UNL A   1      35.578  33.896  29.165  1.00  0.00     0.173 A 
ATOM     74  C   UNL A   1      35.726  33.298  31.451  1.00  0.00     0.173 A 
ATOM     75  F   UNL A   1      35.956  33.851  27.882  1.00  0.00    -0.203 F 
ATOM     76  C   UNL A   1      34.387  34.584  29.420  1.00  0.00     0.198 A 
ATOM     77  C   UNL A   1      34.566  34.033  31.720  1.00  0.00     0.198 A 
ATOM     78  F   UNL A   1      36.179  32.548  32.460  1.00  0.00    -0.203 F 
ATOM     79  F   UNL A   1      33.721  35.157  28.409  1.00  0.00    -0.200 F 
ATOM     80  C   UNL A   1      33.903  34.690  30.706  1.00  0.00     0.200 A 
ATOM     81  F   UNL A   1      34.093  34.090  32.974  1.00  0.00    -0.200 F 
ATOM     82  F   UNL A   1      32.788  35.385  30.961  1.00  0.00    -0.200 F 
ENDBRANCH  58  72
BRANCH  59  83
ATOM     83  C   UNL A   1      44.922  28.726  29.362  1.00  0.00     0.064 A 
ATOM     84  C   UNL A   1      45.736  27.709  29.895  1.00  0.00     0.173 A 
ATOM     85  C   UNL A   1      44.506  28.596  28.033  1.00  0.00     0.173 A 
ATOM     86  F   UNL A   1      46.162  27.790  31.165  1.00  0.00    -0.203 F 
ATOM     87  C   UNL A   1      46.022  26.554  29.168  1.00  0.00     0.198 A 
ATOM     88  C   UNL A   1      44.799  27.440  27.305  1.00  0.00     0.198 A 
ATOM     89  F   UNL A   1      43.707  29.519  27.480  1.00  0.00    -0.203 F 
ATOM     90  F   UNL A   1      46.708  25.555  29.740  1.00  0.00    -0.200 F 
ATOM     91  C   UNL A   1      45.524  26.408  27.884  1.00  0.00     0.200 A 
ATOM     92  F   UNL A   1      44.289  27.280  26.075  1.00  0.00    -0.200 F 
ATOM     93  F   UNL A   1      45.706  25.257  27.221  1.00  0.00    -0.200 F 
ENDBRANCH  59  83
BRANCH  71  94
ATOM     94  C   UNL A   1      42.578  35.549  29.634  1.00  0.00     0.064 A 
ATOM     95  C   UNL A   1      43.300  36.528  30.335  1.00  0.00     0.173 A 
ATOM     96  C   UNL A   1      42.112  35.941  28.353  1.00  0.00     0.173 A 
ATOM     97  F   UNL A   1      43.892  36.254  31.505  1.00  0.00    -0.203 F 
ATOM     98  C   UNL A   1      43.493  37.815  29.823  1.00  0.00     0.198 A 
ATOM     99  C   UNL A   1      42.357  37.206  27.820  1.00  0.00     0.198 A 
ATOM    100  F   UNL A   1      41.428  35.096  27.568  1.00  0.00    -0.203 F 
ATOM    101  F   UNL A   1      44.157  38.724  30.550  1.00  0.00    -0.200 F 
ATOM    102  C   UNL A   1      43.034  38.150  28.562  1.00  0.00     0.200 A 
ATOM    103  F   UNL A   1      41.950  37.495  26.576  1.00  0.00    -0.200 F 
ATOM    104  F   UNL A   1      43.265  39.368  28.056  1.00  0.00    -0.200 F 
ENDBRANCH  71  94
ENDBRANCH  45  46
ENDBRANCH  37  40
ENDBRANCH  35  36
ENDBRANCH  34  35
ENDBRANCH  33  34
ENDBRANCH   1  33
TORSDOF 15
ENDMDL
