MODEL 1
REMARK VINA RESULT:     -10.9      0.000      0.000
REMARK SMILES CCCCCC[C@@H](C(=O)NCCCCNC(=O)c1ccc(-c2c3nc(c(-c4c(F)c(F)c(F)c(F)c4F)c4ccc([nH]4)c(-c4c(F)c(F)c(F)c(F)c4F)c4nc(c(-c5c(F)c(F)c(F)c(F)c5F)c5ccc2[nH]5)C=C4)C=C3)cc1)c1ccccc1C
REMARK SMILES IDX 11 1 10 2 8 3 9 4 7 6 6 7 5 8 4 9 3 10 2 11 1 12 81 13 82 14
REMARK SMILES IDX 86 15 83 16 85 17 87 18 84 19 12 20 13 21 14 22 15 23 16 24
REMARK SMILES IDX 17 26 18 27 19 28 80 29 20 30 79 31 21 32 22 33 23 34 73 35
REMARK SMILES IDX 24 36 78 37 72 38 74 39 25 40 77 41 71 42 70 43 26 45 58 46
REMARK SMILES IDX 38 47 57 48 39 49 42 50 56 51 75 52 40 53 41 54 55 56 76 57
REMARK SMILES IDX 43 58 27 59 28 60 36 61 29 62 30 63 34 64 37 65 31 66 32 67
REMARK SMILES IDX 35 68 33 69 59 70 60 71 68 72 61 73 62 74 66 75 69 76 63 77
REMARK SMILES IDX 64 78 67 79 65 80 44 81 45 82 53 83 46 84 47 85 51 86 54 87
REMARK SMILES IDX 48 88 49 89 52 90 50 91
REMARK H PARENT 10 5 15 25 74 44 42 55
REMARK Flexibility Score: inf
ROOT
ATOM      1  C   UNL A   1      36.750  22.991  25.376  1.00  0.00     0.116 C 
ENDROOT
BRANCH   1   2
ATOM      2  N   UNL A   1      35.922  22.352  26.382  1.00  0.00    -0.356 N 
ATOM      3  C   UNL A   1      34.572  22.398  26.602  1.00  0.00     0.227 C 
ATOM      4  O   UNL A   1      34.195  21.996  27.706  1.00  0.00    -0.274 OA
ATOM      5  H   UNL A   1      36.418  21.786  27.017  1.00  0.00     0.163 HD
BRANCH   3   6
ATOM      6  C   UNL A   1      33.575  22.868  25.507  1.00  0.00     0.109 C 
BRANCH   6   7
ATOM      7  C   UNL A   1      34.111  22.658  24.075  1.00  0.00     0.018 C 
BRANCH   7   8
ATOM      8  C   UNL A   1      33.142  22.674  22.899  1.00  0.00     0.001 C 
BRANCH   8   9
ATOM      9  C   UNL A   1      33.035  23.997  22.141  1.00  0.00     0.000 C 
BRANCH   9  10
ATOM     10  C   UNL A   1      31.849  24.865  22.568  1.00  0.00    -0.000 C 
BRANCH  10  11
ATOM     11  C   UNL A   1      32.012  26.371  22.332  1.00  0.00    -0.003 C 
ATOM     12  C   UNL A   1      33.457  26.826  22.202  1.00  0.00     0.004 C 
ENDBRANCH  10  11
ENDBRANCH   9  10
ENDBRANCH   8   9
ENDBRANCH   7   8
ENDBRANCH   6   7
BRANCH   6  13
ATOM     13  C   UNL A   1      33.135  24.331  25.809  1.00  0.00    -0.033 A 
ATOM     14  C   UNL A   1      34.132  25.317  25.591  1.00  0.00     0.005 A 
ATOM     15  C   UNL A   1      31.855  24.782  26.227  1.00  0.00    -0.047 A 
ATOM     16  C   UNL A   1      33.894  26.677  25.805  1.00  0.00     0.000 A 
ATOM     17  C   UNL A   1      31.654  26.159  26.479  1.00  0.00     0.004 A 
ATOM     18  C   UNL A   1      30.639  23.918  26.442  1.00  0.00     0.044 C 
ATOM     19  C   UNL A   1      32.657  27.097  26.265  1.00  0.00     0.000 A 
ENDBRANCH   6  13
ENDBRANCH   3   6
ENDBRANCH   1   2
BRANCH   1  20
ATOM     20  C   UNL A   1      37.460  21.928  24.526  1.00  0.00     0.023 C 
BRANCH  20  21
ATOM     21  C   UNL A   1      37.894  20.673  25.264  1.00  0.00     0.023 C 
BRANCH  21  22
ATOM     22  C   UNL A   1      39.254  20.785  25.933  1.00  0.00     0.116 C 
BRANCH  22  23
ATOM     23  N   UNL A   1      40.046  19.563  25.884  1.00  0.00    -0.352 N 
ATOM     24  C   UNL A   1      41.406  19.407  26.082  1.00  0.00     0.251 C 
ATOM     25  H   UNL A   1      39.546  18.740  25.683  1.00  0.00     0.163 HD
ATOM     26  O   UNL A   1      41.942  18.324  25.951  1.00  0.00    -0.269 OA
BRANCH  24  27
ATOM     27  C   UNL A   1      42.205  20.609  26.404  1.00  0.00     0.039 A 
ATOM     28  C   UNL A   1      42.720  21.375  25.358  1.00  0.00     0.014 A 
ATOM     29  C   UNL A   1      42.332  21.031  27.728  1.00  0.00     0.014 A 
ATOM     30  C   UNL A   1      43.273  22.626  25.635  1.00  0.00     0.010 A 
ATOM     31  C   UNL A   1      42.787  22.315  27.991  1.00  0.00     0.010 A 
ATOM     32  C   UNL A   1      43.257  23.128  26.947  1.00  0.00    -0.014 A 
BRANCH  32  33
ATOM     33  C   UNL A   1      43.725  24.500  27.264  1.00  0.00     0.031 A 
ATOM     34  C   UNL A   1      42.748  25.512  27.792  1.00  0.00     0.074 A 
ATOM     35  C   UNL A   1      44.993  24.861  26.984  1.00  0.00     0.049 A 
ATOM     36  N   UNL A   1      42.916  26.792  28.011  1.00  0.00    -0.248 NA
ATOM     37  C   UNL A   1      41.384  25.031  28.067  1.00  0.00     0.031 C 
ATOM     38  C   UNL A   1      46.015  23.991  26.401  1.00  0.00     0.029 A 
ATOM     39  N   UNL A   1      45.632  26.066  27.137  1.00  0.00    -0.354 N 
ATOM     40  C   UNL A   1      41.677  27.269  28.414  1.00  0.00     0.074 A 
ATOM     41  C   UNL A   1      40.753  26.158  28.355  1.00  0.00     0.031 C 
ATOM     42  C   UNL A   1      47.160  24.681  26.272  1.00  0.00     0.029 A 
ATOM     43  C   UNL A   1      46.944  26.050  26.728  1.00  0.00     0.049 A 
ATOM     44  H   UNL A   1      45.193  26.867  27.504  1.00  0.00     0.167 HD
ATOM     45  C   UNL A   1      41.345  28.515  28.824  1.00  0.00     0.037 A 
ATOM     46  C   UNL A   1      47.865  27.033  26.722  1.00  0.00     0.037 A 
ATOM     47  C   UNL A   1      42.280  29.600  28.939  1.00  0.00     0.049 A 
ATOM     48  C   UNL A   1      47.484  28.396  27.232  1.00  0.00     0.074 A 
ATOM     49  C   UNL A   1      42.064  30.877  29.425  1.00  0.00     0.029 A 
ATOM     50  N   UNL A   1      43.615  29.530  28.571  1.00  0.00    -0.354 N 
ATOM     51  N   UNL A   1      46.325  28.818  27.677  1.00  0.00    -0.248 NA
ATOM     52  C   UNL A   1      48.539  29.419  27.243  1.00  0.00     0.031 C 
ATOM     53  C   UNL A   1      43.264  31.590  29.323  1.00  0.00     0.029 A 
ATOM     54  C   UNL A   1      44.235  30.745  28.810  1.00  0.00     0.049 A 
ATOM     55  H   UNL A   1      44.056  28.734  28.195  1.00  0.00     0.167 HD
ATOM     56  C   UNL A   1      46.518  30.142  28.047  1.00  0.00     0.074 A 
ATOM     57  C   UNL A   1      47.908  30.451  27.784  1.00  0.00     0.031 C 
ATOM     58  C   UNL A   1      45.624  31.024  28.555  1.00  0.00     0.037 A 
BRANCH  45  59
ATOM     59  C   UNL A   1      39.913  28.760  29.198  1.00  0.00     0.064 A 
ATOM     60  C   UNL A   1      39.446  28.541  30.504  1.00  0.00     0.173 A 
ATOM     61  C   UNL A   1      39.000  29.236  28.246  1.00  0.00     0.173 A 
ATOM     62  F   UNL A   1      40.276  28.068  31.446  1.00  0.00    -0.203 F 
ATOM     63  C   UNL A   1      38.111  28.757  30.833  1.00  0.00     0.198 A 
ATOM     64  C   UNL A   1      37.673  29.481  28.587  1.00  0.00     0.198 A 
ATOM     65  F   UNL A   1      39.395  29.466  26.984  1.00  0.00    -0.203 F 
ATOM     66  F   UNL A   1      37.677  28.487  32.072  1.00  0.00    -0.200 F 
ATOM     67  C   UNL A   1      37.227  29.234  29.877  1.00  0.00     0.200 A 
ATOM     68  F   UNL A   1      36.820  29.951  27.665  1.00  0.00    -0.200 F 
ATOM     69  F   UNL A   1      35.943  29.445  30.197  1.00  0.00    -0.200 F 
ENDBRANCH  45  59
BRANCH  46  70
ATOM     70  C   UNL A   1      49.248  26.755  26.255  1.00  0.00     0.064 A 
ATOM     71  C   UNL A   1      49.614  26.996  24.923  1.00  0.00     0.173 A 
ATOM     72  C   UNL A   1      50.225  26.241  27.119  1.00  0.00     0.173 A 
ATOM     73  F   UNL A   1      48.708  27.468  24.055  1.00  0.00    -0.203 F 
ATOM     74  C   UNL A   1      50.901  26.714  24.468  1.00  0.00     0.198 A 
ATOM     75  C   UNL A   1      51.518  25.982  26.668  1.00  0.00     0.198 A 
ATOM     76  F   UNL A   1      49.925  25.999  28.403  1.00  0.00    -0.203 F 
ATOM     77  F   UNL A   1      51.211  26.912  23.180  1.00  0.00    -0.200 F 
ATOM     78  C   UNL A   1      51.853  26.211  25.341  1.00  0.00     0.200 A 
ATOM     79  F   UNL A   1      52.440  25.507  27.518  1.00  0.00    -0.200 F 
ATOM     80  F   UNL A   1      53.090  25.941  24.904  1.00  0.00    -0.200 F 
ENDBRANCH  46  70
BRANCH  58  81
ATOM     81  C   UNL A   1      46.127  32.394  28.894  1.00  0.00     0.064 A 
ATOM     82  C   UNL A   1      46.080  33.443  27.964  1.00  0.00     0.173 A 
ATOM     83  C   UNL A   1      46.614  32.672  30.180  1.00  0.00     0.173 A 
ATOM     84  F   UNL A   1      45.637  33.220  26.718  1.00  0.00    -0.203 F 
ATOM     85  C   UNL A   1      46.521  34.718  28.306  1.00  0.00     0.198 A 
ATOM     86  C   UNL A   1      47.029  33.954  30.525  1.00  0.00     0.198 A 
ATOM     87  F   UNL A   1      46.671  31.703  31.105  1.00  0.00    -0.203 F 
ATOM     88  F   UNL A   1      46.503  35.698  27.391  1.00  0.00    -0.200 F 
ATOM     89  C   UNL A   1      46.987  34.975  29.587  1.00  0.00     0.200 A 
ATOM     90  F   UNL A   1      47.469  34.204  31.766  1.00  0.00    -0.200 F 
ATOM     91  F   UNL A   1      47.402  36.206  29.916  1.00  0.00    -0.200 F 
ENDBRANCH  58  81
ENDBRANCH  32  33
ENDBRANCH  24  27
ENDBRANCH  22  23
ENDBRANCH  21  22
ENDBRANCH  20  21
ENDBRANCH   1  20
TORSDOF 17
ENDMDL
MODEL 2
REMARK VINA RESULT:     -10.9      5.716      9.848
REMARK SMILES CCCCCC[C@@H](C(=O)NCCCCNC(=O)c1ccc(-c2c3nc(c(-c4c(F)c(F)c(F)c(F)c4F)c4ccc([nH]4)c(-c4c(F)c(F)c(F)c(F)c4F)c4nc(c(-c5c(F)c(F)c(F)c(F)c5F)c5ccc2[nH]5)C=C4)C=C3)cc1)c1ccccc1C
REMARK SMILES IDX 11 1 10 2 8 3 9 4 7 6 6 7 5 8 4 9 3 10 2 11 1 12 81 13 82 14
REMARK SMILES IDX 86 15 83 16 85 17 87 18 84 19 12 20 13 21 14 22 15 23 16 24
REMARK SMILES IDX 17 26 18 27 19 28 80 29 20 30 79 31 21 32 22 33 23 34 73 35
REMARK SMILES IDX 24 36 78 37 72 38 74 39 25 40 77 41 71 42 70 43 26 45 58 46
REMARK SMILES IDX 38 47 57 48 39 49 42 50 56 51 75 52 40 53 41 54 55 56 76 57
REMARK SMILES IDX 43 58 27 59 28 60 36 61 29 62 30 63 34 64 37 65 31 66 32 67
REMARK SMILES IDX 35 68 33 69 59 70 60 71 68 72 61 73 62 74 66 75 69 76 63 77
REMARK SMILES IDX 64 78 67 79 65 80 44 81 45 82 53 83 46 84 47 85 51 86 54 87
REMARK SMILES IDX 48 88 49 89 52 90 50 91
REMARK H PARENT 10 5 15 25 74 44 42 55
REMARK Flexibility Score: inf
ROOT
ATOM      1  C   UNL A   1      34.137  29.698  27.093  1.00  0.00     0.116 C 
ENDROOT
BRANCH   1   2
ATOM      2  N   UNL A   1      33.077  28.901  27.681  1.00  0.00    -0.356 N 
ATOM      3  C   UNL A   1      32.131  28.094  27.108  1.00  0.00     0.227 C 
ATOM      4  O   UNL A   1      31.180  27.785  27.831  1.00  0.00    -0.274 OA
ATOM      5  H   UNL A   1      33.029  28.949  28.663  1.00  0.00     0.163 HD
BRANCH   3   6
ATOM      6  C   UNL A   1      32.280  27.551  25.660  1.00  0.00     0.109 C 
BRANCH   6   7
ATOM      7  C   UNL A   1      31.011  27.755  24.806  1.00  0.00     0.018 C 
BRANCH   7   8
ATOM      8  C   UNL A   1      31.118  27.752  23.286  1.00  0.00     0.001 C 
BRANCH   8   9
ATOM      9  C   UNL A   1      32.534  27.840  22.716  1.00  0.00     0.000 C 
BRANCH   9  10
ATOM     10  C   UNL A   1      32.953  26.615  21.900  1.00  0.00    -0.000 C 
BRANCH  10  11
ATOM     11  C   UNL A   1      32.181  25.324  22.199  1.00  0.00    -0.003 C 
ATOM     12  C   UNL A   1      33.049  24.076  22.230  1.00  0.00     0.004 C 
ENDBRANCH  10  11
ENDBRANCH   9  10
ENDBRANCH   8   9
ENDBRANCH   7   8
ENDBRANCH   6   7
BRANCH   6  13
ATOM     13  C   UNL A   1      32.774  26.075  25.715  1.00  0.00    -0.033 A 
ATOM     14  C   UNL A   1      34.175  25.903  25.574  1.00  0.00     0.005 A 
ATOM     15  C   UNL A   1      31.994  24.908  25.932  1.00  0.00    -0.047 A 
ATOM     16  C   UNL A   1      34.778  24.642  25.611  1.00  0.00     0.000 A 
ATOM     17  C   UNL A   1      32.623  23.642  25.921  1.00  0.00     0.004 A 
ATOM     18  C   UNL A   1      30.508  24.871  26.182  1.00  0.00     0.044 C 
ATOM     19  C   UNL A   1      33.999  23.509  25.769  1.00  0.00     0.000 A 
ENDBRANCH   6  13
ENDBRANCH   3   6
ENDBRANCH   1   2
BRANCH   1  20
ATOM     20  C   UNL A   1      34.362  30.969  27.925  1.00  0.00     0.023 C 
BRANCH  20  21
ATOM     21  C   UNL A   1      33.189  31.933  27.991  1.00  0.00     0.023 C 
BRANCH  21  22
ATOM     22  C   UNL A   1      33.371  33.190  27.157  1.00  0.00     0.116 C 
BRANCH  22  23
ATOM     23  N   UNL A   1      32.747  34.378  27.724  1.00  0.00    -0.352 N 
ATOM     24  C   UNL A   1      33.099  35.076  28.866  1.00  0.00     0.251 C 
ATOM     25  H   UNL A   1      31.973  34.730  27.230  1.00  0.00     0.163 HD
ATOM     26  O   UNL A   1      32.444  36.024  29.251  1.00  0.00    -0.269 OA
BRANCH  24  27
ATOM     27  C   UNL A   1      34.266  34.601  29.640  1.00  0.00     0.039 A 
ATOM     28  C   UNL A   1      34.048  33.968  30.865  1.00  0.00     0.014 A 
ATOM     29  C   UNL A   1      35.546  34.678  29.094  1.00  0.00     0.014 A 
ATOM     30  C   UNL A   1      35.110  33.314  31.493  1.00  0.00     0.010 A 
ATOM     31  C   UNL A   1      36.574  33.941  29.665  1.00  0.00     0.010 A 
ATOM     32  C   UNL A   1      36.366  33.248  30.868  1.00  0.00    -0.014 A 
BRANCH  32  33
ATOM     33  C   UNL A   1      37.484  32.461  31.444  1.00  0.00     0.031 A 
ATOM     34  C   UNL A   1      38.016  32.816  32.804  1.00  0.00     0.074 A 
ATOM     35  C   UNL A   1      38.083  31.503  30.709  1.00  0.00     0.049 A 
ATOM     36  N   UNL A   1      39.062  32.345  33.434  1.00  0.00    -0.248 NA
ATOM     37  C   UNL A   1      37.303  33.876  33.535  1.00  0.00     0.031 C 
ATOM     38  C   UNL A   1      37.706  31.117  29.348  1.00  0.00     0.029 A 
ATOM     39  N   UNL A   1      39.150  30.691  31.000  1.00  0.00    -0.354 N 
ATOM     40  C   UNL A   1      39.149  33.073  34.612  1.00  0.00     0.074 A 
ATOM     41  C   UNL A   1      38.087  34.054  34.586  1.00  0.00     0.031 C 
ATOM     42  C   UNL A   1      38.510  30.124  28.934  1.00  0.00     0.029 A 
ATOM     43  C   UNL A   1      39.480  29.829  29.982  1.00  0.00     0.049 A 
ATOM     44  H   UNL A   1      39.634  30.723  31.857  1.00  0.00     0.167 HD
ATOM     45  C   UNL A   1      40.017  32.919  35.638  1.00  0.00     0.037 A 
ATOM     46  C   UNL A   1      40.459  28.906  29.908  1.00  0.00     0.037 A 
ATOM     47  C   UNL A   1      41.033  31.903  35.686  1.00  0.00     0.049 A 
ATOM     48  C   UNL A   1      41.380  28.719  31.082  1.00  0.00     0.074 A 
ATOM     49  C   UNL A   1      41.909  31.607  36.715  1.00  0.00     0.029 A 
ATOM     50  N   UNL A   1      41.300  31.008  34.660  1.00  0.00    -0.354 N 
ATOM     51  N   UNL A   1      41.408  29.367  32.222  1.00  0.00    -0.248 NA
ATOM     52  C   UNL A   1      42.402  27.670  30.964  1.00  0.00     0.031 C 
ATOM     53  C   UNL A   1      42.727  30.550  36.300  1.00  0.00     0.029 A 
ATOM     54  C   UNL A   1      42.334  30.164  35.028  1.00  0.00     0.049 A 
ATOM     55  H   UNL A   1      40.824  30.979  33.799  1.00  0.00     0.167 HD
ATOM     56  C   UNL A   1      42.428  28.788  32.965  1.00  0.00     0.074 A 
ATOM     57  C   UNL A   1      42.986  27.728  32.152  1.00  0.00     0.031 C 
ATOM     58  C   UNL A   1      42.863  29.107  34.207  1.00  0.00     0.037 A 
BRANCH  45  59
ATOM     59  C   UNL A   1      39.890  33.861  36.798  1.00  0.00     0.064 A 
ATOM     60  C   UNL A   1      40.604  35.069  36.846  1.00  0.00     0.173 A 
ATOM     61  C   UNL A   1      39.033  33.562  37.867  1.00  0.00     0.173 A 
ATOM     62  F   UNL A   1      41.451  35.391  35.856  1.00  0.00    -0.203 F 
ATOM     63  C   UNL A   1      40.489  35.926  37.936  1.00  0.00     0.198 A 
ATOM     64  C   UNL A   1      38.897  34.438  38.941  1.00  0.00     0.198 A 
ATOM     65  F   UNL A   1      38.325  32.423  37.870  1.00  0.00    -0.203 F 
ATOM     66  F   UNL A   1      41.224  37.046  37.984  1.00  0.00    -0.200 F 
ATOM     67  C   UNL A   1      39.631  35.614  38.979  1.00  0.00     0.200 A 
ATOM     68  F   UNL A   1      38.061  34.140  39.945  1.00  0.00    -0.200 F 
ATOM     69  F   UNL A   1      39.519  36.442  40.026  1.00  0.00    -0.200 F 
ENDBRANCH  45  59
BRANCH  46  70
ATOM     70  C   UNL A   1      40.594  28.061  28.693  1.00  0.00     0.064 A 
ATOM     71  C   UNL A   1      41.392  28.477  27.618  1.00  0.00     0.173 A 
ATOM     72  C   UNL A   1      39.931  26.831  28.578  1.00  0.00     0.173 A 
ATOM     73  F   UNL A   1      42.029  29.656  27.675  1.00  0.00    -0.203 F 
ATOM     74  C   UNL A   1      41.505  27.705  26.464  1.00  0.00     0.198 A 
ATOM     75  C   UNL A   1      40.064  26.048  27.432  1.00  0.00     0.198 A 
ATOM     76  F   UNL A   1      39.161  26.387  29.581  1.00  0.00    -0.203 F 
ATOM     77  F   UNL A   1      42.238  28.147  25.433  1.00  0.00    -0.200 F 
ATOM     78  C   UNL A   1      40.845  26.489  26.373  1.00  0.00     0.200 A 
ATOM     79  F   UNL A   1      39.434  24.867  27.353  1.00  0.00    -0.200 F 
ATOM     80  F   UNL A   1      40.954  25.746  25.264  1.00  0.00    -0.200 F 
ENDBRANCH  46  70
BRANCH  58  81
ATOM     81  C   UNL A   1      43.975  28.279  34.778  1.00  0.00     0.064 A 
ATOM     82  C   UNL A   1      43.720  27.093  35.481  1.00  0.00     0.173 A 
ATOM     83  C   UNL A   1      45.312  28.651  34.574  1.00  0.00     0.173 A 
ATOM     84  F   UNL A   1      42.456  26.706  35.714  1.00  0.00    -0.203 F 
ATOM     85  C   UNL A   1      44.764  26.318  35.976  1.00  0.00     0.198 A 
ATOM     86  C   UNL A   1      46.354  27.860  35.047  1.00  0.00     0.198 A 
ATOM     87  F   UNL A   1      45.606  29.773  33.901  1.00  0.00    -0.203 F 
ATOM     88  F   UNL A   1      44.498  25.208  36.678  1.00  0.00    -0.200 F 
ATOM     89  C   UNL A   1      46.080  26.698  35.752  1.00  0.00     0.200 A 
ATOM     90  F   UNL A   1      47.625  28.222  34.820  1.00  0.00    -0.200 F 
ATOM     91  F   UNL A   1      47.085  25.945  36.221  1.00  0.00    -0.200 F 
ENDBRANCH  58  81
ENDBRANCH  32  33
ENDBRANCH  24  27
ENDBRANCH  22  23
ENDBRANCH  21  22
ENDBRANCH  20  21
ENDBRANCH   1  20
TORSDOF 17
ENDMDL
MODEL 3
REMARK VINA RESULT:     -10.9      5.862     10.980
REMARK SMILES CCCCCC[C@@H](C(=O)NCCCCNC(=O)c1ccc(-c2c3nc(c(-c4c(F)c(F)c(F)c(F)c4F)c4ccc([nH]4)c(-c4c(F)c(F)c(F)c(F)c4F)c4nc(c(-c5c(F)c(F)c(F)c(F)c5F)c5ccc2[nH]5)C=C4)C=C3)cc1)c1ccccc1C
REMARK SMILES IDX 11 1 10 2 8 3 9 4 7 6 6 7 5 8 4 9 3 10 2 11 1 12 81 13 82 14
REMARK SMILES IDX 86 15 83 16 85 17 87 18 84 19 12 20 13 21 14 22 15 23 16 24
REMARK SMILES IDX 17 26 18 27 19 28 80 29 20 30 79 31 21 32 22 33 23 34 73 35
REMARK SMILES IDX 24 36 78 37 72 38 74 39 25 40 77 41 71 42 70 43 26 45 58 46
REMARK SMILES IDX 38 47 57 48 39 49 42 50 56 51 75 52 40 53 41 54 55 56 76 57
REMARK SMILES IDX 43 58 27 59 28 60 36 61 29 62 30 63 34 64 37 65 31 66 32 67
REMARK SMILES IDX 35 68 33 69 59 70 60 71 68 72 61 73 62 74 66 75 69 76 63 77
REMARK SMILES IDX 64 78 67 79 65 80 44 81 45 82 53 83 46 84 47 85 51 86 54 87
REMARK SMILES IDX 48 88 49 89 52 90 50 91
REMARK H PARENT 10 5 15 25 74 44 42 55
REMARK Flexibility Score: inf
ROOT
ATOM      1  C   UNL A   1      34.455  29.499  27.128  1.00  0.00     0.116 C 
ENDROOT
BRANCH   1   2
ATOM      2  N   UNL A   1      33.328  28.796  27.711  1.00  0.00    -0.356 N 
ATOM      3  C   UNL A   1      32.305  28.092  27.132  1.00  0.00     0.227 C 
ATOM      4  O   UNL A   1      31.334  27.863  27.858  1.00  0.00    -0.274 OA
ATOM      5  H   UNL A   1      33.291  28.832  28.694  1.00  0.00     0.163 HD
BRANCH   3   6
ATOM      6  C   UNL A   1      32.394  27.562  25.674  1.00  0.00     0.109 C 
BRANCH   6   7
ATOM      7  C   UNL A   1      31.142  27.895  24.836  1.00  0.00     0.018 C 
BRANCH   7   8
ATOM      8  C   UNL A   1      31.216  27.833  23.315  1.00  0.00     0.001 C 
BRANCH   8   9
ATOM      9  C   UNL A   1      32.572  28.175  22.699  1.00  0.00     0.000 C 
BRANCH   9  10
ATOM     10  C   UNL A   1      33.323  26.966  22.136  1.00  0.00    -0.000 C 
BRANCH  10  11
ATOM     11  C   UNL A   1      32.454  25.755  21.779  1.00  0.00    -0.003 C 
ATOM     12  C   UNL A   1      33.047  24.420  22.203  1.00  0.00     0.004 C 
ENDBRANCH  10  11
ENDBRANCH   9  10
ENDBRANCH   8   9
ENDBRANCH   7   8
ENDBRANCH   6   7
BRANCH   6  13
ATOM     13  C   UNL A   1      32.752  26.047  25.702  1.00  0.00    -0.033 A 
ATOM     14  C   UNL A   1      34.137  25.753  25.604  1.00  0.00     0.005 A 
ATOM     15  C   UNL A   1      31.864  24.949  25.857  1.00  0.00    -0.047 A 
ATOM     16  C   UNL A   1      34.623  24.444  25.624  1.00  0.00     0.000 A 
ATOM     17  C   UNL A   1      32.378  23.633  25.829  1.00  0.00     0.004 A 
ATOM     18  C   UNL A   1      30.372  25.039  26.054  1.00  0.00     0.044 C 
ATOM     19  C   UNL A   1      33.741  23.381  25.721  1.00  0.00     0.000 A 
ENDBRANCH   6  13
ENDBRANCH   3   6
ENDBRANCH   1   2
BRANCH   1  20
ATOM     20  C   UNL A   1      34.825  30.711  27.995  1.00  0.00     0.023 C 
BRANCH  20  21
ATOM     21  C   UNL A   1      34.338  32.059  27.490  1.00  0.00     0.023 C 
BRANCH  21  22
ATOM     22  C   UNL A   1      32.896  32.373  27.852  1.00  0.00     0.116 C 
BRANCH  22  23
ATOM     23  N   UNL A   1      32.574  33.794  27.836  1.00  0.00    -0.352 N 
ATOM     24  C   UNL A   1      33.178  34.825  28.534  1.00  0.00     0.251 C 
ATOM     25  H   UNL A   1      31.826  34.055  27.251  1.00  0.00     0.163 HD
ATOM     26  O   UNL A   1      32.759  35.963  28.464  1.00  0.00    -0.269 OA
BRANCH  24  27
ATOM     27  C   UNL A   1      34.318  34.493  29.416  1.00  0.00     0.039 A 
ATOM     28  C   UNL A   1      34.065  33.862  30.634  1.00  0.00     0.014 A 
ATOM     29  C   UNL A   1      35.626  34.700  28.977  1.00  0.00     0.014 A 
ATOM     30  C   UNL A   1      35.132  33.339  31.367  1.00  0.00     0.010 A 
ATOM     31  C   UNL A   1      36.673  34.090  29.652  1.00  0.00     0.010 A 
ATOM     32  C   UNL A   1      36.437  33.399  30.851  1.00  0.00    -0.014 A 
BRANCH  32  33
ATOM     33  C   UNL A   1      37.580  32.749  31.539  1.00  0.00     0.031 A 
ATOM     34  C   UNL A   1      38.284  31.597  30.880  1.00  0.00     0.074 A 
ATOM     35  C   UNL A   1      37.915  33.126  32.789  1.00  0.00     0.049 A 
ATOM     36  N   UNL A   1      39.215  30.811  31.359  1.00  0.00    -0.248 NA
ATOM     37  C   UNL A   1      37.851  31.253  29.517  1.00  0.00     0.031 C 
ATOM     38  C   UNL A   1      37.260  34.182  33.563  1.00  0.00     0.029 A 
ATOM     39  N   UNL A   1      38.884  32.648  33.636  1.00  0.00    -0.354 N 
ATOM     40  C   UNL A   1      39.450  29.865  30.371  1.00  0.00     0.074 A 
ATOM     41  C   UNL A   1      38.528  30.138  29.291  1.00  0.00     0.031 C 
ATOM     42  C   UNL A   1      37.863  34.290  34.759  1.00  0.00     0.029 A 
ATOM     43  C   UNL A   1      38.921  33.290  34.850  1.00  0.00     0.049 A 
ATOM     44  H   UNL A   1      39.495  31.914  33.396  1.00  0.00     0.167 HD
ATOM     45  C   UNL A   1      40.372  28.875  30.353  1.00  0.00     0.037 A 
ATOM     46  C   UNL A   1      39.721  33.090  35.916  1.00  0.00     0.037 A 
ATOM     47  C   UNL A   1      41.327  28.646  31.402  1.00  0.00     0.049 A 
ATOM     48  C   UNL A   1      40.772  32.017  35.850  1.00  0.00     0.074 A 
ATOM     49  C   UNL A   1      42.358  27.724  31.444  1.00  0.00     0.029 A 
ATOM     50  N   UNL A   1      41.372  29.355  32.593  1.00  0.00    -0.354 N 
ATOM     51  N   UNL A   1      41.033  31.173  34.881  1.00  0.00    -0.248 NA
ATOM     52  C   UNL A   1      41.645  31.870  37.023  1.00  0.00     0.031 C 
ATOM     53  C   UNL A   1      43.010  27.857  32.675  1.00  0.00     0.029 A 
ATOM     54  C   UNL A   1      42.409  28.886  33.382  1.00  0.00     0.049 A 
ATOM     55  H   UNL A   1      40.758  30.084  32.840  1.00  0.00     0.167 HD
ATOM     56  C   UNL A   1      42.113  30.416  35.314  1.00  0.00     0.074 A 
ATOM     57  C   UNL A   1      42.468  30.909  36.629  1.00  0.00     0.031 C 
ATOM     58  C   UNL A   1      42.752  29.403  34.681  1.00  0.00     0.037 A 
BRANCH  45  59
ATOM     59  C   UNL A   1      40.401  27.981  29.149  1.00  0.00     0.064 A 
ATOM     60  C   UNL A   1      39.651  26.796  29.096  1.00  0.00     0.173 A 
ATOM     61  C   UNL A   1      41.174  28.320  28.029  1.00  0.00     0.173 A 
ATOM     62  F   UNL A   1      38.909  26.419  30.149  1.00  0.00    -0.203 F 
ATOM     63  C   UNL A   1      39.700  25.966  27.979  1.00  0.00     0.198 A 
ATOM     64  C   UNL A   1      41.196  27.503  26.901  1.00  0.00     0.198 A 
ATOM     65  F   UNL A   1      41.907  29.443  28.027  1.00  0.00    -0.203 F 
ATOM     66  F   UNL A   1      39.018  24.813  27.974  1.00  0.00    -0.200 F 
ATOM     67  C   UNL A   1      40.466  26.324  26.880  1.00  0.00     0.200 A 
ATOM     68  F   UNL A   1      41.930  27.853  25.836  1.00  0.00    -0.200 F 
ATOM     69  F   UNL A   1      40.509  25.526  25.805  1.00  0.00    -0.200 F 
ENDBRANCH  45  59
BRANCH  46  70
ATOM     70  C   UNL A   1      39.586  33.950  37.119  1.00  0.00     0.064 A 
ATOM     71  C   UNL A   1      40.218  35.201  37.179  1.00  0.00     0.173 A 
ATOM     72  C   UNL A   1      38.834  33.544  38.231  1.00  0.00     0.173 A 
ATOM     73  F   UNL A   1      40.964  35.622  36.148  1.00  0.00    -0.203 F 
ATOM     74  C   UNL A   1      40.119  36.004  38.313  1.00  0.00     0.198 A 
ATOM     75  C   UNL A   1      38.717  34.359  39.355  1.00  0.00     0.198 A 
ATOM     76  F   UNL A   1      38.207  32.360  38.220  1.00  0.00    -0.203 F 
ATOM     77  F   UNL A   1      40.769  37.175  38.360  1.00  0.00    -0.200 F 
ATOM     78  C   UNL A   1      39.365  35.585  39.399  1.00  0.00     0.200 A 
ATOM     79  F   UNL A   1      37.977  33.956  40.398  1.00  0.00    -0.200 F 
ATOM     80  F   UNL A   1      39.270  36.357  40.489  1.00  0.00    -0.200 F 
ENDBRANCH  46  70
BRANCH  58  81
ATOM     81  C   UNL A   1      43.921  28.783  35.385  1.00  0.00     0.064 A 
ATOM     82  C   UNL A   1      45.230  29.238  35.174  1.00  0.00     0.173 A 
ATOM     83  C   UNL A   1      43.721  27.756  36.321  1.00  0.00     0.173 A 
ATOM     84  F   UNL A   1      45.471  30.206  34.277  1.00  0.00    -0.203 F 
ATOM     85  C   UNL A   1      46.301  28.673  35.861  1.00  0.00     0.198 A 
ATOM     86  C   UNL A   1      44.791  27.213  37.025  1.00  0.00     0.198 A 
ATOM     87  F   UNL A   1      42.486  27.293  36.563  1.00  0.00    -0.203 F 
ATOM     88  F   UNL A   1      47.549  29.096  35.616  1.00  0.00    -0.200 F 
ATOM     89  C   UNL A   1      46.080  27.668  36.791  1.00  0.00     0.200 A 
ATOM     90  F   UNL A   1      44.575  26.250  37.931  1.00  0.00    -0.200 F 
ATOM     91  F   UNL A   1      47.112  27.133  37.458  1.00  0.00    -0.200 F 
ENDBRANCH  58  81
ENDBRANCH  32  33
ENDBRANCH  24  27
ENDBRANCH  22  23
ENDBRANCH  21  22
ENDBRANCH  20  21
ENDBRANCH   1  20
TORSDOF 17
ENDMDL
