MODEL 1
REMARK VINA RESULT:     -12.3      0.000      0.000
REMARK SMILES Cc1cc2nc(SCC(=O)NCCCCNC(=O)c3ccc(-c4c5nc(c(-c6c(F)c(F)c(F)c(F)c6F)c6ccc([nH]6)c(-c6c(F)c(F)c(F)c(F)c6F)c6nc(c(-c7c(F)c(F)c(F)c(F)c7F)c7ccc4[nH]7)C=C6)C=C5)cc3)n(CC(C)C)c(=O)c2[nH]1
REMARK SMILES IDX 12 1 11 2 9 3 10 4 8 6 7 7 6 8 1 9 2 10 3 11 90 12 4 13
REMARK SMILES IDX 89 14 5 16 87 17 82 18 88 19 83 20 84 21 85 22 86 23 13 24
REMARK SMILES IDX 14 25 15 26 16 27 17 28 18 30 19 31 20 32 81 33 21 34 80 35
REMARK SMILES IDX 22 36 23 37 24 38 74 39 25 40 79 41 73 42 75 43 26 44 78 45
REMARK SMILES IDX 72 46 71 47 27 49 59 50 39 51 58 52 40 53 43 54 57 55 76 56
REMARK SMILES IDX 41 57 42 58 56 60 77 61 44 62 28 63 29 64 37 65 30 66 31 67
REMARK SMILES IDX 35 68 38 69 32 70 33 71 36 72 34 73 60 74 61 75 69 76 62 77
REMARK SMILES IDX 63 78 67 79 70 80 64 81 65 82 68 83 66 84 45 85 46 86 54 87
REMARK SMILES IDX 47 88 48 89 52 90 55 91 49 92 50 93 53 94 51 95
REMARK H PARENT 11 5 90 15 16 29 75 48 43 59
REMARK Flexibility Score: inf
ROOT
ATOM      1  C   UNL A   1      39.420  20.817  25.756  1.00  0.00     0.116 C 
ENDROOT
BRANCH   1   2
ATOM      2  N   UNL A   1      39.014  22.202  25.884  1.00  0.00    -0.355 N 
ATOM      3  C   UNL A   1      37.796  22.759  25.662  1.00  0.00     0.230 C 
ATOM      4  O   UNL A   1      37.582  23.844  26.211  1.00  0.00    -0.274 OA
ATOM      5  H   UNL A   1      39.719  22.824  26.172  1.00  0.00     0.163 HD
BRANCH   3   6
ATOM      6  C   UNL A   1      36.695  22.078  24.891  1.00  0.00     0.178 C 
BRANCH   6   7
ATOM      7  S   UNL A   1      35.495  23.091  24.084  1.00  0.00    -0.078 SA
BRANCH   7   8
ATOM      8  C   UNL A   1      34.169  23.739  25.024  1.00  0.00     0.172 A 
ATOM      9  C   UNL A   1      31.637  28.537  27.457  1.00  0.00     0.064 C 
ATOM     10  C   UNL A   1      32.181  27.327  26.794  1.00  0.00     0.014 A 
ATOM     11  C   UNL A   1      33.439  27.069  26.265  1.00  0.00     0.052 A 
ATOM     12  N   UNL A   1      31.416  26.189  26.622  1.00  0.00    -0.353 N 
ATOM     13  C   UNL A   1      33.420  25.733  25.844  1.00  0.00     0.097 A 
ATOM     14  C   UNL A   1      32.188  25.219  26.046  1.00  0.00     0.131 A 
ATOM     15  H   UNL A   1      30.469  26.093  26.874  1.00  0.00     0.166 HD
ATOM     16  N   UNL A   1      34.433  24.999  25.259  1.00  0.00    -0.222 NA
ATOM     17  C   UNL A   1      31.844  23.881  25.714  1.00  0.00     0.278 A 
ATOM     18  N   UNL A   1      32.963  23.097  25.348  1.00  0.00    -0.286 N 
ATOM     19  O   UNL A   1      30.694  23.481  25.762  1.00  0.00    -0.267 OA
BRANCH  18  20
ATOM     20  C   UNL A   1      32.665  21.659  25.341  1.00  0.00     0.131 C 
BRANCH  20  21
ATOM     21  C   UNL A   1      32.918  20.966  23.967  1.00  0.00     0.003 C 
ATOM     22  C   UNL A   1      32.542  19.480  23.915  1.00  0.00     0.009 C 
ATOM     23  C   UNL A   1      32.114  21.667  22.863  1.00  0.00     0.009 C 
ENDBRANCH  20  21
ENDBRANCH  18  20
ENDBRANCH   7   8
ENDBRANCH   6   7
ENDBRANCH   3   6
ENDBRANCH   1   2
BRANCH   1  24
ATOM     24  C   UNL A   1      40.664  20.472  26.574  1.00  0.00     0.023 C 
BRANCH  24  25
ATOM     25  C   UNL A   1      41.484  19.262  26.102  1.00  0.00     0.023 C 
BRANCH  25  26
ATOM     26  C   UNL A   1      42.921  19.229  26.597  1.00  0.00     0.116 C 
BRANCH  26  27
ATOM     27  N   UNL A   1      43.898  19.312  25.518  1.00  0.00    -0.352 N 
ATOM     28  C   UNL A   1      44.332  20.424  24.833  1.00  0.00     0.251 C 
ATOM     29  H   UNL A   1      44.301  18.457  25.242  1.00  0.00     0.163 HD
ATOM     30  O   UNL A   1      44.894  20.308  23.749  1.00  0.00    -0.269 OA
BRANCH  28  31
ATOM     31  C   UNL A   1      44.123  21.765  25.408  1.00  0.00     0.039 A 
ATOM     32  C   UNL A   1      43.073  22.572  24.955  1.00  0.00     0.014 A 
ATOM     33  C   UNL A   1      45.010  22.236  26.376  1.00  0.00     0.014 A 
ATOM     34  C   UNL A   1      42.898  23.831  25.520  1.00  0.00     0.010 A 
ATOM     35  C   UNL A   1      44.763  23.420  27.025  1.00  0.00     0.010 A 
ATOM     36  C   UNL A   1      43.745  24.242  26.559  1.00  0.00    -0.014 A 
BRANCH  36  37
ATOM     37  C   UNL A   1      43.526  25.514  27.228  1.00  0.00     0.031 A 
ATOM     38  C   UNL A   1      44.493  26.571  26.848  1.00  0.00     0.074 A 
ATOM     39  C   UNL A   1      42.426  25.772  27.966  1.00  0.00     0.049 A 
ATOM     40  N   UNL A   1      45.420  27.087  27.582  1.00  0.00    -0.248 NA
ATOM     41  C   UNL A   1      44.525  27.019  25.445  1.00  0.00     0.031 C 
ATOM     42  C   UNL A   1      41.233  24.930  28.118  1.00  0.00     0.029 A 
ATOM     43  N   UNL A   1      42.095  26.895  28.664  1.00  0.00    -0.354 N 
ATOM     44  C   UNL A   1      46.005  28.084  26.805  1.00  0.00     0.074 A 
ATOM     45  C   UNL A   1      45.558  27.865  25.456  1.00  0.00     0.031 C 
ATOM     46  C   UNL A   1      40.232  25.656  28.664  1.00  0.00     0.029 A 
ATOM     47  C   UNL A   1      40.765  26.944  29.063  1.00  0.00     0.049 A 
ATOM     48  H   UNL A   1      42.742  27.609  28.869  1.00  0.00     0.167 HD
ATOM     49  C   UNL A   1      46.556  29.177  27.400  1.00  0.00     0.037 A 
ATOM     50  C   UNL A   1      40.143  27.983  29.668  1.00  0.00     0.037 A 
ATOM     51  C   UNL A   1      46.701  28.965  28.817  1.00  0.00     0.049 A 
ATOM     52  C   UNL A   1      41.189  28.804  30.319  1.00  0.00     0.074 A 
ATOM     53  C   UNL A   1      47.555  28.275  29.648  1.00  0.00     0.029 A 
ATOM     54  N   UNL A   1      45.562  29.232  29.528  1.00  0.00    -0.354 N 
ATOM     55  N   UNL A   1      41.921  28.383  31.313  1.00  0.00    -0.248 NA
ATOM     56  C   UNL A   1      41.672  30.008  29.651  1.00  0.00     0.031 C 
ATOM     57  C   UNL A   1      46.816  27.998  30.838  1.00  0.00     0.029 A 
ATOM     58  C   UNL A   1      45.546  28.558  30.720  1.00  0.00     0.049 A 
ATOM     59  H   UNL A   1      44.845  29.832  29.222  1.00  0.00     0.167 HD
ATOM     60  C   UNL A   1      43.141  28.996  31.118  1.00  0.00     0.074 A 
ATOM     61  C   UNL A   1      42.879  30.108  30.216  1.00  0.00     0.031 C 
ATOM     62  C   UNL A   1      44.303  28.352  31.426  1.00  0.00     0.037 A 
BRANCH  49  63
ATOM     63  C   UNL A   1      46.510  30.585  26.846  1.00  0.00     0.064 A 
ATOM     64  C   UNL A   1      47.686  31.367  26.862  1.00  0.00     0.173 A 
ATOM     65  C   UNL A   1      45.316  31.299  26.604  1.00  0.00     0.173 A 
ATOM     66  F   UNL A   1      48.877  30.803  27.116  1.00  0.00    -0.203 F 
ATOM     67  C   UNL A   1      47.656  32.756  26.703  1.00  0.00     0.198 A 
ATOM     68  C   UNL A   1      45.296  32.677  26.392  1.00  0.00     0.198 A 
ATOM     69  F   UNL A   1      44.113  30.719  26.681  1.00  0.00    -0.203 F 
ATOM     70  F   UNL A   1      48.782  33.468  26.842  1.00  0.00    -0.200 F 
ATOM     71  C   UNL A   1      46.461  33.409  26.469  1.00  0.00     0.200 A 
ATOM     72  F   UNL A   1      44.123  33.295  26.196  1.00  0.00    -0.200 F 
ATOM     73  F   UNL A   1      46.421  34.745  26.369  1.00  0.00    -0.200 F 
ENDBRANCH  49  63
BRANCH  50  74
ATOM     74  C   UNL A   1      38.752  28.463  29.502  1.00  0.00     0.064 A 
ATOM     75  C   UNL A   1      37.935  28.695  30.623  1.00  0.00     0.173 A 
ATOM     76  C   UNL A   1      38.307  29.002  28.280  1.00  0.00     0.173 A 
ATOM     77  F   UNL A   1      38.301  28.236  31.829  1.00  0.00    -0.203 F 
ATOM     78  C   UNL A   1      36.779  29.474  30.538  1.00  0.00     0.198 A 
ATOM     79  C   UNL A   1      37.147  29.775  28.196  1.00  0.00     0.198 A 
ATOM     80  F   UNL A   1      39.041  28.876  27.166  1.00  0.00    -0.203 F 
ATOM     81  F   UNL A   1      36.074  29.745  31.646  1.00  0.00    -0.200 F 
ATOM     82  C   UNL A   1      36.396  30.030  29.329  1.00  0.00     0.200 A 
ATOM     83  F   UNL A   1      36.804  30.333  27.026  1.00  0.00    -0.200 F 
ATOM     84  F   UNL A   1      35.335  30.845  29.263  1.00  0.00    -0.200 F 
ENDBRANCH  50  74
BRANCH  62  85
ATOM     85  C   UNL A   1      44.240  27.253  32.439  1.00  0.00     0.064 A 
ATOM     86  C   UNL A   1      44.088  27.447  33.821  1.00  0.00     0.173 A 
ATOM     87  C   UNL A   1      44.240  25.934  31.966  1.00  0.00     0.173 A 
ATOM     88  F   UNL A   1      44.011  28.678  34.341  1.00  0.00    -0.203 F 
ATOM     89  C   UNL A   1      43.968  26.363  34.689  1.00  0.00     0.198 A 
ATOM     90  C   UNL A   1      44.084  24.856  32.829  1.00  0.00     0.198 A 
ATOM     91  F   UNL A   1      44.348  25.694  30.649  1.00  0.00    -0.203 F 
ATOM     92  F   UNL A   1      43.836  26.569  36.009  1.00  0.00    -0.200 F 
ATOM     93  C   UNL A   1      43.956  25.069  34.191  1.00  0.00     0.200 A 
ATOM     94  F   UNL A   1      44.034  23.610  32.336  1.00  0.00    -0.200 F 
ATOM     95  F   UNL A   1      43.800  24.028  35.022  1.00  0.00    -0.200 F 
ENDBRANCH  62  85
ENDBRANCH  36  37
ENDBRANCH  28  31
ENDBRANCH  26  27
ENDBRANCH  25  26
ENDBRANCH  24  25
ENDBRANCH   1  24
TORSDOF 15
ENDMDL
MODEL 2
REMARK VINA RESULT:     -11.7      2.897      4.655
REMARK SMILES Cc1cc2nc(SCC(=O)NCCCCNC(=O)c3ccc(-c4c5nc(c(-c6c(F)c(F)c(F)c(F)c6F)c6ccc([nH]6)c(-c6c(F)c(F)c(F)c(F)c6F)c6nc(c(-c7c(F)c(F)c(F)c(F)c7F)c7ccc4[nH]7)C=C6)C=C5)cc3)n(CC(C)C)c(=O)c2[nH]1
REMARK SMILES IDX 12 1 11 2 9 3 10 4 8 6 7 7 6 8 1 9 2 10 3 11 90 12 4 13
REMARK SMILES IDX 89 14 5 16 87 17 82 18 88 19 83 20 84 21 85 22 86 23 13 24
REMARK SMILES IDX 14 25 15 26 16 27 17 28 18 30 19 31 20 32 81 33 21 34 80 35
REMARK SMILES IDX 22 36 23 37 24 38 74 39 25 40 79 41 73 42 75 43 26 44 78 45
REMARK SMILES IDX 72 46 71 47 27 49 59 50 39 51 58 52 40 53 43 54 57 55 76 56
REMARK SMILES IDX 41 57 42 58 56 60 77 61 44 62 28 63 29 64 37 65 30 66 31 67
REMARK SMILES IDX 35 68 38 69 32 70 33 71 36 72 34 73 60 74 61 75 69 76 62 77
REMARK SMILES IDX 63 78 67 79 70 80 64 81 65 82 68 83 66 84 45 85 46 86 54 87
REMARK SMILES IDX 47 88 48 89 52 90 55 91 49 92 50 93 53 94 51 95
REMARK H PARENT 11 5 90 15 16 29 75 48 43 59
REMARK Flexibility Score: inf
ROOT
ATOM      1  C   UNL A   1      34.757  21.673  24.672  1.00  0.00     0.116 C 
ENDROOT
BRANCH   1   2
ATOM      2  N   UNL A   1      34.646  22.650  23.608  1.00  0.00    -0.355 N 
ATOM      3  C   UNL A   1      34.032  23.860  23.620  1.00  0.00     0.230 C 
ATOM      4  O   UNL A   1      34.403  24.671  22.766  1.00  0.00    -0.274 OA
ATOM      5  H   UNL A   1      35.076  22.401  22.759  1.00  0.00     0.163 HD
BRANCH   3   6
ATOM      6  C   UNL A   1      33.032  24.278  24.667  1.00  0.00     0.178 C 
BRANCH   6   7
ATOM      7  S   UNL A   1      33.419  25.676  25.674  1.00  0.00    -0.078 SA
BRANCH   7   8
ATOM      8  C   UNL A   1      32.712  27.226  25.273  1.00  0.00     0.172 A 
ATOM      9  C   UNL A   1      29.182  30.321  21.626  1.00  0.00     0.064 C 
ATOM     10  C   UNL A   1      29.999  29.576  22.614  1.00  0.00     0.014 A 
ATOM     11  C   UNL A   1      30.593  28.323  22.541  1.00  0.00     0.052 A 
ATOM     12  N   UNL A   1      30.306  30.110  23.851  1.00  0.00    -0.353 N 
ATOM     13  C   UNL A   1      31.315  28.162  23.731  1.00  0.00     0.097 A 
ATOM     14  C   UNL A   1      31.118  29.238  24.521  1.00  0.00     0.131 A 
ATOM     15  H   UNL A   1      29.991  30.978  24.193  1.00  0.00     0.166 HD
ATOM     16  N   UNL A   1      32.085  27.088  24.134  1.00  0.00    -0.222 NA
ATOM     17  C   UNL A   1      31.710  29.374  25.805  1.00  0.00     0.278 A 
ATOM     18  N   UNL A   1      32.677  28.377  26.076  1.00  0.00    -0.286 N 
ATOM     19  O   UNL A   1      31.403  30.276  26.564  1.00  0.00    -0.267 OA
BRANCH  18  20
ATOM     20  C   UNL A   1      33.520  28.710  27.232  1.00  0.00     0.131 C 
BRANCH  20  21
ATOM     21  C   UNL A   1      34.591  29.806  26.940  1.00  0.00     0.003 C 
ATOM     22  C   UNL A   1      34.337  31.155  27.625  1.00  0.00     0.009 C 
ATOM     23  C   UNL A   1      35.976  29.328  27.396  1.00  0.00     0.009 C 
ENDBRANCH  20  21
ENDBRANCH  18  20
ENDBRANCH   7   8
ENDBRANCH   6   7
ENDBRANCH   3   6
ENDBRANCH   1   2
BRANCH   1  24
ATOM     24  C   UNL A   1      35.825  22.022  25.707  1.00  0.00     0.023 C 
BRANCH  24  25
ATOM     25  C   UNL A   1      37.270  22.132  25.196  1.00  0.00     0.023 C 
BRANCH  25  26
ATOM     26  C   UNL A   1      38.206  22.934  26.086  1.00  0.00     0.116 C 
BRANCH  26  27
ATOM     27  N   UNL A   1      39.481  22.267  26.320  1.00  0.00    -0.352 N 
ATOM     28  C   UNL A   1      40.710  22.828  26.587  1.00  0.00     0.251 C 
ATOM     29  H   UNL A   1      39.461  21.284  26.282  1.00  0.00     0.163 HD
ATOM     30  O   UNL A   1      41.738  22.177  26.433  1.00  0.00    -0.269 OA
BRANCH  28  31
ATOM     31  C   UNL A   1      40.791  24.220  27.065  1.00  0.00     0.039 A 
ATOM     32  C   UNL A   1      40.204  25.255  26.328  1.00  0.00     0.014 A 
ATOM     33  C   UNL A   1      41.494  24.498  28.237  1.00  0.00     0.014 A 
ATOM     34  C   UNL A   1      40.292  26.558  26.806  1.00  0.00     0.010 A 
ATOM     35  C   UNL A   1      41.472  25.759  28.777  1.00  0.00     0.010 A 
ATOM     36  C   UNL A   1      40.924  26.797  28.035  1.00  0.00    -0.014 A 
BRANCH  36  37
ATOM     37  C   UNL A   1      40.948  28.136  28.601  1.00  0.00     0.031 A 
ATOM     38  C   UNL A   1      42.032  28.996  28.069  1.00  0.00     0.074 A 
ATOM     39  C   UNL A   1      39.959  28.619  29.381  1.00  0.00     0.049 A 
ATOM     40  N   UNL A   1      43.078  29.418  28.695  1.00  0.00    -0.248 NA
ATOM     41  C   UNL A   1      42.025  29.323  26.633  1.00  0.00     0.031 C 
ATOM     42  C   UNL A   1      38.667  27.988  29.681  1.00  0.00     0.029 A 
ATOM     43  N   UNL A   1      39.853  29.832  29.996  1.00  0.00    -0.354 N 
ATOM     44  C   UNL A   1      43.746  30.248  27.798  1.00  0.00     0.074 A 
ATOM     45  C   UNL A   1      43.171  29.996  26.504  1.00  0.00     0.031 C 
ATOM     46  C   UNL A   1      37.831  28.901  30.222  1.00  0.00     0.029 A 
ATOM     47  C   UNL A   1      38.580  30.118  30.470  1.00  0.00     0.049 A 
ATOM     48  H   UNL A   1      40.614  30.450  30.095  1.00  0.00     0.167 HD
ATOM     49  C   UNL A   1      44.498  31.285  28.258  1.00  0.00     0.037 A 
ATOM     50  C   UNL A   1      38.168  31.286  31.018  1.00  0.00     0.037 A 
ATOM     51  C   UNL A   1      44.716  31.164  29.676  1.00  0.00     0.049 A 
ATOM     52  C   UNL A   1      39.372  31.982  31.528  1.00  0.00     0.074 A 
ATOM     53  C   UNL A   1      45.517  30.416  30.510  1.00  0.00     0.029 A 
ATOM     54  N   UNL A   1      43.686  31.660  30.431  1.00  0.00    -0.354 N 
ATOM     55  N   UNL A   1      40.105  31.531  32.508  1.00  0.00    -0.248 NA
ATOM     56  C   UNL A   1      39.978  33.040  30.727  1.00  0.00     0.031 C 
ATOM     57  C   UNL A   1      44.837  30.352  31.764  1.00  0.00     0.029 A 
ATOM     58  C   UNL A   1      43.660  31.092  31.676  1.00  0.00     0.049 A 
ATOM     59  H   UNL A   1      43.047  32.339  30.118  1.00  0.00     0.167 HD
ATOM     60  C   UNL A   1      41.385  31.929  32.183  1.00  0.00     0.074 A 
ATOM     61  C   UNL A   1      41.225  32.995  31.204  1.00  0.00     0.031 C 
ATOM     62  C   UNL A   1      42.456  31.138  32.474  1.00  0.00     0.037 A 
BRANCH  49  63
ATOM     63  C   UNL A   1      44.622  32.635  27.584  1.00  0.00     0.064 A 
ATOM     64  C   UNL A   1      45.803  32.939  26.871  1.00  0.00     0.173 A 
ATOM     65  C   UNL A   1      43.792  33.740  27.874  1.00  0.00     0.173 A 
ATOM     66  F   UNL A   1      46.685  31.974  26.570  1.00  0.00    -0.203 F 
ATOM     67  C   UNL A   1      46.144  34.251  26.527  1.00  0.00     0.198 A 
ATOM     68  C   UNL A   1      44.110  35.039  27.481  1.00  0.00     0.198 A 
ATOM     69  F   UNL A   1      42.706  33.630  28.647  1.00  0.00    -0.203 F 
ATOM     70  F   UNL A   1      47.329  34.503  25.954  1.00  0.00    -0.200 F 
ATOM     71  C   UNL A   1      45.298  35.299  26.833  1.00  0.00     0.200 A 
ATOM     72  F   UNL A   1      43.289  36.046  27.814  1.00  0.00    -0.200 F 
ATOM     73  F   UNL A   1      45.646  36.562  26.552  1.00  0.00    -0.200 F 
ENDBRANCH  49  63
BRANCH  50  74
ATOM     74  C   UNL A   1      36.856  31.962  30.898  1.00  0.00     0.064 A 
ATOM     75  C   UNL A   1      35.978  32.024  31.995  1.00  0.00     0.173 A 
ATOM     76  C   UNL A   1      36.576  32.825  29.821  1.00  0.00     0.173 A 
ATOM     77  F   UNL A   1      36.190  31.252  33.071  1.00  0.00    -0.203 F 
ATOM     78  C   UNL A   1      34.925  32.940  32.039  1.00  0.00     0.198 A 
ATOM     79  C   UNL A   1      35.518  33.735  29.865  1.00  0.00     0.198 A 
ATOM     80  F   UNL A   1      37.383  32.873  28.753  1.00  0.00    -0.203 F 
ATOM     81  F   UNL A   1      34.163  33.030  33.139  1.00  0.00    -0.200 F 
ATOM     82  C   UNL A   1      34.708  33.809  30.982  1.00  0.00     0.200 A 
ATOM     83  F   UNL A   1      35.337  34.592  28.850  1.00  0.00    -0.200 F 
ATOM     84  F   UNL A   1      33.750  34.744  31.059  1.00  0.00    -0.200 F 
ENDBRANCH  50  74
BRANCH  62  85
ATOM     85  C   UNL A   1      42.306  30.145  33.582  1.00  0.00     0.064 A 
ATOM     86  C   UNL A   1      41.901  28.812  33.411  1.00  0.00     0.173 A 
ATOM     87  C   UNL A   1      42.685  30.546  34.870  1.00  0.00     0.173 A 
ATOM     88  F   UNL A   1      41.590  28.335  32.200  1.00  0.00    -0.203 F 
ATOM     89  C   UNL A   1      41.855  27.931  34.491  1.00  0.00     0.198 A 
ATOM     90  C   UNL A   1      42.672  29.657  35.938  1.00  0.00     0.198 A 
ATOM     91  F   UNL A   1      43.112  31.801  35.082  1.00  0.00    -0.203 F 
ATOM     92  F   UNL A   1      41.454  26.663  34.308  1.00  0.00    -0.200 F 
ATOM     93  C   UNL A   1      42.250  28.352  35.751  1.00  0.00     0.200 A 
ATOM     94  F   UNL A   1      43.093  30.061  37.145  1.00  0.00    -0.200 F 
ATOM     95  F   UNL A   1      42.244  27.494  36.781  1.00  0.00    -0.200 F 
ENDBRANCH  62  85
ENDBRANCH  36  37
ENDBRANCH  28  31
ENDBRANCH  26  27
ENDBRANCH  25  26
ENDBRANCH  24  25
ENDBRANCH   1  24
TORSDOF 15
ENDMDL
MODEL 3
REMARK VINA RESULT:     -11.7      2.901      4.432
REMARK SMILES Cc1cc2nc(SCC(=O)NCCCCNC(=O)c3ccc(-c4c5nc(c(-c6c(F)c(F)c(F)c(F)c6F)c6ccc([nH]6)c(-c6c(F)c(F)c(F)c(F)c6F)c6nc(c(-c7c(F)c(F)c(F)c(F)c7F)c7ccc4[nH]7)C=C6)C=C5)cc3)n(CC(C)C)c(=O)c2[nH]1
REMARK SMILES IDX 12 1 11 2 9 3 10 4 8 6 7 7 6 8 1 9 2 10 3 11 90 12 4 13
REMARK SMILES IDX 89 14 5 16 87 17 82 18 88 19 83 20 84 21 85 22 86 23 13 24
REMARK SMILES IDX 14 25 15 26 16 27 17 28 18 30 19 31 20 32 81 33 21 34 80 35
REMARK SMILES IDX 22 36 23 37 24 38 74 39 25 40 79 41 73 42 75 43 26 44 78 45
REMARK SMILES IDX 72 46 71 47 27 49 59 50 39 51 58 52 40 53 43 54 57 55 76 56
REMARK SMILES IDX 41 57 42 58 56 60 77 61 44 62 28 63 29 64 37 65 30 66 31 67
REMARK SMILES IDX 35 68 38 69 32 70 33 71 36 72 34 73 60 74 61 75 69 76 62 77
REMARK SMILES IDX 63 78 67 79 70 80 64 81 65 82 68 83 66 84 45 85 46 86 54 87
REMARK SMILES IDX 47 88 48 89 52 90 55 91 49 92 50 93 53 94 51 95
REMARK H PARENT 11 5 90 15 16 29 75 48 43 59
REMARK Flexibility Score: inf
ROOT
ATOM      1  C   UNL A   1      35.243  22.533  23.981  1.00  0.00     0.116 C 
ENDROOT
BRANCH   1   2
ATOM      2  N   UNL A   1      34.661  23.066  22.766  1.00  0.00    -0.355 N 
ATOM      3  C   UNL A   1      33.422  23.584  22.568  1.00  0.00     0.230 C 
ATOM      4  O   UNL A   1      33.289  24.329  21.593  1.00  0.00    -0.274 OA
ATOM      5  H   UNL A   1      35.245  23.051  21.975  1.00  0.00     0.163 HD
BRANCH   3   6
ATOM      6  C   UNL A   1      32.271  23.382  23.521  1.00  0.00     0.178 C 
BRANCH   6   7
ATOM      7  S   UNL A   1      31.049  24.652  23.628  1.00  0.00    -0.078 SA
BRANCH   7   8
ATOM      8  C   UNL A   1      31.543  26.260  24.111  1.00  0.00     0.172 A 
ATOM      9  C   UNL A   1      35.222  29.590  27.386  1.00  0.00     0.064 C 
ATOM     10  C   UNL A   1      34.342  28.807  26.484  1.00  0.00     0.014 A 
ATOM     11  C   UNL A   1      34.013  27.458  26.483  1.00  0.00     0.052 A 
ATOM     12  N   UNL A   1      33.665  29.401  25.437  1.00  0.00    -0.353 N 
ATOM     13  C   UNL A   1      33.074  27.285  25.458  1.00  0.00     0.097 A 
ATOM     14  C   UNL A   1      32.887  28.461  24.821  1.00  0.00     0.131 A 
ATOM     15  H   UNL A   1      33.732  30.349  25.177  1.00  0.00     0.166 HD
ATOM     16  N   UNL A   1      32.434  26.128  25.060  1.00  0.00    -0.222 NA
ATOM     17  C   UNL A   1      31.997  28.615  23.725  1.00  0.00     0.278 A 
ATOM     18  N   UNL A   1      31.186  27.476  23.508  1.00  0.00    -0.286 N 
ATOM     19  O   UNL A   1      31.954  29.641  23.069  1.00  0.00    -0.267 OA
BRANCH  18  20
ATOM     20  C   UNL A   1      30.051  27.754  22.618  1.00  0.00     0.131 C 
BRANCH  20  21
ATOM     21  C   UNL A   1      28.737  28.136  23.367  1.00  0.00     0.003 C 
ATOM     22  C   UNL A   1      27.787  29.047  22.580  1.00  0.00     0.009 C 
ATOM     23  C   UNL A   1      27.946  26.871  23.728  1.00  0.00     0.009 C 
ENDBRANCH  20  21
ENDBRANCH  18  20
ENDBRANCH   7   8
ENDBRANCH   6   7
ENDBRANCH   3   6
ENDBRANCH   1   2
BRANCH   1  24
ATOM     24  C   UNL A   1      36.770  22.584  23.995  1.00  0.00     0.023 C 
BRANCH  24  25
ATOM     25  C   UNL A   1      37.474  21.829  25.132  1.00  0.00     0.023 C 
BRANCH  25  26
ATOM     26  C   UNL A   1      38.410  22.675  25.981  1.00  0.00     0.116 C 
BRANCH  26  27
ATOM     27  N   UNL A   1      39.747  22.104  26.096  1.00  0.00    -0.352 N 
ATOM     28  C   UNL A   1      40.933  22.741  26.388  1.00  0.00     0.251 C 
ATOM     29  H   UNL A   1      39.810  21.133  25.946  1.00  0.00     0.163 HD
ATOM     30  O   UNL A   1      42.006  22.207  26.128  1.00  0.00    -0.269 OA
BRANCH  28  31
ATOM     31  C   UNL A   1      40.912  24.072  27.020  1.00  0.00     0.039 A 
ATOM     32  C   UNL A   1      41.815  24.382  28.044  1.00  0.00     0.014 A 
ATOM     33  C   UNL A   1      39.955  25.002  26.616  1.00  0.00     0.014 A 
ATOM     34  C   UNL A   1      41.775  25.648  28.618  1.00  0.00     0.010 A 
ATOM     35  C   UNL A   1      39.998  26.291  27.088  1.00  0.00     0.010 A 
ATOM     36  C   UNL A   1      40.865  26.596  28.128  1.00  0.00    -0.014 A 
BRANCH  36  37
ATOM     37  C   UNL A   1      40.866  27.953  28.649  1.00  0.00     0.031 A 
ATOM     38  C   UNL A   1      41.957  28.804  28.117  1.00  0.00     0.074 A 
ATOM     39  C   UNL A   1      39.852  28.455  29.385  1.00  0.00     0.049 A 
ATOM     40  N   UNL A   1      42.983  29.255  28.756  1.00  0.00    -0.248 NA
ATOM     41  C   UNL A   1      41.987  29.082  26.671  1.00  0.00     0.031 C 
ATOM     42  C   UNL A   1      38.558  27.824  29.672  1.00  0.00     0.029 A 
ATOM     43  N   UNL A   1      39.723  29.686  29.956  1.00  0.00    -0.354 N 
ATOM     44  C   UNL A   1      43.670  30.059  27.849  1.00  0.00     0.074 A 
ATOM     45  C   UNL A   1      43.131  29.759  26.550  1.00  0.00     0.031 C 
ATOM     46  C   UNL A   1      37.701  28.749  30.159  1.00  0.00     0.029 A 
ATOM     47  C   UNL A   1      38.435  29.979  30.387  1.00  0.00     0.049 A 
ATOM     48  H   UNL A   1      40.476  30.314  30.055  1.00  0.00     0.167 HD
ATOM     49  C   UNL A   1      44.402  31.116  28.294  1.00  0.00     0.037 A 
ATOM     50  C   UNL A   1      38.000  31.161  30.884  1.00  0.00     0.037 A 
ATOM     51  C   UNL A   1      44.582  31.045  29.721  1.00  0.00     0.049 A 
ATOM     52  C   UNL A   1      39.185  31.883  31.401  1.00  0.00     0.074 A 
ATOM     53  C   UNL A   1      45.366  30.331  30.600  1.00  0.00     0.029 A 
ATOM     54  N   UNL A   1      43.530  31.558  30.431  1.00  0.00    -0.354 N 
ATOM     55  N   UNL A   1      39.895  31.471  32.415  1.00  0.00    -0.248 NA
ATOM     56  C   UNL A   1      39.806  32.918  30.582  1.00  0.00     0.031 C 
ATOM     57  C   UNL A   1      44.653  30.304  31.837  1.00  0.00     0.029 A 
ATOM     58  C   UNL A   1      43.474  31.031  31.693  1.00  0.00     0.049 A 
ATOM     59  H   UNL A   1      42.894  32.221  30.078  1.00  0.00     0.167 HD
ATOM     60  C   UNL A   1      41.181  31.867  32.112  1.00  0.00     0.074 A 
ATOM     61  C   UNL A   1      41.040  32.899  31.093  1.00  0.00     0.031 C 
ATOM     62  C   UNL A   1      42.249  31.095  32.457  1.00  0.00     0.037 A 
BRANCH  49  63
ATOM     63  C   UNL A   1      44.535  32.444  27.579  1.00  0.00     0.064 A 
ATOM     64  C   UNL A   1      45.679  32.683  26.785  1.00  0.00     0.173 A 
ATOM     65  C   UNL A   1      43.768  33.588  27.891  1.00  0.00     0.173 A 
ATOM     66  F   UNL A   1      46.503  31.677  26.455  1.00  0.00    -0.203 F 
ATOM     67  C   UNL A   1      46.048  33.972  26.386  1.00  0.00     0.198 A 
ATOM     68  C   UNL A   1      44.110  34.864  27.445  1.00  0.00     0.198 A 
ATOM     69  F   UNL A   1      42.730  33.540  28.733  1.00  0.00    -0.203 F 
ATOM     70  F   UNL A   1      47.203  34.163  25.734  1.00  0.00    -0.200 F 
ATOM     71  C   UNL A   1      45.264  35.061  26.717  1.00  0.00     0.200 A 
ATOM     72  F   UNL A   1      43.352  35.910  27.802  1.00  0.00    -0.200 F 
ATOM     73  F   UNL A   1      45.641  36.301  26.382  1.00  0.00    -0.200 F 
ENDBRANCH  49  63
BRANCH  50  74
ATOM     74  C   UNL A   1      36.687  31.822  30.706  1.00  0.00     0.064 A 
ATOM     75  C   UNL A   1      35.836  32.032  31.805  1.00  0.00     0.173 A 
ATOM     76  C   UNL A   1      36.385  32.539  29.533  1.00  0.00     0.173 A 
ATOM     77  F   UNL A   1      36.070  31.407  32.968  1.00  0.00    -0.203 F 
ATOM     78  C   UNL A   1      34.786  32.952  31.753  1.00  0.00     0.198 A 
ATOM     79  C   UNL A   1      35.331  33.453  29.481  1.00  0.00     0.198 A 
ATOM     80  F   UNL A   1      37.167  32.443  28.449  1.00  0.00    -0.203 F 
ATOM     81  F   UNL A   1      34.050  33.189  32.848  1.00  0.00    -0.200 F 
ATOM     82  C   UNL A   1      34.546  33.676  30.597  1.00  0.00     0.200 A 
ATOM     83  F   UNL A   1      35.128  34.171  28.366  1.00  0.00    -0.200 F 
ATOM     84  F   UNL A   1      33.593  34.618  30.573  1.00  0.00    -0.200 F 
ENDBRANCH  50  74
BRANCH  62  85
ATOM     85  C   UNL A   1      42.076  30.138  33.594  1.00  0.00     0.064 A 
ATOM     86  C   UNL A   1      41.709  28.790  33.455  1.00  0.00     0.173 A 
ATOM     87  C   UNL A   1      42.392  30.594  34.881  1.00  0.00     0.173 A 
ATOM     88  F   UNL A   1      41.459  28.264  32.250  1.00  0.00    -0.203 F 
ATOM     89  C   UNL A   1      41.638  27.947  34.563  1.00  0.00     0.198 A 
ATOM     90  C   UNL A   1      42.355  29.743  35.979  1.00  0.00     0.198 A 
ATOM     91  F   UNL A   1      42.781  31.866  35.064  1.00  0.00    -0.203 F 
ATOM     92  F   UNL A   1      41.274  26.665  34.411  1.00  0.00    -0.200 F 
ATOM     93  C   UNL A   1      41.971  28.423  35.822  1.00  0.00     0.200 A 
ATOM     94  F   UNL A   1      42.717  30.200  37.186  1.00  0.00    -0.200 F 
ATOM     95  F   UNL A   1      41.943  27.602  36.882  1.00  0.00    -0.200 F 
ENDBRANCH  62  85
ENDBRANCH  36  37
ENDBRANCH  28  31
ENDBRANCH  26  27
ENDBRANCH  25  26
ENDBRANCH  24  25
ENDBRANCH   1  24
TORSDOF 15
ENDMDL
