MODEL 1
REMARK VINA RESULT:     -11.9      0.000      0.000
REMARK SMILES Cc1csc(C[NH2+]C[C@H]2CCC[C@H]2C(=O)NCCCCNC(=O)c2ccc(-c3c4nc(c(-c5c(F)c(F)c(F)c(F)c5F)c5ccc([nH]5)c(-c5c(F)c(F)c(F)c(F)c5F)c5nc(c(-c6c(F)c(F)c(F)c(F)c6F)c6ccc3[nH]6)C=C5)C=C4)cc2)n1
REMARK SMILES IDX 17 1 16 2 14 3 15 4 13 6 9 7 10 8 11 9 12 10 8 11 7 12 6 15
REMARK SMILES IDX 5 16 1 17 2 18 3 19 87 20 4 21 18 22 19 23 20 24 21 25 22 26
REMARK SMILES IDX 23 28 24 29 25 30 86 31 26 32 85 33 27 34 28 35 29 36 79 37
REMARK SMILES IDX 30 38 84 39 78 40 80 41 31 42 83 43 77 44 76 45 32 47 64 48
REMARK SMILES IDX 44 49 63 50 45 51 48 52 62 53 81 54 46 55 47 56 61 58 82 59
REMARK SMILES IDX 49 60 33 61 34 62 42 63 35 64 36 65 40 66 43 67 37 68 38 69
REMARK SMILES IDX 41 70 39 71 65 72 66 73 74 74 67 75 68 76 72 77 75 78 69 79
REMARK SMILES IDX 70 80 73 81 71 82 50 83 51 84 59 85 52 86 53 87 57 88 60 89
REMARK SMILES IDX 54 90 55 91 58 92 56 93
REMARK H PARENT 16 5 7 13 7 14 21 27 80 46 48 57
REMARK Flexibility Score: inf
ROOT
ATOM      1  C   UNL A   1      33.187  30.246  26.685  1.00  0.00     0.116 C 
ENDROOT
BRANCH   1   2
ATOM      2  N   UNL A   1      33.637  29.619  25.457  1.00  0.00    -0.356 N 
ATOM      3  C   UNL A   1      33.701  28.333  25.031  1.00  0.00     0.223 C 
ATOM      4  O   UNL A   1      34.273  28.156  23.948  1.00  0.00    -0.275 OA
ATOM      5  H   UNL A   1      33.967  30.265  24.791  1.00  0.00     0.163 HD
BRANCH   3   6
ATOM      6  C   UNL A   1      33.129  27.122  25.771  1.00  0.00     0.087 C 
ATOM      7  C   UNL A   1      31.603  26.835  25.719  1.00  0.00     0.057 C 
ATOM      8  C   UNL A   1      31.551  25.386  26.219  1.00  0.00     0.010 C 
ATOM      9  C   UNL A   1      32.742  24.720  25.545  1.00  0.00     0.001 C 
ATOM     10  C   UNL A   1      33.843  25.777  25.563  1.00  0.00     0.014 C 
BRANCH   7  11
ATOM     11  C   UNL A   1      30.993  27.028  24.333  1.00  0.00     0.265 C 
BRANCH  11  12
ATOM     12  N   UNL A   1      30.357  28.285  24.007  1.00  0.00    -0.340 N 
ATOM     13  H   UNL A   1      29.652  28.473  24.720  1.00  0.00     0.346 HD
ATOM     14  H   UNL A   1      31.107  28.975  23.973  1.00  0.00     0.346 HD
BRANCH  12  15
ATOM     15  C   UNL A   1      29.704  28.344  22.705  1.00  0.00     0.329 C 
BRANCH  15  16
ATOM     16  C   UNL A   1      29.308  29.772  22.425  1.00  0.00     0.147 A 
ATOM     17  C   UNL A   1      27.878  32.169  20.154  1.00  0.00     0.067 C 
ATOM     18  C   UNL A   1      28.449  31.519  21.360  1.00  0.00     0.049 A 
ATOM     19  C   UNL A   1      28.562  32.063  22.624  1.00  0.00     0.090 A 
ATOM     20  N   UNL A   1      28.908  30.218  21.250  1.00  0.00    -0.241 NA
ATOM     21  S   UNL A   1      29.233  30.918  23.707  1.00  0.00    -0.121 S 
ENDBRANCH  15  16
ENDBRANCH  12  15
ENDBRANCH  11  12
ENDBRANCH   7  11
ENDBRANCH   3   6
ENDBRANCH   1   2
BRANCH   1  22
ATOM     22  C   UNL A   1      31.728  30.703  26.570  1.00  0.00     0.023 C 
BRANCH  22  23
ATOM     23  C   UNL A   1      31.490  32.192  26.764  1.00  0.00     0.023 C 
BRANCH  23  24
ATOM     24  C   UNL A   1      32.718  32.969  27.195  1.00  0.00     0.116 C 
BRANCH  24  25
ATOM     25  N   UNL A   1      32.418  34.300  27.701  1.00  0.00    -0.352 N 
ATOM     26  C   UNL A   1      33.032  34.988  28.721  1.00  0.00     0.251 C 
ATOM     27  H   UNL A   1      31.678  34.770  27.254  1.00  0.00     0.163 HD
ATOM     28  O   UNL A   1      32.602  36.068  29.096  1.00  0.00    -0.269 OA
BRANCH  26  29
ATOM     29  C   UNL A   1      34.201  34.377  29.385  1.00  0.00     0.039 A 
ATOM     30  C   UNL A   1      33.988  33.477  30.430  1.00  0.00     0.014 A 
ATOM     31  C   UNL A   1      35.495  34.654  28.937  1.00  0.00     0.014 A 
ATOM     32  C   UNL A   1      35.077  32.814  30.992  1.00  0.00     0.010 A 
ATOM     33  C   UNL A   1      36.562  33.912  29.421  1.00  0.00     0.010 A 
ATOM     34  C   UNL A   1      36.367  33.005  30.471  1.00  0.00    -0.014 A 
BRANCH  34  35
ATOM     35  C   UNL A   1      37.539  32.306  31.050  1.00  0.00     0.031 A 
ATOM     36  C   UNL A   1      38.014  32.675  32.429  1.00  0.00     0.074 A 
ATOM     37  C   UNL A   1      38.194  31.382  30.323  1.00  0.00     0.049 A 
ATOM     38  N   UNL A   1      39.032  32.210  33.106  1.00  0.00    -0.248 NA
ATOM     39  C   UNL A   1      37.267  33.736  33.127  1.00  0.00     0.031 C 
ATOM     40  C   UNL A   1      37.865  30.993  28.950  1.00  0.00     0.029 A 
ATOM     41  N   UNL A   1      39.277  30.601  30.640  1.00  0.00    -0.354 N 
ATOM     42  C   UNL A   1      39.054  32.931  34.293  1.00  0.00     0.074 A 
ATOM     43  C   UNL A   1      37.998  33.914  34.215  1.00  0.00     0.031 C 
ATOM     44  C   UNL A   1      38.701  30.018  28.558  1.00  0.00     0.029 A 
ATOM     45  C   UNL A   1      39.643  29.737  29.637  1.00  0.00     0.049 A 
ATOM     46  H   UNL A   1      39.747  30.655  31.503  1.00  0.00     0.167 HD
ATOM     47  C   UNL A   1      39.856  32.760  35.369  1.00  0.00     0.037 A 
ATOM     48  C   UNL A   1      40.625  28.817  29.602  1.00  0.00     0.037 A 
ATOM     49  C   UNL A   1      40.875  31.752  35.456  1.00  0.00     0.049 A 
ATOM     50  C   UNL A   1      41.493  28.635  30.820  1.00  0.00     0.074 A 
ATOM     51  C   UNL A   1      41.702  31.447  36.522  1.00  0.00     0.029 A 
ATOM     52  N   UNL A   1      41.204  30.877  34.429  1.00  0.00    -0.354 N 
ATOM     53  N   UNL A   1      41.451  29.267  31.969  1.00  0.00    -0.248 NA
ATOM     54  C   UNL A   1      42.535  27.605  30.739  1.00  0.00     0.031 C 
ATOM     55  C   UNL A   1      42.558  30.414  36.126  1.00  0.00     0.029 A 
ATOM     56  C   UNL A   1      42.233  30.044  34.831  1.00  0.00     0.049 A 
ATOM     57  H   UNL A   1      40.768  30.854  33.547  1.00  0.00     0.167 HD
ATOM     58  C   UNL A   1      42.442  28.695  32.755  1.00  0.00     0.074 A 
ATOM     59  C   UNL A   1      43.052  27.650  31.959  1.00  0.00     0.031 C 
ATOM     60  C   UNL A   1      42.818  29.007  34.020  1.00  0.00     0.037 A 
BRANCH  47  61
ATOM     61  C   UNL A   1      39.645  33.675  36.542  1.00  0.00     0.064 A 
ATOM     62  C   UNL A   1      38.825  33.308  37.621  1.00  0.00     0.173 A 
ATOM     63  C   UNL A   1      40.283  34.922  36.598  1.00  0.00     0.173 A 
ATOM     64  F   UNL A   1      38.179  32.132  37.610  1.00  0.00    -0.203 F 
ATOM     65  C   UNL A   1      38.626  34.170  38.696  1.00  0.00     0.198 A 
ATOM     66  C   UNL A   1      40.108  35.768  37.690  1.00  0.00     0.198 A 
ATOM     67  F   UNL A   1      41.078  35.322  35.595  1.00  0.00    -0.203 F 
ATOM     68  F   UNL A   1      37.794  33.822  39.688  1.00  0.00    -0.200 F 
ATOM     69  C   UNL A   1      39.273  35.395  38.734  1.00  0.00     0.200 A 
ATOM     70  F   UNL A   1      40.742  36.948  37.731  1.00  0.00    -0.200 F 
ATOM     71  F   UNL A   1      39.085  36.222  39.772  1.00  0.00    -0.200 F 
ENDBRANCH  47  61
BRANCH  48  72
ATOM     72  C   UNL A   1      40.814  27.969  28.397  1.00  0.00     0.064 A 
ATOM     73  C   UNL A   1      41.609  28.406  27.328  1.00  0.00     0.173 A 
ATOM     74  C   UNL A   1      40.197  26.715  28.281  1.00  0.00     0.173 A 
ATOM     75  F   UNL A   1      42.205  29.606  27.384  1.00  0.00    -0.203 F 
ATOM     76  C   UNL A   1      41.761  27.631  26.179  1.00  0.00     0.198 A 
ATOM     77  C   UNL A   1      40.373  25.929  27.143  1.00  0.00     0.198 A 
ATOM     78  F   UNL A   1      39.431  26.248  29.277  1.00  0.00    -0.203 F 
ATOM     79  F   UNL A   1      42.486  28.096  25.153  1.00  0.00    -0.200 F 
ATOM     80  C   UNL A   1      41.145  26.393  26.090  1.00  0.00     0.200 A 
ATOM     81  F   UNL A   1      39.788  24.726  27.066  1.00  0.00    -0.200 F 
ATOM     82  F   UNL A   1      41.291  25.648  24.984  1.00  0.00    -0.200 F 
ENDBRANCH  48  72
BRANCH  60  83
ATOM     83  C   UNL A   1      43.922  28.191  34.626  1.00  0.00     0.064 A 
ATOM     84  C   UNL A   1      43.660  26.999  35.315  1.00  0.00     0.173 A 
ATOM     85  C   UNL A   1      45.260  28.587  34.480  1.00  0.00     0.173 A 
ATOM     86  F   UNL A   1      42.395  26.585  35.492  1.00  0.00    -0.203 F 
ATOM     87  C   UNL A   1      44.695  26.247  35.863  1.00  0.00     0.198 A 
ATOM     88  C   UNL A   1      46.295  27.818  35.001  1.00  0.00     0.198 A 
ATOM     89  F   UNL A   1      45.563  29.716  33.820  1.00  0.00    -0.203 F 
ATOM     90  F   UNL A   1      44.418  25.138  36.562  1.00  0.00    -0.200 F 
ATOM     91  C   UNL A   1      46.011  26.653  35.699  1.00  0.00     0.200 A 
ATOM     92  F   UNL A   1      47.566  28.203  34.829  1.00  0.00    -0.200 F 
ATOM     93  F   UNL A   1      47.008  25.925  36.221  1.00  0.00    -0.200 F 
ENDBRANCH  60  83
ENDBRANCH  34  35
ENDBRANCH  26  29
ENDBRANCH  24  25
ENDBRANCH  23  24
ENDBRANCH  22  23
ENDBRANCH   1  22
TORSDOF 15
ENDMDL
MODEL 2
REMARK VINA RESULT:     -11.5      0.867      7.546
REMARK SMILES Cc1csc(C[NH2+]C[C@H]2CCC[C@H]2C(=O)NCCCCNC(=O)c2ccc(-c3c4nc(c(-c5c(F)c(F)c(F)c(F)c5F)c5ccc([nH]5)c(-c5c(F)c(F)c(F)c(F)c5F)c5nc(c(-c6c(F)c(F)c(F)c(F)c6F)c6ccc3[nH]6)C=C5)C=C4)cc2)n1
REMARK SMILES IDX 17 1 16 2 14 3 15 4 13 6 9 7 10 8 11 9 12 10 8 11 7 12 6 15
REMARK SMILES IDX 5 16 1 17 2 18 3 19 87 20 4 21 18 22 19 23 20 24 21 25 22 26
REMARK SMILES IDX 23 28 24 29 25 30 86 31 26 32 85 33 27 34 28 35 29 36 79 37
REMARK SMILES IDX 30 38 84 39 78 40 80 41 31 42 83 43 77 44 76 45 32 47 64 48
REMARK SMILES IDX 44 49 63 50 45 51 48 52 62 53 81 54 46 55 47 56 61 58 82 59
REMARK SMILES IDX 49 60 33 61 34 62 42 63 35 64 36 65 40 66 43 67 37 68 38 69
REMARK SMILES IDX 41 70 39 71 65 72 66 73 74 74 67 75 68 76 72 77 75 78 69 79
REMARK SMILES IDX 70 80 73 81 71 82 50 83 51 84 59 85 52 86 53 87 57 88 60 89
REMARK SMILES IDX 54 90 55 91 58 92 56 93
REMARK H PARENT 16 5 7 13 7 14 21 27 80 46 48 57
REMARK Flexibility Score: inf
ROOT
ATOM      1  C   UNL A   1      31.434  30.016  25.504  1.00  0.00     0.116 C 
ENDROOT
BRANCH   1   2
ATOM      2  N   UNL A   1      32.529  29.556  24.672  1.00  0.00    -0.356 N 
ATOM      3  C   UNL A   1      33.290  28.433  24.662  1.00  0.00     0.223 C 
ATOM      4  O   UNL A   1      34.240  28.437  23.869  1.00  0.00    -0.275 OA
ATOM      5  H   UNL A   1      32.773  30.195  23.964  1.00  0.00     0.163 HD
BRANCH   3   6
ATOM      6  C   UNL A   1      33.062  27.196  25.534  1.00  0.00     0.087 C 
ATOM      7  C   UNL A   1      31.776  26.345  25.344  1.00  0.00     0.057 C 
ATOM      8  C   UNL A   1      32.152  25.059  26.091  1.00  0.00     0.010 C 
ATOM      9  C   UNL A   1      33.605  24.820  25.706  1.00  0.00     0.001 C 
ATOM     10  C   UNL A   1      34.233  26.211  25.669  1.00  0.00     0.014 C 
BRANCH   7  11
ATOM     11  C   UNL A   1      31.406  26.117  23.880  1.00  0.00     0.265 C 
BRANCH  11  12
ATOM     12  N   UNL A   1      30.245  26.782  23.331  1.00  0.00    -0.340 N 
ATOM     13  H   UNL A   1      29.650  26.071  22.905  1.00  0.00     0.346 HD
ATOM     14  H   UNL A   1      29.811  27.272  24.112  1.00  0.00     0.346 HD
BRANCH  12  15
ATOM     15  C   UNL A   1      30.517  27.800  22.324  1.00  0.00     0.329 C 
BRANCH  15  16
ATOM     16  C   UNL A   1      29.528  28.926  22.493  1.00  0.00     0.147 A 
ATOM     17  C   UNL A   1      28.623  32.341  21.811  1.00  0.00     0.067 C 
ATOM     18  C   UNL A   1      28.594  30.924  22.252  1.00  0.00     0.049 A 
ATOM     19  C   UNL A   1      27.513  30.235  22.764  1.00  0.00     0.090 A 
ATOM     20  N   UNL A   1      29.750  30.174  22.131  1.00  0.00    -0.241 NA
ATOM     21  S   UNL A   1      27.942  28.606  23.079  1.00  0.00    -0.121 S 
ENDBRANCH  15  16
ENDBRANCH  12  15
ENDBRANCH  11  12
ENDBRANCH   7  11
ENDBRANCH   3   6
ENDBRANCH   1   2
BRANCH   1  22
ATOM     22  C   UNL A   1      31.953  30.724  26.761  1.00  0.00     0.023 C 
BRANCH  22  23
ATOM     23  C   UNL A   1      31.661  32.213  26.842  1.00  0.00     0.023 C 
BRANCH  23  24
ATOM     24  C   UNL A   1      32.849  33.061  27.249  1.00  0.00     0.116 C 
BRANCH  24  25
ATOM     25  N   UNL A   1      32.486  34.399  27.694  1.00  0.00    -0.352 N 
ATOM     26  C   UNL A   1      33.011  35.128  28.735  1.00  0.00     0.251 C 
ATOM     27  H   UNL A   1      31.771  34.840  27.182  1.00  0.00     0.163 HD
ATOM     28  O   UNL A   1      32.534  36.208  29.047  1.00  0.00    -0.269 OA
BRANCH  26  29
ATOM     29  C   UNL A   1      34.142  34.562  29.498  1.00  0.00     0.039 A 
ATOM     30  C   UNL A   1      33.877  33.873  30.683  1.00  0.00     0.014 A 
ATOM     31  C   UNL A   1      35.447  34.667  29.013  1.00  0.00     0.014 A 
ATOM     32  C   UNL A   1      34.923  33.244  31.354  1.00  0.00     0.010 A 
ATOM     33  C   UNL A   1      36.465  33.948  29.620  1.00  0.00     0.010 A 
ATOM     34  C   UNL A   1      36.219  33.252  30.812  1.00  0.00    -0.014 A 
BRANCH  34  35
ATOM     35  C   UNL A   1      37.345  32.585  31.506  1.00  0.00     0.031 A 
ATOM     36  C   UNL A   1      38.058  31.444  30.834  1.00  0.00     0.074 A 
ATOM     37  C   UNL A   1      37.692  32.975  32.747  1.00  0.00     0.049 A 
ATOM     38  N   UNL A   1      39.044  30.707  31.277  1.00  0.00    -0.248 NA
ATOM     39  C   UNL A   1      37.573  31.052  29.499  1.00  0.00     0.031 C 
ATOM     40  C   UNL A   1      37.029  34.025  33.523  1.00  0.00     0.029 A 
ATOM     41  N   UNL A   1      38.692  32.531  33.575  1.00  0.00    -0.354 N 
ATOM     42  C   UNL A   1      39.281  29.762  30.287  1.00  0.00     0.074 A 
ATOM     43  C   UNL A   1      38.290  29.967  29.255  1.00  0.00     0.031 C 
ATOM     44  C   UNL A   1      37.665  34.172  34.697  1.00  0.00     0.029 A 
ATOM     45  C   UNL A   1      38.759  33.208  34.768  1.00  0.00     0.049 A 
ATOM     46  H   UNL A   1      39.304  31.798  33.336  1.00  0.00     0.167 HD
ATOM     47  C   UNL A   1      40.263  28.834  30.224  1.00  0.00     0.037 A 
ATOM     48  C   UNL A   1      39.615  33.067  35.797  1.00  0.00     0.037 A 
ATOM     49  C   UNL A   1      41.270  28.665  31.234  1.00  0.00     0.049 A 
ATOM     50  C   UNL A   1      40.710  32.038  35.694  1.00  0.00     0.074 A 
ATOM     51  C   UNL A   1      42.350  27.800  31.243  1.00  0.00     0.029 A 
ATOM     52  N   UNL A   1      41.321  29.384  32.420  1.00  0.00    -0.354 N 
ATOM     53  N   UNL A   1      40.975  31.205  34.716  1.00  0.00    -0.248 NA
ATOM     54  C   UNL A   1      41.630  31.938  36.834  1.00  0.00     0.031 C 
ATOM     55  C   UNL A   1      43.031  27.968  32.453  1.00  0.00     0.029 A 
ATOM     56  C   UNL A   1      42.404  28.970  33.177  1.00  0.00     0.049 A 
ATOM     57  H   UNL A   1      40.681  30.084  32.684  1.00  0.00     0.167 HD
ATOM     58  C   UNL A   1      42.105  30.501  35.110  1.00  0.00     0.074 A 
ATOM     59  C   UNL A   1      42.487  31.021  36.407  1.00  0.00     0.031 C 
ATOM     60  C   UNL A   1      42.766  29.510  34.462  1.00  0.00     0.037 A 
BRANCH  47  61
ATOM     61  C   UNL A   1      40.300  27.946  29.013  1.00  0.00     0.064 A 
ATOM     62  C   UNL A   1      41.036  28.296  27.869  1.00  0.00     0.173 A 
ATOM     63  C   UNL A   1      39.611  26.726  29.001  1.00  0.00     0.173 A 
ATOM     64  F   UNL A   1      41.701  29.460  27.823  1.00  0.00    -0.203 F 
ATOM     65  C   UNL A   1      41.052  27.472  26.747  1.00  0.00     0.198 A 
ATOM     66  C   UNL A   1      39.656  25.889  27.889  1.00  0.00     0.198 A 
ATOM     67  F   UNL A   1      38.894  26.343  30.067  1.00  0.00    -0.203 F 
ATOM     68  F   UNL A   1      41.715  27.853  25.646  1.00  0.00    -0.200 F 
ATOM     69  C   UNL A   1      40.368  26.266  26.760  1.00  0.00     0.200 A 
ATOM     70  F   UNL A   1      39.004  24.717  27.907  1.00  0.00    -0.200 F 
ATOM     71  F   UNL A   1      40.389  25.471  25.681  1.00  0.00    -0.200 F 
ENDBRANCH  47  61
BRANCH  48  72
ATOM     72  C   UNL A   1      39.502  33.946  36.990  1.00  0.00     0.064 A 
ATOM     73  C   UNL A   1      38.783  33.535  38.120  1.00  0.00     0.173 A 
ATOM     74  C   UNL A   1      40.099  35.215  37.021  1.00  0.00     0.173 A 
ATOM     75  F   UNL A   1      38.180  32.337  38.131  1.00  0.00    -0.203 F 
ATOM     76  C   UNL A   1      38.643  34.369  39.228  1.00  0.00     0.198 A 
ATOM     77  C   UNL A   1      39.981  36.037  38.142  1.00  0.00     0.198 A 
ATOM     78  F   UNL A   1      40.802  35.654  35.968  1.00  0.00    -0.203 F 
ATOM     79  F   UNL A   1      37.908  33.971  40.275  1.00  0.00    -0.200 F 
ATOM     80  C   UNL A   1      39.245  35.617  39.239  1.00  0.00     0.200 A 
ATOM     81  F   UNL A   1      40.578  37.237  38.154  1.00  0.00    -0.200 F 
ATOM     82  F   UNL A   1      39.110  36.420  40.304  1.00  0.00    -0.200 F 
ENDBRANCH  48  72
BRANCH  60  83
ATOM     83  C   UNL A   1      43.982  28.946  35.135  1.00  0.00     0.064 A 
ATOM     84  C   UNL A   1      43.895  27.863  36.021  1.00  0.00     0.173 A 
ATOM     85  C   UNL A   1      45.254  29.472  34.860  1.00  0.00     0.173 A 
ATOM     86  F   UNL A   1      42.700  27.333  36.325  1.00  0.00    -0.203 F 
ATOM     87  C   UNL A   1      45.034  27.345  36.630  1.00  0.00     0.198 A 
ATOM     88  C   UNL A   1      46.393  28.932  35.447  1.00  0.00     0.198 A 
ATOM     89  F   UNL A   1      45.390  30.504  34.013  1.00  0.00    -0.203 F 
ATOM     90  F   UNL A   1      44.922  26.342  37.512  1.00  0.00    -0.200 F 
ATOM     91  C   UNL A   1      46.281  27.875  36.337  1.00  0.00     0.200 A 
ATOM     92  F   UNL A   1      47.599  29.435  35.151  1.00  0.00    -0.200 F 
ATOM     93  F   UNL A   1      47.379  27.371  36.920  1.00  0.00    -0.200 F 
ENDBRANCH  60  83
ENDBRANCH  34  35
ENDBRANCH  26  29
ENDBRANCH  24  25
ENDBRANCH  23  24
ENDBRANCH  22  23
ENDBRANCH   1  22
TORSDOF 15
ENDMDL
MODEL 3
REMARK VINA RESULT:     -11.3      6.664     10.800
REMARK SMILES Cc1csc(C[NH2+]C[C@H]2CCC[C@H]2C(=O)NCCCCNC(=O)c2ccc(-c3c4nc(c(-c5c(F)c(F)c(F)c(F)c5F)c5ccc([nH]5)c(-c5c(F)c(F)c(F)c(F)c5F)c5nc(c(-c6c(F)c(F)c(F)c(F)c6F)c6ccc3[nH]6)C=C5)C=C4)cc2)n1
REMARK SMILES IDX 17 1 16 2 14 3 15 4 13 6 9 7 10 8 11 9 12 10 8 11 7 12 6 15
REMARK SMILES IDX 5 16 1 17 2 18 3 19 87 20 4 21 18 22 19 23 20 24 21 25 22 26
REMARK SMILES IDX 23 28 24 29 25 30 86 31 26 32 85 33 27 34 28 35 29 36 79 37
REMARK SMILES IDX 30 38 84 39 78 40 80 41 31 42 83 43 77 44 76 45 32 47 64 48
REMARK SMILES IDX 44 49 63 50 45 51 48 52 62 53 81 54 46 55 47 56 61 58 82 59
REMARK SMILES IDX 49 60 33 61 34 62 42 63 35 64 36 65 40 66 43 67 37 68 38 69
REMARK SMILES IDX 41 70 39 71 65 72 66 73 74 74 67 75 68 76 72 77 75 78 69 79
REMARK SMILES IDX 70 80 73 81 71 82 50 83 51 84 59 85 52 86 53 87 57 88 60 89
REMARK SMILES IDX 54 90 55 91 58 92 56 93
REMARK H PARENT 16 5 7 13 7 14 21 27 80 46 48 57
REMARK Flexibility Score: inf
ROOT
ATOM      1  C   UNL A   1      37.537  21.968  25.190  1.00  0.00     0.116 C 
ENDROOT
BRANCH   1   2
ATOM      2  N   UNL A   1      36.970  22.713  24.083  1.00  0.00    -0.356 N 
ATOM      3  C   UNL A   1      35.793  23.362  23.896  1.00  0.00     0.223 C 
ATOM      4  O   UNL A   1      35.593  23.787  22.751  1.00  0.00    -0.275 OA
ATOM      5  H   UNL A   1      37.565  22.756  23.299  1.00  0.00     0.163 HD
BRANCH   3   6
ATOM      6  C   UNL A   1      34.728  23.600  24.969  1.00  0.00     0.087 C 
ATOM      7  C   UNL A   1      33.390  22.812  24.916  1.00  0.00     0.057 C 
ATOM      8  C   UNL A   1      32.844  23.050  26.328  1.00  0.00     0.010 C 
ATOM      9  C   UNL A   1      34.068  22.930  27.224  1.00  0.00     0.001 C 
ATOM     10  C   UNL A   1      35.196  23.585  26.432  1.00  0.00     0.014 C 
BRANCH   7  11
ATOM     11  C   UNL A   1      33.565  21.336  24.567  1.00  0.00     0.265 C 
BRANCH  11  12
ATOM     12  N   UNL A   1      32.422  20.453  24.628  1.00  0.00    -0.340 N 
ATOM     13  H   UNL A   1      32.380  20.059  25.568  1.00  0.00     0.346 HD
ATOM     14  H   UNL A   1      31.615  21.026  24.383  1.00  0.00     0.346 HD
BRANCH  12  15
ATOM     15  C   UNL A   1      32.427  19.346  23.679  1.00  0.00     0.329 C 
BRANCH  15  16
ATOM     16  C   UNL A   1      32.924  18.107  24.382  1.00  0.00     0.147 A 
ATOM     17  C   UNL A   1      32.157  15.038  26.096  1.00  0.00     0.067 C 
ATOM     18  C   UNL A   1      32.875  16.144  25.415  1.00  0.00     0.049 A 
ATOM     19  C   UNL A   1      34.213  16.184  25.078  1.00  0.00     0.090 A 
ATOM     20  N   UNL A   1      32.153  17.263  25.039  1.00  0.00    -0.241 NA
ATOM     21  S   UNL A   1      34.575  17.641  24.252  1.00  0.00    -0.121 S 
ENDBRANCH  15  16
ENDBRANCH  12  15
ENDBRANCH  11  12
ENDBRANCH   7  11
ENDBRANCH   3   6
ENDBRANCH   1   2
BRANCH   1  22
ATOM     22  C   UNL A   1      37.165  20.483  25.107  1.00  0.00     0.023 C 
BRANCH  22  23
ATOM     23  C   UNL A   1      38.335  19.519  25.000  1.00  0.00     0.023 C 
BRANCH  23  24
ATOM     24  C   UNL A   1      39.540  19.905  25.835  1.00  0.00     0.116 C 
BRANCH  24  25
ATOM     25  N   UNL A   1      40.545  18.857  25.929  1.00  0.00    -0.352 N 
ATOM     26  C   UNL A   1      41.899  18.983  26.134  1.00  0.00     0.251 C 
ATOM     27  H   UNL A   1      40.212  17.935  25.833  1.00  0.00     0.163 HD
ATOM     28  O   UNL A   1      42.633  18.007  26.093  1.00  0.00    -0.269 OA
BRANCH  26  29
ATOM     29  C   UNL A   1      42.459  20.330  26.365  1.00  0.00     0.039 A 
ATOM     30  C   UNL A   1      43.016  21.022  25.287  1.00  0.00     0.014 A 
ATOM     31  C   UNL A   1      42.382  20.922  27.626  1.00  0.00     0.014 A 
ATOM     32  C   UNL A   1      43.449  22.333  25.470  1.00  0.00     0.010 A 
ATOM     33  C   UNL A   1      42.709  22.261  27.778  1.00  0.00     0.010 A 
ATOM     34  C   UNL A   1      43.272  22.971  26.708  1.00  0.00    -0.014 A 
BRANCH  34  35
ATOM     35  C   UNL A   1      43.721  24.367  26.923  1.00  0.00     0.031 A 
ATOM     36  C   UNL A   1      42.744  25.388  27.440  1.00  0.00     0.074 A 
ATOM     37  C   UNL A   1      44.982  24.720  26.613  1.00  0.00     0.049 A 
ATOM     38  N   UNL A   1      42.922  26.663  27.668  1.00  0.00    -0.248 NA
ATOM     39  C   UNL A   1      41.371  24.921  27.699  1.00  0.00     0.031 C 
ATOM     40  C   UNL A   1      45.996  23.831  26.042  1.00  0.00     0.029 A 
ATOM     41  N   UNL A   1      45.627  25.925  26.735  1.00  0.00    -0.354 N 
ATOM     42  C   UNL A   1      41.687  27.147  28.079  1.00  0.00     0.074 A 
ATOM     43  C   UNL A   1      40.750  26.051  27.996  1.00  0.00     0.031 C 
ATOM     44  C   UNL A   1      47.146  24.509  25.902  1.00  0.00     0.029 A 
ATOM     45  C   UNL A   1      46.942  25.886  26.343  1.00  0.00     0.049 A 
ATOM     46  H   UNL A   1      45.189  26.739  27.072  1.00  0.00     0.167 HD
ATOM     47  C   UNL A   1      41.371  28.385  28.525  1.00  0.00     0.037 A 
ATOM     48  C   UNL A   1      47.877  26.855  26.349  1.00  0.00     0.037 A 
ATOM     49  C   UNL A   1      42.319  29.459  28.644  1.00  0.00     0.049 A 
ATOM     50  C   UNL A   1      47.505  28.219  26.867  1.00  0.00     0.074 A 
ATOM     51  C   UNL A   1      42.124  30.733  29.144  1.00  0.00     0.029 A 
ATOM     52  N   UNL A   1      43.650  29.377  28.259  1.00  0.00    -0.354 N 
ATOM     53  N   UNL A   1      46.353  28.644  27.330  1.00  0.00    -0.248 NA
ATOM     54  C   UNL A   1      48.565  29.235  26.872  1.00  0.00     0.031 C 
ATOM     55  C   UNL A   1      43.328  31.436  29.025  1.00  0.00     0.029 A 
ATOM     56  C   UNL A   1      44.284  30.585  28.494  1.00  0.00     0.049 A 
ATOM     57  H   UNL A   1      44.079  28.578  27.875  1.00  0.00     0.167 HD
ATOM     58  C   UNL A   1      46.557  29.964  27.706  1.00  0.00     0.074 A 
ATOM     59  C   UNL A   1      47.948  30.264  27.435  1.00  0.00     0.031 C 
ATOM     60  C   UNL A   1      45.672  30.854  28.222  1.00  0.00     0.037 A 
BRANCH  47  61
ATOM     61  C   UNL A   1      39.947  28.632  28.932  1.00  0.00     0.064 A 
ATOM     62  C   UNL A   1      39.510  28.410  30.248  1.00  0.00     0.173 A 
ATOM     63  C   UNL A   1      39.013  29.114  28.004  1.00  0.00     0.173 A 
ATOM     64  F   UNL A   1      40.360  27.935  31.170  1.00  0.00    -0.203 F 
ATOM     65  C   UNL A   1      38.184  28.630  30.610  1.00  0.00     0.198 A 
ATOM     66  C   UNL A   1      37.695  29.364  28.378  1.00  0.00     0.198 A 
ATOM     67  F   UNL A   1      39.377  29.344  26.734  1.00  0.00    -0.203 F 
ATOM     68  F   UNL A   1      37.778  28.356  31.858  1.00  0.00    -0.200 F 
ATOM     69  C   UNL A   1      37.280  29.113  29.678  1.00  0.00     0.200 A 
ATOM     70  F   UNL A   1      36.824  29.842  27.478  1.00  0.00    -0.200 F 
ATOM     71  F   UNL A   1      36.004  29.329  30.029  1.00  0.00    -0.200 F 
ENDBRANCH  47  61
BRANCH  48  72
ATOM     72  C   UNL A   1      49.261  26.562  25.893  1.00  0.00     0.064 A 
ATOM     73  C   UNL A   1      50.192  25.969  26.758  1.00  0.00     0.173 A 
ATOM     74  C   UNL A   1      49.686  26.878  24.595  1.00  0.00     0.173 A 
ATOM     75  F   UNL A   1      49.838  25.665  28.015  1.00  0.00    -0.203 F 
ATOM     76  C   UNL A   1      51.501  25.725  26.349  1.00  0.00     0.198 A 
ATOM     77  C   UNL A   1      50.989  26.608  24.178  1.00  0.00     0.198 A 
ATOM     78  F   UNL A   1      48.833  27.442  23.727  1.00  0.00    -0.203 F 
ATOM     79  F   UNL A   1      52.383  25.203  27.212  1.00  0.00    -0.200 F 
ATOM     80  C   UNL A   1      51.897  26.041  25.059  1.00  0.00     0.200 A 
ATOM     81  F   UNL A   1      51.363  26.902  22.925  1.00  0.00    -0.200 F 
ATOM     82  F   UNL A   1      53.158  25.807  24.666  1.00  0.00    -0.200 F 
ENDBRANCH  48  72
BRANCH  60  83
ATOM     83  C   UNL A   1      46.193  32.222  28.552  1.00  0.00     0.064 A 
ATOM     84  C   UNL A   1      46.157  33.266  27.617  1.00  0.00     0.173 A 
ATOM     85  C   UNL A   1      46.699  32.499  29.831  1.00  0.00     0.173 A 
ATOM     86  F   UNL A   1      45.695  33.046  26.377  1.00  0.00    -0.203 F 
ATOM     87  C   UNL A   1      46.636  34.532  27.941  1.00  0.00     0.198 A 
ATOM     88  C   UNL A   1      47.147  33.774  30.162  1.00  0.00     0.198 A 
ATOM     89  F   UNL A   1      46.746  31.536  30.764  1.00  0.00    -0.203 F 
ATOM     90  F   UNL A   1      46.638  35.501  27.017  1.00  0.00    -0.200 F 
ATOM     91  C   UNL A   1      47.123  34.786  29.214  1.00  0.00     0.200 A 
ATOM     92  F   UNL A   1      47.603  34.022  31.397  1.00  0.00    -0.200 F 
ATOM     93  F   UNL A   1      47.577  36.008  29.528  1.00  0.00    -0.200 F 
ENDBRANCH  60  83
ENDBRANCH  34  35
ENDBRANCH  26  29
ENDBRANCH  24  25
ENDBRANCH  23  24
ENDBRANCH  22  23
ENDBRANCH   1  22
TORSDOF 15
ENDMDL
