MODEL 1
REMARK VINA RESULT:     -11.8      0.000      0.000
REMARK SMILES COc1ccc(OCCNc2ccc(C)cc2C(=O)NCCCCNC(=O)c2ccc(-c3c4nc(c(-c5c(F)c(F)c(F)c(F)c5F)c5ccc([nH]5)c(-c5c(F)c(F)c(F)c(F)c5F)c5nc(c(-c6c(F)c(F)c(F)c(F)c6F)c6ccc3[nH]6)C=C5)C=C4)cc2)cc1
REMARK SMILES IDX 18 1 19 2 20 3 17 5 11 6 12 7 13 8 16 9 14 10 15 11 10 12
REMARK SMILES IDX 9 14 8 15 7 16 6 17 3 18 4 19 92 20 5 21 91 22 2 23 1 24
REMARK SMILES IDX 21 25 22 26 23 27 24 28 25 29 26 30 27 32 28 33 29 34 90 35
REMARK SMILES IDX 30 36 89 37 31 38 32 39 33 40 83 41 34 42 88 43 82 44 84 45
REMARK SMILES IDX 35 46 87 47 81 48 80 49 36 51 68 52 48 53 67 54 49 55 52 56
REMARK SMILES IDX 66 57 85 58 50 59 51 60 65 62 86 63 53 64 37 65 38 66 46 67
REMARK SMILES IDX 39 68 40 69 44 70 47 71 41 72 42 73 45 74 43 75 69 76 70 77
REMARK SMILES IDX 78 78 71 79 72 80 76 81 79 82 73 83 74 84 77 85 75 86 54 87
REMARK SMILES IDX 55 88 63 89 56 90 57 91 61 92 64 93 58 94 59 95 62 96 60 97
REMARK H PARENT 20 4 10 13 25 31 84 50 52 61
REMARK Flexibility Score: inf
ROOT
ATOM      1  C   UNL A   1      30.553  24.102  26.497  1.00  0.00     0.253 C 
ATOM      2  O   UNL A   1      29.623  23.634  27.160  1.00  0.00    -0.269 OA
ATOM      3  N   UNL A   1      30.832  25.445  26.663  1.00  0.00    -0.352 N 
ATOM      4  H   UNL A   1      30.239  25.916  27.292  1.00  0.00     0.163 HD
ENDROOT
BRANCH   1   5
ATOM      5  C   UNL A   1      31.242  23.210  25.511  1.00  0.00     0.063 A 
ATOM      6  C   UNL A   1      31.192  23.322  24.114  1.00  0.00     0.047 A 
ATOM      7  C   UNL A   1      31.783  22.304  23.339  1.00  0.00     0.027 A 
ATOM      8  C   UNL A   1      32.536  21.283  23.904  1.00  0.00     0.005 A 
ATOM      9  C   UNL A   1      32.051  22.194  26.077  1.00  0.00     0.019 A 
ATOM     10  C   UNL A   1      32.719  21.246  25.282  1.00  0.00    -0.050 A 
ATOM     11  C   UNL A   1      33.607  20.190  25.869  1.00  0.00     0.044 C 
BRANCH   6  12
ATOM     12  N   UNL A   1      30.489  24.248  23.385  1.00  0.00    -0.381 N 
ATOM     13  H   UNL A   1      29.540  24.049  23.211  1.00  0.00     0.160 HD
BRANCH  12  14
ATOM     14  C   UNL A   1      31.009  25.490  22.847  1.00  0.00     0.154 C 
BRANCH  14  15
ATOM     15  C   UNL A   1      32.407  25.259  22.218  1.00  0.00     0.250 C 
BRANCH  15  16
ATOM     16  O   UNL A   1      33.511  25.641  23.062  1.00  0.00    -0.492 OA
BRANCH  16  17
ATOM     17  C   UNL A   1      34.335  24.674  23.580  1.00  0.00     0.119 A 
ATOM     18  C   UNL A   1      36.357  23.148  24.770  1.00  0.00     0.119 A 
ATOM     19  C   UNL A   1      35.591  24.008  25.550  1.00  0.00     0.050 A 
ATOM     20  C   UNL A   1      36.039  22.953  23.430  1.00  0.00     0.050 A 
ATOM     21  C   UNL A   1      34.587  24.776  24.951  1.00  0.00     0.050 A 
ATOM     22  C   UNL A   1      35.008  23.694  22.846  1.00  0.00     0.050 A 
BRANCH  18  23
ATOM     23  O   UNL A   1      37.375  22.460  25.369  1.00  0.00    -0.497 OA
ATOM     24  C   UNL A   1      37.350  21.077  25.006  1.00  0.00     0.278 C 
ENDBRANCH  18  23
ENDBRANCH  16  17
ENDBRANCH  15  16
ENDBRANCH  14  15
ENDBRANCH  12  14
ENDBRANCH   6  12
ENDBRANCH   1   5
BRANCH   3  25
ATOM     25  C   UNL A   1      31.857  26.270  26.057  1.00  0.00     0.116 C 
BRANCH  25  26
ATOM     26  C   UNL A   1      32.335  27.458  26.887  1.00  0.00     0.023 C 
BRANCH  26  27
ATOM     27  C   UNL A   1      31.776  28.832  26.498  1.00  0.00     0.023 C 
BRANCH  27  28
ATOM     28  C   UNL A   1      32.734  29.840  25.862  1.00  0.00     0.116 C 
BRANCH  28  29
ATOM     29  N   UNL A   1      32.602  31.200  26.362  1.00  0.00    -0.352 N 
ATOM     30  C   UNL A   1      33.375  31.916  27.250  1.00  0.00     0.251 C 
ATOM     31  H   UNL A   1      31.829  31.694  26.006  1.00  0.00     0.163 HD
ATOM     32  O   UNL A   1      33.004  33.022  27.637  1.00  0.00    -0.269 OA
BRANCH  30  33
ATOM     33  C   UNL A   1      34.642  31.357  27.774  1.00  0.00     0.039 A 
ATOM     34  C   UNL A   1      35.723  32.215  28.002  1.00  0.00     0.014 A 
ATOM     35  C   UNL A   1      34.776  29.993  28.036  1.00  0.00     0.014 A 
ATOM     36  C   UNL A   1      36.887  31.726  28.604  1.00  0.00     0.010 A 
ATOM     37  C   UNL A   1      35.900  29.522  28.713  1.00  0.00     0.010 A 
ATOM     38  C   UNL A   1      36.959  30.387  29.026  1.00  0.00    -0.014 A 
BRANCH  38  39
ATOM     39  C   UNL A   1      38.100  29.887  29.840  1.00  0.00     0.031 A 
ATOM     40  C   UNL A   1      38.320  30.383  31.242  1.00  0.00     0.074 A 
ATOM     41  C   UNL A   1      38.999  29.054  29.278  1.00  0.00     0.049 A 
ATOM     42  N   UNL A   1      39.314  30.141  32.061  1.00  0.00    -0.248 NA
ATOM     43  C   UNL A   1      37.303  31.295  31.787  1.00  0.00     0.031 C 
ATOM     44  C   UNL A   1      38.935  28.539  27.909  1.00  0.00     0.029 A 
ATOM     45  N   UNL A   1      40.156  28.507  29.780  1.00  0.00    -0.354 N 
ATOM     46  C   UNL A   1      39.051  30.882  33.205  1.00  0.00     0.074 A 
ATOM     47  C   UNL A   1      37.831  31.620  32.958  1.00  0.00     0.031 C 
ATOM     48  C   UNL A   1      39.990  27.741  27.686  1.00  0.00     0.029 A 
ATOM     49  C   UNL A   1      40.832  27.720  28.879  1.00  0.00     0.049 A 
ATOM     50  H   UNL A   1      40.470  28.664  30.700  1.00  0.00     0.167 HD
ATOM     51  C   UNL A   1      39.752  30.927  34.364  1.00  0.00     0.037 A 
ATOM     52  C   UNL A   1      42.005  27.068  28.991  1.00  0.00     0.037 A 
ATOM     53  C   UNL A   1      40.955  30.175  34.617  1.00  0.00     0.049 A 
ATOM     54  C   UNL A   1      42.768  27.141  30.286  1.00  0.00     0.074 A 
ATOM     55  C   UNL A   1      41.697  30.102  35.783  1.00  0.00     0.029 A 
ATOM     56  N   UNL A   1      41.595  29.371  33.686  1.00  0.00    -0.354 N 
ATOM     57  N   UNL A   1      42.469  27.784  31.388  1.00  0.00    -0.248 NA
ATOM     58  C   UNL A   1      44.032  26.393  30.354  1.00  0.00     0.031 C 
ATOM     59  C   UNL A   1      42.815  29.297  35.542  1.00  0.00     0.029 A 
ATOM     60  C   UNL A   1      42.739  28.819  34.245  1.00  0.00     0.049 A 
ATOM     61  H   UNL A   1      41.284  29.213  32.765  1.00  0.00     0.167 HD
ATOM     62  C   UNL A   1      43.487  27.496  32.287  1.00  0.00     0.074 A 
ATOM     63  C   UNL A   1      44.405  26.608  31.607  1.00  0.00     0.031 C 
ATOM     64  C   UNL A   1      43.643  27.928  33.562  1.00  0.00     0.037 A 
BRANCH  51  65
ATOM     65  C   UNL A   1      39.238  31.822  35.456  1.00  0.00     0.064 A 
ATOM     66  C   UNL A   1      38.369  31.346  36.451  1.00  0.00     0.173 A 
ATOM     67  C   UNL A   1      39.656  33.159  35.537  1.00  0.00     0.173 A 
ATOM     68  F   UNL A   1      37.934  30.078  36.416  1.00  0.00    -0.203 F 
ATOM     69  C   UNL A   1      37.914  32.183  37.465  1.00  0.00     0.198 A 
ATOM     70  C   UNL A   1      39.223  33.985  36.572  1.00  0.00     0.198 A 
ATOM     71  F   UNL A   1      40.492  33.664  34.618  1.00  0.00    -0.203 F 
ATOM     72  F   UNL A   1      37.045  31.719  38.375  1.00  0.00    -0.200 F 
ATOM     73  C   UNL A   1      38.347  33.499  37.530  1.00  0.00     0.200 A 
ATOM     74  F   UNL A   1      39.656  35.251  36.642  1.00  0.00    -0.200 F 
ATOM     75  F   UNL A   1      37.915  34.301  38.513  1.00  0.00    -0.200 F 
ENDBRANCH  51  65
BRANCH  52  76
ATOM     76  C   UNL A   1      42.525  26.273  27.848  1.00  0.00     0.064 A 
ATOM     77  C   UNL A   1      43.458  26.820  26.955  1.00  0.00     0.173 A 
ATOM     78  C   UNL A   1      42.098  24.956  27.618  1.00  0.00     0.173 A 
ATOM     79  F   UNL A   1      43.880  28.082  27.119  1.00  0.00    -0.203 F 
ATOM     80  C   UNL A   1      43.927  26.089  25.865  1.00  0.00     0.198 A 
ATOM     81  C   UNL A   1      42.592  24.216  26.545  1.00  0.00     0.198 A 
ATOM     82  F   UNL A   1      41.211  24.384  28.444  1.00  0.00    -0.203 F 
ATOM     83  F   UNL A   1      44.781  26.654  25.001  1.00  0.00    -0.200 F 
ATOM     84  C   UNL A   1      43.499  24.786  25.664  1.00  0.00     0.200 A 
ATOM     85  F   UNL A   1      42.187  22.952  26.364  1.00  0.00    -0.200 F 
ATOM     86  F   UNL A   1      43.954  24.082  24.618  1.00  0.00    -0.200 F 
ENDBRANCH  52  76
BRANCH  64  87
ATOM     87  C   UNL A   1      44.832  27.418  34.325  1.00  0.00     0.064 A 
ATOM     88  C   UNL A   1      46.027  28.148  34.404  1.00  0.00     0.173 A 
ATOM     89  C   UNL A   1      44.756  26.204  35.025  1.00  0.00     0.173 A 
ATOM     90  F   UNL A   1      46.156  29.306  33.741  1.00  0.00    -0.203 F 
ATOM     91  C   UNL A   1      47.111  27.668  35.136  1.00  0.00     0.198 A 
ATOM     92  C   UNL A   1      45.830  25.743  35.781  1.00  0.00     0.198 A 
ATOM     93  F   UNL A   1      43.634  25.470  34.987  1.00  0.00    -0.203 F 
ATOM     94  F   UNL A   1      48.260  28.358  35.159  1.00  0.00    -0.200 F 
ATOM     95  C   UNL A   1      47.009  26.472  35.830  1.00  0.00     0.200 A 
ATOM     96  F   UNL A   1      45.724  24.595  36.464  1.00  0.00    -0.200 F 
ATOM     97  F   UNL A   1      48.049  26.018  36.543  1.00  0.00    -0.200 F 
ENDBRANCH  64  87
ENDBRANCH  38  39
ENDBRANCH  30  33
ENDBRANCH  28  29
ENDBRANCH  27  28
ENDBRANCH  26  27
ENDBRANCH  25  26
ENDBRANCH   3  25
TORSDOF 17
ENDMDL
MODEL 2
REMARK VINA RESULT:     -11.8      0.508      7.198
REMARK SMILES COc1ccc(OCCNc2ccc(C)cc2C(=O)NCCCCNC(=O)c2ccc(-c3c4nc(c(-c5c(F)c(F)c(F)c(F)c5F)c5ccc([nH]5)c(-c5c(F)c(F)c(F)c(F)c5F)c5nc(c(-c6c(F)c(F)c(F)c(F)c6F)c6ccc3[nH]6)C=C5)C=C4)cc2)cc1
REMARK SMILES IDX 18 1 19 2 20 3 17 5 11 6 12 7 13 8 16 9 14 10 15 11 10 12
REMARK SMILES IDX 9 14 8 15 7 16 6 17 3 18 4 19 92 20 5 21 91 22 2 23 1 24
REMARK SMILES IDX 21 25 22 26 23 27 24 28 25 29 26 30 27 32 28 33 29 34 90 35
REMARK SMILES IDX 30 36 89 37 31 38 32 39 33 40 83 41 34 42 88 43 82 44 84 45
REMARK SMILES IDX 35 46 87 47 81 48 80 49 36 51 68 52 48 53 67 54 49 55 52 56
REMARK SMILES IDX 66 57 85 58 50 59 51 60 65 62 86 63 53 64 37 65 38 66 46 67
REMARK SMILES IDX 39 68 40 69 44 70 47 71 41 72 42 73 45 74 43 75 69 76 70 77
REMARK SMILES IDX 78 78 71 79 72 80 76 81 79 82 73 83 74 84 77 85 75 86 54 87
REMARK SMILES IDX 55 88 63 89 56 90 57 91 61 92 64 93 58 94 59 95 62 96 60 97
REMARK H PARENT 20 4 10 13 25 31 84 50 52 61
REMARK Flexibility Score: inf
ROOT
ATOM      1  C   UNL A   1      30.438  24.303  26.528  1.00  0.00     0.253 C 
ATOM      2  O   UNL A   1      29.450  23.884  27.136  1.00  0.00    -0.269 OA
ATOM      3  N   UNL A   1      30.755  25.639  26.684  1.00  0.00    -0.352 N 
ATOM      4  H   UNL A   1      30.140  26.145  27.262  1.00  0.00     0.163 HD
ENDROOT
BRANCH   1   5
ATOM      5  C   UNL A   1      31.156  23.365  25.607  1.00  0.00     0.063 A 
ATOM      6  C   UNL A   1      31.094  23.366  24.207  1.00  0.00     0.047 A 
ATOM      7  C   UNL A   1      31.720  22.315  23.507  1.00  0.00     0.027 A 
ATOM      8  C   UNL A   1      32.515  21.370  24.143  1.00  0.00     0.005 A 
ATOM      9  C   UNL A   1      32.007  22.427  26.243  1.00  0.00     0.019 A 
ATOM     10  C   UNL A   1      32.707  21.448  25.518  1.00  0.00    -0.050 A 
ATOM     11  C   UNL A   1      33.639  20.476  26.177  1.00  0.00     0.044 C 
BRANCH   6  12
ATOM     12  N   UNL A   1      30.351  24.205  23.414  1.00  0.00    -0.381 N 
ATOM     13  H   UNL A   1      29.468  23.878  23.125  1.00  0.00     0.160 HD
BRANCH  12  14
ATOM     14  C   UNL A   1      30.741  25.526  22.961  1.00  0.00     0.154 C 
BRANCH  14  15
ATOM     15  C   UNL A   1      32.066  25.449  22.158  1.00  0.00     0.250 C 
BRANCH  15  16
ATOM     16  O   UNL A   1      33.232  25.870  22.893  1.00  0.00    -0.492 OA
BRANCH  16  17
ATOM     17  C   UNL A   1      34.057  24.928  23.454  1.00  0.00     0.119 A 
ATOM     18  C   UNL A   1      36.099  23.454  24.676  1.00  0.00     0.119 A 
ATOM     19  C   UNL A   1      35.395  24.401  25.412  1.00  0.00     0.050 A 
ATOM     20  C   UNL A   1      35.708  23.151  23.376  1.00  0.00     0.050 A 
ATOM     21  C   UNL A   1      34.382  25.143  24.796  1.00  0.00     0.050 A 
ATOM     22  C   UNL A   1      34.667  23.868  22.778  1.00  0.00     0.050 A 
BRANCH  18  23
ATOM     23  O   UNL A   1      37.128  22.791  25.283  1.00  0.00    -0.497 OA
ATOM     24  C   UNL A   1      37.851  23.652  26.166  1.00  0.00     0.278 C 
ENDBRANCH  18  23
ENDBRANCH  16  17
ENDBRANCH  15  16
ENDBRANCH  14  15
ENDBRANCH  12  14
ENDBRANCH   6  12
ENDBRANCH   1   5
BRANCH   3  25
ATOM     25  C   UNL A   1      31.848  26.412  26.130  1.00  0.00     0.116 C 
BRANCH  25  26
ATOM     26  C   UNL A   1      32.386  27.534  27.014  1.00  0.00     0.023 C 
BRANCH  26  27
ATOM     27  C   UNL A   1      31.790  28.928  26.785  1.00  0.00     0.023 C 
BRANCH  27  28
ATOM     28  C   UNL A   1      32.646  29.959  26.048  1.00  0.00     0.116 C 
BRANCH  28  29
ATOM     29  N   UNL A   1      32.462  31.332  26.496  1.00  0.00    -0.352 N 
ATOM     30  C   UNL A   1      33.228  32.124  27.323  1.00  0.00     0.251 C 
ATOM     31  H   UNL A   1      31.652  31.770  26.148  1.00  0.00     0.163 HD
ATOM     32  O   UNL A   1      32.814  33.226  27.677  1.00  0.00    -0.269 OA
BRANCH  30  33
ATOM     33  C   UNL A   1      34.539  31.652  27.822  1.00  0.00     0.039 A 
ATOM     34  C   UNL A   1      35.586  32.570  27.959  1.00  0.00     0.014 A 
ATOM     35  C   UNL A   1      34.749  30.312  28.149  1.00  0.00     0.014 A 
ATOM     36  C   UNL A   1      36.795  32.167  28.537  1.00  0.00     0.010 A 
ATOM     37  C   UNL A   1      35.919  29.930  28.801  1.00  0.00     0.010 A 
ATOM     38  C   UNL A   1      36.948  30.858  29.024  1.00  0.00    -0.014 A 
BRANCH  38  39
ATOM     39  C   UNL A   1      38.143  30.455  29.814  1.00  0.00     0.031 A 
ATOM     40  C   UNL A   1      39.123  29.455  29.268  1.00  0.00     0.074 A 
ATOM     41  C   UNL A   1      38.292  30.920  31.071  1.00  0.00     0.049 A 
ATOM     42  N   UNL A   1      40.161  28.906  29.853  1.00  0.00    -0.248 NA
ATOM     43  C   UNL A   1      38.893  28.986  27.894  1.00  0.00     0.031 C 
ATOM     44  C   UNL A   1      37.384  31.852  31.742  1.00  0.00     0.029 A 
ATOM     45  N   UNL A   1      39.253  30.657  32.019  1.00  0.00    -0.354 N 
ATOM     46  C   UNL A   1      40.692  28.020  28.926  1.00  0.00     0.074 A 
ATOM     47  C   UNL A   1      39.837  28.066  27.760  1.00  0.00     0.031 C 
ATOM     48  C   UNL A   1      37.838  32.097  32.981  1.00  0.00     0.029 A 
ATOM     49  C   UNL A   1      39.043  31.306  33.212  1.00  0.00     0.049 A 
ATOM     50  H   UNL A   1      40.020  30.060  31.857  1.00  0.00     0.167 HD
ATOM     51  C   UNL A   1      41.804  27.252  29.031  1.00  0.00     0.037 A 
ATOM     52  C   UNL A   1      39.733  31.259  34.368  1.00  0.00     0.037 A 
ATOM     53  C   UNL A   1      42.668  27.223  30.184  1.00  0.00     0.049 A 
ATOM     54  C   UNL A   1      40.959  30.392  34.461  1.00  0.00     0.074 A 
ATOM     55  C   UNL A   1      43.854  26.531  30.356  1.00  0.00     0.029 A 
ATOM     56  N   UNL A   1      42.434  27.914  31.364  1.00  0.00    -0.354 N 
ATOM     57  N   UNL A   1      41.495  29.617  33.550  1.00  0.00    -0.248 NA
ATOM     58  C   UNL A   1      41.680  30.398  35.742  1.00  0.00     0.031 C 
ATOM     59  C   UNL A   1      44.309  26.759  31.658  1.00  0.00     0.029 A 
ATOM     60  C   UNL A   1      43.441  27.641  32.278  1.00  0.00     0.049 A 
ATOM     61  H   UNL A   1      41.668  28.510  31.528  1.00  0.00     0.167 HD
ATOM     62  C   UNL A   1      42.628  29.067  34.136  1.00  0.00     0.074 A 
ATOM     63  C   UNL A   1      42.711  29.609  35.475  1.00  0.00     0.031 C 
ATOM     64  C   UNL A   1      43.519  28.193  33.607  1.00  0.00     0.037 A 
BRANCH  51  65
ATOM     65  C   UNL A   1      42.158  26.373  27.864  1.00  0.00     0.064 A 
ATOM     66  C   UNL A   1      41.539  25.129  27.666  1.00  0.00     0.173 A 
ATOM     67  C   UNL A   1      43.092  26.800  26.908  1.00  0.00     0.173 A 
ATOM     68  F   UNL A   1      40.644  24.670  28.554  1.00  0.00    -0.203 F 
ATOM     69  C   UNL A   1      41.866  24.333  26.572  1.00  0.00     0.198 A 
ATOM     70  C   UNL A   1      43.392  26.014  25.798  1.00  0.00     0.198 A 
ATOM     71  F   UNL A   1      43.707  27.984  27.043  1.00  0.00    -0.203 F 
ATOM     72  F   UNL A   1      41.298  23.126  26.430  1.00  0.00    -0.200 F 
ATOM     73  C   UNL A   1      42.785  24.779  25.635  1.00  0.00     0.200 A 
ATOM     74  F   UNL A   1      44.269  26.455  24.885  1.00  0.00    -0.200 F 
ATOM     75  F   UNL A   1      43.091  24.015  24.577  1.00  0.00    -0.200 F 
ENDBRANCH  51  65
BRANCH  52  76
ATOM     76  C   UNL A   1      39.289  32.072  35.531  1.00  0.00     0.064 A 
ATOM     77  C   UNL A   1      38.449  31.527  36.513  1.00  0.00     0.173 A 
ATOM     78  C   UNL A   1      39.686  33.409  35.683  1.00  0.00     0.173 A 
ATOM     79  F   UNL A   1      38.024  30.259  36.401  1.00  0.00    -0.203 F 
ATOM     80  C   UNL A   1      38.007  32.292  37.589  1.00  0.00     0.198 A 
ATOM     81  C   UNL A   1      39.268  34.165  36.777  1.00  0.00     0.198 A 
ATOM     82  F   UNL A   1      40.492  33.978  34.776  1.00  0.00    -0.203 F 
ATOM     83  F   UNL A   1      37.166  31.759  38.487  1.00  0.00    -0.200 F 
ATOM     84  C   UNL A   1      38.421  33.608  37.725  1.00  0.00     0.200 A 
ATOM     85  F   UNL A   1      39.683  35.431  36.912  1.00  0.00    -0.200 F 
ATOM     86  F   UNL A   1      37.998  34.343  38.763  1.00  0.00    -0.200 F 
ENDBRANCH  52  76
BRANCH  64  87
ATOM     87  C   UNL A   1      44.688  27.793  34.463  1.00  0.00     0.064 A 
ATOM     88  C   UNL A   1      45.887  28.520  34.460  1.00  0.00     0.173 A 
ATOM     89  C   UNL A   1      44.587  26.696  35.332  1.00  0.00     0.173 A 
ATOM     90  F   UNL A   1      46.040  29.568  33.637  1.00  0.00    -0.203 F 
ATOM     91  C   UNL A   1      46.952  28.147  35.278  1.00  0.00     0.198 A 
ATOM     92  C   UNL A   1      45.641  26.345  36.171  1.00  0.00     0.198 A 
ATOM     93  F   UNL A   1      43.459  25.971  35.377  1.00  0.00    -0.203 F 
ATOM     94  F   UNL A   1      48.105  28.827  35.224  1.00  0.00    -0.200 F 
ATOM     95  C   UNL A   1      46.824  27.067  36.138  1.00  0.00     0.200 A 
ATOM     96  F   UNL A   1      45.510  25.311  37.012  1.00  0.00    -0.200 F 
ATOM     97  F   UNL A   1      47.846  26.716  36.932  1.00  0.00    -0.200 F 
ENDBRANCH  64  87
ENDBRANCH  38  39
ENDBRANCH  30  33
ENDBRANCH  28  29
ENDBRANCH  27  28
ENDBRANCH  26  27
ENDBRANCH  25  26
ENDBRANCH   3  25
TORSDOF 17
ENDMDL
MODEL 3
REMARK VINA RESULT:     -11.7      1.624      3.609
REMARK SMILES COc1ccc(OCCNc2ccc(C)cc2C(=O)NCCCCNC(=O)c2ccc(-c3c4nc(c(-c5c(F)c(F)c(F)c(F)c5F)c5ccc([nH]5)c(-c5c(F)c(F)c(F)c(F)c5F)c5nc(c(-c6c(F)c(F)c(F)c(F)c6F)c6ccc3[nH]6)C=C5)C=C4)cc2)cc1
REMARK SMILES IDX 18 1 19 2 20 3 17 5 11 6 12 7 13 8 16 9 14 10 15 11 10 12
REMARK SMILES IDX 9 14 8 15 7 16 6 17 3 18 4 19 92 20 5 21 91 22 2 23 1 24
REMARK SMILES IDX 21 25 22 26 23 27 24 28 25 29 26 30 27 32 28 33 29 34 90 35
REMARK SMILES IDX 30 36 89 37 31 38 32 39 33 40 83 41 34 42 88 43 82 44 84 45
REMARK SMILES IDX 35 46 87 47 81 48 80 49 36 51 68 52 48 53 67 54 49 55 52 56
REMARK SMILES IDX 66 57 85 58 50 59 51 60 65 62 86 63 53 64 37 65 38 66 46 67
REMARK SMILES IDX 39 68 40 69 44 70 47 71 41 72 42 73 45 74 43 75 69 76 70 77
REMARK SMILES IDX 78 78 71 79 72 80 76 81 79 82 73 83 74 84 77 85 75 86 54 87
REMARK SMILES IDX 55 88 63 89 56 90 57 91 61 92 64 93 58 94 59 95 62 96 60 97
REMARK H PARENT 20 4 10 13 25 31 84 50 52 61
REMARK Flexibility Score: inf
ROOT
ATOM      1  C   UNL A   1      33.907  25.586  23.216  1.00  0.00     0.253 C 
ATOM      2  O   UNL A   1      33.981  25.838  22.011  1.00  0.00    -0.269 OA
ATOM      3  N   UNL A   1      33.752  26.658  24.075  1.00  0.00    -0.352 N 
ATOM      4  H   UNL A   1      33.733  27.540  23.638  1.00  0.00     0.163 HD
ENDROOT
BRANCH   1   5
ATOM      5  C   UNL A   1      34.080  24.166  23.658  1.00  0.00     0.063 A 
ATOM      6  C   UNL A   1      33.062  23.213  23.806  1.00  0.00     0.047 A 
ATOM      7  C   UNL A   1      33.390  21.966  24.375  1.00  0.00     0.027 A 
ATOM      8  C   UNL A   1      34.700  21.598  24.652  1.00  0.00     0.005 A 
ATOM      9  C   UNL A   1      35.417  23.766  23.900  1.00  0.00     0.019 A 
ATOM     10  C   UNL A   1      35.736  22.481  24.370  1.00  0.00    -0.050 A 
ATOM     11  C   UNL A   1      37.151  22.035  24.591  1.00  0.00     0.044 C 
BRANCH   6  12
ATOM     12  N   UNL A   1      31.719  23.401  23.598  1.00  0.00    -0.381 N 
ATOM     13  H   UNL A   1      31.334  22.998  22.786  1.00  0.00     0.160 HD
BRANCH  12  14
ATOM     14  C   UNL A   1      30.812  24.136  24.459  1.00  0.00     0.154 C 
BRANCH  14  15
ATOM     15  C   UNL A   1      29.962  25.127  23.621  1.00  0.00     0.250 C 
BRANCH  15  16
ATOM     16  O   UNL A   1      30.691  26.272  23.134  1.00  0.00    -0.492 OA
BRANCH  16  17
ATOM     17  C   UNL A   1      30.068  27.493  23.069  1.00  0.00     0.119 A 
ATOM     18  C   UNL A   1      28.472  29.729  22.529  1.00  0.00     0.119 A 
ATOM     19  C   UNL A   1      27.909  28.606  23.127  1.00  0.00     0.050 A 
ATOM     20  C   UNL A   1      29.845  29.789  22.316  1.00  0.00     0.050 A 
ATOM     21  C   UNL A   1      28.707  27.486  23.386  1.00  0.00     0.050 A 
ATOM     22  C   UNL A   1      30.644  28.682  22.614  1.00  0.00     0.050 A 
BRANCH  18  23
ATOM     23  O   UNL A   1      27.656  30.783  22.225  1.00  0.00    -0.497 OA
ATOM     24  C   UNL A   1      28.405  31.888  21.714  1.00  0.00     0.278 C 
ENDBRANCH  18  23
ENDBRANCH  16  17
ENDBRANCH  15  16
ENDBRANCH  14  15
ENDBRANCH  12  14
ENDBRANCH   6  12
ENDBRANCH   1   5
BRANCH   3  25
ATOM     25  C   UNL A   1      33.614  26.689  25.517  1.00  0.00     0.116 C 
BRANCH  25  26
ATOM     26  C   UNL A   1      32.224  27.028  26.047  1.00  0.00     0.023 C 
BRANCH  26  27
ATOM     27  C   UNL A   1      31.987  28.486  26.460  1.00  0.00     0.023 C 
BRANCH  27  28
ATOM     28  C   UNL A   1      32.845  29.565  25.798  1.00  0.00     0.116 C 
BRANCH  28  29
ATOM     29  N   UNL A   1      32.649  30.906  26.329  1.00  0.00    -0.352 N 
ATOM     30  C   UNL A   1      33.381  31.634  27.241  1.00  0.00     0.251 C 
ATOM     31  H   UNL A   1      31.858  31.374  25.976  1.00  0.00     0.163 HD
ATOM     32  O   UNL A   1      32.958  32.713  27.650  1.00  0.00    -0.269 OA
BRANCH  30  33
ATOM     33  C   UNL A   1      34.666  31.119  27.765  1.00  0.00     0.039 A 
ATOM     34  C   UNL A   1      35.713  32.015  28.004  1.00  0.00     0.014 A 
ATOM     35  C   UNL A   1      34.851  29.758  28.016  1.00  0.00     0.014 A 
ATOM     36  C   UNL A   1      36.893  31.564  28.607  1.00  0.00     0.010 A 
ATOM     37  C   UNL A   1      35.989  29.324  28.693  1.00  0.00     0.010 A 
ATOM     38  C   UNL A   1      37.014  30.226  29.017  1.00  0.00    -0.014 A 
BRANCH  38  39
ATOM     39  C   UNL A   1      38.171  29.762  29.831  1.00  0.00     0.031 A 
ATOM     40  C   UNL A   1      38.395  30.293  31.219  1.00  0.00     0.074 A 
ATOM     41  C   UNL A   1      39.077  28.931  29.279  1.00  0.00     0.049 A 
ATOM     42  N   UNL A   1      39.401  30.086  32.034  1.00  0.00    -0.248 NA
ATOM     43  C   UNL A   1      37.370  31.201  31.753  1.00  0.00     0.031 C 
ATOM     44  C   UNL A   1      39.008  28.384  27.923  1.00  0.00     0.029 A 
ATOM     45  N   UNL A   1      40.247  28.413  29.783  1.00  0.00    -0.354 N 
ATOM     46  C   UNL A   1      39.137  30.848  33.164  1.00  0.00     0.074 A 
ATOM     47  C   UNL A   1      37.903  31.561  32.912  1.00  0.00     0.031 C 
ATOM     48  C   UNL A   1      40.074  27.597  27.708  1.00  0.00     0.029 A 
ATOM     49  C   UNL A   1      40.927  27.617  28.893  1.00  0.00     0.049 A 
ATOM     50  H   UNL A   1      40.567  28.596  30.696  1.00  0.00     0.167 HD
ATOM     51  C   UNL A   1      39.848  30.931  34.314  1.00  0.00     0.037 A 
ATOM     52  C   UNL A   1      42.111  26.986  29.008  1.00  0.00     0.037 A 
ATOM     53  C   UNL A   1      41.065  30.203  34.573  1.00  0.00     0.049 A 
ATOM     54  C   UNL A   1      42.885  27.100  30.293  1.00  0.00     0.074 A 
ATOM     55  C   UNL A   1      41.819  30.168  35.733  1.00  0.00     0.029 A 
ATOM     56  N   UNL A   1      41.709  29.388  33.654  1.00  0.00    -0.354 N 
ATOM     57  N   UNL A   1      42.586  27.763  31.384  1.00  0.00    -0.248 NA
ATOM     58  C   UNL A   1      44.161  26.373  30.366  1.00  0.00     0.031 C 
ATOM     59  C   UNL A   1      42.947  29.375  35.499  1.00  0.00     0.029 A 
ATOM     60  C   UNL A   1      42.866  28.867  34.214  1.00  0.00     0.049 A 
ATOM     61  H   UNL A   1      41.391  29.205  32.740  1.00  0.00     0.167 HD
ATOM     62  C   UNL A   1      43.617  27.511  32.279  1.00  0.00     0.074 A 
ATOM     63  C   UNL A   1      44.543  26.622  31.610  1.00  0.00     0.031 C 
ATOM     64  C   UNL A   1      43.778  27.975  33.542  1.00  0.00     0.037 A 
BRANCH  51  65
ATOM     65  C   UNL A   1      39.330  31.842  35.391  1.00  0.00     0.064 A 
ATOM     66  C   UNL A   1      39.687  33.198  35.442  1.00  0.00     0.173 A 
ATOM     67  C   UNL A   1      38.430  31.365  36.356  1.00  0.00     0.173 A 
ATOM     68  F   UNL A   1      40.549  33.704  34.548  1.00  0.00    -0.203 F 
ATOM     69  C   UNL A   1      39.187  34.034  36.437  1.00  0.00     0.198 A 
ATOM     70  C   UNL A   1      37.907  32.212  37.330  1.00  0.00     0.198 A 
ATOM     71  F   UNL A   1      38.049  30.079  36.350  1.00  0.00    -0.203 F 
ATOM     72  F   UNL A   1      39.580  35.314  36.494  1.00  0.00    -0.200 F 
ATOM     73  C   UNL A   1      38.291  33.543  37.375  1.00  0.00     0.200 A 
ATOM     74  F   UNL A   1      37.029  31.738  38.226  1.00  0.00    -0.200 F 
ATOM     75  F   UNL A   1      37.803  34.351  38.326  1.00  0.00    -0.200 F 
ENDBRANCH  51  65
BRANCH  52  76
ATOM     76  C   UNL A   1      42.633  26.173  27.878  1.00  0.00     0.064 A 
ATOM     77  C   UNL A   1      42.297  24.817  27.751  1.00  0.00     0.173 A 
ATOM     78  C   UNL A   1      43.480  26.727  26.907  1.00  0.00     0.173 A 
ATOM     79  F   UNL A   1      41.508  24.235  28.666  1.00  0.00    -0.203 F 
ATOM     80  C   UNL A   1      42.805  24.043  26.711  1.00  0.00     0.198 A 
ATOM     81  C   UNL A   1      43.963  25.959  25.849  1.00  0.00     0.198 A 
ATOM     82  F   UNL A   1      43.827  28.020  26.979  1.00  0.00    -0.203 F 
ATOM     83  F   UNL A   1      42.507  22.738  26.642  1.00  0.00    -0.200 F 
ATOM     84  C   UNL A   1      43.633  24.615  25.757  1.00  0.00     0.200 A 
ATOM     85  F   UNL A   1      44.750  26.521  24.922  1.00  0.00    -0.200 F 
ATOM     86  F   UNL A   1      44.119  23.871  24.754  1.00  0.00    -0.200 F 
ENDBRANCH  52  76
BRANCH  64  87
ATOM     87  C   UNL A   1      44.982  27.501  34.306  1.00  0.00     0.064 A 
ATOM     88  C   UNL A   1      46.187  28.218  34.302  1.00  0.00     0.173 A 
ATOM     89  C   UNL A   1      44.911  26.337  35.088  1.00  0.00     0.173 A 
ATOM     90  F   UNL A   1      46.312  29.327  33.559  1.00  0.00    -0.203 F 
ATOM     91  C   UNL A   1      47.286  27.773  35.034  1.00  0.00     0.198 A 
ATOM     92  C   UNL A   1      46.001  25.914  35.844  1.00  0.00     0.198 A 
ATOM     93  F   UNL A   1      43.780  25.619  35.130  1.00  0.00    -0.203 F 
ATOM     94  F   UNL A   1      48.443  28.448  34.979  1.00  0.00    -0.200 F 
ATOM     95  C   UNL A   1      47.189  26.628  35.811  1.00  0.00     0.200 A 
ATOM     96  F   UNL A   1      45.900  24.816  36.605  1.00  0.00    -0.200 F 
ATOM     97  F   UNL A   1      48.244  26.208  36.524  1.00  0.00    -0.200 F 
ENDBRANCH  64  87
ENDBRANCH  38  39
ENDBRANCH  30  33
ENDBRANCH  28  29
ENDBRANCH  27  28
ENDBRANCH  26  27
ENDBRANCH  25  26
ENDBRANCH   3  25
TORSDOF 17
ENDMDL
