MODEL 1
REMARK VINA RESULT:     -11.7      0.000      0.000
REMARK SMILES CC[C@@](C)(NC(=O)[C@@H](C)NC(=O)c1ccco1)C(=O)NCCCCNC(=O)c1ccc(-c2c3nc(c(-c4c(F)c(F)c(F)c(F)c4F)c4ccc([nH]4)c(-c4c(F)c(F)c(F)c(F)c4F)c4nc(c(-c5c(F)c(F)c(F)c(F)c5F)c5ccc2[nH]5)C=C4)C=C3)cc1
REMARK SMILES IDX 21 1 20 2 18 3 19 4 3 6 4 7 2 8 1 9 5 10 6 11 7 13 8 14 9 15
REMARK SMILES IDX 10 16 11 17 12 19 13 20 14 21 17 22 15 23 16 24 22 25 23 26
REMARK SMILES IDX 24 27 25 28 26 29 27 31 28 32 29 33 90 34 30 35 89 36 31 37
REMARK SMILES IDX 32 38 33 39 83 40 34 41 88 42 82 43 84 44 35 45 87 46 81 47
REMARK SMILES IDX 80 48 36 50 68 51 48 52 67 53 49 54 52 55 66 56 85 57 50 58
REMARK SMILES IDX 51 59 65 61 86 62 53 63 37 64 38 65 46 66 39 67 40 68 44 69
REMARK SMILES IDX 47 70 41 71 42 72 45 73 43 74 69 75 70 76 78 77 71 78 72 79
REMARK SMILES IDX 76 80 79 81 73 82 74 83 77 84 75 85 54 86 55 87 63 88 56 89
REMARK SMILES IDX 57 90 61 91 64 92 58 93 59 94 62 95 60 96
REMARK H PARENT 20 5 5 12 10 18 25 30 84 49 52 60
REMARK Flexibility Score: inf
ROOT
ATOM      1  C   UNL A   1      36.187  21.278  25.337  1.00  0.00     0.116 C 
ENDROOT
BRANCH   1   2
ATOM      2  N   UNL A   1      35.391  21.453  26.546  1.00  0.00    -0.354 N 
ATOM      3  C   UNL A   1      34.112  21.889  26.758  1.00  0.00     0.245 C 
ATOM      4  O   UNL A   1      33.717  21.896  27.928  1.00  0.00    -0.272 OA
ATOM      5  H   UNL A   1      35.868  21.210  27.372  1.00  0.00     0.163 HD
BRANCH   3   6
ATOM      6  C   UNL A   1      33.222  22.439  25.620  1.00  0.00     0.116 C 
ATOM      7  C   UNL A   1      33.762  23.820  25.170  1.00  0.00     0.045 C 
BRANCH   6   8
ATOM      8  C   UNL A   1      33.158  21.563  24.337  1.00  0.00     0.035 C 
ATOM      9  C   UNL A   1      32.596  22.200  23.070  1.00  0.00     0.007 C 
ENDBRANCH   6   8
BRANCH   6  10
ATOM     10  N   UNL A   1      31.849  22.561  26.166  1.00  0.00    -0.340 N 
ATOM     11  C   UNL A   1      31.015  23.602  26.437  1.00  0.00     0.243 C 
ATOM     12  H   UNL A   1      31.448  21.688  26.383  1.00  0.00     0.164 HD
ATOM     13  O   UNL A   1      30.121  23.320  27.251  1.00  0.00    -0.273 OA
BRANCH  11  14
ATOM     14  C   UNL A   1      31.116  25.092  25.951  1.00  0.00     0.168 C 
ATOM     15  C   UNL A   1      30.267  25.362  24.716  1.00  0.00     0.041 C 
BRANCH  14  16
ATOM     16  N   UNL A   1      30.954  26.211  26.876  1.00  0.00    -0.338 N 
ATOM     17  C   UNL A   1      31.529  27.464  26.856  1.00  0.00     0.287 C 
ATOM     18  H   UNL A   1      30.340  26.045  27.629  1.00  0.00     0.164 HD
ATOM     19  O   UNL A   1      31.329  28.192  27.829  1.00  0.00    -0.266 OA
BRANCH  17  20
ATOM     20  C   UNL A   1      32.371  27.860  25.746  1.00  0.00     0.191 A 
ATOM     21  C   UNL A   1      33.699  27.626  25.437  1.00  0.00     0.056 A 
ATOM     22  O   UNL A   1      31.795  28.574  24.725  1.00  0.00    -0.459 OA
ATOM     23  C   UNL A   1      33.946  28.247  24.187  1.00  0.00     0.043 A 
ATOM     24  C   UNL A   1      32.758  28.818  23.801  1.00  0.00     0.196 A 
ENDBRANCH  17  20
ENDBRANCH  14  16
ENDBRANCH  11  14
ENDBRANCH   6  10
ENDBRANCH   3   6
ENDBRANCH   1   2
BRANCH   1  25
ATOM     25  C   UNL A   1      36.576  19.838  24.999  1.00  0.00     0.023 C 
BRANCH  25  26
ATOM     26  C   UNL A   1      38.054  19.578  24.749  1.00  0.00     0.023 C 
BRANCH  26  27
ATOM     27  C   UNL A   1      39.021  20.057  25.816  1.00  0.00     0.116 C 
BRANCH  27  28
ATOM     28  N   UNL A   1      40.159  19.170  25.965  1.00  0.00    -0.352 N 
ATOM     29  C   UNL A   1      41.492  19.464  26.117  1.00  0.00     0.251 C 
ATOM     30  H   UNL A   1      39.943  18.210  25.956  1.00  0.00     0.163 HD
ATOM     31  O   UNL A   1      42.318  18.558  26.018  1.00  0.00    -0.269 OA
BRANCH  29  32
ATOM     32  C   UNL A   1      41.963  20.848  26.387  1.00  0.00     0.039 A 
ATOM     33  C   UNL A   1      42.208  21.222  27.714  1.00  0.00     0.014 A 
ATOM     34  C   UNL A   1      42.095  21.803  25.376  1.00  0.00     0.014 A 
ATOM     35  C   UNL A   1      42.605  22.529  28.017  1.00  0.00     0.010 A 
ATOM     36  C   UNL A   1      42.587  23.076  25.666  1.00  0.00     0.010 A 
ATOM     37  C   UNL A   1      42.812  23.466  26.994  1.00  0.00    -0.014 A 
BRANCH  37  38
ATOM     38  C   UNL A   1      43.190  24.874  27.299  1.00  0.00     0.031 A 
ATOM     39  C   UNL A   1      44.588  25.358  27.005  1.00  0.00     0.074 A 
ATOM     40  C   UNL A   1      42.302  25.709  27.868  1.00  0.00     0.049 A 
ATOM     41  N   UNL A   1      45.130  26.529  27.238  1.00  0.00    -0.248 NA
ATOM     42  C   UNL A   1      45.510  24.389  26.391  1.00  0.00     0.031 C 
ATOM     43  C   UNL A   1      40.933  25.359  28.246  1.00  0.00     0.029 A 
ATOM     44  N   UNL A   1      42.419  27.029  28.232  1.00  0.00    -0.354 N 
ATOM     45  C   UNL A   1      46.453  26.423  26.828  1.00  0.00     0.074 A 
ATOM     46  C   UNL A   1      46.649  25.063  26.377  1.00  0.00     0.031 C 
ATOM     47  C   UNL A   1      40.328  26.442  28.759  1.00  0.00     0.029 A 
ATOM     48  C   UNL A   1      41.275  27.554  28.782  1.00  0.00     0.049 A 
ATOM     49  H   UNL A   1      43.247  27.549  28.111  1.00  0.00     0.167 HD
ATOM     50  C   UNL A   1      47.413  27.379  26.803  1.00  0.00     0.037 A 
ATOM     51  C   UNL A   1      41.021  28.790  29.252  1.00  0.00     0.037 A 
ATOM     52  C   UNL A   1      47.208  28.744  27.203  1.00  0.00     0.049 A 
ATOM     53  C   UNL A   1      42.099  29.838  29.199  1.00  0.00     0.074 A 
ATOM     54  C   UNL A   1      48.096  29.805  27.143  1.00  0.00     0.029 A 
ATOM     55  N   UNL A   1      46.028  29.240  27.738  1.00  0.00    -0.354 N 
ATOM     56  N   UNL A   1      43.325  29.744  28.744  1.00  0.00    -0.248 NA
ATOM     57  C   UNL A   1      41.755  31.169  29.720  1.00  0.00     0.031 C 
ATOM     58  C   UNL A   1      47.466  30.933  27.677  1.00  0.00     0.029 A 
ATOM     59  C   UNL A   1      46.172  30.587  28.029  1.00  0.00     0.049 A 
ATOM     60  H   UNL A   1      45.209  28.714  27.887  1.00  0.00     0.167 HD
ATOM     61  C   UNL A   1      43.888  31.004  28.899  1.00  0.00     0.074 A 
ATOM     62  C   UNL A   1      42.865  31.851  29.476  1.00  0.00     0.031 C 
ATOM     63  C   UNL A   1      45.141  31.420  28.592  1.00  0.00     0.037 A 
BRANCH  50  64
ATOM     64  C   UNL A   1      48.777  26.981  26.316  1.00  0.00     0.064 A 
ATOM     65  C   UNL A   1      49.132  27.070  24.962  1.00  0.00     0.173 A 
ATOM     66  C   UNL A   1      49.754  26.540  27.222  1.00  0.00     0.173 A 
ATOM     67  F   UNL A   1      48.233  27.476  24.054  1.00  0.00    -0.203 F 
ATOM     68  C   UNL A   1      50.403  26.703  24.529  1.00  0.00     0.198 A 
ATOM     69  C   UNL A   1      51.034  26.202  26.789  1.00  0.00     0.198 A 
ATOM     70  F   UNL A   1      49.470  26.444  28.530  1.00  0.00    -0.203 F 
ATOM     71  F   UNL A   1      50.703  26.750  23.223  1.00  0.00    -0.200 F 
ATOM     72  C   UNL A   1      51.355  26.277  25.443  1.00  0.00     0.200 A 
ATOM     73  F   UNL A   1      51.957  25.803  27.675  1.00  0.00    -0.200 F 
ATOM     74  F   UNL A   1      52.580  25.931  25.024  1.00  0.00    -0.200 F 
ENDBRANCH  50  64
BRANCH  51  75
ATOM     75  C   UNL A   1      39.672  29.117  29.785  1.00  0.00     0.064 A 
ATOM     76  C   UNL A   1      39.381  28.953  31.147  1.00  0.00     0.173 A 
ATOM     77  C   UNL A   1      38.651  29.593  28.951  1.00  0.00     0.173 A 
ATOM     78  F   UNL A   1      40.318  28.477  31.980  1.00  0.00    -0.203 F 
ATOM     79  C   UNL A   1      38.113  29.236  31.650  1.00  0.00     0.198 A 
ATOM     80  C   UNL A   1      37.391  29.902  29.461  1.00  0.00     0.198 A 
ATOM     81  F   UNL A   1      38.880  29.769  27.642  1.00  0.00    -0.203 F 
ATOM     82  F   UNL A   1      37.848  29.027  32.948  1.00  0.00    -0.200 F 
ATOM     83  C   UNL A   1      37.121  29.716  30.809  1.00  0.00     0.200 A 
ATOM     84  F   UNL A   1      36.439  30.376  28.647  1.00  0.00    -0.200 F 
ATOM     85  F   UNL A   1      35.903  29.991  31.294  1.00  0.00    -0.200 F 
ENDBRANCH  51  75
BRANCH  63  86
ATOM     86  C   UNL A   1      45.467  32.864  28.839  1.00  0.00     0.064 A 
ATOM     87  C   UNL A   1      46.061  33.290  30.036  1.00  0.00     0.173 A 
ATOM     88  C   UNL A   1      45.223  33.826  27.846  1.00  0.00     0.173 A 
ATOM     89  F   UNL A   1      46.300  32.411  31.020  1.00  0.00    -0.203 F 
ATOM     90  C   UNL A   1      46.376  34.631  30.240  1.00  0.00     0.198 A 
ATOM     91  C   UNL A   1      45.567  35.160  28.043  1.00  0.00     0.198 A 
ATOM     92  F   UNL A   1      44.664  33.469  26.680  1.00  0.00    -0.203 F 
ATOM     93  F   UNL A   1      46.902  35.023  31.408  1.00  0.00    -0.200 F 
ATOM     94  C   UNL A   1      46.136  35.563  29.241  1.00  0.00     0.200 A 
ATOM     95  F   UNL A   1      45.346  36.058  27.072  1.00  0.00    -0.200 F 
ATOM     96  F   UNL A   1      46.447  36.851  29.437  1.00  0.00    -0.200 F 
ENDBRANCH  63  86
ENDBRANCH  37  38
ENDBRANCH  29  32
ENDBRANCH  27  28
ENDBRANCH  26  27
ENDBRANCH  25  26
ENDBRANCH   1  25
TORSDOF 16
ENDMDL
MODEL 2
REMARK VINA RESULT:     -11.7      1.086      7.422
REMARK SMILES CC[C@@](C)(NC(=O)[C@@H](C)NC(=O)c1ccco1)C(=O)NCCCCNC(=O)c1ccc(-c2c3nc(c(-c4c(F)c(F)c(F)c(F)c4F)c4ccc([nH]4)c(-c4c(F)c(F)c(F)c(F)c4F)c4nc(c(-c5c(F)c(F)c(F)c(F)c5F)c5ccc2[nH]5)C=C4)C=C3)cc1
REMARK SMILES IDX 21 1 20 2 18 3 19 4 3 6 4 7 2 8 1 9 5 10 6 11 7 13 8 14 9 15
REMARK SMILES IDX 10 16 11 17 12 19 13 20 14 21 17 22 15 23 16 24 22 25 23 26
REMARK SMILES IDX 24 27 25 28 26 29 27 31 28 32 29 33 90 34 30 35 89 36 31 37
REMARK SMILES IDX 32 38 33 39 83 40 34 41 88 42 82 43 84 44 35 45 87 46 81 47
REMARK SMILES IDX 80 48 36 50 68 51 48 52 67 53 49 54 52 55 66 56 85 57 50 58
REMARK SMILES IDX 51 59 65 61 86 62 53 63 37 64 38 65 46 66 39 67 40 68 44 69
REMARK SMILES IDX 47 70 41 71 42 72 45 73 43 74 69 75 70 76 78 77 71 78 72 79
REMARK SMILES IDX 76 80 79 81 73 82 74 83 77 84 75 85 54 86 55 87 63 88 56 89
REMARK SMILES IDX 57 90 61 91 64 92 58 93 59 94 62 95 60 96
REMARK H PARENT 20 5 5 12 10 18 25 30 84 49 52 60
REMARK Flexibility Score: inf
ROOT
ATOM      1  C   UNL A   1      36.478  21.769  25.762  1.00  0.00     0.116 C 
ENDROOT
BRANCH   1   2
ATOM      2  N   UNL A   1      35.482  21.862  26.824  1.00  0.00    -0.354 N 
ATOM      3  C   UNL A   1      34.290  22.525  26.920  1.00  0.00     0.245 C 
ATOM      4  O   UNL A   1      33.657  22.374  27.970  1.00  0.00    -0.272 OA
ATOM      5  H   UNL A   1      35.715  21.347  27.630  1.00  0.00     0.163 HD
BRANCH   3   6
ATOM      6  C   UNL A   1      33.786  23.492  25.826  1.00  0.00     0.116 C 
ATOM      7  C   UNL A   1      34.947  24.419  25.387  1.00  0.00     0.045 C 
BRANCH   6   8
ATOM      8  C   UNL A   1      33.259  22.818  24.527  1.00  0.00     0.035 C 
ATOM      9  C   UNL A   1      34.120  22.927  23.272  1.00  0.00     0.007 C 
ENDBRANCH   6   8
BRANCH   6  10
ATOM     10  N   UNL A   1      32.678  24.278  26.420  1.00  0.00    -0.340 N 
ATOM     11  C   UNL A   1      31.833  25.241  25.960  1.00  0.00     0.243 C 
ATOM     12  H   UNL A   1      32.518  24.053  27.365  1.00  0.00     0.164 HD
ATOM     13  O   UNL A   1      31.324  25.925  26.864  1.00  0.00    -0.273 OA
BRANCH  11  14
ATOM     14  C   UNL A   1      31.525  25.650  24.476  1.00  0.00     0.168 C 
ATOM     15  C   UNL A   1      30.224  26.431  24.343  1.00  0.00     0.041 C 
BRANCH  14  16
ATOM     16  N   UNL A   1      32.534  26.287  23.633  1.00  0.00    -0.338 N 
ATOM     17  C   UNL A   1      33.288  27.419  23.861  1.00  0.00     0.287 C 
ATOM     18  H   UNL A   1      32.701  25.841  22.772  1.00  0.00     0.164 HD
ATOM     19  O   UNL A   1      33.986  27.828  22.932  1.00  0.00    -0.266 OA
BRANCH  17  20
ATOM     20  C   UNL A   1      33.204  28.106  25.133  1.00  0.00     0.191 A 
ATOM     21  C   UNL A   1      33.989  28.085  26.272  1.00  0.00     0.056 A 
ATOM     22  O   UNL A   1      32.193  29.018  25.306  1.00  0.00    -0.459 OA
ATOM     23  C   UNL A   1      33.416  29.007  27.184  1.00  0.00     0.043 A 
ATOM     24  C   UNL A   1      32.320  29.540  26.552  1.00  0.00     0.196 A 
ENDBRANCH  17  20
ENDBRANCH  14  16
ENDBRANCH  11  14
ENDBRANCH   6  10
ENDBRANCH   3   6
ENDBRANCH   1   2
BRANCH   1  25
ATOM     25  C   UNL A   1      36.447  20.486  24.930  1.00  0.00     0.023 C 
BRANCH  25  26
ATOM     26  C   UNL A   1      37.703  19.629  24.962  1.00  0.00     0.023 C 
BRANCH  26  27
ATOM     27  C   UNL A   1      38.880  20.173  25.751  1.00  0.00     0.116 C 
BRANCH  27  28
ATOM     28  N   UNL A   1      39.945  19.199  25.890  1.00  0.00    -0.352 N 
ATOM     29  C   UNL A   1      41.294  19.387  26.072  1.00  0.00     0.251 C 
ATOM     30  H   UNL A   1      39.658  18.258  25.849  1.00  0.00     0.163 HD
ATOM     31  O   UNL A   1      42.051  18.425  25.958  1.00  0.00    -0.269 OA
BRANCH  29  32
ATOM     32  C   UNL A   1      41.863  20.723  26.391  1.00  0.00     0.039 A 
ATOM     33  C   UNL A   1      42.019  21.077  27.737  1.00  0.00     0.014 A 
ATOM     34  C   UNL A   1      42.172  21.660  25.402  1.00  0.00     0.014 A 
ATOM     35  C   UNL A   1      42.504  22.343  28.082  1.00  0.00     0.010 A 
ATOM     36  C   UNL A   1      42.749  22.883  25.742  1.00  0.00     0.010 A 
ATOM     37  C   UNL A   1      42.888  23.255  27.087  1.00  0.00    -0.014 A 
BRANCH  37  38
ATOM     38  C   UNL A   1      43.363  24.623  27.433  1.00  0.00     0.031 A 
ATOM     39  C   UNL A   1      42.374  25.675  27.867  1.00  0.00     0.074 A 
ATOM     40  C   UNL A   1      44.668  24.937  27.328  1.00  0.00     0.049 A 
ATOM     41  N   UNL A   1      42.577  26.935  28.167  1.00  0.00    -0.248 NA
ATOM     42  C   UNL A   1      40.963  25.265  27.951  1.00  0.00     0.031 C 
ATOM     43  C   UNL A   1      45.723  24.030  26.878  1.00  0.00     0.029 A 
ATOM     44  N   UNL A   1      45.330  26.112  27.591  1.00  0.00    -0.354 N 
ATOM     45  C   UNL A   1      41.324  27.466  28.443  1.00  0.00     0.074 A 
ATOM     46  C   UNL A   1      40.360  26.410  28.229  1.00  0.00     0.031 C 
ATOM     47  C   UNL A   1      46.902  24.670  26.924  1.00  0.00     0.029 A 
ATOM     48  C   UNL A   1      46.684  26.042  27.372  1.00  0.00     0.049 A 
ATOM     49  H   UNL A   1      44.875  26.927  27.906  1.00  0.00     0.167 HD
ATOM     50  C   UNL A   1      41.004  28.714  28.862  1.00  0.00     0.037 A 
ATOM     51  C   UNL A   1      47.639  26.981  27.514  1.00  0.00     0.037 A 
ATOM     52  C   UNL A   1      41.964  29.752  29.124  1.00  0.00     0.049 A 
ATOM     53  C   UNL A   1      47.261  28.355  27.997  1.00  0.00     0.074 A 
ATOM     54  C   UNL A   1      41.746  31.025  29.624  1.00  0.00     0.029 A 
ATOM     55  N   UNL A   1      43.329  29.636  28.907  1.00  0.00    -0.354 N 
ATOM     56  N   UNL A   1      46.080  28.824  28.321  1.00  0.00    -0.248 NA
ATOM     57  C   UNL A   1      48.352  29.331  28.139  1.00  0.00     0.031 C 
ATOM     58  C   UNL A   1      42.974  31.692  29.673  1.00  0.00     0.029 A 
ATOM     59  C   UNL A   1      43.963  30.821  29.246  1.00  0.00     0.049 A 
ATOM     60  H   UNL A   1      43.781  28.831  28.564  1.00  0.00     0.167 HD
ATOM     61  C   UNL A   1      46.288  30.135  28.729  1.00  0.00     0.074 A 
ATOM     62  C   UNL A   1      47.711  30.384  28.627  1.00  0.00     0.031 C 
ATOM     63  C   UNL A   1      45.381  31.050  29.150  1.00  0.00     0.037 A 
BRANCH  50  64
ATOM     64  C   UNL A   1      39.550  29.025  29.074  1.00  0.00     0.064 A 
ATOM     65  C   UNL A   1      38.956  28.944  30.342  1.00  0.00     0.173 A 
ATOM     66  C   UNL A   1      38.749  29.446  28.001  1.00  0.00     0.173 A 
ATOM     67  F   UNL A   1      39.675  28.538  31.400  1.00  0.00    -0.203 F 
ATOM     68  C   UNL A   1      37.608  29.241  30.523  1.00  0.00     0.198 A 
ATOM     69  C   UNL A   1      37.409  29.771  28.191  1.00  0.00     0.198 A 
ATOM     70  F   UNL A   1      39.269  29.548  26.768  1.00  0.00    -0.203 F 
ATOM     71  F   UNL A   1      37.051  29.109  31.735  1.00  0.00    -0.200 F 
ATOM     72  C   UNL A   1      36.837  29.662  29.449  1.00  0.00     0.200 A 
ATOM     73  F   UNL A   1      36.669  30.190  27.155  1.00  0.00    -0.200 F 
ATOM     74  F   UNL A   1      35.542  29.955  29.626  1.00  0.00    -0.200 F 
ENDBRANCH  50  64
BRANCH  51  75
ATOM     75  C   UNL A   1      49.059  26.643  27.228  1.00  0.00     0.064 A 
ATOM     76  C   UNL A   1      49.945  26.333  28.269  1.00  0.00     0.173 A 
ATOM     77  C   UNL A   1      49.558  26.629  25.919  1.00  0.00     0.173 A 
ATOM     78  F   UNL A   1      49.521  26.357  29.541  1.00  0.00    -0.203 F 
ATOM     79  C   UNL A   1      51.283  26.038  28.011  1.00  0.00     0.198 A 
ATOM     80  C   UNL A   1      50.889  26.308  25.660  1.00  0.00     0.198 A 
ATOM     81  F   UNL A   1      48.750  26.918  24.888  1.00  0.00    -0.203 F 
ATOM     82  F   UNL A   1      52.119  25.788  29.028  1.00  0.00    -0.200 F 
ATOM     83  C   UNL A   1      51.752  26.019  26.707  1.00  0.00     0.200 A 
ATOM     84  F   UNL A   1      51.336  26.279  24.397  1.00  0.00    -0.200 F 
ATOM     85  F   UNL A   1      53.036  25.732  26.459  1.00  0.00    -0.200 F 
ENDBRANCH  51  75
BRANCH  63  86
ATOM     86  C   UNL A   1      45.901  32.395  29.566  1.00  0.00     0.064 A 
ATOM     87  C   UNL A   1      45.984  33.464  28.662  1.00  0.00     0.173 A 
ATOM     88  C   UNL A   1      46.278  32.628  30.898  1.00  0.00     0.173 A 
ATOM     89  F   UNL A   1      45.649  33.286  27.376  1.00  0.00    -0.203 F 
ATOM     90  C   UNL A   1      46.448  34.711  29.071  1.00  0.00     0.198 A 
ATOM     91  C   UNL A   1      46.715  33.884  31.308  1.00  0.00     0.198 A 
ATOM     92  F   UNL A   1      46.210  31.641  31.804  1.00  0.00    -0.203 F 
ATOM     93  F   UNL A   1      46.561  35.706  28.180  1.00  0.00    -0.200 F 
ATOM     94  C   UNL A   1      46.806  34.922  30.394  1.00  0.00     0.200 A 
ATOM     95  F   UNL A   1      47.048  34.090  32.590  1.00  0.00    -0.200 F 
ATOM     96  F   UNL A   1      47.246  36.125  30.786  1.00  0.00    -0.200 F 
ENDBRANCH  63  86
ENDBRANCH  37  38
ENDBRANCH  29  32
ENDBRANCH  27  28
ENDBRANCH  26  27
ENDBRANCH  25  26
ENDBRANCH   1  25
TORSDOF 16
ENDMDL
MODEL 3
REMARK VINA RESULT:     -11.6      5.223      9.706
REMARK SMILES CC[C@@](C)(NC(=O)[C@@H](C)NC(=O)c1ccco1)C(=O)NCCCCNC(=O)c1ccc(-c2c3nc(c(-c4c(F)c(F)c(F)c(F)c4F)c4ccc([nH]4)c(-c4c(F)c(F)c(F)c(F)c4F)c4nc(c(-c5c(F)c(F)c(F)c(F)c5F)c5ccc2[nH]5)C=C4)C=C3)cc1
REMARK SMILES IDX 21 1 20 2 18 3 19 4 3 6 4 7 2 8 1 9 5 10 6 11 7 13 8 14 9 15
REMARK SMILES IDX 10 16 11 17 12 19 13 20 14 21 17 22 15 23 16 24 22 25 23 26
REMARK SMILES IDX 24 27 25 28 26 29 27 31 28 32 29 33 90 34 30 35 89 36 31 37
REMARK SMILES IDX 32 38 33 39 83 40 34 41 88 42 82 43 84 44 35 45 87 46 81 47
REMARK SMILES IDX 80 48 36 50 68 51 48 52 67 53 49 54 52 55 66 56 85 57 50 58
REMARK SMILES IDX 51 59 65 61 86 62 53 63 37 64 38 65 46 66 39 67 40 68 44 69
REMARK SMILES IDX 47 70 41 71 42 72 45 73 43 74 69 75 70 76 78 77 71 78 72 79
REMARK SMILES IDX 76 80 79 81 73 82 74 83 77 84 75 85 54 86 55 87 63 88 56 89
REMARK SMILES IDX 57 90 61 91 64 92 58 93 59 94 62 95 60 96
REMARK H PARENT 20 5 5 12 10 18 25 30 84 49 52 60
REMARK Flexibility Score: inf
ROOT
ATOM      1  C   UNL A   1      32.880  29.937  25.943  1.00  0.00     0.116 C 
ENDROOT
BRANCH   1   2
ATOM      2  N   UNL A   1      33.444  29.689  24.621  1.00  0.00    -0.354 N 
ATOM      3  C   UNL A   1      33.442  28.592  23.804  1.00  0.00     0.245 C 
ATOM      4  O   UNL A   1      34.000  28.718  22.709  1.00  0.00    -0.272 OA
ATOM      5  H   UNL A   1      33.919  30.464  24.242  1.00  0.00     0.163 HD
BRANCH   3   6
ATOM      6  C   UNL A   1      32.863  27.229  24.244  1.00  0.00     0.116 C 
ATOM      7  C   UNL A   1      33.568  26.770  25.545  1.00  0.00     0.045 C 
BRANCH   6   8
ATOM      8  C   UNL A   1      31.339  27.217  24.554  1.00  0.00     0.035 C 
ATOM      9  C   UNL A   1      30.414  27.957  23.593  1.00  0.00     0.007 C 
ENDBRANCH   6   8
BRANCH   6  10
ATOM     10  N   UNL A   1      33.119  26.274  23.140  1.00  0.00    -0.340 N 
ATOM     11  C   UNL A   1      32.975  24.929  22.984  1.00  0.00     0.243 C 
ATOM     12  H   UNL A   1      33.474  26.713  22.333  1.00  0.00     0.164 HD
ATOM     13  O   UNL A   1      33.670  24.461  22.066  1.00  0.00    -0.273 OA
BRANCH  11  14
ATOM     14  C   UNL A   1      32.159  23.920  23.868  1.00  0.00     0.168 C 
ATOM     15  C   UNL A   1      30.656  24.034  23.646  1.00  0.00     0.041 C 
BRANCH  14  16
ATOM     16  N   UNL A   1      32.510  22.504  23.935  1.00  0.00    -0.338 N 
ATOM     17  C   UNL A   1      33.689  21.904  24.322  1.00  0.00     0.287 C 
ATOM     18  H   UNL A   1      31.796  21.883  23.662  1.00  0.00     0.164 HD
ATOM     19  O   UNL A   1      33.779  20.685  24.167  1.00  0.00    -0.266 OA
BRANCH  17  20
ATOM     20  C   UNL A   1      34.779  22.707  24.838  1.00  0.00     0.191 A 
ATOM     21  C   UNL A   1      34.997  23.335  26.052  1.00  0.00     0.056 A 
ATOM     22  O   UNL A   1      35.880  22.888  24.039  1.00  0.00    -0.459 OA
ATOM     23  C   UNL A   1      36.275  23.943  25.977  1.00  0.00     0.043 A 
ATOM     24  C   UNL A   1      36.765  23.651  24.728  1.00  0.00     0.196 A 
ENDBRANCH  17  20
ENDBRANCH  14  16
ENDBRANCH  11  14
ENDBRANCH   6  10
ENDBRANCH   3   6
ENDBRANCH   1   2
BRANCH   1  25
ATOM     25  C   UNL A   1      31.490  30.575  25.965  1.00  0.00     0.023 C 
BRANCH  25  26
ATOM     26  C   UNL A   1      31.416  32.017  26.444  1.00  0.00     0.023 C 
BRANCH  26  27
ATOM     27  C   UNL A   1      32.646  32.570  27.138  1.00  0.00     0.116 C 
BRANCH  27  28
ATOM     28  N   UNL A   1      32.482  33.957  27.526  1.00  0.00    -0.352 N 
ATOM     29  C   UNL A   1      33.063  34.661  28.553  1.00  0.00     0.251 C 
ATOM     30  H   UNL A   1      31.860  34.476  26.966  1.00  0.00     0.163 HD
ATOM     31  O   UNL A   1      32.628  35.777  28.832  1.00  0.00    -0.269 OA
BRANCH  29  32
ATOM     32  C   UNL A   1      34.194  34.106  29.341  1.00  0.00     0.039 A 
ATOM     33  C   UNL A   1      35.500  34.383  28.920  1.00  0.00     0.014 A 
ATOM     34  C   UNL A   1      33.998  33.260  30.436  1.00  0.00     0.014 A 
ATOM     35  C   UNL A   1      36.593  33.840  29.604  1.00  0.00     0.010 A 
ATOM     36  C   UNL A   1      35.087  32.800  31.178  1.00  0.00     0.010 A 
ATOM     37  C   UNL A   1      36.398  33.054  30.749  1.00  0.00    -0.014 A 
BRANCH  37  38
ATOM     38  C   UNL A   1      37.545  32.429  31.464  1.00  0.00     0.031 A 
ATOM     39  C   UNL A   1      38.298  31.289  30.826  1.00  0.00     0.074 A 
ATOM     40  C   UNL A   1      37.894  32.854  32.693  1.00  0.00     0.049 A 
ATOM     41  N   UNL A   1      39.295  30.581  31.300  1.00  0.00    -0.248 NA
ATOM     42  C   UNL A   1      37.858  30.871  29.486  1.00  0.00     0.031 C 
ATOM     43  C   UNL A   1      37.223  33.915  33.444  1.00  0.00     0.029 A 
ATOM     44  N   UNL A   1      38.901  32.440  33.530  1.00  0.00    -0.354 N 
ATOM     45  C   UNL A   1      39.574  29.624  30.333  1.00  0.00     0.074 A 
ATOM     46  C   UNL A   1      38.614  29.807  29.266  1.00  0.00     0.031 C 
ATOM     47  C   UNL A   1      37.854  34.090  34.616  1.00  0.00     0.029 A 
ATOM     48  C   UNL A   1      38.950  33.131  34.717  1.00  0.00     0.049 A 
ATOM     49  H   UNL A   1      39.528  31.716  33.302  1.00  0.00     0.167 HD
ATOM     50  C   UNL A   1      40.557  28.692  30.320  1.00  0.00     0.037 A 
ATOM     51  C   UNL A   1      39.784  33.002  35.767  1.00  0.00     0.037 A 
ATOM     52  C   UNL A   1      41.543  28.539  31.355  1.00  0.00     0.049 A 
ATOM     53  C   UNL A   1      40.878  31.969  35.722  1.00  0.00     0.074 A 
ATOM     54  C   UNL A   1      42.624  27.675  31.397  1.00  0.00     0.029 A 
ATOM     55  N   UNL A   1      41.569  29.271  32.532  1.00  0.00    -0.354 N 
ATOM     56  N   UNL A   1      41.174  31.117  34.770  1.00  0.00    -0.248 NA
ATOM     57  C   UNL A   1      41.759  31.886  36.895  1.00  0.00     0.031 C 
ATOM     58  C   UNL A   1      43.282  27.858  32.617  1.00  0.00     0.029 A 
ATOM     59  C   UNL A   1      42.637  28.865  33.316  1.00  0.00     0.049 A 
ATOM     60  H   UNL A   1      40.925  29.975  32.775  1.00  0.00     0.167 HD
ATOM     61  C   UNL A   1      42.286  30.416  35.218  1.00  0.00     0.074 A 
ATOM     62  C   UNL A   1      42.623  30.954  36.520  1.00  0.00     0.031 C 
ATOM     63  C   UNL A   1      42.967  29.418  34.605  1.00  0.00     0.037 A 
BRANCH  50  64
ATOM     64  C   UNL A   1      40.620  27.765  29.139  1.00  0.00     0.064 A 
ATOM     65  C   UNL A   1      39.773  26.653  29.028  1.00  0.00     0.173 A 
ATOM     66  C   UNL A   1      41.516  28.013  28.088  1.00  0.00     0.173 A 
ATOM     67  F   UNL A   1      38.905  26.365  30.010  1.00  0.00    -0.203 F 
ATOM     68  C   UNL A   1      39.840  25.807  27.925  1.00  0.00     0.198 A 
ATOM     69  C   UNL A   1      41.560  27.182  26.972  1.00  0.00     0.198 A 
ATOM     70  F   UNL A   1      42.344  29.068  28.139  1.00  0.00    -0.203 F 
ATOM     71  F   UNL A   1      39.054  24.723  27.864  1.00  0.00    -0.200 F 
ATOM     72  C   UNL A   1      40.728  26.076  26.894  1.00  0.00     0.200 A 
ATOM     73  F   UNL A   1      42.409  27.451  25.970  1.00  0.00    -0.200 F 
ATOM     74  F   UNL A   1      40.787  25.265  25.829  1.00  0.00    -0.200 F 
ENDBRANCH  50  64
BRANCH  51  75
ATOM     75  C   UNL A   1      39.639  33.900  36.943  1.00  0.00     0.064 A 
ATOM     76  C   UNL A   1      40.274  35.150  36.972  1.00  0.00     0.173 A 
ATOM     77  C   UNL A   1      38.874  33.529  38.057  1.00  0.00     0.173 A 
ATOM     78  F   UNL A   1      41.037  35.539  35.940  1.00  0.00    -0.203 F 
ATOM     79  C   UNL A   1      40.162  35.988  38.080  1.00  0.00     0.198 A 
ATOM     80  C   UNL A   1      38.741  34.380  39.153  1.00  0.00     0.198 A 
ATOM     81  F   UNL A   1      38.246  32.345  38.078  1.00  0.00    -0.203 F 
ATOM     82  F   UNL A   1      40.815  37.158  38.100  1.00  0.00    -0.200 F 
ATOM     83  C   UNL A   1      39.391  35.605  39.167  1.00  0.00     0.200 A 
ATOM     84  F   UNL A   1      37.985  34.012  40.196  1.00  0.00    -0.200 F 
ATOM     85  F   UNL A   1      39.280  36.412  40.230  1.00  0.00    -0.200 F 
ENDBRANCH  51  75
BRANCH  63  86
ATOM     86  C   UNL A   1      44.166  28.862  35.316  1.00  0.00     0.064 A 
ATOM     87  C   UNL A   1      44.060  27.779  36.201  1.00  0.00     0.173 A 
ATOM     88  C   UNL A   1      45.443  29.393  35.075  1.00  0.00     0.173 A 
ATOM     89  F   UNL A   1      42.860  27.247  36.475  1.00  0.00    -0.203 F 
ATOM     90  C   UNL A   1      45.186  27.262  36.836  1.00  0.00     0.198 A 
ATOM     91  C   UNL A   1      46.569  28.855  35.690  1.00  0.00     0.198 A 
ATOM     92  F   UNL A   1      45.599  30.425  34.231  1.00  0.00    -0.203 F 
ATOM     93  F   UNL A   1      45.057  26.256  37.711  1.00  0.00    -0.200 F 
ATOM     94  C   UNL A   1      46.440  27.796  36.574  1.00  0.00     0.200 A 
ATOM     95  F   UNL A   1      47.781  29.363  35.426  1.00  0.00    -0.200 F 
ATOM     96  F   UNL A   1      47.523  27.292  37.182  1.00  0.00    -0.200 F 
ENDBRANCH  63  86
ENDBRANCH  37  38
ENDBRANCH  29  32
ENDBRANCH  27  28
ENDBRANCH  26  27
ENDBRANCH  25  26
ENDBRANCH   1  25
TORSDOF 16
ENDMDL
