MODEL 1
REMARK VINA RESULT:     -13.2      0.000      0.000
REMARK SMILES Cc1ccc(Cl)c(Nc2ccccc2C(=O)N[C@@H](C)C(=O)NCCCCNC(=O)c2ccc(-c3c4nc(c(-c5c(F)c(F)c(F)c(F)c5F)c5ccc([nH]5)c(-c5c(F)c(F)c(F)c(F)c5F)c5nc(c(-c6c(F)c(F)c(F)c(F)c6F)c6ccc3[nH]6)C=C5)C=C4)cc2)c1Cl
REMARK SMILES IDX 23 1 22 2 20 3 21 4 18 6 19 7 17 8 15 9 16 10 14 12 9 13
REMARK SMILES IDX 10 14 11 15 13 16 12 17 8 18 7 20 1 21 2 22 3 23 93 24 4 25
REMARK SMILES IDX 94 26 5 27 6 28 24 29 25 30 26 31 27 32 28 33 29 35 30 36
REMARK SMILES IDX 31 37 92 38 32 39 91 40 33 41 34 42 35 43 85 44 36 45 90 46
REMARK SMILES IDX 84 47 86 48 37 49 89 50 83 51 82 52 38 54 70 55 50 56 69 57
REMARK SMILES IDX 51 58 54 59 68 60 87 61 52 62 53 63 67 65 88 66 55 67 39 68
REMARK SMILES IDX 40 69 48 70 41 71 42 72 46 73 49 74 43 75 44 76 47 77 45 78
REMARK SMILES IDX 71 79 72 80 80 81 73 82 74 83 78 84 81 85 75 86 76 87 79 88
REMARK SMILES IDX 77 89 56 90 57 91 65 92 58 93 59 94 63 95 66 96 60 97 61 98
REMARK SMILES IDX 64 99 62 100
REMARK H PARENT 22 5 17 11 8 19 27 34 86 53 54 64
REMARK Flexibility Score: inf
ROOT
ATOM      1  C   UNL A   1      33.072  30.056  26.542  1.00  0.00     0.116 C 
ENDROOT
BRANCH   1   2
ATOM      2  N   UNL A   1      33.075  29.093  27.625  1.00  0.00    -0.354 N 
ATOM      3  C   UNL A   1      32.152  28.090  27.559  1.00  0.00     0.242 C 
ATOM      4  O   UNL A   1      31.039  28.336  28.019  1.00  0.00    -0.273 OA
ATOM      5  H   UNL A   1      33.713  29.159  28.372  1.00  0.00     0.163 HD
BRANCH   3   6
ATOM      6  C   UNL A   1      32.517  26.751  26.874  1.00  0.00     0.168 C 
ATOM      7  C   UNL A   1      33.512  26.836  25.726  1.00  0.00     0.041 C 
BRANCH   6   8
ATOM      8  N   UNL A   1      31.233  26.207  26.469  1.00  0.00    -0.340 N 
ATOM      9  C   UNL A   1      30.954  24.891  26.166  1.00  0.00     0.254 C 
ATOM     10  O   UNL A   1      29.876  24.460  26.586  1.00  0.00    -0.269 OA
ATOM     11  H   UNL A   1      30.486  26.844  26.404  1.00  0.00     0.164 HD
BRANCH   9  12
ATOM     12  C   UNL A   1      31.699  24.095  25.136  1.00  0.00     0.063 A 
ATOM     13  C   UNL A   1      31.661  24.131  23.725  1.00  0.00     0.051 A 
ATOM     14  C   UNL A   1      32.400  23.150  23.016  1.00  0.00     0.027 A 
ATOM     15  C   UNL A   1      33.214  22.216  23.655  1.00  0.00     0.002 A 
ATOM     16  C   UNL A   1      32.553  23.147  25.758  1.00  0.00     0.016 A 
ATOM     17  C   UNL A   1      33.311  22.231  25.033  1.00  0.00     0.001 A 
BRANCH  13  18
ATOM     18  N   UNL A   1      31.065  25.098  22.891  1.00  0.00    -0.352 N 
ATOM     19  H   UNL A   1      30.662  24.708  22.082  1.00  0.00     0.167 HD
BRANCH  18  20
ATOM     20  C   UNL A   1      30.915  26.509  22.957  1.00  0.00     0.077 A 
ATOM     21  C   UNL A   1      28.272  29.284  23.104  1.00  0.00     0.046 C 
ATOM     22  C   UNL A   1      29.607  28.588  23.034  1.00  0.00    -0.030 A 
ATOM     23  C   UNL A   1      30.730  29.324  22.626  1.00  0.00     0.006 A 
ATOM     24  C   UNL A   1      29.719  27.193  23.259  1.00  0.00     0.069 A 
ATOM     25  C   UNL A   1      31.946  28.686  22.419  1.00  0.00     0.023 A 
ATOM     26  Cl  UNL A   1      28.368  26.375  23.984  1.00  0.00    -0.082 Cl
ATOM     27  C   UNL A   1      32.028  27.300  22.566  1.00  0.00     0.066 A 
ATOM     28  Cl  UNL A   1      33.551  26.556  22.180  1.00  0.00    -0.082 Cl
ENDBRANCH  18  20
ENDBRANCH  13  18
ENDBRANCH   9  12
ENDBRANCH   6   8
ENDBRANCH   3   6
ENDBRANCH   1   2
BRANCH   1  29
ATOM     29  C   UNL A   1      31.677  30.632  26.252  1.00  0.00     0.023 C 
BRANCH  29  30
ATOM     30  C   UNL A   1      31.431  32.051  26.773  1.00  0.00     0.023 C 
BRANCH  30  31
ATOM     31  C   UNL A   1      32.682  32.784  27.238  1.00  0.00     0.116 C 
BRANCH  31  32
ATOM     32  N   UNL A   1      32.413  34.165  27.608  1.00  0.00    -0.352 N 
ATOM     33  C   UNL A   1      32.999  34.953  28.562  1.00  0.00     0.251 C 
ATOM     34  H   UNL A   1      31.697  34.602  27.091  1.00  0.00     0.163 HD
ATOM     35  O   UNL A   1      32.545  36.057  28.818  1.00  0.00    -0.269 OA
BRANCH  33  36
ATOM     36  C   UNL A   1      34.168  34.440  29.294  1.00  0.00     0.039 A 
ATOM     37  C   UNL A   1      33.956  33.763  30.495  1.00  0.00     0.014 A 
ATOM     38  C   UNL A   1      35.458  34.616  28.786  1.00  0.00     0.014 A 
ATOM     39  C   UNL A   1      35.043  33.210  31.167  1.00  0.00     0.010 A 
ATOM     40  C   UNL A   1      36.529  33.998  29.416  1.00  0.00     0.010 A 
ATOM     41  C   UNL A   1      36.331  33.296  30.614  1.00  0.00    -0.014 A 
BRANCH  41  42
ATOM     42  C   UNL A   1      37.494  32.673  31.284  1.00  0.00     0.031 A 
ATOM     43  C   UNL A   1      38.218  31.543  30.612  1.00  0.00     0.074 A 
ATOM     44  C   UNL A   1      37.845  33.077  32.519  1.00  0.00     0.049 A 
ATOM     45  N   UNL A   1      39.188  30.793  31.068  1.00  0.00    -0.248 NA
ATOM     46  C   UNL A   1      37.771  31.187  29.255  1.00  0.00     0.031 C 
ATOM     47  C   UNL A   1      37.187  34.140  33.280  1.00  0.00     0.029 A 
ATOM     48  N   UNL A   1      38.832  32.628  33.359  1.00  0.00    -0.354 N 
ATOM     49  C   UNL A   1      39.452  29.871  30.065  1.00  0.00     0.074 A 
ATOM     50  C   UNL A   1      38.506  30.116  28.999  1.00  0.00     0.031 C 
ATOM     51  C   UNL A   1      37.799  34.275  34.466  1.00  0.00     0.029 A 
ATOM     52  C   UNL A   1      38.861  33.279  34.568  1.00  0.00     0.049 A 
ATOM     53  H   UNL A   1      39.459  31.909  33.118  1.00  0.00     0.167 HD
ATOM     54  C   UNL A   1      40.417  28.920  30.029  1.00  0.00     0.037 A 
ATOM     55  C   UNL A   1      39.649  33.080  35.641  1.00  0.00     0.037 A 
ATOM     56  C   UNL A   1      41.366  28.701  31.088  1.00  0.00     0.049 A 
ATOM     57  C   UNL A   1      40.700  32.004  35.582  1.00  0.00     0.074 A 
ATOM     58  C   UNL A   1      42.414  27.801  31.133  1.00  0.00     0.029 A 
ATOM     59  N   UNL A   1      41.379  29.394  32.291  1.00  0.00    -0.354 N 
ATOM     60  N   UNL A   1      40.982  31.175  34.607  1.00  0.00    -0.248 NA
ATOM     61  C   UNL A   1      41.546  31.842  36.771  1.00  0.00     0.031 C 
ATOM     62  C   UNL A   1      43.028  27.910  32.385  1.00  0.00     0.029 A 
ATOM     63  C   UNL A   1      42.404  28.923  33.095  1.00  0.00     0.049 A 
ATOM     64  H   UNL A   1      40.753  30.113  32.536  1.00  0.00     0.167 HD
ATOM     65  C   UNL A   1      42.059  30.418  35.047  1.00  0.00     0.074 A 
ATOM     66  C   UNL A   1      42.385  30.895  36.376  1.00  0.00     0.031 C 
ATOM     67  C   UNL A   1      42.722  29.423  34.409  1.00  0.00     0.037 A 
BRANCH  54  68
ATOM     68  C   UNL A   1      40.487  28.045  28.811  1.00  0.00     0.064 A 
ATOM     69  C   UNL A   1      39.787  26.831  28.731  1.00  0.00     0.173 A 
ATOM     70  C   UNL A   1      41.240  28.440  27.695  1.00  0.00     0.173 A 
ATOM     71  F   UNL A   1      39.062  26.400  29.776  1.00  0.00    -0.203 F 
ATOM     72  C   UNL A   1      39.863  26.032  27.594  1.00  0.00     0.198 A 
ATOM     73  C   UNL A   1      41.286  27.655  26.546  1.00  0.00     0.198 A 
ATOM     74  F   UNL A   1      41.927  29.593  27.715  1.00  0.00    -0.203 F 
ATOM     75  F   UNL A   1      39.230  24.851  27.563  1.00  0.00    -0.200 F 
ATOM     76  C   UNL A   1      40.605  26.448  26.500  1.00  0.00     0.200 A 
ATOM     77  F   UNL A   1      41.993  28.066  25.484  1.00  0.00    -0.200 F 
ATOM     78  F   UNL A   1      40.672  25.682  25.402  1.00  0.00    -0.200 F 
ENDBRANCH  54  68
BRANCH  55  79
ATOM     79  C   UNL A   1      39.485  33.928  36.851  1.00  0.00     0.064 A 
ATOM     80  C   UNL A   1      40.085  35.192  36.931  1.00  0.00     0.173 A 
ATOM     81  C   UNL A   1      38.730  33.494  37.951  1.00  0.00     0.173 A 
ATOM     82  F   UNL A   1      40.831  35.643  35.912  1.00  0.00    -0.203 F 
ATOM     83  C   UNL A   1      39.959  35.979  38.074  1.00  0.00     0.198 A 
ATOM     84  C   UNL A   1      38.579  34.295  39.081  1.00  0.00     0.198 A 
ATOM     85  F   UNL A   1      38.128  32.296  37.923  1.00  0.00    -0.203 F 
ATOM     86  F   UNL A   1      40.586  37.160  38.142  1.00  0.00    -0.200 F 
ATOM     87  C   UNL A   1      39.202  35.532  39.146  1.00  0.00     0.200 A 
ATOM     88  F   UNL A   1      37.832  33.866  40.108  1.00  0.00    -0.200 F 
ATOM     89  F   UNL A   1      39.079  36.290  40.243  1.00  0.00    -0.200 F 
ENDBRANCH  55  79
BRANCH  67  90
ATOM     90  C   UNL A   1      43.901  28.817  35.112  1.00  0.00     0.064 A 
ATOM     91  C   UNL A   1      45.197  29.334  34.967  1.00  0.00     0.173 A 
ATOM     92  C   UNL A   1      43.720  27.734  35.986  1.00  0.00     0.173 A 
ATOM     93  F   UNL A   1      45.425  30.360  34.133  1.00  0.00    -0.203 F 
ATOM     94  C   UNL A   1      46.271  28.774  35.653  1.00  0.00     0.198 A 
ATOM     95  C   UNL A   1      44.789  27.199  36.696  1.00  0.00     0.198 A 
ATOM     96  F   UNL A   1      42.500  27.207  36.166  1.00  0.00    -0.203 F 
ATOM     97  F   UNL A   1      47.508  29.254  35.465  1.00  0.00    -0.200 F 
ATOM     98  C   UNL A   1      46.065  27.714  36.525  1.00  0.00     0.200 A 
ATOM     99  F   UNL A   1      44.586  26.185  37.550  1.00  0.00    -0.200 F 
ATOM    100  F   UNL A   1      47.098  27.185  37.194  1.00  0.00    -0.200 F 
ENDBRANCH  67  90
ENDBRANCH  41  42
ENDBRANCH  33  36
ENDBRANCH  31  32
ENDBRANCH  30  31
ENDBRANCH  29  30
ENDBRANCH   1  29
TORSDOF 15
ENDMDL
MODEL 2
REMARK VINA RESULT:     -12.9      1.094      2.440
REMARK SMILES Cc1ccc(Cl)c(Nc2ccccc2C(=O)N[C@@H](C)C(=O)NCCCCNC(=O)c2ccc(-c3c4nc(c(-c5c(F)c(F)c(F)c(F)c5F)c5ccc([nH]5)c(-c5c(F)c(F)c(F)c(F)c5F)c5nc(c(-c6c(F)c(F)c(F)c(F)c6F)c6ccc3[nH]6)C=C5)C=C4)cc2)c1Cl
REMARK SMILES IDX 23 1 22 2 20 3 21 4 18 6 19 7 17 8 15 9 16 10 14 12 9 13
REMARK SMILES IDX 10 14 11 15 13 16 12 17 8 18 7 20 1 21 2 22 3 23 93 24 4 25
REMARK SMILES IDX 94 26 5 27 6 28 24 29 25 30 26 31 27 32 28 33 29 35 30 36
REMARK SMILES IDX 31 37 92 38 32 39 91 40 33 41 34 42 35 43 85 44 36 45 90 46
REMARK SMILES IDX 84 47 86 48 37 49 89 50 83 51 82 52 38 54 70 55 50 56 69 57
REMARK SMILES IDX 51 58 54 59 68 60 87 61 52 62 53 63 67 65 88 66 55 67 39 68
REMARK SMILES IDX 40 69 48 70 41 71 42 72 46 73 49 74 43 75 44 76 47 77 45 78
REMARK SMILES IDX 71 79 72 80 80 81 73 82 74 83 78 84 81 85 75 86 76 87 79 88
REMARK SMILES IDX 77 89 56 90 57 91 65 92 58 93 59 94 63 95 66 96 60 97 61 98
REMARK SMILES IDX 64 99 62 100
REMARK H PARENT 22 5 17 11 8 19 27 34 86 53 54 64
REMARK Flexibility Score: inf
ROOT
ATOM      1  C   UNL A   1      33.299  30.298  27.155  1.00  0.00     0.116 C 
ENDROOT
BRANCH   1   2
ATOM      2  N   UNL A   1      33.397  29.010  27.812  1.00  0.00    -0.354 N 
ATOM      3  C   UNL A   1      32.799  27.954  27.189  1.00  0.00     0.242 C 
ATOM      4  O   UNL A   1      31.605  27.781  27.422  1.00  0.00    -0.273 OA
ATOM      5  H   UNL A   1      33.873  28.903  28.668  1.00  0.00     0.163 HD
BRANCH   3   6
ATOM      6  C   UNL A   1      33.611  27.085  26.198  1.00  0.00     0.168 C 
ATOM      7  C   UNL A   1      33.789  27.653  24.799  1.00  0.00     0.041 C 
BRANCH   6   8
ATOM      8  N   UNL A   1      32.916  25.810  26.205  1.00  0.00    -0.340 N 
ATOM      9  C   UNL A   1      33.491  24.557  26.192  1.00  0.00     0.254 C 
ATOM     10  O   UNL A   1      32.960  23.714  26.922  1.00  0.00    -0.269 OA
ATOM     11  H   UNL A   1      31.933  25.844  26.220  1.00  0.00     0.164 HD
BRANCH   9  12
ATOM     12  C   UNL A   1      34.473  24.098  25.155  1.00  0.00     0.063 A 
ATOM     13  C   UNL A   1      34.293  23.713  23.809  1.00  0.00     0.051 A 
ATOM     14  C   UNL A   1      35.416  23.200  23.110  1.00  0.00     0.027 A 
ATOM     15  C   UNL A   1      36.689  23.140  23.674  1.00  0.00     0.002 A 
ATOM     16  C   UNL A   1      35.784  24.048  25.696  1.00  0.00     0.016 A 
ATOM     17  C   UNL A   1      36.879  23.591  24.967  1.00  0.00     0.001 A 
BRANCH  13  18
ATOM     18  N   UNL A   1      33.151  23.871  23.000  1.00  0.00    -0.352 N 
ATOM     19  H   UNL A   1      33.129  23.241  22.243  1.00  0.00     0.167 HD
BRANCH  18  20
ATOM     20  C   UNL A   1      32.023  24.735  23.031  1.00  0.00     0.077 A 
ATOM     21  C   UNL A   1      30.950  28.360  22.390  1.00  0.00     0.046 C 
ATOM     22  C   UNL A   1      30.899  26.905  22.778  1.00  0.00    -0.030 A 
ATOM     23  C   UNL A   1      29.829  26.456  23.567  1.00  0.00     0.006 A 
ATOM     24  C   UNL A   1      31.962  26.024  22.461  1.00  0.00     0.069 A 
ATOM     25  C   UNL A   1      29.819  25.156  24.057  1.00  0.00     0.023 A 
ATOM     26  Cl  UNL A   1      33.139  26.554  21.297  1.00  0.00    -0.082 Cl
ATOM     27  C   UNL A   1      30.908  24.320  23.806  1.00  0.00     0.066 A 
ATOM     28  Cl  UNL A   1      30.879  22.747  24.545  1.00  0.00    -0.082 Cl
ENDBRANCH  18  20
ENDBRANCH  13  18
ENDBRANCH   9  12
ENDBRANCH   6   8
ENDBRANCH   3   6
ENDBRANCH   1   2
BRANCH   1  29
ATOM     29  C   UNL A   1      31.848  30.726  26.884  1.00  0.00     0.023 C 
BRANCH  29  30
ATOM     30  C   UNL A   1      31.586  32.234  26.945  1.00  0.00     0.023 C 
BRANCH  30  31
ATOM     31  C   UNL A   1      32.819  33.083  27.221  1.00  0.00     0.116 C 
BRANCH  31  32
ATOM     32  N   UNL A   1      32.482  34.410  27.714  1.00  0.00    -0.352 N 
ATOM     33  C   UNL A   1      33.009  35.124  28.757  1.00  0.00     0.251 C 
ATOM     34  H   UNL A   1      31.763  34.867  27.219  1.00  0.00     0.163 HD
ATOM     35  O   UNL A   1      32.502  36.178  29.104  1.00  0.00    -0.269 OA
BRANCH  33  36
ATOM     36  C   UNL A   1      34.178  34.588  29.472  1.00  0.00     0.039 A 
ATOM     37  C   UNL A   1      33.974  33.946  30.694  1.00  0.00     0.014 A 
ATOM     38  C   UNL A   1      35.460  34.707  28.929  1.00  0.00     0.014 A 
ATOM     39  C   UNL A   1      35.058  33.371  31.352  1.00  0.00     0.010 A 
ATOM     40  C   UNL A   1      36.525  34.067  29.548  1.00  0.00     0.010 A 
ATOM     41  C   UNL A   1      36.333  33.401  30.766  1.00  0.00    -0.014 A 
BRANCH  41  42
ATOM     42  C   UNL A   1      37.492  32.752  31.421  1.00  0.00     0.031 A 
ATOM     43  C   UNL A   1      38.164  31.588  30.755  1.00  0.00     0.074 A 
ATOM     44  C   UNL A   1      37.883  33.168  32.641  1.00  0.00     0.049 A 
ATOM     45  N   UNL A   1      39.121  30.817  31.204  1.00  0.00    -0.248 NA
ATOM     46  C   UNL A   1      37.675  31.222  29.416  1.00  0.00     0.031 C 
ATOM     47  C   UNL A   1      37.276  34.265  33.396  1.00  0.00     0.029 A 
ATOM     48  N   UNL A   1      38.874  32.704  33.467  1.00  0.00    -0.354 N 
ATOM     49  C   UNL A   1      39.333  29.868  30.213  1.00  0.00     0.074 A 
ATOM     50  C   UNL A   1      38.371  30.123  29.164  1.00  0.00     0.031 C 
ATOM     51  C   UNL A   1      37.919  34.402  34.565  1.00  0.00     0.029 A 
ATOM     52  C   UNL A   1      38.951  33.375  34.663  1.00  0.00     0.049 A 
ATOM     53  H   UNL A   1      39.473  31.961  33.226  1.00  0.00     0.167 HD
ATOM     54  C   UNL A   1      40.266  28.887  30.175  1.00  0.00     0.037 A 
ATOM     55  C   UNL A   1      39.756  33.171  35.722  1.00  0.00     0.037 A 
ATOM     56  C   UNL A   1      41.233  28.658  31.216  1.00  0.00     0.049 A 
ATOM     57  C   UNL A   1      40.772  32.062  35.660  1.00  0.00     0.074 A 
ATOM     58  C   UNL A   1      42.252  27.726  31.255  1.00  0.00     0.029 A 
ATOM     59  N   UNL A   1      41.294  29.371  32.405  1.00  0.00    -0.354 N 
ATOM     60  N   UNL A   1      41.005  31.206  34.695  1.00  0.00    -0.248 NA
ATOM     61  C   UNL A   1      41.639  31.894  36.833  1.00  0.00     0.031 C 
ATOM     62  C   UNL A   1      42.898  27.838  32.491  1.00  0.00     0.029 A 
ATOM     63  C   UNL A   1      42.322  28.883  33.195  1.00  0.00     0.049 A 
ATOM     64  H   UNL A   1      40.696  30.114  32.650  1.00  0.00     0.167 HD
ATOM     65  C   UNL A   1      42.068  30.424  35.126  1.00  0.00     0.074 A 
ATOM     66  C   UNL A   1      42.439  30.914  36.438  1.00  0.00     0.031 C 
ATOM     67  C   UNL A   1      42.685  29.397  34.492  1.00  0.00     0.037 A 
BRANCH  54  68
ATOM     68  C   UNL A   1      40.281  27.988  28.972  1.00  0.00     0.064 A 
ATOM     69  C   UNL A   1      41.033  28.298  27.828  1.00  0.00     0.173 A 
ATOM     70  C   UNL A   1      39.559  26.786  28.974  1.00  0.00     0.173 A 
ATOM     71  F   UNL A   1      41.732  29.443  27.768  1.00  0.00    -0.203 F 
ATOM     72  C   UNL A   1      41.036  27.454  26.721  1.00  0.00     0.198 A 
ATOM     73  C   UNL A   1      39.591  25.927  27.878  1.00  0.00     0.198 A 
ATOM     74  F   UNL A   1      38.824  26.438  30.042  1.00  0.00    -0.203 F 
ATOM     75  F   UNL A   1      41.717  27.798  25.619  1.00  0.00    -0.200 F 
ATOM     76  C   UNL A   1      40.323  26.266  26.749  1.00  0.00     0.200 A 
ATOM     77  F   UNL A   1      38.912  24.773  27.914  1.00  0.00    -0.200 F 
ATOM     78  F   UNL A   1      40.332  25.450  25.686  1.00  0.00    -0.200 F 
ENDBRANCH  54  68
BRANCH  55  79
ATOM     79  C   UNL A   1      39.646  34.046  36.919  1.00  0.00     0.064 A 
ATOM     80  C   UNL A   1      38.845  33.676  38.009  1.00  0.00     0.173 A 
ATOM     81  C   UNL A   1      40.332  35.266  36.999  1.00  0.00     0.173 A 
ATOM     82  F   UNL A   1      38.156  32.527  37.972  1.00  0.00    -0.203 F 
ATOM     83  C   UNL A   1      38.715  34.505  39.121  1.00  0.00     0.198 A 
ATOM     84  C   UNL A   1      40.226  36.079  38.125  1.00  0.00     0.198 A 
ATOM     85  F   UNL A   1      41.118  35.663  35.987  1.00  0.00    -0.203 F 
ATOM     86  F   UNL A   1      37.904  34.150  40.126  1.00  0.00    -0.200 F 
ATOM     87  C   UNL A   1      39.410  35.704  39.181  1.00  0.00     0.200 A 
ATOM     88  F   UNL A   1      40.913  37.229  38.185  1.00  0.00    -0.200 F 
ATOM     89  F   UNL A   1      39.287  36.499  40.251  1.00  0.00    -0.200 F 
ENDBRANCH  55  79
BRANCH  67  90
ATOM     90  C   UNL A   1      43.860  28.766  35.181  1.00  0.00     0.064 A 
ATOM     91  C   UNL A   1      43.714  27.663  36.034  1.00  0.00     0.173 A 
ATOM     92  C   UNL A   1      45.158  29.243  34.938  1.00  0.00     0.173 A 
ATOM     93  F   UNL A   1      42.493  27.179  36.308  1.00  0.00    -0.203 F 
ATOM     94  C   UNL A   1      44.822  27.075  36.638  1.00  0.00     0.198 A 
ATOM     95  C   UNL A   1      46.265  28.632  35.516  1.00  0.00     0.198 A 
ATOM     96  F   UNL A   1      45.352  30.291  34.124  1.00  0.00    -0.203 F 
ATOM     97  F   UNL A   1      44.656  26.051  37.486  1.00  0.00    -0.200 F 
ATOM     98  C   UNL A   1      46.097  27.553  36.371  1.00  0.00     0.200 A 
ATOM     99  F   UNL A   1      47.498  29.085  35.244  1.00  0.00    -0.200 F 
ATOM    100  F   UNL A   1      47.164  26.978  36.943  1.00  0.00    -0.200 F 
ENDBRANCH  67  90
ENDBRANCH  41  42
ENDBRANCH  33  36
ENDBRANCH  31  32
ENDBRANCH  30  31
ENDBRANCH  29  30
ENDBRANCH   1  29
TORSDOF 15
ENDMDL
MODEL 3
REMARK VINA RESULT:     -12.9      1.768      7.769
REMARK SMILES Cc1ccc(Cl)c(Nc2ccccc2C(=O)N[C@@H](C)C(=O)NCCCCNC(=O)c2ccc(-c3c4nc(c(-c5c(F)c(F)c(F)c(F)c5F)c5ccc([nH]5)c(-c5c(F)c(F)c(F)c(F)c5F)c5nc(c(-c6c(F)c(F)c(F)c(F)c6F)c6ccc3[nH]6)C=C5)C=C4)cc2)c1Cl
REMARK SMILES IDX 23 1 22 2 20 3 21 4 18 6 19 7 17 8 15 9 16 10 14 12 9 13
REMARK SMILES IDX 10 14 11 15 13 16 12 17 8 18 7 20 1 21 2 22 3 23 93 24 4 25
REMARK SMILES IDX 94 26 5 27 6 28 24 29 25 30 26 31 27 32 28 33 29 35 30 36
REMARK SMILES IDX 31 37 92 38 32 39 91 40 33 41 34 42 35 43 85 44 36 45 90 46
REMARK SMILES IDX 84 47 86 48 37 49 89 50 83 51 82 52 38 54 70 55 50 56 69 57
REMARK SMILES IDX 51 58 54 59 68 60 87 61 52 62 53 63 67 65 88 66 55 67 39 68
REMARK SMILES IDX 40 69 48 70 41 71 42 72 46 73 49 74 43 75 44 76 47 77 45 78
REMARK SMILES IDX 71 79 72 80 80 81 73 82 74 83 78 84 81 85 75 86 76 87 79 88
REMARK SMILES IDX 77 89 56 90 57 91 65 92 58 93 59 94 63 95 66 96 60 97 61 98
REMARK SMILES IDX 64 99 62 100
REMARK H PARENT 22 5 17 11 8 19 27 34 86 53 54 64
REMARK Flexibility Score: inf
ROOT
ATOM      1  C   UNL A   1      34.283  32.067  28.681  1.00  0.00     0.116 C 
ENDROOT
BRANCH   1   2
ATOM      2  N   UNL A   1      34.771  31.482  27.448  1.00  0.00    -0.354 N 
ATOM      3  C   UNL A   1      34.469  30.170  27.228  1.00  0.00     0.242 C 
ATOM      4  O   UNL A   1      35.234  29.340  27.715  1.00  0.00    -0.273 OA
ATOM      5  H   UNL A   1      35.295  32.008  26.800  1.00  0.00     0.163 HD
BRANCH   3   6
ATOM      6  C   UNL A   1      33.183  29.796  26.451  1.00  0.00     0.168 C 
ATOM      7  C   UNL A   1      32.171  28.945  27.203  1.00  0.00     0.041 C 
BRANCH   6   8
ATOM      8  N   UNL A   1      33.680  29.151  25.248  1.00  0.00    -0.340 N 
ATOM      9  C   UNL A   1      33.033  29.063  24.034  1.00  0.00     0.254 C 
ATOM     10  O   UNL A   1      33.742  29.224  23.035  1.00  0.00    -0.269 OA
ATOM     11  H   UNL A   1      34.569  28.734  25.307  1.00  0.00     0.164 HD
BRANCH   9  12
ATOM     12  C   UNL A   1      31.657  28.494  23.858  1.00  0.00     0.063 A 
ATOM     13  C   UNL A   1      31.180  27.168  23.945  1.00  0.00     0.051 A 
ATOM     14  C   UNL A   1      29.826  26.925  23.598  1.00  0.00     0.027 A 
ATOM     15  C   UNL A   1      28.944  27.949  23.257  1.00  0.00     0.002 A 
ATOM     16  C   UNL A   1      30.730  29.518  23.531  1.00  0.00     0.016 A 
ATOM     17  C   UNL A   1      29.392  29.256  23.248  1.00  0.00     0.001 A 
BRANCH  13  18
ATOM     18  N   UNL A   1      31.844  26.031  24.447  1.00  0.00    -0.352 N 
ATOM     19  H   UNL A   1      32.252  26.186  25.329  1.00  0.00     0.167 HD
BRANCH  18  20
ATOM     20  C   UNL A   1      32.056  24.711  23.965  1.00  0.00     0.077 A 
ATOM     21  C   UNL A   1      32.104  21.040  25.072  1.00  0.00     0.046 C 
ATOM     22  C   UNL A   1      32.224  22.272  24.213  1.00  0.00    -0.030 A 
ATOM     23  C   UNL A   1      32.941  22.187  23.010  1.00  0.00     0.006 A 
ATOM     24  C   UNL A   1      31.729  23.524  24.655  1.00  0.00     0.069 A 
ATOM     25  C   UNL A   1      33.189  23.331  22.262  1.00  0.00     0.023 A 
ATOM     26  Cl  UNL A   1      30.655  23.539  26.021  1.00  0.00    -0.082 Cl
ATOM     27  C   UNL A   1      32.767  24.571  22.744  1.00  0.00     0.066 A 
ATOM     28  Cl  UNL A   1      33.210  25.970  21.812  1.00  0.00    -0.082 Cl
ENDBRANCH  18  20
ENDBRANCH  13  18
ENDBRANCH   9  12
ENDBRANCH   6   8
ENDBRANCH   3   6
ENDBRANCH   1   2
BRANCH   1  29
ATOM     29  C   UNL A   1      34.527  33.582  28.767  1.00  0.00     0.023 C 
BRANCH  29  30
ATOM     30  C   UNL A   1      33.266  34.447  28.844  1.00  0.00     0.023 C 
BRANCH  30  31
ATOM     31  C   UNL A   1      33.485  35.842  29.412  1.00  0.00     0.116 C 
BRANCH  31  32
ATOM     32  N   UNL A   1      32.574  36.147  30.505  1.00  0.00    -0.352 N 
ATOM     33  C   UNL A   1      32.624  35.782  31.823  1.00  0.00     0.251 C 
ATOM     34  H   UNL A   1      31.801  36.706  30.258  1.00  0.00     0.163 HD
ATOM     35  O   UNL A   1      31.691  36.027  32.570  1.00  0.00    -0.269 OA
BRANCH  33  36
ATOM     36  C   UNL A   1      33.809  35.065  32.322  1.00  0.00     0.039 A 
ATOM     37  C   UNL A   1      33.647  33.764  32.799  1.00  0.00     0.014 A 
ATOM     38  C   UNL A   1      35.068  35.670  32.302  1.00  0.00     0.014 A 
ATOM     39  C   UNL A   1      34.765  33.043  33.210  1.00  0.00     0.010 A 
ATOM     40  C   UNL A   1      36.189  34.925  32.638  1.00  0.00     0.010 A 
ATOM     41  C   UNL A   1      36.046  33.609  33.101  1.00  0.00    -0.014 A 
BRANCH  41  42
ATOM     42  C   UNL A   1      37.254  32.845  33.484  1.00  0.00     0.031 A 
ATOM     43  C   UNL A   1      37.950  33.157  34.776  1.00  0.00     0.074 A 
ATOM     44  C   UNL A   1      37.758  31.931  32.634  1.00  0.00     0.049 A 
ATOM     45  N   UNL A   1      39.075  32.682  35.247  1.00  0.00    -0.248 NA
ATOM     46  C   UNL A   1      37.311  34.159  35.644  1.00  0.00     0.031 C 
ATOM     47  C   UNL A   1      37.184  31.576  31.335  1.00  0.00     0.029 A 
ATOM     48  N   UNL A   1      38.877  31.144  32.729  1.00  0.00    -0.354 N 
ATOM     49  C   UNL A   1      39.285  33.340  36.451  1.00  0.00     0.074 A 
ATOM     50  C   UNL A   1      38.204  34.286  36.615  1.00  0.00     0.031 C 
ATOM     51  C   UNL A   1      37.943  30.629  30.763  1.00  0.00     0.029 A 
ATOM     52  C   UNL A   1      39.081  30.345  31.631  1.00  0.00     0.049 A 
ATOM     53  H   UNL A   1      39.477  31.152  33.510  1.00  0.00     0.167 HD
ATOM     54  C   UNL A   1      40.280  33.151  37.350  1.00  0.00     0.037 A 
ATOM     55  C   UNL A   1      40.084  29.490  31.354  1.00  0.00     0.037 A 
ATOM     56  C   UNL A   1      41.338  32.190  37.185  1.00  0.00     0.049 A 
ATOM     57  C   UNL A   1      41.187  29.313  32.363  1.00  0.00     0.074 A 
ATOM     58  C   UNL A   1      42.366  31.882  38.056  1.00  0.00     0.029 A 
ATOM     59  N   UNL A   1      41.502  31.381  36.068  1.00  0.00    -0.354 N 
ATOM     60  N   UNL A   1      41.347  29.896  33.526  1.00  0.00    -0.248 NA
ATOM     61  C   UNL A   1      42.246  28.354  32.022  1.00  0.00     0.031 C 
ATOM     62  C   UNL A   1      43.184  30.926  37.444  1.00  0.00     0.029 A 
ATOM     63  C   UNL A   1      42.629  30.592  36.219  1.00  0.00     0.049 A 
ATOM     64  H   UNL A   1      40.905  31.372  35.285  1.00  0.00     0.167 HD
ATOM     65  C   UNL A   1      42.500  29.350  34.073  1.00  0.00     0.074 A 
ATOM     66  C   UNL A   1      42.995  28.381  33.115  1.00  0.00     0.031 C 
ATOM     67  C   UNL A   1      43.095  29.621  35.261  1.00  0.00     0.037 A 
BRANCH  54  68
ATOM     68  C   UNL A   1      40.272  34.003  38.586  1.00  0.00     0.064 A 
ATOM     69  C   UNL A   1      39.592  33.610  39.750  1.00  0.00     0.173 A 
ATOM     70  C   UNL A   1      40.978  35.215  38.619  1.00  0.00     0.173 A 
ATOM     71  F   UNL A   1      38.889  32.467  39.768  1.00  0.00    -0.203 F 
ATOM     72  C   UNL A   1      39.594  34.413  40.887  1.00  0.00     0.198 A 
ATOM     73  C   UNL A   1      41.006  35.998  39.770  1.00  0.00     0.198 A 
ATOM     74  F   UNL A   1      41.648  35.638  37.536  1.00  0.00    -0.203 F 
ATOM     75  F   UNL A   1      38.892  34.043  41.968  1.00  0.00    -0.200 F 
ATOM     76  C   UNL A   1      40.307  35.601  40.900  1.00  0.00     0.200 A 
ATOM     77  F   UNL A   1      41.708  37.139  39.784  1.00  0.00    -0.200 F 
ATOM     78  F   UNL A   1      40.315  36.369  41.998  1.00  0.00    -0.200 F 
ENDBRANCH  54  68
BRANCH  55  79
ATOM     79  C   UNL A   1      40.080  28.727  30.079  1.00  0.00     0.064 A 
ATOM     80  C   UNL A   1      40.698  29.241  28.931  1.00  0.00     0.173 A 
ATOM     81  C   UNL A   1      39.458  27.474  29.978  1.00  0.00     0.173 A 
ATOM     82  F   UNL A   1      41.290  30.443  28.972  1.00  0.00    -0.203 F 
ATOM     83  C   UNL A   1      40.672  28.544  27.725  1.00  0.00     0.198 A 
ATOM     84  C   UNL A   1      39.460  26.763  28.780  1.00  0.00     0.198 A 
ATOM     85  F   UNL A   1      38.858  26.933  31.049  1.00  0.00    -0.203 F 
ATOM     86  F   UNL A   1      41.227  29.083  26.631  1.00  0.00    -0.200 F 
ATOM     87  C   UNL A   1      40.058  27.303  27.651  1.00  0.00     0.200 A 
ATOM     88  F   UNL A   1      38.880  25.557  28.718  1.00  0.00    -0.200 F 
ATOM     89  F   UNL A   1      40.036  26.632  26.493  1.00  0.00    -0.200 F 
ENDBRANCH  55  79
BRANCH  67  90
ATOM     90  C   UNL A   1      44.314  28.824  35.621  1.00  0.00     0.064 A 
ATOM     91  C   UNL A   1      44.227  27.614  36.324  1.00  0.00     0.173 A 
ATOM     92  C   UNL A   1      45.584  29.254  35.207  1.00  0.00     0.173 A 
ATOM     93  F   UNL A   1      43.037  27.166  36.754  1.00  0.00    -0.203 F 
ATOM     94  C   UNL A   1      45.370  26.876  36.621  1.00  0.00     0.198 A 
ATOM     95  C   UNL A   1      46.720  28.497  35.475  1.00  0.00     0.198 A 
ATOM     96  F   UNL A   1      45.721  30.401  34.524  1.00  0.00    -0.203 F 
ATOM     97  F   UNL A   1      45.269  25.746  37.335  1.00  0.00    -0.200 F 
ATOM     98  C   UNL A   1      46.613  27.313  36.188  1.00  0.00     0.200 A 
ATOM     99  F   UNL A   1      47.919  28.912  35.041  1.00  0.00    -0.200 F 
ATOM    100  F   UNL A   1      47.711  26.594  36.463  1.00  0.00    -0.200 F 
ENDBRANCH  67  90
ENDBRANCH  41  42
ENDBRANCH  33  36
ENDBRANCH  31  32
ENDBRANCH  30  31
ENDBRANCH  29  30
ENDBRANCH   1  29
TORSDOF 15
ENDMDL
