MODEL 1
REMARK VINA RESULT:     -12.4      0.000      0.000
REMARK SMILES O=C(NCCCCNC(=O)[C@H]1C=C[C@@H](NS(=O)(=O)c2ccccc2)C1)c1ccc(-c2c3nc(c(-c4c(F)c(F)c(F)c(F)c4F)c4ccc([nH]4)c(-c4c(F)c(F)c(F)c(F)c4F)c4nc(c(-c5c(F)c(F)c(F)c(F)c5F)c5ccc2[nH]5)C=C4)C=C3)cc1
REMARK SMILES IDX 6 1 5 2 4 3 3 4 1 5 2 6 26 8 27 9 88 10 28 11 87 12 29 13
REMARK SMILES IDX 30 14 31 15 81 16 32 17 86 18 80 19 82 20 33 21 85 22 79 23
REMARK SMILES IDX 78 24 34 26 66 27 46 28 65 29 47 30 50 31 64 32 83 33 48 34
REMARK SMILES IDX 49 35 63 37 84 38 51 39 35 40 36 41 44 42 37 43 38 44 42 45
REMARK SMILES IDX 45 46 39 47 40 48 43 49 41 50 67 51 68 52 76 53 69 54 70 55
REMARK SMILES IDX 74 56 77 57 71 58 72 59 75 60 73 61 52 62 53 63 61 64 54 65
REMARK SMILES IDX 55 66 59 67 62 68 56 69 57 70 60 71 58 72 7 73 8 74 9 75
REMARK SMILES IDX 10 77 11 78 12 79 25 80 13 81 14 82 15 83 16 85 17 86 18 87
REMARK SMILES IDX 19 88 20 89 24 90 21 91 23 92 22 93
REMARK H PARENT 3 7 82 25 50 36 8 76 15 84
REMARK Flexibility Score: inf
ROOT
ATOM      1  C   UNL A   1      31.868  30.229  26.650  1.00  0.00     0.023 C 
ENDROOT
BRANCH   1   2
ATOM      2  C   UNL A   1      31.742  31.748  26.554  1.00  0.00     0.023 C 
BRANCH   2   3
ATOM      3  C   UNL A   1      32.774  32.533  27.348  1.00  0.00     0.116 C 
BRANCH   3   4
ATOM      4  N   UNL A   1      32.384  33.909  27.629  1.00  0.00    -0.352 N 
ATOM      5  O   UNL A   1      32.474  35.895  28.711  1.00  0.00    -0.269 OA
ATOM      6  C   UNL A   1      32.957  34.786  28.521  1.00  0.00     0.251 C 
ATOM      7  H   UNL A   1      31.617  34.252  27.117  1.00  0.00     0.163 HD
BRANCH   6   8
ATOM      8  C   UNL A   1      34.139  34.343  29.288  1.00  0.00     0.039 A 
ATOM      9  C   UNL A   1      35.422  34.580  28.791  1.00  0.00     0.014 A 
ATOM     10  C   UNL A   1      33.957  33.612  30.464  1.00  0.00     0.014 A 
ATOM     11  C   UNL A   1      36.506  33.934  29.368  1.00  0.00     0.010 A 
ATOM     12  C   UNL A   1      35.063  33.043  31.099  1.00  0.00     0.010 A 
ATOM     13  C   UNL A   1      36.340  33.158  30.528  1.00  0.00    -0.014 A 
BRANCH  13  14
ATOM     14  C   UNL A   1      37.528  32.496  31.124  1.00  0.00     0.031 A 
ATOM     15  C   UNL A   1      37.989  32.830  32.516  1.00  0.00     0.074 A 
ATOM     16  C   UNL A   1      38.156  31.540  30.413  1.00  0.00     0.049 A 
ATOM     17  N   UNL A   1      38.976  32.312  33.205  1.00  0.00    -0.248 NA
ATOM     18  C   UNL A   1      37.256  33.888  33.229  1.00  0.00     0.031 C 
ATOM     19  C   UNL A   1      37.800  31.139  29.050  1.00  0.00     0.029 A 
ATOM     20  N   UNL A   1      39.199  30.715  30.742  1.00  0.00    -0.354 N 
ATOM     21  C   UNL A   1      39.002  32.997  34.413  1.00  0.00     0.074 A 
ATOM     22  C   UNL A   1      37.943  33.982  34.359  1.00  0.00     0.031 C 
ATOM     23  C   UNL A   1      38.569  30.104  28.683  1.00  0.00     0.029 A 
ATOM     24  C   UNL A   1      39.512  29.812  29.756  1.00  0.00     0.049 A 
ATOM     25  H   UNL A   1      39.678  30.765  31.600  1.00  0.00     0.167 HD
ATOM     26  C   UNL A   1      39.831  32.814  35.468  1.00  0.00     0.037 A 
ATOM     27  C   UNL A   1      40.460  28.859  29.717  1.00  0.00     0.037 A 
ATOM     28  C   UNL A   1      40.862  31.807  35.526  1.00  0.00     0.049 A 
ATOM     29  C   UNL A   1      41.360  28.678  30.903  1.00  0.00     0.074 A 
ATOM     30  C   UNL A   1      41.726  31.514  36.567  1.00  0.00     0.029 A 
ATOM     31  N   UNL A   1      41.167  30.928  34.497  1.00  0.00    -0.354 N 
ATOM     32  N   UNL A   1      41.354  29.313  32.049  1.00  0.00    -0.248 NA
ATOM     33  C   UNL A   1      42.399  27.647  30.789  1.00  0.00     0.031 C 
ATOM     34  C   UNL A   1      42.582  30.488  36.153  1.00  0.00     0.029 A 
ATOM     35  C   UNL A   1      42.218  30.106  34.872  1.00  0.00     0.049 A 
ATOM     36  H   UNL A   1      40.705  30.893  33.628  1.00  0.00     0.167 HD
ATOM     37  C   UNL A   1      42.374  28.748  32.801  1.00  0.00     0.074 A 
ATOM     38  C   UNL A   1      42.964  27.704  31.987  1.00  0.00     0.031 C 
ATOM     39  C   UNL A   1      42.788  29.068  34.052  1.00  0.00     0.037 A 
BRANCH  26  40
ATOM     40  C   UNL A   1      39.678  33.734  36.646  1.00  0.00     0.064 A 
ATOM     41  C   UNL A   1      40.312  34.984  36.698  1.00  0.00     0.173 A 
ATOM     42  C   UNL A   1      38.843  33.378  37.717  1.00  0.00     0.173 A 
ATOM     43  F   UNL A   1      41.129  35.368  35.707  1.00  0.00    -0.203 F 
ATOM     44  C   UNL A   1      40.135  35.833  37.789  1.00  0.00     0.198 A 
ATOM     45  C   UNL A   1      38.646  34.241  38.793  1.00  0.00     0.198 A 
ATOM     46  F   UNL A   1      38.206  32.198  37.715  1.00  0.00    -0.203 F 
ATOM     47  F   UNL A   1      40.784  37.005  37.837  1.00  0.00    -0.200 F 
ATOM     48  C   UNL A   1      39.296  35.464  38.831  1.00  0.00     0.200 A 
ATOM     49  F   UNL A   1      37.825  33.888  39.791  1.00  0.00    -0.200 F 
ATOM     50  F   UNL A   1      39.120  36.286  39.875  1.00  0.00    -0.200 F 
ENDBRANCH  26  40
BRANCH  27  51
ATOM     51  C   UNL A   1      40.589  27.999  28.512  1.00  0.00     0.064 A 
ATOM     52  C   UNL A   1      39.931  26.765  28.434  1.00  0.00     0.173 A 
ATOM     53  C   UNL A   1      41.356  28.402  27.409  1.00  0.00     0.173 A 
ATOM     54  F   UNL A   1      39.199  26.329  29.471  1.00  0.00    -0.203 F 
ATOM     55  C   UNL A   1      40.047  25.959  27.304  1.00  0.00     0.198 A 
ATOM     56  C   UNL A   1      41.446  27.610  26.268  1.00  0.00     0.198 A 
ATOM     57  F   UNL A   1      41.999  29.579  27.432  1.00  0.00    -0.203 F 
ATOM     58  F   UNL A   1      39.439  24.765  27.270  1.00  0.00    -0.200 F 
ATOM     59  C   UNL A   1      40.798  26.386  26.219  1.00  0.00     0.200 A 
ATOM     60  F   UNL A   1      42.157  28.035  25.215  1.00  0.00    -0.200 F 
ATOM     61  F   UNL A   1      40.901  25.615  25.128  1.00  0.00    -0.200 F 
ENDBRANCH  27  51
BRANCH  39  62
ATOM     62  C   UNL A   1      43.907  28.251  34.625  1.00  0.00     0.064 A 
ATOM     63  C   UNL A   1      43.668  27.050  35.309  1.00  0.00     0.173 A 
ATOM     64  C   UNL A   1      45.239  28.670  34.475  1.00  0.00     0.173 A 
ATOM     65  F   UNL A   1      42.411  26.617  35.494  1.00  0.00    -0.203 F 
ATOM     66  C   UNL A   1      44.719  26.315  35.853  1.00  0.00     0.198 A 
ATOM     67  C   UNL A   1      46.288  27.917  34.994  1.00  0.00     0.198 A 
ATOM     68  F   UNL A   1      45.521  29.808  33.824  1.00  0.00    -0.203 F 
ATOM     69  F   UNL A   1      44.463  25.202  36.552  1.00  0.00    -0.200 F 
ATOM     70  C   UNL A   1      46.027  26.747  35.691  1.00  0.00     0.200 A 
ATOM     71  F   UNL A   1      47.552  28.329  34.827  1.00  0.00    -0.200 F 
ATOM     72  F   UNL A   1      47.036  26.039  36.216  1.00  0.00    -0.200 F 
ENDBRANCH  39  62
ENDBRANCH  13  14
ENDBRANCH   6   8
ENDBRANCH   3   4
ENDBRANCH   2   3
ENDBRANCH   1   2
BRANCH   1  73
ATOM     73  C   UNL A   1      31.876  29.496  25.304  1.00  0.00     0.116 C 
BRANCH  73  74
ATOM     74  N   UNL A   1      30.936  30.090  24.381  1.00  0.00    -0.356 N 
ATOM     75  C   UNL A   1      30.104  29.569  23.448  1.00  0.00     0.226 C 
ATOM     76  H   UNL A   1      30.890  31.071  24.445  1.00  0.00     0.163 HD
ATOM     77  O   UNL A   1      29.445  30.408  22.819  1.00  0.00    -0.274 OA
BRANCH  75  78
ATOM     78  C   UNL A   1      29.878  28.064  23.186  1.00  0.00     0.103 C 
ATOM     79  C   UNL A   1      31.128  27.525  22.541  1.00  0.00    -0.016 C 
ATOM     80  C   UNL A   1      29.643  27.047  24.307  1.00  0.00     0.042 C 
ATOM     81  C   UNL A   1      31.527  26.360  23.057  1.00  0.00    -0.011 C 
ATOM     82  C   UNL A   1      30.593  25.855  24.089  1.00  0.00     0.093 C 
BRANCH  82  83
ATOM     83  N   UNL A   1      31.277  25.577  25.343  1.00  0.00    -0.204 NA
ATOM     84  H   UNL A   1      30.789  26.109  26.062  1.00  0.00     0.142 HD
BRANCH  83  85
ATOM     85  S   UNL A   1      31.425  24.015  25.932  1.00  0.00     0.241 S 
ATOM     86  O   UNL A   1      30.968  24.021  27.308  1.00  0.00    -0.207 OA
ATOM     87  O   UNL A   1      30.825  23.156  24.942  1.00  0.00    -0.207 OA
BRANCH  85  88
ATOM     88  C   UNL A   1      33.168  23.698  25.927  1.00  0.00     0.082 A 
ATOM     89  C   UNL A   1      34.046  24.560  25.265  1.00  0.00     0.022 A 
ATOM     90  C   UNL A   1      33.651  22.609  26.660  1.00  0.00     0.022 A 
ATOM     91  C   UNL A   1      35.420  24.334  25.355  1.00  0.00     0.001 A 
ATOM     92  C   UNL A   1      35.023  22.384  26.735  1.00  0.00     0.001 A 
ATOM     93  C   UNL A   1      35.906  23.250  26.090  1.00  0.00     0.000 A 
ENDBRANCH  85  88
ENDBRANCH  83  85
ENDBRANCH  82  83
ENDBRANCH  75  78
ENDBRANCH  73  74
ENDBRANCH   1  73
TORSDOF 14
ENDMDL
MODEL 2
REMARK VINA RESULT:     -12.4      1.248      2.492
REMARK SMILES O=C(NCCCCNC(=O)[C@H]1C=C[C@@H](NS(=O)(=O)c2ccccc2)C1)c1ccc(-c2c3nc(c(-c4c(F)c(F)c(F)c(F)c4F)c4ccc([nH]4)c(-c4c(F)c(F)c(F)c(F)c4F)c4nc(c(-c5c(F)c(F)c(F)c(F)c5F)c5ccc2[nH]5)C=C4)C=C3)cc1
REMARK SMILES IDX 6 1 5 2 4 3 3 4 1 5 2 6 26 8 27 9 88 10 28 11 87 12 29 13
REMARK SMILES IDX 30 14 31 15 81 16 32 17 86 18 80 19 82 20 33 21 85 22 79 23
REMARK SMILES IDX 78 24 34 26 66 27 46 28 65 29 47 30 50 31 64 32 83 33 48 34
REMARK SMILES IDX 49 35 63 37 84 38 51 39 35 40 36 41 44 42 37 43 38 44 42 45
REMARK SMILES IDX 45 46 39 47 40 48 43 49 41 50 67 51 68 52 76 53 69 54 70 55
REMARK SMILES IDX 74 56 77 57 71 58 72 59 75 60 73 61 52 62 53 63 61 64 54 65
REMARK SMILES IDX 55 66 59 67 62 68 56 69 57 70 60 71 58 72 7 73 8 74 9 75
REMARK SMILES IDX 10 77 11 78 12 79 25 80 13 81 14 82 15 83 16 85 17 86 18 87
REMARK SMILES IDX 19 88 20 89 24 90 21 91 23 92 22 93
REMARK H PARENT 3 7 82 25 50 36 8 76 15 84
REMARK Flexibility Score: inf
ROOT
ATOM      1  C   UNL A   1      32.205  30.113  27.095  1.00  0.00     0.023 C 
ENDROOT
BRANCH   1   2
ATOM      2  C   UNL A   1      31.888  31.590  26.870  1.00  0.00     0.023 C 
BRANCH   2   3
ATOM      3  C   UNL A   1      33.008  32.553  27.230  1.00  0.00     0.116 C 
BRANCH   3   4
ATOM      4  N   UNL A   1      32.549  33.888  27.590  1.00  0.00    -0.352 N 
ATOM      5  O   UNL A   1      32.516  35.796  28.808  1.00  0.00    -0.269 OA
ATOM      6  C   UNL A   1      33.053  34.724  28.559  1.00  0.00     0.251 C 
ATOM      7  H   UNL A   1      31.783  34.233  27.078  1.00  0.00     0.163 HD
BRANCH   6   8
ATOM      8  C   UNL A   1      34.230  34.280  29.334  1.00  0.00     0.039 A 
ATOM      9  C   UNL A   1      35.516  34.565  28.874  1.00  0.00     0.014 A 
ATOM     10  C   UNL A   1      34.041  33.501  30.478  1.00  0.00     0.014 A 
ATOM     11  C   UNL A   1      36.604  33.922  29.449  1.00  0.00     0.010 A 
ATOM     12  C   UNL A   1      35.147  32.934  31.114  1.00  0.00     0.010 A 
ATOM     13  C   UNL A   1      36.432  33.099  30.575  1.00  0.00    -0.014 A 
BRANCH  13  14
ATOM     14  C   UNL A   1      37.623  32.443  31.171  1.00  0.00     0.031 A 
ATOM     15  C   UNL A   1      38.080  32.775  32.565  1.00  0.00     0.074 A 
ATOM     16  C   UNL A   1      38.258  31.492  30.459  1.00  0.00     0.049 A 
ATOM     17  N   UNL A   1      39.069  32.261  33.254  1.00  0.00    -0.248 NA
ATOM     18  C   UNL A   1      37.340  33.827  33.280  1.00  0.00     0.031 C 
ATOM     19  C   UNL A   1      37.906  31.093  29.094  1.00  0.00     0.029 A 
ATOM     20  N   UNL A   1      39.305  30.672  30.787  1.00  0.00    -0.354 N 
ATOM     21  C   UNL A   1      39.090  32.943  34.463  1.00  0.00     0.074 A 
ATOM     22  C   UNL A   1      38.026  33.923  34.411  1.00  0.00     0.031 C 
ATOM     23  C   UNL A   1      38.681  30.062  28.725  1.00  0.00     0.029 A 
ATOM     24  C   UNL A   1      39.624  29.773  29.799  1.00  0.00     0.049 A 
ATOM     25  H   UNL A   1      39.782  30.723  31.646  1.00  0.00     0.167 HD
ATOM     26  C   UNL A   1      39.918  32.762  35.520  1.00  0.00     0.037 A 
ATOM     27  C   UNL A   1      40.577  28.825  29.759  1.00  0.00     0.037 A 
ATOM     28  C   UNL A   1      40.955  31.761  35.577  1.00  0.00     0.049 A 
ATOM     29  C   UNL A   1      41.477  28.647  30.946  1.00  0.00     0.074 A 
ATOM     30  C   UNL A   1      41.819  31.471  36.618  1.00  0.00     0.029 A 
ATOM     31  N   UNL A   1      41.266  30.887  34.545  1.00  0.00    -0.354 N 
ATOM     32  N   UNL A   1      41.466  29.279  32.093  1.00  0.00    -0.248 NA
ATOM     33  C   UNL A   1      42.523  27.623  30.830  1.00  0.00     0.031 C 
ATOM     34  C   UNL A   1      42.682  30.451  36.202  1.00  0.00     0.029 A 
ATOM     35  C   UNL A   1      42.322  30.070  34.920  1.00  0.00     0.049 A 
ATOM     36  H   UNL A   1      40.806  30.851  33.676  1.00  0.00     0.167 HD
ATOM     37  C   UNL A   1      42.488  28.718  32.846  1.00  0.00     0.074 A 
ATOM     38  C   UNL A   1      43.085  27.680  32.029  1.00  0.00     0.031 C 
ATOM     39  C   UNL A   1      42.899  29.037  34.098  1.00  0.00     0.037 A 
BRANCH  26  40
ATOM     40  C   UNL A   1      39.759  33.679  36.699  1.00  0.00     0.064 A 
ATOM     41  C   UNL A   1      40.394  34.927  36.761  1.00  0.00     0.173 A 
ATOM     42  C   UNL A   1      38.915  33.321  37.763  1.00  0.00     0.173 A 
ATOM     43  F   UNL A   1      41.219  35.313  35.776  1.00  0.00    -0.203 F 
ATOM     44  C   UNL A   1      40.211  35.772  37.853  1.00  0.00     0.198 A 
ATOM     45  C   UNL A   1      38.712  34.179  38.841  1.00  0.00     0.198 A 
ATOM     46  F   UNL A   1      38.276  32.141  37.752  1.00  0.00    -0.203 F 
ATOM     47  F   UNL A   1      40.862  36.943  37.910  1.00  0.00    -0.200 F 
ATOM     48  C   UNL A   1      39.364  35.401  38.888  1.00  0.00     0.200 A 
ATOM     49  F   UNL A   1      37.883  33.825  39.832  1.00  0.00    -0.200 F 
ATOM     50  F   UNL A   1      39.182  36.220  39.933  1.00  0.00    -0.200 F 
ENDBRANCH  26  40
BRANCH  27  51
ATOM     51  C   UNL A   1      40.713  27.970  28.552  1.00  0.00     0.064 A 
ATOM     52  C   UNL A   1      40.055  26.737  28.466  1.00  0.00     0.173 A 
ATOM     53  C   UNL A   1      41.487  28.376  27.455  1.00  0.00     0.173 A 
ATOM     54  F   UNL A   1      39.317  26.298  29.497  1.00  0.00    -0.203 F 
ATOM     55  C   UNL A   1      40.177  25.934  27.334  1.00  0.00     0.198 A 
ATOM     56  C   UNL A   1      41.584  27.588  26.312  1.00  0.00     0.198 A 
ATOM     57  F   UNL A   1      42.131  29.553  27.486  1.00  0.00    -0.203 F 
ATOM     58  F   UNL A   1      39.568  24.740  27.293  1.00  0.00    -0.200 F 
ATOM     59  C   UNL A   1      40.935  26.364  26.255  1.00  0.00     0.200 A 
ATOM     60  F   UNL A   1      42.302  28.015  25.265  1.00  0.00    -0.200 F 
ATOM     61  F   UNL A   1      41.043  25.597  25.163  1.00  0.00    -0.200 F 
ENDBRANCH  27  51
BRANCH  39  62
ATOM     62  C   UNL A   1      44.022  28.225  34.670  1.00  0.00     0.064 A 
ATOM     63  C   UNL A   1      43.785  27.052  35.402  1.00  0.00     0.173 A 
ATOM     64  C   UNL A   1      45.354  28.620  34.472  1.00  0.00     0.173 A 
ATOM     65  F   UNL A   1      42.528  26.643  35.634  1.00  0.00    -0.203 F 
ATOM     66  C   UNL A   1      44.840  26.322  35.944  1.00  0.00     0.198 A 
ATOM     67  C   UNL A   1      46.406  27.871  34.990  1.00  0.00     0.198 A 
ATOM     68  F   UNL A   1      45.634  29.730  33.774  1.00  0.00    -0.203 F 
ATOM     69  F   UNL A   1      44.588  25.237  36.688  1.00  0.00    -0.200 F 
ATOM     70  C   UNL A   1      46.149  26.730  35.734  1.00  0.00     0.200 A 
ATOM     71  F   UNL A   1      47.671  28.260  34.776  1.00  0.00    -0.200 F 
ATOM     72  F   UNL A   1      47.162  26.026  36.257  1.00  0.00    -0.200 F 
ENDBRANCH  39  62
ENDBRANCH  13  14
ENDBRANCH   6   8
ENDBRANCH   3   4
ENDBRANCH   2   3
ENDBRANCH   1   2
BRANCH   1  73
ATOM     73  C   UNL A   1      31.853  29.191  25.923  1.00  0.00     0.116 C 
BRANCH  73  74
ATOM     74  N   UNL A   1      31.402  27.900  26.391  1.00  0.00    -0.356 N 
ATOM     75  C   UNL A   1      31.956  26.664  26.364  1.00  0.00     0.226 C 
ATOM     76  H   UNL A   1      30.514  27.924  26.816  1.00  0.00     0.163 HD
ATOM     77  O   UNL A   1      31.250  25.772  26.855  1.00  0.00    -0.274 OA
BRANCH  75  78
ATOM     78  C   UNL A   1      33.375  26.326  25.858  1.00  0.00     0.103 C 
ATOM     79  C   UNL A   1      33.559  24.837  25.990  1.00  0.00    -0.016 C 
ATOM     80  C   UNL A   1      33.826  26.569  24.414  1.00  0.00     0.042 C 
ATOM     81  C   UNL A   1      34.118  24.278  24.915  1.00  0.00    -0.011 C 
ATOM     82  C   UNL A   1      34.485  25.280  23.888  1.00  0.00     0.093 C 
BRANCH  82  83
ATOM     83  N   UNL A   1      33.901  24.960  22.594  1.00  0.00    -0.204 NA
ATOM     84  H   UNL A   1      33.207  24.232  22.762  1.00  0.00     0.142 HD
BRANCH  83  85
ATOM     85  S   UNL A   1      33.141  26.129  21.663  1.00  0.00     0.241 S 
ATOM     86  O   UNL A   1      33.895  27.359  21.805  1.00  0.00    -0.207 OA
ATOM     87  O   UNL A   1      32.915  25.528  20.373  1.00  0.00    -0.207 OA
BRANCH  85  88
ATOM     88  C   UNL A   1      31.561  26.354  22.431  1.00  0.00     0.082 A 
ATOM     89  C   UNL A   1      30.921  25.287  23.067  1.00  0.00     0.022 A 
ATOM     90  C   UNL A   1      31.004  27.637  22.450  1.00  0.00     0.022 A 
ATOM     91  C   UNL A   1      29.720  25.516  23.740  1.00  0.00     0.001 A 
ATOM     92  C   UNL A   1      29.799  27.855  23.114  1.00  0.00     0.001 A 
ATOM     93  C   UNL A   1      29.163  26.797  23.765  1.00  0.00     0.000 A 
ENDBRANCH  85  88
ENDBRANCH  83  85
ENDBRANCH  82  83
ENDBRANCH  75  78
ENDBRANCH  73  74
ENDBRANCH   1  73
TORSDOF 14
ENDMDL
MODEL 3
REMARK VINA RESULT:     -12.4      0.461      7.455
REMARK SMILES O=C(NCCCCNC(=O)[C@H]1C=C[C@@H](NS(=O)(=O)c2ccccc2)C1)c1ccc(-c2c3nc(c(-c4c(F)c(F)c(F)c(F)c4F)c4ccc([nH]4)c(-c4c(F)c(F)c(F)c(F)c4F)c4nc(c(-c5c(F)c(F)c(F)c(F)c5F)c5ccc2[nH]5)C=C4)C=C3)cc1
REMARK SMILES IDX 6 1 5 2 4 3 3 4 1 5 2 6 26 8 27 9 88 10 28 11 87 12 29 13
REMARK SMILES IDX 30 14 31 15 81 16 32 17 86 18 80 19 82 20 33 21 85 22 79 23
REMARK SMILES IDX 78 24 34 26 66 27 46 28 65 29 47 30 50 31 64 32 83 33 48 34
REMARK SMILES IDX 49 35 63 37 84 38 51 39 35 40 36 41 44 42 37 43 38 44 42 45
REMARK SMILES IDX 45 46 39 47 40 48 43 49 41 50 67 51 68 52 76 53 69 54 70 55
REMARK SMILES IDX 74 56 77 57 71 58 72 59 75 60 73 61 52 62 53 63 61 64 54 65
REMARK SMILES IDX 55 66 59 67 62 68 56 69 57 70 60 71 58 72 7 73 8 74 9 75
REMARK SMILES IDX 10 77 11 78 12 79 25 80 13 81 14 82 15 83 16 85 17 86 18 87
REMARK SMILES IDX 19 88 20 89 24 90 21 91 23 92 22 93
REMARK H PARENT 3 7 82 25 50 36 8 76 15 84
REMARK Flexibility Score: inf
ROOT
ATOM      1  C   UNL A   1      31.782  30.452  26.741  1.00  0.00     0.023 C 
ENDROOT
BRANCH   1   2
ATOM      2  C   UNL A   1      31.653  31.972  26.649  1.00  0.00     0.023 C 
BRANCH   2   3
ATOM      3  C   UNL A   1      32.764  32.756  27.329  1.00  0.00     0.116 C 
BRANCH   3   4
ATOM      4  N   UNL A   1      32.418  34.142  27.619  1.00  0.00    -0.352 N 
ATOM      5  O   UNL A   1      32.531  36.099  28.751  1.00  0.00    -0.269 OA
ATOM      6  C   UNL A   1      32.975  34.973  28.563  1.00  0.00     0.251 C 
ATOM      7  H   UNL A   1      31.698  34.530  27.072  1.00  0.00     0.163 HD
BRANCH   6   8
ATOM      8  C   UNL A   1      34.090  34.462  29.387  1.00  0.00     0.039 A 
ATOM      9  C   UNL A   1      35.402  34.554  28.919  1.00  0.00     0.014 A 
ATOM     10  C   UNL A   1      33.808  33.811  30.589  1.00  0.00     0.014 A 
ATOM     11  C   UNL A   1      36.405  33.840  29.559  1.00  0.00     0.010 A 
ATOM     12  C   UNL A   1      34.839  33.174  31.285  1.00  0.00     0.010 A 
ATOM     13  C   UNL A   1      36.136  33.141  30.749  1.00  0.00    -0.014 A 
BRANCH  13  14
ATOM     14  C   UNL A   1      37.240  32.404  31.412  1.00  0.00     0.031 A 
ATOM     15  C   UNL A   1      37.988  31.312  30.697  1.00  0.00     0.074 A 
ATOM     16  C   UNL A   1      37.603  32.771  32.656  1.00  0.00     0.049 A 
ATOM     17  N   UNL A   1      39.008  30.602  31.113  1.00  0.00    -0.248 NA
ATOM     18  C   UNL A   1      37.531  30.963  29.343  1.00  0.00     0.031 C 
ATOM     19  C   UNL A   1      36.943  33.811  33.449  1.00  0.00     0.029 A 
ATOM     20  N   UNL A   1      38.626  32.338  33.459  1.00  0.00    -0.354 N 
ATOM     21  C   UNL A   1      39.294  29.706  30.091  1.00  0.00     0.074 A 
ATOM     22  C   UNL A   1      38.329  29.948  29.039  1.00  0.00     0.031 C 
ATOM     23  C   UNL A   1      37.616  33.980  34.597  1.00  0.00     0.029 A 
ATOM     24  C   UNL A   1      38.710  33.018  34.649  1.00  0.00     0.049 A 
ATOM     25  H   UNL A   1      39.239  31.611  33.208  1.00  0.00     0.167 HD
ATOM     26  C   UNL A   1      40.275  28.774  30.036  1.00  0.00     0.037 A 
ATOM     27  C   UNL A   1      39.569  32.877  35.674  1.00  0.00     0.037 A 
ATOM     28  C   UNL A   1      41.253  28.562  31.074  1.00  0.00     0.049 A 
ATOM     29  C   UNL A   1      40.647  31.838  35.582  1.00  0.00     0.074 A 
ATOM     30  C   UNL A   1      42.311  27.670  31.095  1.00  0.00     0.029 A 
ATOM     31  N   UNL A   1      41.289  29.252  32.278  1.00  0.00    -0.354 N 
ATOM     32  N   UNL A   1      40.923  31.018  34.598  1.00  0.00    -0.248 NA
ATOM     33  C   UNL A   1      41.532  31.703  36.746  1.00  0.00     0.031 C 
ATOM     34  C   UNL A   1      42.963  27.790  32.328  1.00  0.00     0.029 A 
ATOM     35  C   UNL A   1      42.341  28.792  33.055  1.00  0.00     0.049 A 
ATOM     36  H   UNL A   1      40.661  29.963  32.541  1.00  0.00     0.167 HD
ATOM     37  C   UNL A   1      42.025  30.284  35.012  1.00  0.00     0.074 A 
ATOM     38  C   UNL A   1      42.377  30.771  36.331  1.00  0.00     0.031 C 
ATOM     39  C   UNL A   1      42.682  29.293  34.362  1.00  0.00     0.037 A 
BRANCH  26  40
ATOM     40  C   UNL A   1      40.333  27.890  28.823  1.00  0.00     0.064 A 
ATOM     41  C   UNL A   1      41.101  28.223  27.698  1.00  0.00     0.173 A 
ATOM     42  C   UNL A   1      39.647  26.664  28.807  1.00  0.00     0.173 A 
ATOM     43  F   UNL A   1      41.767  29.387  27.656  1.00  0.00    -0.203 F 
ATOM     44  C   UNL A   1      41.162  27.376  26.594  1.00  0.00     0.198 A 
ATOM     45  C   UNL A   1      39.732  25.806  27.713  1.00  0.00     0.198 A 
ATOM     46  F   UNL A   1      38.904  26.292  29.860  1.00  0.00    -0.203 F 
ATOM     47  F   UNL A   1      41.869  27.735  25.513  1.00  0.00    -0.200 F 
ATOM     48  C   UNL A   1      40.484  26.165  26.606  1.00  0.00     0.200 A 
ATOM     49  F   UNL A   1      39.088  24.632  27.733  1.00  0.00    -0.200 F 
ATOM     50  F   UNL A   1      40.551  25.347  25.546  1.00  0.00    -0.200 F 
ENDBRANCH  26  40
BRANCH  27  51
ATOM     51  C   UNL A   1      39.444  33.755  36.865  1.00  0.00     0.064 A 
ATOM     52  C   UNL A   1      40.067  35.009  36.904  1.00  0.00     0.173 A 
ATOM     53  C   UNL A   1      38.684  33.367  37.978  1.00  0.00     0.173 A 
ATOM     54  F   UNL A   1      40.818  35.416  35.870  1.00  0.00    -0.203 F 
ATOM     55  C   UNL A   1      39.947  35.837  38.018  1.00  0.00     0.198 A 
ATOM     56  C   UNL A   1      38.539  34.208  39.079  1.00  0.00     0.198 A 
ATOM     57  F   UNL A   1      38.061  32.179  37.986  1.00  0.00    -0.203 F 
ATOM     58  F   UNL A   1      40.586  37.015  38.047  1.00  0.00    -0.200 F 
ATOM     59  C   UNL A   1      39.178  35.438  39.102  1.00  0.00     0.200 A 
ATOM     60  F   UNL A   1      37.780  33.828  40.115  1.00  0.00    -0.200 F 
ATOM     61  F   UNL A   1      39.055  36.239  40.168  1.00  0.00    -0.200 F 
ENDBRANCH  27  51
BRANCH  39  62
ATOM     62  C   UNL A   1      43.872  28.700  35.056  1.00  0.00     0.064 A 
ATOM     63  C   UNL A   1      45.161  29.229  34.892  1.00  0.00     0.173 A 
ATOM     64  C   UNL A   1      43.718  27.594  35.907  1.00  0.00     0.173 A 
ATOM     65  F   UNL A   1      45.361  30.274  34.075  1.00  0.00    -0.203 F 
ATOM     66  C   UNL A   1      46.257  28.652  35.528  1.00  0.00     0.198 A 
ATOM     67  C   UNL A   1      44.812  27.039  36.564  1.00  0.00     0.198 A 
ATOM     68  F   UNL A   1      42.506  27.054  36.101  1.00  0.00    -0.203 F 
ATOM     69  F   UNL A   1      47.486  29.139  35.312  1.00  0.00    -0.200 F 
ATOM     70  C   UNL A   1      46.081  27.561  36.366  1.00  0.00     0.200 A 
ATOM     71  F   UNL A   1      44.638  25.992  37.383  1.00  0.00    -0.200 F 
ATOM     72  F   UNL A   1      47.137  27.007  36.976  1.00  0.00    -0.200 F 
ENDBRANCH  39  62
ENDBRANCH  13  14
ENDBRANCH   6   8
ENDBRANCH   3   4
ENDBRANCH   2   3
ENDBRANCH   1   2
BRANCH   1  73
ATOM     73  C   UNL A   1      31.772  29.721  25.395  1.00  0.00     0.116 C 
BRANCH  73  74
ATOM     74  N   UNL A   1      30.755  30.254  24.518  1.00  0.00    -0.356 N 
ATOM     75  C   UNL A   1      29.979  29.696  23.558  1.00  0.00     0.226 C 
ATOM     76  H   UNL A   1      30.592  31.217  24.646  1.00  0.00     0.163 HD
ATOM     77  O   UNL A   1      29.215  30.488  22.988  1.00  0.00    -0.274 OA
BRANCH  75  78
ATOM     78  C   UNL A   1      29.932  28.195  23.200  1.00  0.00     0.103 C 
ATOM     79  C   UNL A   1      31.243  27.845  22.546  1.00  0.00    -0.016 C 
ATOM     80  C   UNL A   1      29.805  27.090  24.253  1.00  0.00     0.042 C 
ATOM     81  C   UNL A   1      31.769  26.704  22.997  1.00  0.00    -0.011 C 
ATOM     82  C   UNL A   1      30.889  26.031  23.979  1.00  0.00     0.093 C 
BRANCH  82  83
ATOM     83  N   UNL A   1      31.588  25.756  25.226  1.00  0.00    -0.204 NA
ATOM     84  H   UNL A   1      31.147  26.337  25.938  1.00  0.00     0.142 HD
BRANCH  83  85
ATOM     85  S   UNL A   1      31.665  24.207  25.864  1.00  0.00     0.241 S 
ATOM     86  O   UNL A   1      31.252  24.285  27.251  1.00  0.00    -0.207 OA
ATOM     87  O   UNL A   1      30.984  23.354  24.921  1.00  0.00    -0.207 OA
BRANCH  85  88
ATOM     88  C   UNL A   1      33.385  23.789  25.817  1.00  0.00     0.082 A 
ATOM     89  C   UNL A   1      34.324  24.693  25.314  1.00  0.00     0.022 A 
ATOM     90  C   UNL A   1      33.790  22.565  26.361  1.00  0.00     0.022 A 
ATOM     91  C   UNL A   1      35.680  24.371  25.374  1.00  0.00     0.001 A 
ATOM     92  C   UNL A   1      35.145  22.247  26.406  1.00  0.00     0.001 A 
ATOM     93  C   UNL A   1      36.089  23.152  25.920  1.00  0.00     0.000 A 
ENDBRANCH  85  88
ENDBRANCH  83  85
ENDBRANCH  82  83
ENDBRANCH  75  78
ENDBRANCH  73  74
ENDBRANCH   1  73
TORSDOF 14
ENDMDL
