MODEL 1
REMARK VINA RESULT:     -12.1      0.000      0.000
REMARK SMILES CC[C@H](c1ccc(OC)cc1)[N@H+]1CC[C@H](C(=O)NCCCCNC(=O)c2ccc(-c3c4nc(c(-c5c(F)c(F)c(F)c(F)c5F)c5ccc([nH]5)c(-c5c(F)c(F)c(F)c(F)c5F)c5nc(c(-c6c(F)c(F)c(F)c(F)c6F)c6ccc3[nH]6)C=C5)C=C4)cc2)[C@@H]1C
REMARK SMILES IDX 20 1 19 2 18 3 16 4 17 5 15 7 12 8 13 9 89 10 14 12 90 13
REMARK SMILES IDX 3 14 2 15 1 16 4 17 5 18 11 19 6 20 10 21 7 22 8 23 9 24
REMARK SMILES IDX 21 25 22 26 23 27 24 28 25 30 26 31 27 32 88 33 28 34 87 35
REMARK SMILES IDX 29 36 30 37 31 38 81 39 32 40 86 41 80 42 82 43 33 44 85 45
REMARK SMILES IDX 79 46 78 47 34 49 66 50 46 51 65 52 47 53 50 54 64 55 83 56
REMARK SMILES IDX 48 57 49 58 63 60 84 61 51 62 35 63 36 64 44 65 37 66 38 67
REMARK SMILES IDX 42 68 45 69 39 70 40 71 43 72 41 73 67 74 68 75 76 76 69 77
REMARK SMILES IDX 70 78 74 79 77 80 71 81 72 82 75 83 73 84 52 85 53 86 61 87
REMARK SMILES IDX 54 88 55 89 59 90 62 91 56 92 57 93 60 94 58 95
REMARK H PARENT 18 6 12 11 23 29 82 48 50 59
REMARK Flexibility Score: inf
ROOT
ATOM      1  C   UNL A   1      31.427  30.698  26.651  1.00  0.00     0.023 C 
ENDROOT
BRANCH   1   2
ATOM      2  C   UNL A   1      31.960  30.022  25.385  1.00  0.00     0.116 C 
BRANCH   2   3
ATOM      3  N   UNL A   1      30.973  29.910  24.325  1.00  0.00    -0.356 N 
ATOM      4  C   UNL A   1      30.341  28.794  23.840  1.00  0.00     0.229 C 
ATOM      5  O   UNL A   1      29.462  28.946  22.993  1.00  0.00    -0.275 OA
ATOM      6  H   UNL A   1      30.720  30.757  23.894  1.00  0.00     0.163 HD
BRANCH   4   7
ATOM      7  C   UNL A   1      30.758  27.432  24.366  1.00  0.00     0.142 C 
ATOM      8  N   UNL A   1      31.715  25.349  23.703  1.00  0.00    -0.326 N 
ATOM      9  C   UNL A   1      30.292  25.093  23.876  1.00  0.00     0.264 C 
ATOM     10  C   UNL A   1      31.883  26.793  23.551  1.00  0.00     0.194 C 
ATOM     11  H   UNL A   1      32.034  24.901  22.844  1.00  0.00     0.348 HD
ATOM     12  C   UNL A   1      29.666  26.370  24.423  1.00  0.00     0.081 C 
ATOM     13  C   UNL A   1      31.891  27.094  22.046  1.00  0.00     0.076 C 
BRANCH   8  14
ATOM     14  C   UNL A   1      32.649  24.624  24.577  1.00  0.00     0.215 C 
BRANCH  14  15
ATOM     15  C   UNL A   1      34.134  25.051  24.477  1.00  0.00     0.067 C 
ATOM     16  C   UNL A   1      35.040  24.206  25.368  1.00  0.00     0.010 C 
ENDBRANCH  14  15
BRANCH  14  17
ATOM     17  C   UNL A   1      32.423  23.118  24.356  1.00  0.00     0.010 A 
ATOM     18  C   UNL A   1      32.215  22.225  25.419  1.00  0.00     0.014 A 
ATOM     19  C   UNL A   1      32.588  22.574  23.072  1.00  0.00     0.014 A 
ATOM     20  C   UNL A   1      32.269  20.844  25.221  1.00  0.00     0.047 A 
ATOM     21  C   UNL A   1      32.602  21.187  22.867  1.00  0.00     0.047 A 
ATOM     22  C   UNL A   1      32.470  20.317  23.947  1.00  0.00     0.118 A 
BRANCH  22  23
ATOM     23  O   UNL A   1      32.551  18.954  23.907  1.00  0.00    -0.497 OA
ATOM     24  C   UNL A   1      33.725  18.367  24.451  1.00  0.00     0.278 C 
ENDBRANCH  22  23
ENDBRANCH  14  17
ENDBRANCH   8  14
ENDBRANCH   4   7
ENDBRANCH   2   3
ENDBRANCH   1   2
BRANCH   1  25
ATOM     25  C   UNL A   1      31.411  32.223  26.609  1.00  0.00     0.023 C 
BRANCH  25  26
ATOM     26  C   UNL A   1      32.681  32.864  27.136  1.00  0.00     0.116 C 
BRANCH  26  27
ATOM     27  N   UNL A   1      32.452  34.208  27.647  1.00  0.00    -0.352 N 
ATOM     28  C   UNL A   1      33.053  34.850  28.698  1.00  0.00     0.251 C 
ATOM     29  H   UNL A   1      31.766  34.730  27.170  1.00  0.00     0.163 HD
ATOM     30  O   UNL A   1      32.609  35.913  29.110  1.00  0.00    -0.269 OA
BRANCH  28  31
ATOM     31  C   UNL A   1      34.233  34.236  29.339  1.00  0.00     0.039 A 
ATOM     32  C   UNL A   1      34.039  33.355  30.404  1.00  0.00     0.014 A 
ATOM     33  C   UNL A   1      35.521  34.526  28.884  1.00  0.00     0.014 A 
ATOM     34  C   UNL A   1      35.142  32.734  30.984  1.00  0.00     0.010 A 
ATOM     35  C   UNL A   1      36.607  33.827  29.392  1.00  0.00     0.010 A 
ATOM     36  C   UNL A   1      36.432  32.944  30.464  1.00  0.00    -0.014 A 
BRANCH  36  37
ATOM     37  C   UNL A   1      37.607  32.262  31.055  1.00  0.00     0.031 A 
ATOM     38  C   UNL A   1      38.076  32.629  32.436  1.00  0.00     0.074 A 
ATOM     39  C   UNL A   1      38.264  31.336  30.332  1.00  0.00     0.049 A 
ATOM     40  N   UNL A   1      39.068  32.133  33.132  1.00  0.00    -0.248 NA
ATOM     41  C   UNL A   1      37.358  33.720  33.116  1.00  0.00     0.031 C 
ATOM     42  C   UNL A   1      37.941  30.953  28.955  1.00  0.00     0.029 A 
ATOM     43  N   UNL A   1      39.334  30.542  30.655  1.00  0.00    -0.354 N 
ATOM     44  C   UNL A   1      39.094  32.854  34.318  1.00  0.00     0.074 A 
ATOM     45  C   UNL A   1      38.072  33.871  34.221  1.00  0.00     0.031 C 
ATOM     46  C   UNL A   1      38.764  29.966  28.570  1.00  0.00     0.029 A 
ATOM     47  C   UNL A   1      39.691  29.670  29.656  1.00  0.00     0.049 A 
ATOM     48  H   UNL A   1      39.801  30.593  31.520  1.00  0.00     0.167 HD
ATOM     49  C   UNL A   1      39.876  32.660  35.406  1.00  0.00     0.037 A 
ATOM     50  C   UNL A   1      40.654  28.730  29.629  1.00  0.00     0.037 A 
ATOM     51  C   UNL A   1      40.877  31.630  35.500  1.00  0.00     0.049 A 
ATOM     52  C   UNL A   1      41.500  28.527  30.857  1.00  0.00     0.074 A 
ATOM     53  C   UNL A   1      41.689  31.309  36.573  1.00  0.00     0.029 A 
ATOM     54  N   UNL A   1      41.201  30.753  34.474  1.00  0.00    -0.354 N 
ATOM     55  N   UNL A   1      41.459  29.157  32.007  1.00  0.00    -0.248 NA
ATOM     56  C   UNL A   1      42.515  27.469  30.788  1.00  0.00     0.031 C 
ATOM     57  C   UNL A   1      42.541  30.272  36.178  1.00  0.00     0.029 A 
ATOM     58  C   UNL A   1      42.217  29.904  34.882  1.00  0.00     0.049 A 
ATOM     59  H   UNL A   1      40.772  30.737  33.588  1.00  0.00     0.167 HD
ATOM     60  C   UNL A   1      42.420  28.554  32.807  1.00  0.00     0.074 A 
ATOM     61  C   UNL A   1      43.008  27.491  32.017  1.00  0.00     0.031 C 
ATOM     62  C   UNL A   1      42.787  28.851  34.079  1.00  0.00     0.037 A 
BRANCH  49  63
ATOM     63  C   UNL A   1      39.673  33.577  36.580  1.00  0.00     0.064 A 
ATOM     64  C   UNL A   1      38.838  33.227  37.654  1.00  0.00     0.173 A 
ATOM     65  C   UNL A   1      40.340  34.809  36.648  1.00  0.00     0.173 A 
ATOM     66  F   UNL A   1      38.163  32.066  37.635  1.00  0.00    -0.203 F 
ATOM     67  C   UNL A   1      38.652  34.088  38.731  1.00  0.00     0.198 A 
ATOM     68  C   UNL A   1      40.179  35.653  37.744  1.00  0.00     0.198 A 
ATOM     69  F   UNL A   1      41.152  35.195  35.653  1.00  0.00    -0.203 F 
ATOM     70  F   UNL A   1      37.804  33.757  39.715  1.00  0.00    -0.200 F 
ATOM     71  C   UNL A   1      39.329  35.297  38.781  1.00  0.00     0.200 A 
ATOM     72  F   UNL A   1      40.846  36.815  37.796  1.00  0.00    -0.200 F 
ATOM     73  F   UNL A   1      39.156  36.122  39.822  1.00  0.00    -0.200 F 
ENDBRANCH  49  63
BRANCH  50  74
ATOM     74  C   UNL A   1      40.839  27.885  28.420  1.00  0.00     0.064 A 
ATOM     75  C   UNL A   1      41.673  28.300  27.371  1.00  0.00     0.173 A 
ATOM     76  C   UNL A   1      40.184  26.653  28.284  1.00  0.00     0.173 A 
ATOM     77  F   UNL A   1      42.310  29.477  27.446  1.00  0.00    -0.203 F 
ATOM     78  C   UNL A   1      41.820  27.528  26.220  1.00  0.00     0.198 A 
ATOM     79  C   UNL A   1      40.358  25.867  27.146  1.00  0.00     0.198 A 
ATOM     80  F   UNL A   1      39.384  26.205  29.262  1.00  0.00    -0.203 F 
ATOM     81  F   UNL A   1      42.579  27.974  25.210  1.00  0.00    -0.200 F 
ATOM     82  C   UNL A   1      41.166  26.310  26.110  1.00  0.00     0.200 A 
ATOM     83  F   UNL A   1      39.740  24.682  27.053  1.00  0.00    -0.200 F 
ATOM     84  F   UNL A   1      41.309  25.568  25.004  1.00  0.00    -0.200 F 
ENDBRANCH  50  74
BRANCH  62  85
ATOM     85  C   UNL A   1      43.846  27.988  34.703  1.00  0.00     0.064 A 
ATOM     86  C   UNL A   1      45.210  28.302  34.604  1.00  0.00     0.173 A 
ATOM     87  C   UNL A   1      43.488  26.835  35.418  1.00  0.00     0.173 A 
ATOM     88  F   UNL A   1      45.606  29.387  33.920  1.00  0.00    -0.203 F 
ATOM     89  C   UNL A   1      46.178  27.469  35.158  1.00  0.00     0.198 A 
ATOM     90  C   UNL A   1      44.457  26.026  36.005  1.00  0.00     0.198 A 
ATOM     91  F   UNL A   1      42.198  26.494  35.553  1.00  0.00    -0.203 F 
ATOM     92  F   UNL A   1      47.476  27.751  34.990  1.00  0.00    -0.200 F 
ATOM     93  C   UNL A   1      45.801  26.336  35.862  1.00  0.00     0.200 A 
ATOM     94  F   UNL A   1      44.090  24.942  36.701  1.00  0.00    -0.200 F 
ATOM     95  F   UNL A   1      46.734  25.536  36.395  1.00  0.00    -0.200 F 
ENDBRANCH  62  85
ENDBRANCH  36  37
ENDBRANCH  28  31
ENDBRANCH  26  27
ENDBRANCH  25  26
ENDBRANCH   1  25
TORSDOF 15
ENDMDL
MODEL 2
REMARK VINA RESULT:     -12.1      1.203      2.201
REMARK SMILES CC[C@H](c1ccc(OC)cc1)[N@H+]1CC[C@H](C(=O)NCCCCNC(=O)c2ccc(-c3c4nc(c(-c5c(F)c(F)c(F)c(F)c5F)c5ccc([nH]5)c(-c5c(F)c(F)c(F)c(F)c5F)c5nc(c(-c6c(F)c(F)c(F)c(F)c6F)c6ccc3[nH]6)C=C5)C=C4)cc2)[C@@H]1C
REMARK SMILES IDX 20 1 19 2 18 3 16 4 17 5 15 7 12 8 13 9 89 10 14 12 90 13
REMARK SMILES IDX 3 14 2 15 1 16 4 17 5 18 11 19 6 20 10 21 7 22 8 23 9 24
REMARK SMILES IDX 21 25 22 26 23 27 24 28 25 30 26 31 27 32 88 33 28 34 87 35
REMARK SMILES IDX 29 36 30 37 31 38 81 39 32 40 86 41 80 42 82 43 33 44 85 45
REMARK SMILES IDX 79 46 78 47 34 49 66 50 46 51 65 52 47 53 50 54 64 55 83 56
REMARK SMILES IDX 48 57 49 58 63 60 84 61 51 62 35 63 36 64 44 65 37 66 38 67
REMARK SMILES IDX 42 68 45 69 39 70 40 71 43 72 41 73 67 74 68 75 76 76 69 77
REMARK SMILES IDX 70 78 74 79 77 80 71 81 72 82 75 83 73 84 52 85 53 86 61 87
REMARK SMILES IDX 54 88 55 89 59 90 62 91 56 92 57 93 60 94 58 95
REMARK H PARENT 18 6 12 11 23 29 82 48 50 59
REMARK Flexibility Score: inf
ROOT
ATOM      1  C   UNL A   1      31.471  30.189  26.387  1.00  0.00     0.023 C 
ENDROOT
BRANCH   1   2
ATOM      2  C   UNL A   1      32.429  29.661  25.316  1.00  0.00     0.116 C 
BRANCH   2   3
ATOM      3  N   UNL A   1      31.888  29.722  23.969  1.00  0.00    -0.356 N 
ATOM      4  C   UNL A   1      31.307  28.732  23.220  1.00  0.00     0.229 C 
ATOM      5  O   UNL A   1      30.829  29.034  22.128  1.00  0.00    -0.275 OA
ATOM      6  H   UNL A   1      31.945  30.601  23.532  1.00  0.00     0.163 HD
BRANCH   4   7
ATOM      7  C   UNL A   1      31.285  27.317  23.771  1.00  0.00     0.142 C 
ATOM      8  N   UNL A   1      32.321  25.178  23.560  1.00  0.00    -0.326 N 
ATOM      9  C   UNL A   1      31.022  25.054  22.911  1.00  0.00     0.264 C 
ATOM     10  C   UNL A   1      32.631  26.603  23.646  1.00  0.00     0.194 C 
ATOM     11  H   UNL A   1      33.030  24.734  22.976  1.00  0.00     0.348 HD
ATOM     12  C   UNL A   1      30.277  26.364  23.137  1.00  0.00     0.081 C 
ATOM     13  C   UNL A   1      33.479  26.959  22.417  1.00  0.00     0.076 C 
BRANCH   8  14
ATOM     14  C   UNL A   1      32.578  24.333  24.736  1.00  0.00     0.215 C 
BRANCH  14  15
ATOM     15  C   UNL A   1      32.115  24.913  26.095  1.00  0.00     0.067 C 
ATOM     16  C   UNL A   1      30.733  24.408  26.498  1.00  0.00     0.010 C 
ENDBRANCH  14  15
BRANCH  14  17
ATOM     17  C   UNL A   1      34.064  23.934  24.708  1.00  0.00     0.010 A 
ATOM     18  C   UNL A   1      34.607  23.132  23.693  1.00  0.00     0.014 A 
ATOM     19  C   UNL A   1      34.882  24.235  25.809  1.00  0.00     0.014 A 
ATOM     20  C   UNL A   1      35.881  22.573  23.821  1.00  0.00     0.047 A 
ATOM     21  C   UNL A   1      36.177  23.706  25.918  1.00  0.00     0.047 A 
ATOM     22  C   UNL A   1      36.669  22.850  24.935  1.00  0.00     0.118 A 
BRANCH  22  23
ATOM     23  O   UNL A   1      37.870  22.198  24.953  1.00  0.00    -0.497 OA
ATOM     24  C   UNL A   1      37.826  20.779  24.990  1.00  0.00     0.278 C 
ENDBRANCH  22  23
ENDBRANCH  14  17
ENDBRANCH   8  14
ENDBRANCH   4   7
ENDBRANCH   2   3
ENDBRANCH   1   2
BRANCH   1  25
ATOM     25  C   UNL A   1      31.375  31.709  26.473  1.00  0.00     0.023 C 
BRANCH  25  26
ATOM     26  C   UNL A   1      32.649  32.378  26.956  1.00  0.00     0.116 C 
BRANCH  26  27
ATOM     27  N   UNL A   1      32.423  33.749  27.389  1.00  0.00    -0.352 N 
ATOM     28  C   UNL A   1      33.036  34.453  28.393  1.00  0.00     0.251 C 
ATOM     29  H   UNL A   1      31.732  34.242  26.889  1.00  0.00     0.163 HD
ATOM     30  O   UNL A   1      32.595  35.538  28.746  1.00  0.00    -0.269 OA
BRANCH  28  31
ATOM     31  C   UNL A   1      34.223  33.878  29.056  1.00  0.00     0.039 A 
ATOM     32  C   UNL A   1      34.043  32.879  30.013  1.00  0.00     0.014 A 
ATOM     33  C   UNL A   1      35.506  34.323  28.728  1.00  0.00     0.014 A 
ATOM     34  C   UNL A   1      35.158  32.296  30.609  1.00  0.00     0.010 A 
ATOM     35  C   UNL A   1      36.616  33.670  29.244  1.00  0.00     0.010 A 
ATOM     36  C   UNL A   1      36.454  32.668  30.210  1.00  0.00    -0.014 A 
BRANCH  36  37
ATOM     37  C   UNL A   1      37.647  32.032  30.817  1.00  0.00     0.031 A 
ATOM     38  C   UNL A   1      38.101  32.439  32.191  1.00  0.00     0.074 A 
ATOM     39  C   UNL A   1      38.331  31.110  30.113  1.00  0.00     0.049 A 
ATOM     40  N   UNL A   1      39.105  31.985  32.898  1.00  0.00    -0.248 NA
ATOM     41  C   UNL A   1      37.352  33.523  32.847  1.00  0.00     0.031 C 
ATOM     42  C   UNL A   1      38.023  30.692  28.743  1.00  0.00     0.029 A 
ATOM     43  N   UNL A   1      39.421  30.354  30.454  1.00  0.00    -0.354 N 
ATOM     44  C   UNL A   1      39.108  32.729  34.070  1.00  0.00     0.074 A 
ATOM     45  C   UNL A   1      38.058  33.715  33.950  1.00  0.00     0.031 C 
ATOM     46  C   UNL A   1      38.874  29.720  28.379  1.00  0.00     0.029 A 
ATOM     47  C   UNL A   1      39.806  29.472  29.473  1.00  0.00     0.049 A 
ATOM     48  H   UNL A   1      39.885  30.434  31.318  1.00  0.00     0.167 HD
ATOM     49  C   UNL A   1      39.892  32.580  35.163  1.00  0.00     0.037 A 
ATOM     50  C   UNL A   1      40.795  28.559  29.467  1.00  0.00     0.037 A 
ATOM     51  C   UNL A   1      40.921  31.580  35.279  1.00  0.00     0.049 A 
ATOM     52  C   UNL A   1      41.643  28.404  30.700  1.00  0.00     0.074 A 
ATOM     53  C   UNL A   1      41.739  31.303  36.360  1.00  0.00     0.029 A 
ATOM     54  N   UNL A   1      41.272  30.692  34.272  1.00  0.00    -0.354 N 
ATOM     55  N   UNL A   1      41.581  29.055  31.837  1.00  0.00    -0.248 NA
ATOM     56  C   UNL A   1      42.687  27.373  30.654  1.00  0.00     0.031 C 
ATOM     57  C   UNL A   1      42.621  30.283  35.988  1.00  0.00     0.029 A 
ATOM     58  C   UNL A   1      42.311  29.880  34.698  1.00  0.00     0.049 A 
ATOM     59  H   UNL A   1      40.846  30.647  33.385  1.00  0.00     0.167 HD
ATOM     60  C   UNL A   1      42.556  28.496  32.651  1.00  0.00     0.074 A 
ATOM     61  C   UNL A   1      43.176  27.434  31.883  1.00  0.00     0.031 C 
ATOM     62  C   UNL A   1      42.911  28.828  33.918  1.00  0.00     0.037 A 
BRANCH  49  63
ATOM     63  C   UNL A   1      39.661  33.513  36.318  1.00  0.00     0.064 A 
ATOM     64  C   UNL A   1      40.280  34.773  36.386  1.00  0.00     0.173 A 
ATOM     65  C   UNL A   1      38.790  33.159  37.359  1.00  0.00     0.173 A 
ATOM     66  F   UNL A   1      41.134  35.158  35.425  1.00  0.00    -0.203 F 
ATOM     67  C   UNL A   1      40.063  35.624  37.465  1.00  0.00     0.198 A 
ATOM     68  C   UNL A   1      38.547  34.027  38.420  1.00  0.00     0.198 A 
ATOM     69  F   UNL A   1      38.168  31.970  37.347  1.00  0.00    -0.203 F 
ATOM     70  F   UNL A   1      40.711  36.794  37.535  1.00  0.00    -0.200 F 
ATOM     71  C   UNL A   1      39.190  35.255  38.478  1.00  0.00     0.200 A 
ATOM     72  F   UNL A   1      37.693  33.675  39.391  1.00  0.00    -0.200 F 
ATOM     73  F   UNL A   1      38.975  36.079  39.512  1.00  0.00    -0.200 F 
ENDBRANCH  49  63
BRANCH  50  74
ATOM     74  C   UNL A   1      41.006  27.696  28.275  1.00  0.00     0.064 A 
ATOM     75  C   UNL A   1      40.363  26.455  28.161  1.00  0.00     0.173 A 
ATOM     76  C   UNL A   1      41.858  28.087  27.232  1.00  0.00     0.173 A 
ATOM     77  F   UNL A   1      39.551  26.028  29.139  1.00  0.00    -0.203 F 
ATOM     78  C   UNL A   1      40.588  25.625  27.064  1.00  0.00     0.198 A 
ATOM     79  C   UNL A   1      42.056  27.271  26.120  1.00  0.00     0.198 A 
ATOM     80  F   UNL A   1      42.489  29.268  27.287  1.00  0.00    -0.203 F 
ATOM     81  F   UNL A   1      40.003  24.421  27.007  1.00  0.00    -0.200 F 
ATOM     82  C   UNL A   1      41.430  26.036  26.042  1.00  0.00     0.200 A 
ATOM     83  F   UNL A   1      42.855  27.680  25.126  1.00  0.00    -0.200 F 
ATOM     84  F   UNL A   1      41.645  25.239  24.987  1.00  0.00    -0.200 F 
ENDBRANCH  50  74
BRANCH  62  85
ATOM     85  C   UNL A   1      43.993  28.007  34.561  1.00  0.00     0.064 A 
ATOM     86  C   UNL A   1      45.341  28.393  34.514  1.00  0.00     0.173 A 
ATOM     87  C   UNL A   1      43.671  26.823  35.242  1.00  0.00     0.173 A 
ATOM     88  F   UNL A   1      45.703  29.509  33.864  1.00  0.00    -0.203 F 
ATOM     89  C   UNL A   1      46.332  27.598  35.085  1.00  0.00     0.198 A 
ATOM     90  C   UNL A   1      44.661  26.053  35.846  1.00  0.00     0.198 A 
ATOM     91  F   UNL A   1      42.397  26.414  35.327  1.00  0.00    -0.203 F 
ATOM     92  F   UNL A   1      47.619  27.950  34.966  1.00  0.00    -0.200 F 
ATOM     93  C   UNL A   1      45.991  26.434  35.755  1.00  0.00     0.200 A 
ATOM     94  F   UNL A   1      44.328  24.937  36.509  1.00  0.00    -0.200 F 
ATOM     95  F   UNL A   1      46.946  25.671  36.304  1.00  0.00    -0.200 F 
ENDBRANCH  62  85
ENDBRANCH  36  37
ENDBRANCH  28  31
ENDBRANCH  26  27
ENDBRANCH  25  26
ENDBRANCH   1  25
TORSDOF 15
ENDMDL
MODEL 3
REMARK VINA RESULT:     -12.0      5.189     11.067
REMARK SMILES CC[C@H](c1ccc(OC)cc1)[N@H+]1CC[C@H](C(=O)NCCCCNC(=O)c2ccc(-c3c4nc(c(-c5c(F)c(F)c(F)c(F)c5F)c5ccc([nH]5)c(-c5c(F)c(F)c(F)c(F)c5F)c5nc(c(-c6c(F)c(F)c(F)c(F)c6F)c6ccc3[nH]6)C=C5)C=C4)cc2)[C@@H]1C
REMARK SMILES IDX 20 1 19 2 18 3 16 4 17 5 15 7 12 8 13 9 89 10 14 12 90 13
REMARK SMILES IDX 3 14 2 15 1 16 4 17 5 18 11 19 6 20 10 21 7 22 8 23 9 24
REMARK SMILES IDX 21 25 22 26 23 27 24 28 25 30 26 31 27 32 88 33 28 34 87 35
REMARK SMILES IDX 29 36 30 37 31 38 81 39 32 40 86 41 80 42 82 43 33 44 85 45
REMARK SMILES IDX 79 46 78 47 34 49 66 50 46 51 65 52 47 53 50 54 64 55 83 56
REMARK SMILES IDX 48 57 49 58 63 60 84 61 51 62 35 63 36 64 44 65 37 66 38 67
REMARK SMILES IDX 42 68 45 69 39 70 40 71 43 72 41 73 67 74 68 75 76 76 69 77
REMARK SMILES IDX 70 78 74 79 77 80 71 81 72 82 75 83 73 84 52 85 53 86 61 87
REMARK SMILES IDX 54 88 55 89 59 90 62 91 56 92 57 93 60 94 58 95
REMARK H PARENT 18 6 12 11 23 29 82 48 50 59
REMARK Flexibility Score: inf
ROOT
ATOM      1  C   UNL A   1      37.372  21.109  24.621  1.00  0.00     0.023 C 
ENDROOT
BRANCH   1   2
ATOM      2  C   UNL A   1      36.304  21.550  25.626  1.00  0.00     0.116 C 
BRANCH   2   3
ATOM      3  N   UNL A   1      35.189  20.624  25.735  1.00  0.00    -0.356 N 
ATOM      4  C   UNL A   1      33.973  20.651  25.104  1.00  0.00     0.229 C 
ATOM      5  O   UNL A   1      33.207  19.704  25.276  1.00  0.00    -0.275 OA
ATOM      6  H   UNL A   1      35.328  19.868  26.349  1.00  0.00     0.163 HD
BRANCH   4   7
ATOM      7  C   UNL A   1      33.629  21.846  24.231  1.00  0.00     0.142 C 
ATOM      8  N   UNL A   1      32.237  23.780  24.118  1.00  0.00    -0.326 N 
ATOM      9  C   UNL A   1      31.645  22.813  23.203  1.00  0.00     0.264 C 
ATOM     10  C   UNL A   1      33.109  23.042  25.029  1.00  0.00     0.194 C 
ATOM     11  H   UNL A   1      31.497  24.215  24.670  1.00  0.00     0.348 HD
ATOM     12  C   UNL A   1      32.578  21.610  23.152  1.00  0.00     0.081 C 
ATOM     13  C   UNL A   1      32.287  22.719  26.284  1.00  0.00     0.076 C 
BRANCH   8  14
ATOM     14  C   UNL A   1      32.729  25.044  23.548  1.00  0.00     0.215 C 
BRANCH  14  15
ATOM     15  C   UNL A   1      33.847  25.753  24.350  1.00  0.00     0.067 C 
ATOM     16  C   UNL A   1      33.304  26.500  25.565  1.00  0.00     0.010 C 
ENDBRANCH  14  15
BRANCH  14  17
ATOM     17  C   UNL A   1      31.507  25.938  23.270  1.00  0.00     0.010 A 
ATOM     18  C   UNL A   1      31.574  27.061  22.431  1.00  0.00     0.014 A 
ATOM     19  C   UNL A   1      30.322  25.736  23.994  1.00  0.00     0.014 A 
ATOM     20  C   UNL A   1      30.537  27.996  22.395  1.00  0.00     0.047 A 
ATOM     21  C   UNL A   1      29.264  26.654  23.927  1.00  0.00     0.047 A 
ATOM     22  C   UNL A   1      29.381  27.802  23.147  1.00  0.00     0.118 A 
BRANCH  22  23
ATOM     23  O   UNL A   1      28.471  28.818  23.055  1.00  0.00    -0.497 OA
ATOM     24  C   UNL A   1      28.974  30.139  23.192  1.00  0.00     0.278 C 
ENDBRANCH  22  23
ENDBRANCH  14  17
ENDBRANCH   8  14
ENDBRANCH   4   7
ENDBRANCH   2   3
ENDBRANCH   1   2
BRANCH   1  25
ATOM     25  C   UNL A   1      38.163  19.868  25.024  1.00  0.00     0.023 C 
BRANCH  25  26
ATOM     26  C   UNL A   1      39.226  20.133  26.074  1.00  0.00     0.116 C 
BRANCH  26  27
ATOM     27  N   UNL A   1      40.334  19.192  25.989  1.00  0.00    -0.352 N 
ATOM     28  C   UNL A   1      41.682  19.436  26.018  1.00  0.00     0.251 C 
ATOM     29  H   UNL A   1      40.077  18.245  25.897  1.00  0.00     0.163 HD
ATOM     30  O   UNL A   1      42.478  18.547  25.747  1.00  0.00    -0.269 OA
BRANCH  28  31
ATOM     31  C   UNL A   1      42.163  20.788  26.363  1.00  0.00     0.039 A 
ATOM     32  C   UNL A   1      42.321  21.728  25.343  1.00  0.00     0.014 A 
ATOM     33  C   UNL A   1      42.451  21.124  27.688  1.00  0.00     0.014 A 
ATOM     34  C   UNL A   1      42.729  23.020  25.664  1.00  0.00     0.010 A 
ATOM     35  C   UNL A   1      42.754  22.438  28.017  1.00  0.00     0.010 A 
ATOM     36  C   UNL A   1      42.921  23.393  27.006  1.00  0.00    -0.014 A 
BRANCH  36  37
ATOM     37  C   UNL A   1      43.324  24.774  27.359  1.00  0.00     0.031 A 
ATOM     38  C   UNL A   1      44.728  25.242  27.089  1.00  0.00     0.074 A 
ATOM     39  C   UNL A   1      42.430  25.591  27.948  1.00  0.00     0.049 A 
ATOM     40  N   UNL A   1      45.264  26.417  27.306  1.00  0.00    -0.248 NA
ATOM     41  C   UNL A   1      45.665  24.253  26.533  1.00  0.00     0.031 C 
ATOM     42  C   UNL A   1      41.064  25.219  28.322  1.00  0.00     0.029 A 
ATOM     43  N   UNL A   1      42.533  26.903  28.328  1.00  0.00    -0.354 N 
ATOM     44  C   UNL A   1      46.593  26.301  26.921  1.00  0.00     0.074 A 
ATOM     45  C   UNL A   1      46.805  24.926  26.529  1.00  0.00     0.031 C 
ATOM     46  C   UNL A   1      40.442  26.292  28.834  1.00  0.00     0.029 A 
ATOM     47  C   UNL A   1      41.373  27.415  28.855  1.00  0.00     0.049 A 
ATOM     48  H   UNL A   1      43.360  27.429  28.232  1.00  0.00     0.167 HD
ATOM     49  C   UNL A   1      47.542  27.265  26.865  1.00  0.00     0.037 A 
ATOM     50  C   UNL A   1      41.093  28.655  29.295  1.00  0.00     0.037 A 
ATOM     51  C   UNL A   1      47.313  28.637  27.237  1.00  0.00     0.049 A 
ATOM     52  C   UNL A   1      42.162  29.712  29.208  1.00  0.00     0.074 A 
ATOM     53  C   UNL A   1      48.186  29.708  27.169  1.00  0.00     0.029 A 
ATOM     54  N   UNL A   1      46.119  29.123  27.751  1.00  0.00    -0.354 N 
ATOM     55  N   UNL A   1      43.391  29.613  28.760  1.00  0.00    -0.248 NA
ATOM     56  C   UNL A   1      41.797  31.056  29.671  1.00  0.00     0.031 C 
ATOM     57  C   UNL A   1      47.537  30.831  27.692  1.00  0.00     0.029 A 
ATOM     58  C   UNL A   1      46.239  30.476  28.026  1.00  0.00     0.049 A 
ATOM     59  H   UNL A   1      45.308  28.586  27.900  1.00  0.00     0.167 HD
ATOM     60  C   UNL A   1      43.937  30.886  28.860  1.00  0.00     0.074 A 
ATOM     61  C   UNL A   1      42.893  31.743  29.387  1.00  0.00     0.031 C 
ATOM     62  C   UNL A   1      45.187  31.310  28.548  1.00  0.00     0.037 A 
BRANCH  49  63
ATOM     63  C   UNL A   1      48.907  26.869  26.375  1.00  0.00     0.064 A 
ATOM     64  C   UNL A   1      49.284  27.027  25.031  1.00  0.00     0.173 A 
ATOM     65  C   UNL A   1      49.861  26.349  27.263  1.00  0.00     0.173 A 
ATOM     66  F   UNL A   1      48.407  27.505  24.135  1.00  0.00    -0.203 F 
ATOM     67  C   UNL A   1      50.549  26.648  24.590  1.00  0.00     0.198 A 
ATOM     68  C   UNL A   1      51.137  26.005  26.825  1.00  0.00     0.198 A 
ATOM     69  F   UNL A   1      49.557  26.179  28.559  1.00  0.00    -0.203 F 
ATOM     70  F   UNL A   1      50.863  26.754  23.292  1.00  0.00    -0.200 F 
ATOM     71  C   UNL A   1      51.478  26.146  25.489  1.00  0.00     0.200 A 
ATOM     72  F   UNL A   1      52.038  25.532  27.698  1.00  0.00    -0.200 F 
ATOM     73  F   UNL A   1      52.697  25.790  25.064  1.00  0.00    -0.200 F 
ENDBRANCH  49  63
BRANCH  50  74
ATOM     74  C   UNL A   1      39.737  28.976  29.813  1.00  0.00     0.064 A 
ATOM     75  C   UNL A   1      39.430  28.823  31.173  1.00  0.00     0.173 A 
ATOM     76  C   UNL A   1      38.720  29.434  28.962  1.00  0.00     0.173 A 
ATOM     77  F   UNL A   1      40.363  28.374  32.024  1.00  0.00    -0.203 F 
ATOM     78  C   UNL A   1      38.149  29.086  31.656  1.00  0.00     0.198 A 
ATOM     79  C   UNL A   1      37.449  29.728  29.453  1.00  0.00     0.198 A 
ATOM     80  F   UNL A   1      38.964  29.608  27.656  1.00  0.00    -0.203 F 
ATOM     81  F   UNL A   1      37.868  28.879  32.950  1.00  0.00    -0.200 F 
ATOM     82  C   UNL A   1      37.161  29.544  30.797  1.00  0.00     0.200 A 
ATOM     83  F   UNL A   1      36.504  30.188  28.623  1.00  0.00    -0.200 F 
ATOM     84  F   UNL A   1      35.931  29.798  31.262  1.00  0.00    -0.200 F 
ENDBRANCH  50  74
BRANCH  62  85
ATOM     85  C   UNL A   1      45.477  32.773  28.733  1.00  0.00     0.064 A 
ATOM     86  C   UNL A   1      46.020  33.274  29.926  1.00  0.00     0.173 A 
ATOM     87  C   UNL A   1      45.215  33.682  27.697  1.00  0.00     0.173 A 
ATOM     88  F   UNL A   1      46.277  32.449  30.951  1.00  0.00    -0.203 F 
ATOM     89  C   UNL A   1      46.247  34.638  30.089  1.00  0.00     0.198 A 
ATOM     90  C   UNL A   1      45.481  35.039  27.851  1.00  0.00     0.198 A 
ATOM     91  F   UNL A   1      44.707  33.254  26.532  1.00  0.00    -0.203 F 
ATOM     92  F   UNL A   1      46.700  35.103  31.262  1.00  0.00    -0.200 F 
ATOM     93  C   UNL A   1      45.983  35.518  29.051  1.00  0.00     0.200 A 
ATOM     94  F   UNL A   1      45.243  35.886  26.839  1.00  0.00    -0.200 F 
ATOM     95  F   UNL A   1      46.203  36.830  29.211  1.00  0.00    -0.200 F 
ENDBRANCH  62  85
ENDBRANCH  36  37
ENDBRANCH  28  31
ENDBRANCH  26  27
ENDBRANCH  25  26
ENDBRANCH   1  25
TORSDOF 15
ENDMDL
