MODEL 1
REMARK VINA RESULT:     -13.2      0.000      0.000
REMARK SMILES COC(=O)c1c(NC(=O)[C@@H]2C[C@@H]2C(=O)NCCCCNC(=O)c2ccc(-c3c4nc(c(-c5c(F)c(F)c(F)c(F)c5F)c5ccc([nH]5)c(-c5c(F)c(F)c(F)c(F)c5F)c5nc(c(-c6c(F)c(F)c(F)c(F)c6F)c6ccc3[nH]6)C=C5)C=C4)cc2)sc2c1CC[N@@H+](Cc1ccccc1)C2
REMARK SMILES IDX 16 1 15 2 13 3 14 4 12 6 10 7 11 8 8 9 7 10 9 12 6 13 5 14
REMARK SMILES IDX 88 15 86 16 87 17 89 18 99 19 90 20 91 21 3 23 4 24 2 25
REMARK SMILES IDX 1 26 92 27 93 28 94 29 98 30 95 31 97 32 96 33 17 34 18 35
REMARK SMILES IDX 19 36 20 37 21 38 22 40 23 41 24 42 85 43 25 44 84 45 26 46
REMARK SMILES IDX 27 47 28 48 78 49 29 50 83 51 77 52 79 53 30 54 82 55 76 56
REMARK SMILES IDX 75 57 31 59 63 60 43 61 62 62 44 63 47 64 61 65 80 66 45 67
REMARK SMILES IDX 46 68 60 70 81 71 48 72 32 73 33 74 41 75 34 76 35 77 39 78
REMARK SMILES IDX 42 79 36 80 37 81 40 82 38 83 64 84 65 85 73 86 66 87 67 88
REMARK SMILES IDX 71 89 74 90 68 91 69 92 72 93 70 94 49 95 50 96 58 97 51 98
REMARK SMILES IDX 52 99 56 100 59 101 53 102 54 103 57 104 55 105
REMARK H PARENT 15 5 7 11 91 22 20 39 79 58 47 69
REMARK Flexibility Score: inf
ROOT
ATOM      1  C   UNL A   1      39.815  21.351  26.223  1.00  0.00     0.116 C 
ENDROOT
BRANCH   1   2
ATOM      2  N   UNL A   1      39.215  22.665  26.160  1.00  0.00    -0.356 N 
ATOM      3  C   UNL A   1      37.930  23.052  25.900  1.00  0.00     0.223 C 
ATOM      4  O   UNL A   1      37.646  24.234  26.068  1.00  0.00    -0.275 OA
ATOM      5  H   UNL A   1      39.838  23.408  26.333  1.00  0.00     0.163 HD
BRANCH   3   6
ATOM      6  C   UNL A   1      36.847  22.071  25.657  1.00  0.00     0.091 C 
ATOM      7  C   UNL A   1      35.750  22.086  24.629  1.00  0.00     0.092 C 
ATOM      8  C   UNL A   1      35.396  22.350  26.033  1.00  0.00     0.028 C 
BRANCH   7   9
ATOM      9  C   UNL A   1      35.654  23.010  23.494  1.00  0.00     0.228 C 
ATOM     10  N   UNL A   1      34.741  23.963  23.171  1.00  0.00    -0.317 N 
ATOM     11  H   UNL A   1      35.074  24.406  22.357  1.00  0.00     0.170 HD
ATOM     12  O   UNL A   1      36.609  22.953  22.708  1.00  0.00    -0.274 OA
BRANCH  10  13
ATOM     13  C   UNL A   1      33.555  24.572  23.492  1.00  0.00     0.110 A 
ATOM     14  C   UNL A   1      32.528  24.672  24.422  1.00  0.00     0.098 A 
ATOM     15  C   UNL A   1      31.478  25.553  23.929  1.00  0.00    -0.006 A 
ATOM     16  S   UNL A   1      33.264  25.639  22.142  1.00  0.00    -0.116 S 
ATOM     17  C   UNL A   1      31.863  26.266  22.819  1.00  0.00     0.065 A 
ATOM     18  C   UNL A   1      30.152  25.830  24.582  1.00  0.00     0.099 C 
ATOM     19  C   UNL A   1      31.130  27.441  22.243  1.00  0.00     0.310 C 
ATOM     20  C   UNL A   1      29.350  26.914  23.820  1.00  0.00     0.267 C 
ATOM     21  N   UNL A   1      30.133  27.987  23.182  1.00  0.00    -0.326 N 
ATOM     22  H   UNL A   1      29.474  28.515  22.610  1.00  0.00     0.348 HD
BRANCH  14  23
ATOM     23  C   UNL A   1      32.352  24.009  25.696  1.00  0.00     0.341 C 
ATOM     24  O   UNL A   1      32.628  24.553  26.773  1.00  0.00    -0.246 OA
BRANCH  23  25
ATOM     25  O   UNL A   1      31.961  22.718  25.571  1.00  0.00    -0.465 OA
ATOM     26  C   UNL A   1      30.626  22.433  26.002  1.00  0.00     0.282 C 
ENDBRANCH  23  25
ENDBRANCH  14  23
BRANCH  21  27
ATOM     27  C   UNL A   1      30.614  29.047  24.084  1.00  0.00     0.299 C 
BRANCH  27  28
ATOM     28  C   UNL A   1      31.719  28.714  25.064  1.00  0.00     0.006 A 
ATOM     29  C   UNL A   1      33.067  28.872  24.705  1.00  0.00     0.009 A 
ATOM     30  C   UNL A   1      31.421  28.269  26.360  1.00  0.00     0.009 A 
ATOM     31  C   UNL A   1      34.083  28.672  25.643  1.00  0.00     0.001 A 
ATOM     32  C   UNL A   1      32.435  28.082  27.297  1.00  0.00     0.001 A 
ATOM     33  C   UNL A   1      33.764  28.295  26.944  1.00  0.00     0.000 A 
ENDBRANCH  27  28
ENDBRANCH  21  27
ENDBRANCH  10  13
ENDBRANCH   7   9
ENDBRANCH   3   6
ENDBRANCH   1   2
BRANCH   1  34
ATOM     34  C   UNL A   1      40.851  21.260  27.347  1.00  0.00     0.023 C 
BRANCH  34  35
ATOM     35  C   UNL A   1      42.044  20.322  27.156  1.00  0.00     0.023 C 
BRANCH  35  36
ATOM     36  C   UNL A   1      42.230  19.773  25.751  1.00  0.00     0.116 C 
BRANCH  36  37
ATOM     37  N   UNL A   1      43.625  19.474  25.407  1.00  0.00    -0.352 N 
ATOM     38  C   UNL A   1      44.593  20.356  24.953  1.00  0.00     0.251 C 
ATOM     39  H   UNL A   1      43.905  18.536  25.510  1.00  0.00     0.163 HD
ATOM     40  O   UNL A   1      45.575  19.978  24.328  1.00  0.00    -0.269 OA
BRANCH  38  41
ATOM     41  C   UNL A   1      44.421  21.778  25.283  1.00  0.00     0.039 A 
ATOM     42  C   UNL A   1      43.453  22.591  24.693  1.00  0.00     0.014 A 
ATOM     43  C   UNL A   1      45.222  22.248  26.316  1.00  0.00     0.014 A 
ATOM     44  C   UNL A   1      43.248  23.862  25.228  1.00  0.00     0.010 A 
ATOM     45  C   UNL A   1      44.845  23.369  26.990  1.00  0.00     0.010 A 
ATOM     46  C   UNL A   1      43.937  24.228  26.397  1.00  0.00    -0.014 A 
BRANCH  46  47
ATOM     47  C   UNL A   1      43.691  25.479  27.090  1.00  0.00     0.031 A 
ATOM     48  C   UNL A   1      44.609  26.580  26.718  1.00  0.00     0.074 A 
ATOM     49  C   UNL A   1      42.589  25.680  27.846  1.00  0.00     0.049 A 
ATOM     50  N   UNL A   1      45.563  27.058  27.441  1.00  0.00    -0.248 NA
ATOM     51  C   UNL A   1      44.580  27.106  25.346  1.00  0.00     0.031 C 
ATOM     52  C   UNL A   1      41.428  24.805  28.056  1.00  0.00     0.029 A 
ATOM     53  N   UNL A   1      42.241  26.794  28.541  1.00  0.00    -0.354 N 
ATOM     54  C   UNL A   1      46.134  28.086  26.700  1.00  0.00     0.074 A 
ATOM     55  C   UNL A   1      45.621  27.944  25.363  1.00  0.00     0.031 C 
ATOM     56  C   UNL A   1      40.424  25.505  28.628  1.00  0.00     0.029 A 
ATOM     57  C   UNL A   1      40.924  26.818  28.984  1.00  0.00     0.049 A 
ATOM     58  H   UNL A   1      42.873  27.527  28.719  1.00  0.00     0.167 HD
ATOM     59  C   UNL A   1      46.795  29.099  27.328  1.00  0.00     0.037 A 
ATOM     60  C   UNL A   1      40.303  27.870  29.577  1.00  0.00     0.037 A 
ATOM     61  C   UNL A   1      47.048  28.761  28.710  1.00  0.00     0.049 A 
ATOM     62  C   UNL A   1      41.377  28.745  30.123  1.00  0.00     0.074 A 
ATOM     63  C   UNL A   1      47.746  27.750  29.344  1.00  0.00     0.029 A 
ATOM     64  N   UNL A   1      46.192  29.271  29.658  1.00  0.00    -0.354 N 
ATOM     65  N   UNL A   1      42.159  28.390  31.107  1.00  0.00    -0.248 NA
ATOM     66  C   UNL A   1      41.907  29.783  29.249  1.00  0.00     0.031 C 
ATOM     67  C   UNL A   1      46.926  27.377  30.450  1.00  0.00     0.029 A 
ATOM     68  C   UNL A   1      45.830  28.240  30.486  1.00  0.00     0.049 A 
ATOM     69  H   UNL A   1      45.894  30.207  29.729  1.00  0.00     0.167 HD
ATOM     70  C   UNL A   1      43.422  28.816  30.724  1.00  0.00     0.074 A 
ATOM     71  C   UNL A   1      43.194  29.728  29.602  1.00  0.00     0.031 C 
ATOM     72  C   UNL A   1      44.545  28.159  31.140  1.00  0.00     0.037 A 
BRANCH  59  73
ATOM     73  C   UNL A   1      46.881  30.523  26.842  1.00  0.00     0.064 A 
ATOM     74  C   UNL A   1      48.125  31.186  26.908  1.00  0.00     0.173 A 
ATOM     75  C   UNL A   1      45.762  31.352  26.617  1.00  0.00     0.173 A 
ATOM     76  F   UNL A   1      49.257  30.497  27.118  1.00  0.00    -0.203 F 
ATOM     77  C   UNL A   1      48.224  32.578  26.862  1.00  0.00     0.198 A 
ATOM     78  C   UNL A   1      45.873  32.739  26.517  1.00  0.00     0.198 A 
ATOM     79  F   UNL A   1      44.512  30.878  26.598  1.00  0.00    -0.203 F 
ATOM     80  F   UNL A   1      49.409  33.167  27.070  1.00  0.00    -0.200 F 
ATOM     81  C   UNL A   1      47.096  33.354  26.677  1.00  0.00     0.200 A 
ATOM     82  F   UNL A   1      44.765  33.474  26.351  1.00  0.00    -0.200 F 
ATOM     83  F   UNL A   1      47.177  34.690  26.701  1.00  0.00    -0.200 F 
ENDBRANCH  59  73
BRANCH  60  84
ATOM     84  C   UNL A   1      38.908  28.339  29.385  1.00  0.00     0.064 A 
ATOM     85  C   UNL A   1      38.067  28.566  30.488  1.00  0.00     0.173 A 
ATOM     86  C   UNL A   1      38.468  28.858  28.150  1.00  0.00     0.173 A 
ATOM     87  F   UNL A   1      38.424  28.138  31.707  1.00  0.00    -0.203 F 
ATOM     88  C   UNL A   1      36.884  29.306  30.371  1.00  0.00     0.198 A 
ATOM     89  C   UNL A   1      37.286  29.591  28.035  1.00  0.00     0.198 A 
ATOM     90  F   UNL A   1      39.224  28.749  27.048  1.00  0.00    -0.203 F 
ATOM     91  F   UNL A   1      36.146  29.563  31.461  1.00  0.00    -0.200 F 
ATOM     92  C   UNL A   1      36.502  29.831  29.148  1.00  0.00     0.200 A 
ATOM     93  F   UNL A   1      36.946  30.123  26.851  1.00  0.00    -0.200 F 
ATOM     94  F   UNL A   1      35.409  30.600  29.050  1.00  0.00    -0.200 F 
ENDBRANCH  60  84
BRANCH  72  95
ATOM     95  C   UNL A   1      44.400  27.118  32.217  1.00  0.00     0.064 A 
ATOM     96  C   UNL A   1      44.216  25.745  31.977  1.00  0.00     0.173 A 
ATOM     97  C   UNL A   1      44.613  27.511  33.545  1.00  0.00     0.173 A 
ATOM     98  F   UNL A   1      44.109  25.269  30.731  1.00  0.00    -0.203 F 
ATOM     99  C   UNL A   1      44.201  24.821  33.021  1.00  0.00     0.198 A 
ATOM    100  C   UNL A   1      44.635  26.583  34.582  1.00  0.00     0.198 A 
ATOM    101  F   UNL A   1      44.852  28.801  33.833  1.00  0.00    -0.203 F 
ATOM    102  F   UNL A   1      44.012  23.517  32.764  1.00  0.00    -0.200 F 
ATOM    103  C   UNL A   1      44.418  25.240  34.322  1.00  0.00     0.200 A 
ATOM    104  F   UNL A   1      44.896  26.990  35.832  1.00  0.00    -0.200 F 
ATOM    105  F   UNL A   1      44.443  24.349  35.323  1.00  0.00    -0.200 F 
ENDBRANCH  72  95
ENDBRANCH  46  47
ENDBRANCH  38  41
ENDBRANCH  36  37
ENDBRANCH  35  36
ENDBRANCH  34  35
ENDBRANCH   1  34
TORSDOF 17
ENDMDL
MODEL 2
REMARK VINA RESULT:     -13.1      1.240      2.044
REMARK SMILES COC(=O)c1c(NC(=O)[C@@H]2C[C@@H]2C(=O)NCCCCNC(=O)c2ccc(-c3c4nc(c(-c5c(F)c(F)c(F)c(F)c5F)c5ccc([nH]5)c(-c5c(F)c(F)c(F)c(F)c5F)c5nc(c(-c6c(F)c(F)c(F)c(F)c6F)c6ccc3[nH]6)C=C5)C=C4)cc2)sc2c1CC[N@@H+](Cc1ccccc1)C2
REMARK SMILES IDX 16 1 15 2 13 3 14 4 12 6 10 7 11 8 8 9 7 10 9 12 6 13 5 14
REMARK SMILES IDX 88 15 86 16 87 17 89 18 99 19 90 20 91 21 3 23 4 24 2 25
REMARK SMILES IDX 1 26 92 27 93 28 94 29 98 30 95 31 97 32 96 33 17 34 18 35
REMARK SMILES IDX 19 36 20 37 21 38 22 40 23 41 24 42 85 43 25 44 84 45 26 46
REMARK SMILES IDX 27 47 28 48 78 49 29 50 83 51 77 52 79 53 30 54 82 55 76 56
REMARK SMILES IDX 75 57 31 59 63 60 43 61 62 62 44 63 47 64 61 65 80 66 45 67
REMARK SMILES IDX 46 68 60 70 81 71 48 72 32 73 33 74 41 75 34 76 35 77 39 78
REMARK SMILES IDX 42 79 36 80 37 81 40 82 38 83 64 84 65 85 73 86 66 87 67 88
REMARK SMILES IDX 71 89 74 90 68 91 69 92 72 93 70 94 49 95 50 96 58 97 51 98
REMARK SMILES IDX 52 99 56 100 59 101 53 102 54 103 57 104 55 105
REMARK H PARENT 15 5 7 11 91 22 20 39 79 58 47 69
REMARK Flexibility Score: inf
ROOT
ATOM      1  C   UNL A   1      39.954  21.439  26.479  1.00  0.00     0.116 C 
ENDROOT
BRANCH   1   2
ATOM      2  N   UNL A   1      39.277  22.697  26.703  1.00  0.00    -0.356 N 
ATOM      3  C   UNL A   1      38.166  23.233  26.115  1.00  0.00     0.223 C 
ATOM      4  O   UNL A   1      37.699  24.256  26.606  1.00  0.00    -0.275 OA
ATOM      5  H   UNL A   1      39.686  23.264  27.396  1.00  0.00     0.163 HD
BRANCH   3   6
ATOM      6  C   UNL A   1      37.393  22.506  25.082  1.00  0.00     0.091 C 
ATOM      7  C   UNL A   1      35.919  22.214  25.012  1.00  0.00     0.092 C 
ATOM      8  C   UNL A   1      36.840  21.105  25.312  1.00  0.00     0.028 C 
BRANCH   7   9
ATOM      9  C   UNL A   1      34.892  22.785  25.888  1.00  0.00     0.228 C 
ATOM     10  N   UNL A   1      34.023  23.817  25.718  1.00  0.00    -0.317 N 
ATOM     11  H   UNL A   1      33.455  23.840  26.523  1.00  0.00     0.170 HD
ATOM     12  O   UNL A   1      34.746  22.187  26.961  1.00  0.00    -0.274 OA
BRANCH  10  13
ATOM     13  C   UNL A   1      33.599  24.840  24.910  1.00  0.00     0.110 A 
ATOM     14  C   UNL A   1      33.125  25.191  23.652  1.00  0.00     0.098 A 
ATOM     15  C   UNL A   1      33.000  26.637  23.539  1.00  0.00    -0.006 A 
ATOM     16  S   UNL A   1      33.742  26.252  25.925  1.00  0.00    -0.116 S 
ATOM     17  C   UNL A   1      33.117  27.274  24.751  1.00  0.00     0.065 A 
ATOM     18  C   UNL A   1      32.634  27.419  22.308  1.00  0.00     0.099 C 
ATOM     19  C   UNL A   1      32.766  28.709  25.017  1.00  0.00     0.310 C 
ATOM     20  C   UNL A   1      32.483  28.930  22.608  1.00  0.00     0.267 C 
ATOM     21  N   UNL A   1      31.952  29.290  23.935  1.00  0.00    -0.326 N 
ATOM     22  H   UNL A   1      32.061  30.300  24.018  1.00  0.00     0.348 HD
BRANCH  14  23
ATOM     23  C   UNL A   1      32.825  24.365  22.502  1.00  0.00     0.341 C 
ATOM     24  O   UNL A   1      33.306  24.581  21.382  1.00  0.00    -0.246 OA
BRANCH  23  25
ATOM     25  O   UNL A   1      31.894  23.415  22.762  1.00  0.00    -0.465 OA
ATOM     26  C   UNL A   1      30.650  23.896  23.283  1.00  0.00     0.282 C 
ENDBRANCH  23  25
ENDBRANCH  14  23
BRANCH  21  27
ATOM     27  C   UNL A   1      30.493  29.165  24.090  1.00  0.00     0.299 C 
BRANCH  27  28
ATOM     28  C   UNL A   1      29.601  30.126  23.333  1.00  0.00     0.006 A 
ATOM     29  C   UNL A   1      29.237  31.361  23.894  1.00  0.00     0.009 A 
ATOM     30  C   UNL A   1      29.142  29.818  22.045  1.00  0.00     0.009 A 
ATOM     31  C   UNL A   1      28.507  32.294  23.154  1.00  0.00     0.001 A 
ATOM     32  C   UNL A   1      28.425  30.755  21.303  1.00  0.00     0.001 A 
ATOM     33  C   UNL A   1      28.118  31.996  21.852  1.00  0.00     0.000 A 
ENDBRANCH  27  28
ENDBRANCH  21  27
ENDBRANCH  10  13
ENDBRANCH   7   9
ENDBRANCH   3   6
ENDBRANCH   1   2
BRANCH   1  34
ATOM     34  C   UNL A   1      41.013  21.172  27.552  1.00  0.00     0.023 C 
BRANCH  34  35
ATOM     35  C   UNL A   1      42.148  20.201  27.221  1.00  0.00     0.023 C 
BRANCH  35  36
ATOM     36  C   UNL A   1      42.309  19.854  25.750  1.00  0.00     0.116 C 
BRANCH  36  37
ATOM     37  N   UNL A   1      43.688  19.540  25.359  1.00  0.00    -0.352 N 
ATOM     38  C   UNL A   1      44.654  20.414  24.884  1.00  0.00     0.251 C 
ATOM     39  H   UNL A   1      43.959  18.597  25.442  1.00  0.00     0.163 HD
ATOM     40  O   UNL A   1      45.610  20.030  24.225  1.00  0.00    -0.269 OA
BRANCH  38  41
ATOM     41  C   UNL A   1      44.512  21.835  25.235  1.00  0.00     0.039 A 
ATOM     42  C   UNL A   1      43.621  22.698  24.597  1.00  0.00     0.014 A 
ATOM     43  C   UNL A   1      45.253  22.250  26.334  1.00  0.00     0.014 A 
ATOM     44  C   UNL A   1      43.426  23.964  25.147  1.00  0.00     0.010 A 
ATOM     45  C   UNL A   1      44.871  23.370  27.007  1.00  0.00     0.010 A 
ATOM     46  C   UNL A   1      44.042  24.278  26.371  1.00  0.00    -0.014 A 
BRANCH  46  47
ATOM     47  C   UNL A   1      43.793  25.521  27.075  1.00  0.00     0.031 A 
ATOM     48  C   UNL A   1      44.714  26.626  26.717  1.00  0.00     0.074 A 
ATOM     49  C   UNL A   1      42.689  25.716  27.829  1.00  0.00     0.049 A 
ATOM     50  N   UNL A   1      45.665  27.096  27.448  1.00  0.00    -0.248 NA
ATOM     51  C   UNL A   1      44.691  27.165  25.350  1.00  0.00     0.031 C 
ATOM     52  C   UNL A   1      41.527  24.840  28.026  1.00  0.00     0.029 A 
ATOM     53  N   UNL A   1      42.338  26.824  28.533  1.00  0.00    -0.354 N 
ATOM     54  C   UNL A   1      46.240  28.132  26.719  1.00  0.00     0.074 A 
ATOM     55  C   UNL A   1      45.732  28.002  25.378  1.00  0.00     0.031 C 
ATOM     56  C   UNL A   1      40.520  25.535  28.600  1.00  0.00     0.029 A 
ATOM     57  C   UNL A   1      41.020  26.845  28.971  1.00  0.00     0.049 A 
ATOM     58  H   UNL A   1      42.970  27.555  28.719  1.00  0.00     0.167 HD
ATOM     59  C   UNL A   1      46.898  29.138  27.360  1.00  0.00     0.037 A 
ATOM     60  C   UNL A   1      40.397  27.891  29.571  1.00  0.00     0.037 A 
ATOM     61  C   UNL A   1      47.146  28.787  28.740  1.00  0.00     0.049 A 
ATOM     62  C   UNL A   1      41.469  28.760  30.130  1.00  0.00     0.074 A 
ATOM     63  C   UNL A   1      47.841  27.770  29.367  1.00  0.00     0.029 A 
ATOM     64  N   UNL A   1      46.286  29.289  29.688  1.00  0.00    -0.354 N 
ATOM     65  N   UNL A   1      42.247  28.396  31.113  1.00  0.00    -0.248 NA
ATOM     66  C   UNL A   1      42.003  29.806  29.267  1.00  0.00     0.031 C 
ATOM     67  C   UNL A   1      47.016  27.387  30.466  1.00  0.00     0.029 A 
ATOM     68  C   UNL A   1      45.920  28.249  30.505  1.00  0.00     0.049 A 
ATOM     69  H   UNL A   1      45.988  30.224  29.767  1.00  0.00     0.167 HD
ATOM     70  C   UNL A   1      43.512  28.825  30.740  1.00  0.00     0.074 A 
ATOM     71  C   UNL A   1      43.289  29.747  29.625  1.00  0.00     0.031 C 
ATOM     72  C   UNL A   1      44.633  28.163  31.154  1.00  0.00     0.037 A 
BRANCH  59  73
ATOM     73  C   UNL A   1      46.987  30.567  26.887  1.00  0.00     0.064 A 
ATOM     74  C   UNL A   1      48.234  31.223  26.949  1.00  0.00     0.173 A 
ATOM     75  C   UNL A   1      45.870  31.403  26.680  1.00  0.00     0.173 A 
ATOM     76  F   UNL A   1      49.365  30.526  27.142  1.00  0.00    -0.203 F 
ATOM     77  C   UNL A   1      48.340  32.615  26.916  1.00  0.00     0.198 A 
ATOM     78  C   UNL A   1      45.986  32.790  26.593  1.00  0.00     0.198 A 
ATOM     79  F   UNL A   1      44.618  30.935  26.667  1.00  0.00    -0.203 F 
ATOM     80  F   UNL A   1      49.529  33.197  27.120  1.00  0.00    -0.200 F 
ATOM     81  C   UNL A   1      47.214  33.398  26.749  1.00  0.00     0.200 A 
ATOM     82  F   UNL A   1      44.880  33.532  26.444  1.00  0.00    -0.200 F 
ATOM     83  F   UNL A   1      47.301  34.734  26.786  1.00  0.00    -0.200 F 
ENDBRANCH  59  73
BRANCH  60  84
ATOM     84  C   UNL A   1      39.003  28.363  29.378  1.00  0.00     0.064 A 
ATOM     85  C   UNL A   1      38.148  28.552  30.477  1.00  0.00     0.173 A 
ATOM     86  C   UNL A   1      38.576  28.920  28.155  1.00  0.00     0.173 A 
ATOM     87  F   UNL A   1      38.493  28.086  31.687  1.00  0.00    -0.203 F 
ATOM     88  C   UNL A   1      36.965  29.292  30.371  1.00  0.00     0.198 A 
ATOM     89  C   UNL A   1      37.393  29.653  28.050  1.00  0.00     0.198 A 
ATOM     90  F   UNL A   1      39.345  28.848  27.059  1.00  0.00    -0.203 F 
ATOM     91  F   UNL A   1      36.214  29.512  31.459  1.00  0.00    -0.200 F 
ATOM     92  C   UNL A   1      36.596  29.855  29.161  1.00  0.00     0.200 A 
ATOM     93  F   UNL A   1      37.066  30.222  26.880  1.00  0.00    -0.200 F 
ATOM     94  F   UNL A   1      35.502  30.625  29.075  1.00  0.00    -0.200 F 
ENDBRANCH  60  84
BRANCH  72  95
ATOM     95  C   UNL A   1      44.484  27.113  32.220  1.00  0.00     0.064 A 
ATOM     96  C   UNL A   1      44.286  25.744  31.966  1.00  0.00     0.173 A 
ATOM     97  C   UNL A   1      44.705  27.489  33.551  1.00  0.00     0.173 A 
ATOM     98  F   UNL A   1      44.170  25.282  30.716  1.00  0.00    -0.203 F 
ATOM     99  C   UNL A   1      44.267  24.808  33.000  1.00  0.00     0.198 A 
ATOM    100  C   UNL A   1      44.724  26.550  34.578  1.00  0.00     0.198 A 
ATOM    101  F   UNL A   1      44.957  28.774  33.851  1.00  0.00    -0.203 F 
ATOM    102  F   UNL A   1      44.065  23.509  32.730  1.00  0.00    -0.200 F 
ATOM    103  C   UNL A   1      44.493  25.212  34.305  1.00  0.00     0.200 A 
ATOM    104  F   UNL A   1      44.994  26.942  35.831  1.00  0.00    -0.200 F 
ATOM    105  F   UNL A   1      44.515  24.310  35.296  1.00  0.00    -0.200 F 
ENDBRANCH  72  95
ENDBRANCH  46  47
ENDBRANCH  38  41
ENDBRANCH  36  37
ENDBRANCH  35  36
ENDBRANCH  34  35
ENDBRANCH   1  34
TORSDOF 17
ENDMDL
MODEL 3
REMARK VINA RESULT:     -12.5      1.917      6.341
REMARK SMILES COC(=O)c1c(NC(=O)[C@@H]2C[C@@H]2C(=O)NCCCCNC(=O)c2ccc(-c3c4nc(c(-c5c(F)c(F)c(F)c(F)c5F)c5ccc([nH]5)c(-c5c(F)c(F)c(F)c(F)c5F)c5nc(c(-c6c(F)c(F)c(F)c(F)c6F)c6ccc3[nH]6)C=C5)C=C4)cc2)sc2c1CC[N@@H+](Cc1ccccc1)C2
REMARK SMILES IDX 16 1 15 2 13 3 14 4 12 6 10 7 11 8 8 9 7 10 9 12 6 13 5 14
REMARK SMILES IDX 88 15 86 16 87 17 89 18 99 19 90 20 91 21 3 23 4 24 2 25
REMARK SMILES IDX 1 26 92 27 93 28 94 29 98 30 95 31 97 32 96 33 17 34 18 35
REMARK SMILES IDX 19 36 20 37 21 38 22 40 23 41 24 42 85 43 25 44 84 45 26 46
REMARK SMILES IDX 27 47 28 48 78 49 29 50 83 51 77 52 79 53 30 54 82 55 76 56
REMARK SMILES IDX 75 57 31 59 63 60 43 61 62 62 44 63 47 64 61 65 80 66 45 67
REMARK SMILES IDX 46 68 60 70 81 71 48 72 32 73 33 74 41 75 34 76 35 77 39 78
REMARK SMILES IDX 42 79 36 80 37 81 40 82 38 83 64 84 65 85 73 86 66 87 67 88
REMARK SMILES IDX 71 89 74 90 68 91 69 92 72 93 70 94 49 95 50 96 58 97 51 98
REMARK SMILES IDX 52 99 56 100 59 101 53 102 54 103 57 104 55 105
REMARK H PARENT 15 5 7 11 91 22 20 39 79 58 47 69
REMARK Flexibility Score: inf
ROOT
ATOM      1  C   UNL A   1      38.068  23.304  25.744  1.00  0.00     0.116 C 
ENDROOT
BRANCH   1   2
ATOM      2  N   UNL A   1      36.743  23.315  26.323  1.00  0.00    -0.356 N 
ATOM      3  C   UNL A   1      35.611  22.629  25.982  1.00  0.00     0.223 C 
ATOM      4  O   UNL A   1      34.651  22.698  26.744  1.00  0.00    -0.275 OA
ATOM      5  H   UNL A   1      36.638  23.919  27.094  1.00  0.00     0.163 HD
BRANCH   3   6
ATOM      6  C   UNL A   1      35.590  21.644  24.876  1.00  0.00     0.091 C 
ATOM      7  C   UNL A   1      34.498  20.702  24.448  1.00  0.00     0.092 C 
ATOM      8  C   UNL A   1      35.684  20.142  25.119  1.00  0.00     0.028 C 
BRANCH   7   9
ATOM      9  C   UNL A   1      33.117  20.716  24.939  1.00  0.00     0.228 C 
ATOM     10  N   UNL A   1      32.162  21.683  24.940  1.00  0.00    -0.317 N 
ATOM     11  H   UNL A   1      31.346  21.271  25.307  1.00  0.00     0.170 HD
ATOM     12  O   UNL A   1      32.723  19.632  25.386  1.00  0.00    -0.274 OA
BRANCH  10  13
ATOM     13  C   UNL A   1      31.847  22.986  24.651  1.00  0.00     0.110 A 
ATOM     14  C   UNL A   1      31.376  24.194  25.151  1.00  0.00     0.098 A 
ATOM     15  C   UNL A   1      31.214  25.162  24.075  1.00  0.00    -0.006 A 
ATOM     16  S   UNL A   1      32.190  23.122  22.945  1.00  0.00    -0.116 S 
ATOM     17  C   UNL A   1      31.801  24.754  22.902  1.00  0.00     0.065 A 
ATOM     18  C   UNL A   1      30.621  26.540  24.183  1.00  0.00     0.099 C 
ATOM     19  C   UNL A   1      32.050  25.623  21.705  1.00  0.00     0.310 C 
ATOM     20  C   UNL A   1      30.728  27.319  22.849  1.00  0.00     0.267 C 
ATOM     21  N   UNL A   1      31.921  27.056  22.024  1.00  0.00    -0.326 N 
ATOM     22  H   UNL A   1      31.758  27.525  21.134  1.00  0.00     0.348 HD
BRANCH  14  23
ATOM     23  C   UNL A   1      30.994  24.564  26.496  1.00  0.00     0.341 C 
ATOM     24  O   UNL A   1      30.970  25.739  26.883  1.00  0.00    -0.246 OA
BRANCH  23  25
ATOM     25  O   UNL A   1      30.774  23.493  27.297  1.00  0.00    -0.465 OA
ATOM     26  C   UNL A   1      29.449  22.952  27.253  1.00  0.00     0.282 C 
ENDBRANCH  23  25
ENDBRANCH  14  23
BRANCH  21  27
ATOM     27  C   UNL A   1      33.155  27.731  22.460  1.00  0.00     0.299 C 
BRANCH  27  28
ATOM     28  C   UNL A   1      33.304  28.091  23.923  1.00  0.00     0.006 A 
ATOM     29  C   UNL A   1      32.839  29.324  24.409  1.00  0.00     0.009 A 
ATOM     30  C   UNL A   1      33.880  27.192  24.830  1.00  0.00     0.009 A 
ATOM     31  C   UNL A   1      32.874  29.612  25.775  1.00  0.00     0.001 A 
ATOM     32  C   UNL A   1      33.902  27.475  26.195  1.00  0.00     0.001 A 
ATOM     33  C   UNL A   1      33.390  28.678  26.669  1.00  0.00     0.000 A 
ENDBRANCH  27  28
ENDBRANCH  21  27
ENDBRANCH  10  13
ENDBRANCH   7   9
ENDBRANCH   3   6
ENDBRANCH   1   2
BRANCH   1  34
ATOM     34  C   UNL A   1      38.970  22.271  26.425  1.00  0.00     0.023 C 
BRANCH  34  35
ATOM     35  C   UNL A   1      39.445  21.072  25.601  1.00  0.00     0.023 C 
BRANCH  35  36
ATOM     36  C   UNL A   1      39.877  19.855  26.401  1.00  0.00     0.116 C 
BRANCH  36  37
ATOM     37  N   UNL A   1      41.115  19.232  25.917  1.00  0.00    -0.352 N 
ATOM     38  C   UNL A   1      42.320  19.854  25.629  1.00  0.00     0.251 C 
ATOM     39  H   UNL A   1      41.086  18.258  25.781  1.00  0.00     0.163 HD
ATOM     40  O   UNL A   1      43.147  19.355  24.878  1.00  0.00    -0.269 OA
BRANCH  38  41
ATOM     41  C   UNL A   1      42.595  21.137  26.293  1.00  0.00     0.039 A 
ATOM     42  C   UNL A   1      42.786  22.334  25.602  1.00  0.00     0.014 A 
ATOM     43  C   UNL A   1      42.543  21.109  27.680  1.00  0.00     0.014 A 
ATOM     44  C   UNL A   1      42.835  23.517  26.338  1.00  0.00     0.010 A 
ATOM     45  C   UNL A   1      42.332  22.269  28.360  1.00  0.00     0.010 A 
ATOM     46  C   UNL A   1      42.580  23.470  27.720  1.00  0.00    -0.014 A 
BRANCH  46  47
ATOM     47  C   UNL A   1      42.487  24.665  28.538  1.00  0.00     0.031 A 
ATOM     48  C   UNL A   1      41.227  25.425  28.375  1.00  0.00     0.074 A 
ATOM     49  C   UNL A   1      43.377  24.940  29.517  1.00  0.00     0.049 A 
ATOM     50  N   UNL A   1      41.086  26.553  27.768  1.00  0.00    -0.248 NA
ATOM     51  C   UNL A   1      39.957  24.807  28.783  1.00  0.00     0.031 C 
ATOM     52  C   UNL A   1      44.495  24.130  30.017  1.00  0.00     0.029 A 
ATOM     53  N   UNL A   1      43.403  26.014  30.348  1.00  0.00    -0.354 N 
ATOM     54  C   UNL A   1      39.744  26.895  27.887  1.00  0.00     0.074 A 
ATOM     55  C   UNL A   1      39.072  25.708  28.347  1.00  0.00     0.031 C 
ATOM     56  C   UNL A   1      44.934  24.631  31.193  1.00  0.00     0.029 A 
ATOM     57  C   UNL A   1      44.254  25.887  31.440  1.00  0.00     0.049 A 
ATOM     58  H   UNL A   1      42.861  26.820  30.190  1.00  0.00     0.167 HD
ATOM     59  C   UNL A   1      39.360  28.201  27.819  1.00  0.00     0.037 A 
ATOM     60  C   UNL A   1      44.354  26.758  32.476  1.00  0.00     0.037 A 
ATOM     61  C   UNL A   1      40.439  29.023  27.320  1.00  0.00     0.049 A 
ATOM     62  C   UNL A   1      43.816  28.059  31.992  1.00  0.00     0.074 A 
ATOM     63  C   UNL A   1      41.169  29.050  26.146  1.00  0.00     0.029 A 
ATOM     64  N   UNL A   1      41.193  29.712  28.241  1.00  0.00    -0.354 N 
ATOM     65  N   UNL A   1      44.398  28.776  31.069  1.00  0.00    -0.248 NA
ATOM     66  C   UNL A   1      42.390  28.301  32.162  1.00  0.00     0.031 C 
ATOM     67  C   UNL A   1      42.513  29.294  26.556  1.00  0.00     0.029 A 
ATOM     68  C   UNL A   1      42.513  29.499  27.936  1.00  0.00     0.049 A 
ATOM     69  H   UNL A   1      40.848  30.258  28.984  1.00  0.00     0.167 HD
ATOM     70  C   UNL A   1      43.363  29.214  30.257  1.00  0.00     0.074 A 
ATOM     71  C   UNL A   1      42.142  28.947  31.019  1.00  0.00     0.031 C 
ATOM     72  C   UNL A   1      43.562  29.462  28.928  1.00  0.00     0.037 A 
BRANCH  59  73
ATOM     73  C   UNL A   1      38.183  28.807  28.539  1.00  0.00     0.064 A 
ATOM     74  C   UNL A   1      37.357  29.713  27.840  1.00  0.00     0.173 A 
ATOM     75  C   UNL A   1      38.015  28.788  29.939  1.00  0.00     0.173 A 
ATOM     76  F   UNL A   1      37.430  29.815  26.504  1.00  0.00    -0.203 F 
ATOM     77  C   UNL A   1      36.510  30.604  28.502  1.00  0.00     0.198 A 
ATOM     78  C   UNL A   1      37.129  29.643  30.593  1.00  0.00     0.198 A 
ATOM     79  F   UNL A   1      38.773  28.033  30.740  1.00  0.00    -0.203 F 
ATOM     80  F   UNL A   1      35.852  31.539  27.806  1.00  0.00    -0.200 F 
ATOM     81  C   UNL A   1      36.405  30.576  29.881  1.00  0.00     0.200 A 
ATOM     82  F   UNL A   1      37.052  29.609  31.930  1.00  0.00    -0.200 F 
ATOM     83  F   UNL A   1      35.649  31.474  30.524  1.00  0.00    -0.200 F 
ENDBRANCH  59  73
BRANCH  60  84
ATOM     84  C   UNL A   1      44.533  26.452  33.918  1.00  0.00     0.064 A 
ATOM     85  C   UNL A   1      43.464  25.962  34.688  1.00  0.00     0.173 A 
ATOM     86  C   UNL A   1      45.814  26.348  34.495  1.00  0.00     0.173 A 
ATOM     87  F   UNL A   1      42.214  25.990  34.202  1.00  0.00    -0.203 F 
ATOM     88  C   UNL A   1      43.670  25.364  35.937  1.00  0.00     0.198 A 
ATOM     89  C   UNL A   1      46.017  25.755  35.743  1.00  0.00     0.198 A 
ATOM     90  F   UNL A   1      46.908  26.730  33.820  1.00  0.00    -0.203 F 
ATOM     91  F   UNL A   1      42.633  24.843  36.608  1.00  0.00    -0.200 F 
ATOM     92  C   UNL A   1      44.948  25.247  36.456  1.00  0.00     0.200 A 
ATOM     93  F   UNL A   1      47.265  25.617  36.218  1.00  0.00    -0.200 F 
ATOM     94  F   UNL A   1      45.155  24.609  37.616  1.00  0.00    -0.200 F 
ENDBRANCH  60  84
BRANCH  72  95
ATOM     95  C   UNL A   1      44.977  29.488  28.416  1.00  0.00     0.064 A 
ATOM     96  C   UNL A   1      45.660  28.369  27.910  1.00  0.00     0.173 A 
ATOM     97  C   UNL A   1      45.609  30.732  28.292  1.00  0.00     0.173 A 
ATOM     98  F   UNL A   1      45.090  27.159  27.893  1.00  0.00    -0.203 F 
ATOM     99  C   UNL A   1      46.932  28.487  27.349  1.00  0.00     0.198 A 
ATOM    100  C   UNL A   1      46.861  30.855  27.697  1.00  0.00     0.198 A 
ATOM    101  F   UNL A   1      44.982  31.847  28.705  1.00  0.00    -0.203 F 
ATOM    102  F   UNL A   1      47.566  27.400  26.882  1.00  0.00    -0.200 F 
ATOM    103  C   UNL A   1      47.527  29.731  27.237  1.00  0.00     0.200 A 
ATOM    104  F   UNL A   1      47.409  32.068  27.546  1.00  0.00    -0.200 F 
ATOM    105  F   UNL A   1      48.732  29.853  26.662  1.00  0.00    -0.200 F 
ENDBRANCH  72  95
ENDBRANCH  46  47
ENDBRANCH  38  41
ENDBRANCH  36  37
ENDBRANCH  35  36
ENDBRANCH  34  35
ENDBRANCH   1  34
TORSDOF 17
ENDMDL
