MODEL 1
REMARK VINA RESULT:     -12.0      0.000      0.000
REMARK SMILES O=C(CSc1nc2cccnc2n1CC(F)(F)F)NCCCCNC(=O)c1ccc(-c2c3nc(c(-c4c(F)c(F)c(F)c(F)c4F)c4ccc([nH]4)c(-c4c(F)c(F)c(F)c(F)c4F)c4nc(c(-c5c(F)c(F)c(F)c(F)c5F)c5ccc2[nH]5)C=C4)C=C3)cc1
REMARK SMILES IDX 20 1 19 2 1 3 2 4 3 6 4 7 5 8 6 9 13 10 7 11 12 12 8 13
REMARK SMILES IDX 11 14 9 15 10 16 14 17 15 18 16 19 17 20 18 21 21 22 22 23
REMARK SMILES IDX 23 24 24 25 25 26 26 28 27 29 28 30 89 31 29 32 88 33 30 34
REMARK SMILES IDX 31 35 32 36 82 37 33 38 87 39 81 40 83 41 34 42 86 43 80 44
REMARK SMILES IDX 79 45 35 47 67 48 47 49 66 50 48 51 51 52 65 53 84 54 49 55
REMARK SMILES IDX 50 56 64 58 85 59 52 60 36 61 37 62 45 63 38 64 39 65 43 66
REMARK SMILES IDX 46 67 40 68 41 69 44 70 42 71 68 72 69 73 77 74 70 75 71 76
REMARK SMILES IDX 75 77 78 78 72 79 73 80 76 81 74 82 53 83 54 84 62 85 55 86
REMARK SMILES IDX 56 87 60 88 63 89 57 90 58 91 61 92 59 93
REMARK H PARENT 19 5 24 27 83 46 51 57
REMARK Flexibility Score: inf
ROOT
ATOM      1  C   UNL A   1      40.170  21.834  26.942  1.00  0.00     0.116 C 
ENDROOT
BRANCH   1   2
ATOM      2  N   UNL A   1      39.196  21.476  25.931  1.00  0.00    -0.355 N 
ATOM      3  O   UNL A   1      37.885  23.345  26.184  1.00  0.00    -0.274 OA
ATOM      4  C   UNL A   1      38.141  22.298  25.592  1.00  0.00     0.230 C 
ATOM      5  H   UNL A   1      39.291  20.612  25.467  1.00  0.00     0.163 HD
BRANCH   4   6
ATOM      6  C   UNL A   1      37.210  21.760  24.521  1.00  0.00     0.178 C 
BRANCH   6   7
ATOM      7  S   UNL A   1      36.234  20.331  25.050  1.00  0.00    -0.078 SA
BRANCH   7   8
ATOM      8  C   UNL A   1      34.741  21.084  25.493  1.00  0.00     0.171 A 
ATOM      9  N   UNL A   1      34.668  22.143  26.266  1.00  0.00    -0.221 NA
ATOM     10  N   UNL A   1      33.512  20.688  25.028  1.00  0.00    -0.294 N 
ATOM     11  C   UNL A   1      33.333  22.449  26.321  1.00  0.00     0.109 A 
ATOM     12  C   UNL A   1      32.591  21.558  25.554  1.00  0.00     0.160 A 
ATOM     13  C   UNL A   1      32.642  23.463  26.994  1.00  0.00     0.034 A 
ATOM     14  N   UNL A   1      31.256  21.540  25.372  1.00  0.00    -0.237 NA
ATOM     15  C   UNL A   1      31.252  23.499  26.841  1.00  0.00     0.022 A 
ATOM     16  C   UNL A   1      30.632  22.542  26.042  1.00  0.00     0.113 A 
BRANCH  10  17
ATOM     17  C   UNL A   1      33.165  19.542  24.218  1.00  0.00     0.241 C 
BRANCH  17  18
ATOM     18  C   UNL A   1      32.999  18.260  25.000  1.00  0.00     0.406 C 
ATOM     19  F   UNL A   1      32.718  18.489  26.299  1.00  0.00    -0.169 F 
ATOM     20  F   UNL A   1      31.958  17.548  24.500  1.00  0.00    -0.169 F 
ATOM     21  F   UNL A   1      34.089  17.469  24.945  1.00  0.00    -0.169 F 
ENDBRANCH  17  18
ENDBRANCH  10  17
ENDBRANCH   7   8
ENDBRANCH   6   7
ENDBRANCH   4   6
ENDBRANCH   1   2
BRANCH   1  22
ATOM     22  C   UNL A   1      41.073  20.664  27.341  1.00  0.00     0.023 C 
BRANCH  22  23
ATOM     23  C   UNL A   1      41.583  19.787  26.187  1.00  0.00     0.023 C 
BRANCH  23  24
ATOM     24  C   UNL A   1      42.954  19.163  26.423  1.00  0.00     0.116 C 
BRANCH  24  25
ATOM     25  N   UNL A   1      43.822  19.261  25.257  1.00  0.00    -0.352 N 
ATOM     26  C   UNL A   1      44.206  20.386  24.572  1.00  0.00     0.251 C 
ATOM     27  H   UNL A   1      44.178  18.409  24.915  1.00  0.00     0.163 HD
ATOM     28  O   UNL A   1      44.618  20.290  23.410  1.00  0.00    -0.269 OA
BRANCH  26  29
ATOM     29  C   UNL A   1      44.143  21.715  25.207  1.00  0.00     0.039 A 
ATOM     30  C   UNL A   1      43.181  22.641  24.787  1.00  0.00     0.014 A 
ATOM     31  C   UNL A   1      45.088  22.072  26.174  1.00  0.00     0.014 A 
ATOM     32  C   UNL A   1      43.138  23.901  25.377  1.00  0.00     0.010 A 
ATOM     33  C   UNL A   1      45.007  23.293  26.809  1.00  0.00     0.010 A 
ATOM     34  C   UNL A   1      44.049  24.215  26.397  1.00  0.00    -0.014 A 
BRANCH  34  35
ATOM     35  C   UNL A   1      43.870  25.438  27.174  1.00  0.00     0.031 A 
ATOM     36  C   UNL A   1      44.870  26.490  26.836  1.00  0.00     0.074 A 
ATOM     37  C   UNL A   1      42.780  25.679  27.935  1.00  0.00     0.049 A 
ATOM     38  N   UNL A   1      45.762  27.011  27.609  1.00  0.00    -0.248 NA
ATOM     39  C   UNL A   1      44.991  26.914  25.428  1.00  0.00     0.031 C 
ATOM     40  C   UNL A   1      41.589  24.830  28.046  1.00  0.00     0.029 A 
ATOM     41  N   UNL A   1      42.438  26.776  28.676  1.00  0.00    -0.354 N 
ATOM     42  C   UNL A   1      46.400  27.990  26.848  1.00  0.00     0.074 A 
ATOM     43  C   UNL A   1      46.033  27.747  25.482  1.00  0.00     0.031 C 
ATOM     44  C   UNL A   1      40.580  25.537  28.601  1.00  0.00     0.029 A 
ATOM     45  C   UNL A   1      41.088  26.833  29.017  1.00  0.00     0.049 A 
ATOM     46  H   UNL A   1      43.088  27.466  28.944  1.00  0.00     0.167 HD
ATOM     47  C   UNL A   1      46.908  29.100  27.453  1.00  0.00     0.037 A 
ATOM     48  C   UNL A   1      40.427  27.883  29.567  1.00  0.00     0.037 A 
ATOM     49  C   UNL A   1      46.991  28.898  28.873  1.00  0.00     0.049 A 
ATOM     50  C   UNL A   1      41.439  28.755  30.205  1.00  0.00     0.074 A 
ATOM     51  C   UNL A   1      47.810  28.219  29.746  1.00  0.00     0.029 A 
ATOM     52  N   UNL A   1      45.818  29.162  29.525  1.00  0.00    -0.354 N 
ATOM     53  N   UNL A   1      42.138  28.403  31.249  1.00  0.00    -0.248 NA
ATOM     54  C   UNL A   1      41.932  29.923  29.482  1.00  0.00     0.031 C 
ATOM     55  C   UNL A   1      47.027  27.972  30.912  1.00  0.00     0.029 A 
ATOM     56  C   UNL A   1      45.770  28.547  30.743  1.00  0.00     0.049 A 
ATOM     57  H   UNL A   1      45.099  29.726  29.162  1.00  0.00     0.167 HD
ATOM     58  C   UNL A   1      43.359  29.015  31.055  1.00  0.00     0.074 A 
ATOM     59  C   UNL A   1      43.120  30.066  30.075  1.00  0.00     0.031 C 
ATOM     60  C   UNL A   1      44.510  28.394  31.434  1.00  0.00     0.037 A 
BRANCH  47  61
ATOM     61  C   UNL A   1      46.838  30.510  26.893  1.00  0.00     0.064 A 
ATOM     62  C   UNL A   1      47.993  31.322  26.952  1.00  0.00     0.173 A 
ATOM     63  C   UNL A   1      45.636  31.196  26.615  1.00  0.00     0.173 A 
ATOM     64  F   UNL A   1      49.190  30.790  27.240  1.00  0.00    -0.203 F 
ATOM     65  C   UNL A   1      47.933  32.713  26.809  1.00  0.00     0.198 A 
ATOM     66  C   UNL A   1      45.588  32.577  26.422  1.00  0.00     0.198 A 
ATOM     67  F   UNL A   1      44.445  30.590  26.634  1.00  0.00    -0.203 F 
ATOM     68  F   UNL A   1      49.036  33.452  26.993  1.00  0.00    -0.200 F 
ATOM     69  C   UNL A   1      46.730  33.340  26.547  1.00  0.00     0.200 A 
ATOM     70  F   UNL A   1      44.406  33.169  26.197  1.00  0.00    -0.200 F 
ATOM     71  F   UNL A   1      46.658  34.675  26.461  1.00  0.00    -0.200 F 
ENDBRANCH  47  61
BRANCH  48  72
ATOM     72  C   UNL A   1      39.020  28.328  29.383  1.00  0.00     0.064 A 
ATOM     73  C   UNL A   1      38.165  28.497  30.489  1.00  0.00     0.173 A 
ATOM     74  C   UNL A   1      38.574  28.881  28.167  1.00  0.00     0.173 A 
ATOM     75  F   UNL A   1      38.519  28.024  31.694  1.00  0.00    -0.203 F 
ATOM     76  C   UNL A   1      36.974  29.227  30.399  1.00  0.00     0.198 A 
ATOM     77  C   UNL A   1      37.380  29.601  28.075  1.00  0.00     0.198 A 
ATOM     78  F   UNL A   1      39.332  28.821  27.064  1.00  0.00    -0.203 F 
ATOM     79  F   UNL A   1      36.232  29.434  31.495  1.00  0.00    -0.200 F 
ATOM     80  C   UNL A   1      36.592  29.792  29.196  1.00  0.00     0.200 A 
ATOM     81  F   UNL A   1      37.032  30.166  26.911  1.00  0.00    -0.200 F 
ATOM     82  F   UNL A   1      35.491  30.554  29.123  1.00  0.00    -0.200 F 
ENDBRANCH  48  72
BRANCH  60  83
ATOM     83  C   UNL A   1      44.438  27.364  32.513  1.00  0.00     0.064 A 
ATOM     84  C   UNL A   1      44.294  25.986  32.294  1.00  0.00     0.173 A 
ATOM     85  C   UNL A   1      44.672  27.797  33.825  1.00  0.00     0.173 A 
ATOM     86  F   UNL A   1      44.131  25.496  31.059  1.00  0.00    -0.203 F 
ATOM     87  C   UNL A   1      44.377  25.084  33.354  1.00  0.00     0.198 A 
ATOM     88  C   UNL A   1      44.793  26.893  34.872  1.00  0.00     0.198 A 
ATOM     89  F   UNL A   1      44.847  29.104  34.080  1.00  0.00    -0.203 F 
ATOM     90  F   UNL A   1      44.239  23.769  33.128  1.00  0.00    -0.200 F 
ATOM     91  C   UNL A   1      44.641  25.536  34.637  1.00  0.00     0.200 A 
ATOM     92  F   UNL A   1      45.092  27.336  36.101  1.00  0.00    -0.200 F 
ATOM     93  F   UNL A   1      44.779  24.664  35.645  1.00  0.00    -0.200 F 
ENDBRANCH  60  83
ENDBRANCH  34  35
ENDBRANCH  26  29
ENDBRANCH  24  25
ENDBRANCH  23  24
ENDBRANCH  22  23
ENDBRANCH   1  22
TORSDOF 15
ENDMDL
MODEL 2
REMARK VINA RESULT:     -11.9      1.312      2.262
REMARK SMILES O=C(CSc1nc2cccnc2n1CC(F)(F)F)NCCCCNC(=O)c1ccc(-c2c3nc(c(-c4c(F)c(F)c(F)c(F)c4F)c4ccc([nH]4)c(-c4c(F)c(F)c(F)c(F)c4F)c4nc(c(-c5c(F)c(F)c(F)c(F)c5F)c5ccc2[nH]5)C=C4)C=C3)cc1
REMARK SMILES IDX 20 1 19 2 1 3 2 4 3 6 4 7 5 8 6 9 13 10 7 11 12 12 8 13
REMARK SMILES IDX 11 14 9 15 10 16 14 17 15 18 16 19 17 20 18 21 21 22 22 23
REMARK SMILES IDX 23 24 24 25 25 26 26 28 27 29 28 30 89 31 29 32 88 33 30 34
REMARK SMILES IDX 31 35 32 36 82 37 33 38 87 39 81 40 83 41 34 42 86 43 80 44
REMARK SMILES IDX 79 45 35 47 67 48 47 49 66 50 48 51 51 52 65 53 84 54 49 55
REMARK SMILES IDX 50 56 64 58 85 59 52 60 36 61 37 62 45 63 38 64 39 65 43 66
REMARK SMILES IDX 46 67 40 68 41 69 44 70 42 71 68 72 69 73 77 74 70 75 71 76
REMARK SMILES IDX 75 77 78 78 72 79 73 80 76 81 74 82 53 83 54 84 62 85 55 86
REMARK SMILES IDX 56 87 60 88 63 89 57 90 58 91 61 92 59 93
REMARK H PARENT 19 5 24 27 83 46 51 57
REMARK Flexibility Score: inf
ROOT
ATOM      1  C   UNL A   1      40.333  22.238  26.834  1.00  0.00     0.116 C 
ENDROOT
BRANCH   1   2
ATOM      2  N   UNL A   1      39.252  21.932  25.918  1.00  0.00    -0.355 N 
ATOM      3  O   UNL A   1      37.990  23.789  26.405  1.00  0.00    -0.274 OA
ATOM      4  C   UNL A   1      38.173  22.772  25.738  1.00  0.00     0.230 C 
ATOM      5  H   UNL A   1      39.290  21.092  25.406  1.00  0.00     0.163 HD
BRANCH   4   6
ATOM      6  C   UNL A   1      37.127  22.289  24.750  1.00  0.00     0.178 C 
BRANCH   6   7
ATOM      7  S   UNL A   1      35.435  22.337  25.392  1.00  0.00    -0.078 SA
BRANCH   7   8
ATOM      8  C   UNL A   1      34.846  20.781  24.918  1.00  0.00     0.171 A 
ATOM      9  N   UNL A   1      35.588  19.698  24.918  1.00  0.00    -0.221 NA
ATOM     10  N   UNL A   1      33.544  20.527  24.568  1.00  0.00    -0.294 N 
ATOM     11  C   UNL A   1      34.740  18.689  24.538  1.00  0.00     0.109 A 
ATOM     12  C   UNL A   1      33.459  19.180  24.318  1.00  0.00     0.160 A 
ATOM     13  C   UNL A   1      34.956  17.320  24.349  1.00  0.00     0.034 A 
ATOM     14  N   UNL A   1      32.367  18.490  23.931  1.00  0.00    -0.237 NA
ATOM     15  C   UNL A   1      33.859  16.550  23.950  1.00  0.00     0.022 A 
ATOM     16  C   UNL A   1      32.627  17.169  23.763  1.00  0.00     0.113 A 
BRANCH  10  17
ATOM     17  C   UNL A   1      32.446  21.450  24.387  1.00  0.00     0.241 C 
BRANCH  17  18
ATOM     18  C   UNL A   1      32.331  22.006  22.987  1.00  0.00     0.406 C 
ATOM     19  F   UNL A   1      31.958  21.065  22.095  1.00  0.00    -0.169 F 
ATOM     20  F   UNL A   1      31.377  22.969  22.952  1.00  0.00    -0.169 F 
ATOM     21  F   UNL A   1      33.478  22.561  22.549  1.00  0.00    -0.169 F 
ENDBRANCH  17  18
ENDBRANCH  10  17
ENDBRANCH   7   8
ENDBRANCH   6   7
ENDBRANCH   4   6
ENDBRANCH   1   2
BRANCH   1  22
ATOM     22  C   UNL A   1      40.815  21.014  27.618  1.00  0.00     0.023 C 
BRANCH  22  23
ATOM     23  C   UNL A   1      42.148  20.406  27.158  1.00  0.00     0.023 C 
BRANCH  23  24
ATOM     24  C   UNL A   1      42.151  19.904  25.718  1.00  0.00     0.116 C 
BRANCH  24  25
ATOM     25  N   UNL A   1      43.498  19.753  25.181  1.00  0.00    -0.352 N 
ATOM     26  C   UNL A   1      44.407  20.734  24.871  1.00  0.00     0.251 C 
ATOM     27  H   UNL A   1      43.794  18.828  25.020  1.00  0.00     0.163 HD
ATOM     28  O   UNL A   1      45.333  20.489  24.089  1.00  0.00    -0.269 OA
BRANCH  26  29
ATOM     29  C   UNL A   1      44.300  22.078  25.465  1.00  0.00     0.039 A 
ATOM     30  C   UNL A   1      43.416  23.013  24.915  1.00  0.00     0.014 A 
ATOM     31  C   UNL A   1      45.133  22.439  26.528  1.00  0.00     0.014 A 
ATOM     32  C   UNL A   1      43.333  24.287  25.468  1.00  0.00     0.010 A 
ATOM     33  C   UNL A   1      45.006  23.676  27.123  1.00  0.00     0.010 A 
ATOM     34  C   UNL A   1      44.125  24.608  26.581  1.00  0.00    -0.014 A 
BRANCH  34  35
ATOM     35  C   UNL A   1      43.883  25.852  27.306  1.00  0.00     0.031 A 
ATOM     36  C   UNL A   1      44.828  26.938  26.919  1.00  0.00     0.074 A 
ATOM     37  C   UNL A   1      42.783  26.069  28.059  1.00  0.00     0.049 A 
ATOM     38  N   UNL A   1      45.692  27.537  27.667  1.00  0.00    -0.248 NA
ATOM     39  C   UNL A   1      44.926  27.307  25.494  1.00  0.00     0.031 C 
ATOM     40  C   UNL A   1      41.637  25.167  28.210  1.00  0.00     0.029 A 
ATOM     41  N   UNL A   1      42.386  27.179  28.752  1.00  0.00    -0.354 N 
ATOM     42  C   UNL A   1      46.278  28.514  26.862  1.00  0.00     0.074 A 
ATOM     43  C   UNL A   1      45.924  28.194  25.509  1.00  0.00     0.031 C 
ATOM     44  C   UNL A   1      40.594  25.844  28.736  1.00  0.00     0.029 A 
ATOM     45  C   UNL A   1      41.034  27.181  29.095  1.00  0.00     0.049 A 
ATOM     46  H   UNL A   1      42.999  27.912  28.989  1.00  0.00     0.167 HD
ATOM     47  C   UNL A   1      46.729  29.674  27.417  1.00  0.00     0.037 A 
ATOM     48  C   UNL A   1      40.320  28.219  29.600  1.00  0.00     0.037 A 
ATOM     49  C   UNL A   1      46.824  29.539  28.844  1.00  0.00     0.049 A 
ATOM     50  C   UNL A   1      41.288  29.168  30.198  1.00  0.00     0.074 A 
ATOM     51  C   UNL A   1      47.677  28.940  29.743  1.00  0.00     0.029 A 
ATOM     52  N   UNL A   1      45.639  29.769  29.488  1.00  0.00    -0.354 N 
ATOM     53  N   UNL A   1      42.004  28.898  31.254  1.00  0.00    -0.248 NA
ATOM     54  C   UNL A   1      41.719  30.328  29.423  1.00  0.00     0.031 C 
ATOM     55  C   UNL A   1      46.909  28.704  30.921  1.00  0.00     0.029 A 
ATOM     56  C   UNL A   1      45.624  29.206  30.731  1.00  0.00     0.049 A 
ATOM     57  H   UNL A   1      44.891  30.280  29.103  1.00  0.00     0.167 HD
ATOM     58  C   UNL A   1      43.192  29.563  31.030  1.00  0.00     0.074 A 
ATOM     59  C   UNL A   1      42.898  30.557  30.006  1.00  0.00     0.031 C 
ATOM     60  C   UNL A   1      44.374  29.019  31.432  1.00  0.00     0.037 A 
BRANCH  47  61
ATOM     61  C   UNL A   1      46.587  31.053  26.797  1.00  0.00     0.064 A 
ATOM     62  C   UNL A   1      47.706  31.915  26.794  1.00  0.00     0.173 A 
ATOM     63  C   UNL A   1      45.351  31.674  26.515  1.00  0.00     0.173 A 
ATOM     64  F   UNL A   1      48.931  31.448  27.078  1.00  0.00    -0.203 F 
ATOM     65  C   UNL A   1      47.582  33.295  26.591  1.00  0.00     0.198 A 
ATOM     66  C   UNL A   1      45.238  33.041  26.263  1.00  0.00     0.198 A 
ATOM     67  F   UNL A   1      44.188  31.018  26.587  1.00  0.00    -0.203 F 
ATOM     68  F   UNL A   1      48.655  34.087  26.717  1.00  0.00    -0.200 F 
ATOM     69  C   UNL A   1      46.348  33.857  26.328  1.00  0.00     0.200 A 
ATOM     70  F   UNL A   1      44.027  33.571  26.038  1.00  0.00    -0.200 F 
ATOM     71  F   UNL A   1      46.216  35.182  26.185  1.00  0.00    -0.200 F 
ENDBRANCH  47  61
BRANCH  48  72
ATOM     72  C   UNL A   1      38.893  28.582  29.402  1.00  0.00     0.064 A 
ATOM     73  C   UNL A   1      38.035  28.768  30.503  1.00  0.00     0.173 A 
ATOM     74  C   UNL A   1      38.416  29.047  28.161  1.00  0.00     0.173 A 
ATOM     75  F   UNL A   1      38.415  28.378  31.729  1.00  0.00    -0.203 F 
ATOM     76  C   UNL A   1      36.808  29.431  30.381  1.00  0.00     0.198 A 
ATOM     77  C   UNL A   1      37.186  29.700  28.038  1.00  0.00     0.198 A 
ATOM     78  F   UNL A   1      39.172  28.965  27.058  1.00  0.00    -0.203 F 
ATOM     79  F   UNL A   1      36.060  29.659  31.469  1.00  0.00    -0.200 F 
ATOM     80  C   UNL A   1      36.394  29.912  29.152  1.00  0.00     0.200 A 
ATOM     81  F   UNL A   1      36.807  30.184  26.848  1.00  0.00    -0.200 F 
ATOM     82  F   UNL A   1      35.256  30.613  29.045  1.00  0.00    -0.200 F 
ENDBRANCH  48  72
BRANCH  60  83
ATOM     83  C   UNL A   1      44.355  28.034  32.555  1.00  0.00     0.064 A 
ATOM     84  C   UNL A   1      44.223  28.372  33.910  1.00  0.00     0.173 A 
ATOM     85  C   UNL A   1      44.326  26.676  32.213  1.00  0.00     0.173 A 
ATOM     86  F   UNL A   1      44.179  29.651  34.304  1.00  0.00    -0.203 F 
ATOM     87  C   UNL A   1      44.074  27.381  34.880  1.00  0.00     0.198 A 
ATOM     88  C   UNL A   1      44.138  25.694  33.177  1.00  0.00     0.198 A 
ATOM     89  F   UNL A   1      44.418  26.306  30.925  1.00  0.00    -0.203 F 
ATOM     90  F   UNL A   1      43.947  27.719  36.172  1.00  0.00    -0.200 F 
ATOM     91  C   UNL A   1      44.016  26.046  34.510  1.00  0.00     0.200 A 
ATOM     92  F   UNL A   1      44.040  24.410  32.805  1.00  0.00    -0.200 F 
ATOM     93  F   UNL A   1      43.814  25.098  35.436  1.00  0.00    -0.200 F 
ENDBRANCH  60  83
ENDBRANCH  34  35
ENDBRANCH  26  29
ENDBRANCH  24  25
ENDBRANCH  23  24
ENDBRANCH  22  23
ENDBRANCH   1  22
TORSDOF 15
ENDMDL
MODEL 3
REMARK VINA RESULT:     -11.8      3.993      9.162
REMARK SMILES O=C(CSc1nc2cccnc2n1CC(F)(F)F)NCCCCNC(=O)c1ccc(-c2c3nc(c(-c4c(F)c(F)c(F)c(F)c4F)c4ccc([nH]4)c(-c4c(F)c(F)c(F)c(F)c4F)c4nc(c(-c5c(F)c(F)c(F)c(F)c5F)c5ccc2[nH]5)C=C4)C=C3)cc1
REMARK SMILES IDX 20 1 19 2 1 3 2 4 3 6 4 7 5 8 6 9 13 10 7 11 12 12 8 13
REMARK SMILES IDX 11 14 9 15 10 16 14 17 15 18 16 19 17 20 18 21 21 22 22 23
REMARK SMILES IDX 23 24 24 25 25 26 26 28 27 29 28 30 89 31 29 32 88 33 30 34
REMARK SMILES IDX 31 35 32 36 82 37 33 38 87 39 81 40 83 41 34 42 86 43 80 44
REMARK SMILES IDX 79 45 35 47 67 48 47 49 66 50 48 51 51 52 65 53 84 54 49 55
REMARK SMILES IDX 50 56 64 58 85 59 52 60 36 61 37 62 45 63 38 64 39 65 43 66
REMARK SMILES IDX 46 67 40 68 41 69 44 70 42 71 68 72 69 73 77 74 70 75 71 76
REMARK SMILES IDX 75 77 78 78 72 79 73 80 76 81 74 82 53 83 54 84 62 85 55 86
REMARK SMILES IDX 56 87 60 88 63 89 57 90 58 91 61 92 59 93
REMARK H PARENT 19 5 24 27 83 46 51 57
REMARK Flexibility Score: inf
ROOT
ATOM      1  C   UNL A   1      32.869  27.882  26.859  1.00  0.00     0.116 C 
ENDROOT
BRANCH   1   2
ATOM      2  N   UNL A   1      31.784  27.058  26.366  1.00  0.00    -0.355 N 
ATOM      3  O   UNL A   1      32.983  25.099  26.291  1.00  0.00    -0.274 OA
ATOM      4  C   UNL A   1      31.917  25.699  26.166  1.00  0.00     0.230 C 
ATOM      5  H   UNL A   1      30.920  27.484  26.165  1.00  0.00     0.163 HD
BRANCH   4   6
ATOM      6  C   UNL A   1      30.683  24.994  25.633  1.00  0.00     0.178 C 
BRANCH   6   7
ATOM      7  S   UNL A   1      30.670  24.800  23.833  1.00  0.00    -0.078 SA
BRANCH   7   8
ATOM      8  C   UNL A   1      30.002  26.316  23.333  1.00  0.00     0.171 A 
ATOM      9  N   UNL A   1      28.799  26.720  23.668  1.00  0.00    -0.221 NA
ATOM     10  N   UNL A   1      30.688  27.255  22.604  1.00  0.00    -0.294 N 
ATOM     11  C   UNL A   1      28.683  27.974  23.124  1.00  0.00     0.109 A 
ATOM     12  C   UNL A   1      29.849  28.332  22.459  1.00  0.00     0.160 A 
ATOM     13  C   UNL A   1      27.630  28.895  23.136  1.00  0.00     0.034 A 
ATOM     14  N   UNL A   1      30.104  29.481  21.802  1.00  0.00    -0.237 NA
ATOM     15  C   UNL A   1      27.836  30.109  22.473  1.00  0.00     0.022 A 
ATOM     16  C   UNL A   1      29.055  30.340  21.844  1.00  0.00     0.113 A 
BRANCH  10  17
ATOM     17  C   UNL A   1      31.997  27.167  21.996  1.00  0.00     0.241 C 
BRANCH  17  18
ATOM     18  C   UNL A   1      33.119  27.677  22.870  1.00  0.00     0.406 C 
ATOM     19  F   UNL A   1      34.123  28.215  22.146  1.00  0.00    -0.169 F 
ATOM     20  F   UNL A   1      32.659  28.662  23.681  1.00  0.00    -0.169 F 
ATOM     21  F   UNL A   1      33.645  26.719  23.659  1.00  0.00    -0.169 F 
ENDBRANCH  17  18
ENDBRANCH  10  17
ENDBRANCH   7   8
ENDBRANCH   6   7
ENDBRANCH   4   6
ENDBRANCH   1   2
BRANCH   1  22
ATOM     22  C   UNL A   1      32.398  29.248  27.365  1.00  0.00     0.023 C 
BRANCH  22  23
ATOM     23  C   UNL A   1      33.116  30.468  26.770  1.00  0.00     0.023 C 
BRANCH  23  24
ATOM     24  C   UNL A   1      34.450  30.802  27.431  1.00  0.00     0.116 C 
BRANCH  24  25
ATOM     25  N   UNL A   1      34.323  31.826  28.460  1.00  0.00    -0.352 N 
ATOM     26  C   UNL A   1      35.018  31.940  29.638  1.00  0.00     0.251 C 
ATOM     27  H   UNL A   1      33.653  32.526  28.288  1.00  0.00     0.163 HD
ATOM     28  O   UNL A   1      34.554  32.617  30.564  1.00  0.00    -0.269 OA
BRANCH  26  29
ATOM     29  C   UNL A   1      36.320  31.272  29.816  1.00  0.00     0.039 A 
ATOM     30  C   UNL A   1      36.364  29.921  30.179  1.00  0.00     0.014 A 
ATOM     31  C   UNL A   1      37.503  32.006  29.693  1.00  0.00     0.014 A 
ATOM     32  C   UNL A   1      37.595  29.300  30.364  1.00  0.00     0.010 A 
ATOM     33  C   UNL A   1      38.726  31.379  29.808  1.00  0.00     0.010 A 
ATOM     34  C   UNL A   1      38.774  30.035  30.165  1.00  0.00    -0.014 A 
BRANCH  34  35
ATOM     35  C   UNL A   1      40.060  29.344  30.132  1.00  0.00     0.031 A 
ATOM     36  C   UNL A   1      40.669  29.193  31.483  1.00  0.00     0.074 A 
ATOM     37  C   UNL A   1      40.527  28.701  29.039  1.00  0.00     0.049 A 
ATOM     38  N   UNL A   1      41.784  29.686  31.907  1.00  0.00    -0.248 NA
ATOM     39  C   UNL A   1      39.878  28.534  32.539  1.00  0.00     0.031 C 
ATOM     40  C   UNL A   1      39.821  28.515  27.768  1.00  0.00     0.029 A 
ATOM     41  N   UNL A   1      41.671  27.974  28.858  1.00  0.00    -0.354 N 
ATOM     42  C   UNL A   1      41.941  29.206  33.207  1.00  0.00     0.074 A 
ATOM     43  C   UNL A   1      40.666  28.685  33.606  1.00  0.00     0.031 C 
ATOM     44  C   UNL A   1      40.430  27.546  27.049  1.00  0.00     0.029 A 
ATOM     45  C   UNL A   1      41.646  27.147  27.736  1.00  0.00     0.049 A 
ATOM     46  H   UNL A   1      42.444  28.030  29.465  1.00  0.00     0.167 HD
ATOM     47  C   UNL A   1      43.190  28.993  33.708  1.00  0.00     0.037 A 
ATOM     48  C   UNL A   1      42.540  26.177  27.415  1.00  0.00     0.037 A 
ATOM     49  C   UNL A   1      44.174  29.642  32.886  1.00  0.00     0.049 A 
ATOM     50  C   UNL A   1      43.791  26.472  28.151  1.00  0.00     0.074 A 
ATOM     51  C   UNL A   1      44.626  30.926  32.684  1.00  0.00     0.029 A 
ATOM     52  N   UNL A   1      44.552  28.894  31.806  1.00  0.00    -0.354 N 
ATOM     53  N   UNL A   1      44.543  27.510  27.910  1.00  0.00    -0.248 NA
ATOM     54  C   UNL A   1      44.057  25.781  29.409  1.00  0.00     0.031 C 
ATOM     55  C   UNL A   1      45.183  30.947  31.371  1.00  0.00     0.029 A 
ATOM     56  C   UNL A   1      45.102  29.669  30.825  1.00  0.00     0.049 A 
ATOM     57  H   UNL A   1      44.444  27.918  31.743  1.00  0.00     0.167 HD
ATOM     58  C   UNL A   1      45.051  27.849  29.146  1.00  0.00     0.074 A 
ATOM     59  C   UNL A   1      44.877  26.666  29.980  1.00  0.00     0.031 C 
ATOM     60  C   UNL A   1      45.240  29.156  29.481  1.00  0.00     0.037 A 
BRANCH  47  61
ATOM     61  C   UNL A   1      43.593  27.817  34.582  1.00  0.00     0.064 A 
ATOM     62  C   UNL A   1      43.400  26.507  34.089  1.00  0.00     0.173 A 
ATOM     63  C   UNL A   1      43.840  27.906  35.969  1.00  0.00     0.173 A 
ATOM     64  F   UNL A   1      43.126  26.297  32.793  1.00  0.00    -0.203 F 
ATOM     65  C   UNL A   1      43.390  25.390  34.931  1.00  0.00     0.198 A 
ATOM     66  C   UNL A   1      43.882  26.784  36.796  1.00  0.00     0.198 A 
ATOM     67  F   UNL A   1      43.935  29.078  36.605  1.00  0.00    -0.203 F 
ATOM     68  F   UNL A   1      43.084  24.183  34.435  1.00  0.00    -0.200 F 
ATOM     69  C   UNL A   1      43.629  25.529  36.284  1.00  0.00     0.200 A 
ATOM     70  F   UNL A   1      44.085  26.944  38.112  1.00  0.00    -0.200 F 
ATOM     71  F   UNL A   1      43.570  24.470  37.103  1.00  0.00    -0.200 F 
ENDBRANCH  47  61
BRANCH  48  72
ATOM     72  C   UNL A   1      42.334  24.882  26.715  1.00  0.00     0.064 A 
ATOM     73  C   UNL A   1      43.127  24.525  25.608  1.00  0.00     0.173 A 
ATOM     74  C   UNL A   1      41.572  23.847  27.289  1.00  0.00     0.173 A 
ATOM     75  F   UNL A   1      43.905  25.441  25.011  1.00  0.00    -0.203 F 
ATOM     76  C   UNL A   1      43.202  23.206  25.146  1.00  0.00     0.198 A 
ATOM     77  C   UNL A   1      41.640  22.531  26.821  1.00  0.00     0.198 A 
ATOM     78  F   UNL A   1      40.821  24.066  28.376  1.00  0.00    -0.203 F 
ATOM     79  F   UNL A   1      44.033  22.894  24.142  1.00  0.00    -0.200 F 
ATOM     80  C   UNL A   1      42.471  22.208  25.764  1.00  0.00     0.200 A 
ATOM     81  F   UNL A   1      40.947  21.568  27.444  1.00  0.00    -0.200 F 
ATOM     82  F   UNL A   1      42.598  20.932  25.373  1.00  0.00    -0.200 F 
ENDBRANCH  48  72
BRANCH  60  83
ATOM     83  C   UNL A   1      45.429  30.148  28.381  1.00  0.00     0.064 A 
ATOM     84  C   UNL A   1      44.394  30.881  27.781  1.00  0.00     0.173 A 
ATOM     85  C   UNL A   1      46.747  30.466  28.028  1.00  0.00     0.173 A 
ATOM     86  F   UNL A   1      43.114  30.675  28.117  1.00  0.00    -0.203 F 
ATOM     87  C   UNL A   1      44.677  31.889  26.859  1.00  0.00     0.198 A 
ATOM     88  C   UNL A   1      47.026  31.496  27.139  1.00  0.00     0.198 A 
ATOM     89  F   UNL A   1      47.771  29.813  28.600  1.00  0.00    -0.203 F 
ATOM     90  F   UNL A   1      43.677  32.582  26.294  1.00  0.00    -0.200 F 
ATOM     91  C   UNL A   1      45.991  32.204  26.552  1.00  0.00     0.200 A 
ATOM     92  F   UNL A   1      48.300  31.823  26.882  1.00  0.00    -0.200 F 
ATOM     93  F   UNL A   1      46.264  33.211  25.710  1.00  0.00    -0.200 F 
ENDBRANCH  60  83
ENDBRANCH  34  35
ENDBRANCH  26  29
ENDBRANCH  24  25
ENDBRANCH  23  24
ENDBRANCH  22  23
ENDBRANCH   1  22
TORSDOF 15
ENDMDL
