MODEL 1
REMARK VINA RESULT:     -13.0      0.000      0.000
REMARK SMILES CCc1cc(N2CCC[C@H](C(=O)NCCCCNC(=O)c3ccc(-c4c5nc(c(-c6c(F)c(F)c(F)c(F)c6F)c6ccc([nH]6)c(-c6c(F)c(F)c(F)c(F)c6F)c6nc(c(-c7c(F)c(F)c(F)c(F)c7F)c7ccc4[nH]7)C=C6)C=C5)cc3)C2)nc(-c2ccc(Cl)cc2)n1
REMARK SMILES IDX 15 1 14 2 13 3 11 4 12 5 10 7 6 8 7 9 84 10 8 11 9 12 5 13
REMARK SMILES IDX 3 14 4 15 94 16 86 17 85 18 2 19 1 20 87 21 88 22 93 23
REMARK SMILES IDX 89 24 92 25 90 26 91 27 16 28 17 29 18 30 19 31 20 33 21 34
REMARK SMILES IDX 22 35 83 36 23 37 82 38 24 39 25 40 26 41 76 42 27 43 81 44
REMARK SMILES IDX 75 45 77 46 28 47 80 48 74 49 73 50 29 52 61 53 41 54 60 55
REMARK SMILES IDX 42 56 45 57 59 58 78 59 43 60 44 61 58 63 79 64 46 65 30 66
REMARK SMILES IDX 31 67 39 68 32 69 33 70 37 71 40 72 34 73 35 74 38 75 36 76
REMARK SMILES IDX 62 77 63 78 71 79 64 80 65 81 69 82 72 83 66 84 67 85 70 86
REMARK SMILES IDX 68 87 47 88 48 89 56 90 49 91 50 92 54 93 57 94 51 95 52 96
REMARK SMILES IDX 55 97 53 98
REMARK H PARENT 13 6 18 32 77 51 45 62
REMARK Flexibility Score: inf
ROOT
ATOM      1  C   UNL A   1      33.507  27.045  25.996  1.00  0.00     0.023 C 
ENDROOT
BRANCH   1   2
ATOM      2  C   UNL A   1      32.744  25.733  26.132  1.00  0.00     0.116 C 
BRANCH   2   3
ATOM      3  N   UNL A   1      31.348  25.865  26.484  1.00  0.00    -0.356 N 
ATOM      4  C   UNL A   1      30.244  25.474  25.794  1.00  0.00     0.224 C 
ATOM      5  O   UNL A   1      29.205  25.343  26.455  1.00  0.00    -0.275 OA
ATOM      6  H   UNL A   1      31.172  26.302  27.349  1.00  0.00     0.163 HD
BRANCH   4   7
ATOM      7  C   UNL A   1      30.197  25.217  24.280  1.00  0.00     0.098 C 
ATOM      8  N   UNL A   1      32.129  23.930  23.463  1.00  0.00    -0.356 N 
ATOM      9  C   UNL A   1      32.573  24.917  22.493  1.00  0.00     0.118 C 
ATOM     10  C   UNL A   1      30.727  23.857  23.832  1.00  0.00     0.131 C 
ATOM     11  C   UNL A   1      32.069  26.317  22.855  1.00  0.00     0.022 C 
ATOM     12  C   UNL A   1      30.641  26.384  23.392  1.00  0.00     0.017 C 
BRANCH   8  13
ATOM     13  C   UNL A   1      32.963  22.882  23.796  1.00  0.00     0.132 A 
ATOM     14  C   UNL A   1      33.348  20.659  24.483  1.00  0.00     0.046 A 
ATOM     15  C   UNL A   1      32.448  21.640  24.124  1.00  0.00     0.070 A 
ATOM     16  N   UNL A   1      34.663  20.897  24.536  1.00  0.00    -0.233 NA
ATOM     17  C   UNL A   1      35.075  22.139  24.244  1.00  0.00     0.161 A 
ATOM     18  N   UNL A   1      34.282  23.147  23.867  1.00  0.00    -0.211 NA
BRANCH  14  19
ATOM     19  C   UNL A   1      32.934  19.272  24.881  1.00  0.00     0.053 C 
ATOM     20  C   UNL A   1      33.930  18.221  24.430  1.00  0.00     0.011 C 
ENDBRANCH  14  19
BRANCH  17  21
ATOM     21  C   UNL A   1      36.456  22.390  24.646  1.00  0.00     0.019 A 
ATOM     22  C   UNL A   1      37.385  21.336  24.655  1.00  0.00     0.013 A 
ATOM     23  C   UNL A   1      36.780  23.586  25.311  1.00  0.00     0.013 A 
ATOM     24  C   UNL A   1      38.537  21.415  25.438  1.00  0.00     0.021 A 
ATOM     25  C   UNL A   1      37.927  23.663  26.101  1.00  0.00     0.021 A 
ATOM     26  C   UNL A   1      38.762  22.553  26.207  1.00  0.00     0.041 A 
ATOM     27  Cl  UNL A   1      40.028  22.578  27.362  1.00  0.00    -0.084 Cl
ENDBRANCH  17  21
ENDBRANCH   8  13
ENDBRANCH   4   7
ENDBRANCH   2   3
ENDBRANCH   1   2
BRANCH   1  28
ATOM     28  C   UNL A   1      32.655  28.307  26.081  1.00  0.00     0.023 C 
BRANCH  28  29
ATOM     29  C   UNL A   1      33.277  29.570  25.484  1.00  0.00     0.116 C 
BRANCH  29  30
ATOM     30  N   UNL A   1      32.842  30.815  26.094  1.00  0.00    -0.352 N 
ATOM     31  C   UNL A   1      33.386  31.515  27.149  1.00  0.00     0.251 C 
ATOM     32  H   UNL A   1      32.040  31.220  25.692  1.00  0.00     0.163 HD
ATOM     33  O   UNL A   1      32.824  32.532  27.548  1.00  0.00    -0.269 OA
BRANCH  31  34
ATOM     34  C   UNL A   1      34.627  31.060  27.836  1.00  0.00     0.039 A 
ATOM     35  C   UNL A   1      35.692  31.961  27.971  1.00  0.00     0.014 A 
ATOM     36  C   UNL A   1      34.788  29.754  28.304  1.00  0.00     0.014 A 
ATOM     37  C   UNL A   1      36.870  31.573  28.619  1.00  0.00     0.010 A 
ATOM     38  C   UNL A   1      35.946  29.369  28.973  1.00  0.00     0.010 A 
ATOM     39  C   UNL A   1      36.992  30.280  29.144  1.00  0.00    -0.014 A 
BRANCH  39  40
ATOM     40  C   UNL A   1      38.165  29.874  29.950  1.00  0.00     0.031 A 
ATOM     41  C   UNL A   1      38.341  30.362  31.355  1.00  0.00     0.074 A 
ATOM     42  C   UNL A   1      39.132  29.165  29.341  1.00  0.00     0.049 A 
ATOM     43  N   UNL A   1      39.367  30.249  32.157  1.00  0.00    -0.248 NA
ATOM     44  C   UNL A   1      37.227  31.131  31.915  1.00  0.00     0.031 C 
ATOM     45  C   UNL A   1      39.099  28.724  27.946  1.00  0.00     0.029 A 
ATOM     46  N   UNL A   1      40.334  28.710  29.811  1.00  0.00    -0.354 N 
ATOM     47  C   UNL A   1      39.043  30.985  33.292  1.00  0.00     0.074 A 
ATOM     48  C   UNL A   1      37.744  31.573  33.053  1.00  0.00     0.031 C 
ATOM     49  C   UNL A   1      40.227  28.047  27.676  1.00  0.00     0.029 A 
ATOM     50  C   UNL A   1      41.061  28.023  28.873  1.00  0.00     0.049 A 
ATOM     51  H   UNL A   1      40.645  28.861  30.732  1.00  0.00     0.167 HD
ATOM     52  C   UNL A   1      39.759  31.123  34.435  1.00  0.00     0.037 A 
ATOM     53  C   UNL A   1      42.265  27.435  28.980  1.00  0.00     0.037 A 
ATOM     54  C   UNL A   1      40.990  30.418  34.687  1.00  0.00     0.049 A 
ATOM     55  C   UNL A   1      42.961  27.469  30.314  1.00  0.00     0.074 A 
ATOM     56  C   UNL A   1      41.725  30.347  35.857  1.00  0.00     0.029 A 
ATOM     57  N   UNL A   1      41.651  29.632  33.751  1.00  0.00    -0.354 N 
ATOM     58  N   UNL A   1      42.609  28.087  31.417  1.00  0.00    -0.248 NA
ATOM     59  C   UNL A   1      44.206  26.699  30.430  1.00  0.00     0.031 C 
ATOM     60  C   UNL A   1      42.841  29.536  35.624  1.00  0.00     0.029 A 
ATOM     61  C   UNL A   1      42.780  29.069  34.320  1.00  0.00     0.049 A 
ATOM     62  H   UNL A   1      41.358  29.495  32.821  1.00  0.00     0.167 HD
ATOM     63  C   UNL A   1      43.572  27.760  32.362  1.00  0.00     0.074 A 
ATOM     64  C   UNL A   1      44.503  26.863  31.710  1.00  0.00     0.031 C 
ATOM     65  C   UNL A   1      43.683  28.169  33.649  1.00  0.00     0.037 A 
BRANCH  52  66
ATOM     66  C   UNL A   1      39.225  32.019  35.523  1.00  0.00     0.064 A 
ATOM     67  C   UNL A   1      38.405  31.530  36.551  1.00  0.00     0.173 A 
ATOM     68  C   UNL A   1      39.617  33.367  35.591  1.00  0.00     0.173 A 
ATOM     69  F   UNL A   1      38.006  30.249  36.546  1.00  0.00    -0.203 F 
ATOM     70  C   UNL A   1      37.975  32.358  37.586  1.00  0.00     0.198 A 
ATOM     71  C   UNL A   1      39.215  34.183  36.647  1.00  0.00     0.198 A 
ATOM     72  F   UNL A   1      40.416  33.889  34.648  1.00  0.00    -0.203 F 
ATOM     73  F   UNL A   1      37.161  31.873  38.534  1.00  0.00    -0.200 F 
ATOM     74  C   UNL A   1      38.388  33.680  37.639  1.00  0.00     0.200 A 
ATOM     75  F   UNL A   1      39.638  35.453  36.710  1.00  0.00    -0.200 F 
ATOM     76  F   UNL A   1      37.996  34.467  38.651  1.00  0.00    -0.200 F 
ENDBRANCH  52  66
BRANCH  53  77
ATOM     77  C   UNL A   1      42.846  26.713  27.820  1.00  0.00     0.064 A 
ATOM     78  C   UNL A   1      43.592  27.396  26.849  1.00  0.00     0.173 A 
ATOM     79  C   UNL A   1      42.672  25.332  27.657  1.00  0.00     0.173 A 
ATOM     80  F   UNL A   1      43.783  28.719  26.961  1.00  0.00    -0.203 F 
ATOM     81  C   UNL A   1      44.105  26.734  25.737  1.00  0.00     0.198 A 
ATOM     82  C   UNL A   1      43.216  24.664  26.562  1.00  0.00     0.198 A 
ATOM     83  F   UNL A   1      41.988  24.627  28.569  1.00  0.00    -0.203 F 
ATOM     84  F   UNL A   1      44.761  27.424  24.794  1.00  0.00    -0.200 F 
ATOM     85  C   UNL A   1      43.919  25.368  25.595  1.00  0.00     0.200 A 
ATOM     86  F   UNL A   1      43.054  23.339  26.440  1.00  0.00    -0.200 F 
ATOM     87  F   UNL A   1      44.412  24.730  24.525  1.00  0.00    -0.200 F 
ENDBRANCH  53  77
BRANCH  65  88
ATOM     88  C   UNL A   1      44.838  27.624  34.437  1.00  0.00     0.064 A 
ATOM     89  C   UNL A   1      46.067  28.298  34.498  1.00  0.00     0.173 A 
ATOM     90  C   UNL A   1      44.706  26.428  35.157  1.00  0.00     0.173 A 
ATOM     91  F   UNL A   1      46.246  29.439  33.815  1.00  0.00    -0.203 F 
ATOM     92  C   UNL A   1      47.133  27.773  35.221  1.00  0.00     0.198 A 
ATOM     93  C   UNL A   1      45.765  25.924  35.908  1.00  0.00     0.198 A 
ATOM     94  F   UNL A   1      43.548  25.750  35.140  1.00  0.00    -0.203 F 
ATOM     95  F   UNL A   1      48.317  28.402  35.215  1.00  0.00    -0.200 F 
ATOM     96  C   UNL A   1      46.979  26.591  35.931  1.00  0.00     0.200 A 
ATOM     97  F   UNL A   1      45.609  24.791  36.606  1.00  0.00    -0.200 F 
ATOM     98  F   UNL A   1      48.008  26.090  36.629  1.00  0.00    -0.200 F 
ENDBRANCH  65  88
ENDBRANCH  39  40
ENDBRANCH  31  34
ENDBRANCH  29  30
ENDBRANCH  28  29
ENDBRANCH   1  28
TORSDOF 14
ENDMDL
MODEL 2
REMARK VINA RESULT:     -12.9      2.175      7.674
REMARK SMILES CCc1cc(N2CCC[C@H](C(=O)NCCCCNC(=O)c3ccc(-c4c5nc(c(-c6c(F)c(F)c(F)c(F)c6F)c6ccc([nH]6)c(-c6c(F)c(F)c(F)c(F)c6F)c6nc(c(-c7c(F)c(F)c(F)c(F)c7F)c7ccc4[nH]7)C=C6)C=C5)cc3)C2)nc(-c2ccc(Cl)cc2)n1
REMARK SMILES IDX 15 1 14 2 13 3 11 4 12 5 10 7 6 8 7 9 84 10 8 11 9 12 5 13
REMARK SMILES IDX 3 14 4 15 94 16 86 17 85 18 2 19 1 20 87 21 88 22 93 23
REMARK SMILES IDX 89 24 92 25 90 26 91 27 16 28 17 29 18 30 19 31 20 33 21 34
REMARK SMILES IDX 22 35 83 36 23 37 82 38 24 39 25 40 26 41 76 42 27 43 81 44
REMARK SMILES IDX 75 45 77 46 28 47 80 48 74 49 73 50 29 52 61 53 41 54 60 55
REMARK SMILES IDX 42 56 45 57 59 58 78 59 43 60 44 61 58 63 79 64 46 65 30 66
REMARK SMILES IDX 31 67 39 68 32 69 33 70 37 71 40 72 34 73 35 74 38 75 36 76
REMARK SMILES IDX 62 77 63 78 71 79 64 80 65 81 69 82 72 83 66 84 67 85 70 86
REMARK SMILES IDX 68 87 47 88 48 89 56 90 49 91 50 92 54 93 57 94 51 95 52 96
REMARK SMILES IDX 55 97 53 98
REMARK H PARENT 13 6 18 32 77 51 45 62
REMARK Flexibility Score: inf
ROOT
ATOM      1  C   UNL A   1      31.659  30.169  26.493  1.00  0.00     0.023 C 
ENDROOT
BRANCH   1   2
ATOM      2  C   UNL A   1      31.709  29.540  25.106  1.00  0.00     0.116 C 
BRANCH   2   3
ATOM      3  N   UNL A   1      32.827  28.656  24.870  1.00  0.00    -0.356 N 
ATOM      4  C   UNL A   1      32.855  27.297  24.817  1.00  0.00     0.224 C 
ATOM      5  O   UNL A   1      33.822  26.794  24.229  1.00  0.00    -0.275 OA
ATOM      6  H   UNL A   1      33.693  29.100  24.727  1.00  0.00     0.163 HD
BRANCH   4   7
ATOM      7  C   UNL A   1      31.804  26.369  25.446  1.00  0.00     0.098 C 
ATOM      8  N   UNL A   1      32.314  23.983  25.129  1.00  0.00    -0.356 N 
ATOM      9  C   UNL A   1      31.071  23.647  24.456  1.00  0.00     0.118 C 
ATOM     10  C   UNL A   1      32.354  25.088  26.069  1.00  0.00     0.131 C 
ATOM     11  C   UNL A   1      30.436  24.883  23.813  1.00  0.00     0.022 C 
ATOM     12  C   UNL A   1      30.521  26.169  24.634  1.00  0.00     0.017 C 
BRANCH   8  13
ATOM     13  C   UNL A   1      33.360  23.082  25.113  1.00  0.00     0.132 A 
ATOM     14  C   UNL A   1      35.654  22.550  24.984  1.00  0.00     0.046 A 
ATOM     15  C   UNL A   1      34.672  23.516  25.036  1.00  0.00     0.070 A 
ATOM     16  N   UNL A   1      35.357  21.246  24.986  1.00  0.00    -0.233 NA
ATOM     17  C   UNL A   1      34.060  20.911  25.019  1.00  0.00     0.161 A 
ATOM     18  N   UNL A   1      33.041  21.773  25.091  1.00  0.00    -0.211 NA
BRANCH  14  19
ATOM     19  C   UNL A   1      37.117  22.872  24.881  1.00  0.00     0.053 C 
ATOM     20  C   UNL A   1      37.993  21.737  25.376  1.00  0.00     0.011 C 
ENDBRANCH  14  19
BRANCH  17  21
ATOM     21  C   UNL A   1      33.824  19.509  24.684  1.00  0.00     0.019 A 
ATOM     22  C   UNL A   1      32.528  18.975  24.783  1.00  0.00     0.013 A 
ATOM     23  C   UNL A   1      34.915  18.628  24.571  1.00  0.00     0.013 A 
ATOM     24  C   UNL A   1      32.339  17.600  24.923  1.00  0.00     0.021 A 
ATOM     25  C   UNL A   1      34.728  17.255  24.718  1.00  0.00     0.021 A 
ATOM     26  C   UNL A   1      33.448  16.759  24.956  1.00  0.00     0.041 A 
ATOM     27  Cl  UNL A   1      33.265  15.106  25.375  1.00  0.00    -0.084 Cl
ENDBRANCH  17  21
ENDBRANCH   8  13
ENDBRANCH   4   7
ENDBRANCH   2   3
ENDBRANCH   1   2
BRANCH   1  28
ATOM     28  C   UNL A   1      31.476  31.683  26.517  1.00  0.00     0.023 C 
BRANCH  28  29
ATOM     29  C   UNL A   1      32.680  32.491  27.000  1.00  0.00     0.116 C 
BRANCH  29  30
ATOM     30  N   UNL A   1      32.373  33.831  27.471  1.00  0.00    -0.352 N 
ATOM     31  C   UNL A   1      32.987  34.582  28.450  1.00  0.00     0.251 C 
ATOM     32  H   UNL A   1      31.613  34.268  27.023  1.00  0.00     0.163 HD
ATOM     33  O   UNL A   1      32.529  35.685  28.735  1.00  0.00    -0.269 OA
BRANCH  31  34
ATOM     34  C   UNL A   1      34.178  34.082  29.191  1.00  0.00     0.039 A 
ATOM     35  C   UNL A   1      33.980  33.309  30.343  1.00  0.00     0.014 A 
ATOM     36  C   UNL A   1      35.484  34.398  28.810  1.00  0.00     0.014 A 
ATOM     37  C   UNL A   1      35.075  32.813  31.060  1.00  0.00     0.010 A 
ATOM     38  C   UNL A   1      36.578  33.887  29.503  1.00  0.00     0.010 A 
ATOM     39  C   UNL A   1      36.380  33.081  30.628  1.00  0.00    -0.014 A 
BRANCH  39  40
ATOM     40  C   UNL A   1      37.558  32.467  31.280  1.00  0.00     0.031 A 
ATOM     41  C   UNL A   1      38.292  31.333  30.634  1.00  0.00     0.074 A 
ATOM     42  C   UNL A   1      37.868  32.867  32.525  1.00  0.00     0.049 A 
ATOM     43  N   UNL A   1      39.237  30.567  31.114  1.00  0.00    -0.248 NA
ATOM     44  C   UNL A   1      37.866  30.977  29.278  1.00  0.00     0.031 C 
ATOM     45  C   UNL A   1      37.154  33.898  33.279  1.00  0.00     0.029 A 
ATOM     46  N   UNL A   1      38.849  32.442  33.380  1.00  0.00    -0.354 N 
ATOM     47  C   UNL A   1      39.472  29.601  30.140  1.00  0.00     0.074 A 
ATOM     48  C   UNL A   1      38.542  29.857  29.063  1.00  0.00     0.031 C 
ATOM     49  C   UNL A   1      37.730  34.036  34.484  1.00  0.00     0.029 A 
ATOM     50  C   UNL A   1      38.840  33.095  34.587  1.00  0.00     0.049 A 
ATOM     51  H   UNL A   1      39.496  31.738  33.151  1.00  0.00     0.167 HD
ATOM     52  C   UNL A   1      40.406  28.618  30.142  1.00  0.00     0.037 A 
ATOM     53  C   UNL A   1      39.650  32.947  35.649  1.00  0.00     0.037 A 
ATOM     54  C   UNL A   1      41.401  28.475  31.175  1.00  0.00     0.049 A 
ATOM     55  C   UNL A   1      40.779  31.956  35.556  1.00  0.00     0.074 A 
ATOM     56  C   UNL A   1      42.492  27.626  31.215  1.00  0.00     0.029 A 
ATOM     57  N   UNL A   1      41.438  29.229  32.340  1.00  0.00    -0.354 N 
ATOM     58  N   UNL A   1      41.059  31.107  34.595  1.00  0.00    -0.248 NA
ATOM     59  C   UNL A   1      41.723  31.922  36.679  1.00  0.00     0.031 C 
ATOM     60  C   UNL A   1      43.177  27.851  32.413  1.00  0.00     0.029 A 
ATOM     61  C   UNL A   1      42.536  28.869  33.102  1.00  0.00     0.049 A 
ATOM     62  H   UNL A   1      40.780  29.919  32.588  1.00  0.00     0.167 HD
ATOM     63  C   UNL A   1      42.223  30.460  34.985  1.00  0.00     0.074 A 
ATOM     64  C   UNL A   1      42.613  31.038  36.254  1.00  0.00     0.031 C 
ATOM     65  C   UNL A   1      42.905  29.470  34.357  1.00  0.00     0.037 A 
BRANCH  52  66
ATOM     66  C   UNL A   1      40.443  27.650  28.988  1.00  0.00     0.064 A 
ATOM     67  C   UNL A   1      39.655  26.489  28.967  1.00  0.00     0.173 A 
ATOM     68  C   UNL A   1      41.207  27.936  27.844  1.00  0.00     0.173 A 
ATOM     69  F   UNL A   1      38.897  26.168  30.027  1.00  0.00    -0.203 F 
ATOM     70  C   UNL A   1      39.651  25.639  27.863  1.00  0.00     0.198 A 
ATOM     71  C   UNL A   1      41.173  27.103  26.726  1.00  0.00     0.198 A 
ATOM     72  F   UNL A   1      41.967  29.041  27.795  1.00  0.00    -0.203 F 
ATOM     73  F   UNL A   1      38.918  24.518  27.886  1.00  0.00    -0.200 F 
ATOM     74  C   UNL A   1      40.401  25.952  26.740  1.00  0.00     0.200 A 
ATOM     75  F   UNL A   1      41.878  27.422  25.632  1.00  0.00    -0.200 F 
ATOM     76  F   UNL A   1      40.374  25.148  25.668  1.00  0.00    -0.200 F 
ENDBRANCH  52  66
BRANCH  53  77
ATOM     77  C   UNL A   1      39.463  33.799  36.850  1.00  0.00     0.064 A 
ATOM     78  C   UNL A   1      40.032  35.079  36.919  1.00  0.00     0.173 A 
ATOM     79  C   UNL A   1      38.713  33.358  37.949  1.00  0.00     0.173 A 
ATOM     80  F   UNL A   1      40.761  35.543  35.893  1.00  0.00    -0.203 F 
ATOM     81  C   UNL A   1      39.896  35.867  38.058  1.00  0.00     0.198 A 
ATOM     82  C   UNL A   1      38.548  34.163  39.075  1.00  0.00     0.198 A 
ATOM     83  F   UNL A   1      38.128  32.153  37.926  1.00  0.00    -0.203 F 
ATOM     84  F   UNL A   1      40.502  37.060  38.120  1.00  0.00    -0.200 F 
ATOM     85  C   UNL A   1      39.152  35.410  39.135  1.00  0.00     0.200 A 
ATOM     86  F   UNL A   1      37.808  33.728  40.104  1.00  0.00    -0.200 F 
ATOM     87  F   UNL A   1      39.021  36.169  40.232  1.00  0.00    -0.200 F 
ENDBRANCH  53  77
BRANCH  65  88
ATOM     88  C   UNL A   1      44.155  28.978  35.026  1.00  0.00     0.064 A 
ATOM     89  C   UNL A   1      45.411  29.530  34.732  1.00  0.00     0.173 A 
ATOM     90  C   UNL A   1      44.092  27.959  35.988  1.00  0.00     0.173 A 
ATOM     91  F   UNL A   1      45.523  30.497  33.808  1.00  0.00    -0.203 F 
ATOM     92  C   UNL A   1      46.562  29.053  35.348  1.00  0.00     0.198 A 
ATOM     93  C   UNL A   1      45.243  27.509  36.629  1.00  0.00     0.198 A 
ATOM     94  F   UNL A   1      42.914  27.404  36.313  1.00  0.00    -0.203 F 
ATOM     95  F   UNL A   1      47.758  29.553  35.007  1.00  0.00    -0.200 F 
ATOM     96  C   UNL A   1      46.477  28.049  36.302  1.00  0.00     0.200 A 
ATOM     97  F   UNL A   1      45.157  26.550  37.562  1.00  0.00    -0.200 F 
ATOM     98  F   UNL A   1      47.588  27.594  36.897  1.00  0.00    -0.200 F 
ENDBRANCH  65  88
ENDBRANCH  39  40
ENDBRANCH  31  34
ENDBRANCH  29  30
ENDBRANCH  28  29
ENDBRANCH   1  28
TORSDOF 14
ENDMDL
MODEL 3
REMARK VINA RESULT:     -12.8      1.277      2.317
REMARK SMILES CCc1cc(N2CCC[C@H](C(=O)NCCCCNC(=O)c3ccc(-c4c5nc(c(-c6c(F)c(F)c(F)c(F)c6F)c6ccc([nH]6)c(-c6c(F)c(F)c(F)c(F)c6F)c6nc(c(-c7c(F)c(F)c(F)c(F)c7F)c7ccc4[nH]7)C=C6)C=C5)cc3)C2)nc(-c2ccc(Cl)cc2)n1
REMARK SMILES IDX 15 1 14 2 13 3 11 4 12 5 10 7 6 8 7 9 84 10 8 11 9 12 5 13
REMARK SMILES IDX 3 14 4 15 94 16 86 17 85 18 2 19 1 20 87 21 88 22 93 23
REMARK SMILES IDX 89 24 92 25 90 26 91 27 16 28 17 29 18 30 19 31 20 33 21 34
REMARK SMILES IDX 22 35 83 36 23 37 82 38 24 39 25 40 26 41 76 42 27 43 81 44
REMARK SMILES IDX 75 45 77 46 28 47 80 48 74 49 73 50 29 52 61 53 41 54 60 55
REMARK SMILES IDX 42 56 45 57 59 58 78 59 43 60 44 61 58 63 79 64 46 65 30 66
REMARK SMILES IDX 31 67 39 68 32 69 33 70 37 71 40 72 34 73 35 74 38 75 36 76
REMARK SMILES IDX 62 77 63 78 71 79 64 80 65 81 69 82 72 83 66 84 67 85 70 86
REMARK SMILES IDX 68 87 47 88 48 89 56 90 49 91 50 92 54 93 57 94 51 95 52 96
REMARK SMILES IDX 55 97 53 98
REMARK H PARENT 13 6 18 32 77 51 45 62
REMARK Flexibility Score: inf
ROOT
ATOM      1  C   UNL A   1      33.660  27.521  25.953  1.00  0.00     0.023 C 
ENDROOT
BRANCH   1   2
ATOM      2  C   UNL A   1      33.104  26.101  25.965  1.00  0.00     0.116 C 
BRANCH   2   3
ATOM      3  N   UNL A   1      31.720  25.985  26.364  1.00  0.00    -0.356 N 
ATOM      4  C   UNL A   1      30.711  25.284  25.780  1.00  0.00     0.224 C 
ATOM      5  O   UNL A   1      29.737  25.027  26.501  1.00  0.00    -0.275 OA
ATOM      6  H   UNL A   1      31.471  26.485  27.174  1.00  0.00     0.163 HD
BRANCH   4   7
ATOM      7  C   UNL A   1      30.690  24.825  24.314  1.00  0.00     0.098 C 
ATOM      8  N   UNL A   1      32.695  23.550  23.677  1.00  0.00    -0.356 N 
ATOM      9  C   UNL A   1      33.093  24.421  22.585  1.00  0.00     0.118 C 
ATOM     10  C   UNL A   1      31.297  23.449  24.052  1.00  0.00     0.131 C 
ATOM     11  C   UNL A   1      32.511  25.827  22.756  1.00  0.00     0.022 C 
ATOM     12  C   UNL A   1      31.077  25.886  23.279  1.00  0.00     0.017 C 
BRANCH   8  13
ATOM     13  C   UNL A   1      33.582  22.602  24.147  1.00  0.00     0.132 A 
ATOM     14  C   UNL A   1      35.724  21.923  24.864  1.00  0.00     0.046 A 
ATOM     15  C   UNL A   1      34.893  22.937  24.438  1.00  0.00     0.070 A 
ATOM     16  N   UNL A   1      35.294  20.661  24.973  1.00  0.00    -0.233 NA
ATOM     17  C   UNL A   1      34.022  20.414  24.630  1.00  0.00     0.161 A 
ATOM     18  N   UNL A   1      33.138  21.333  24.227  1.00  0.00    -0.211 NA
BRANCH  14  19
ATOM     19  C   UNL A   1      37.173  22.135  25.197  1.00  0.00     0.053 C 
ATOM     20  C   UNL A   1      37.439  23.520  25.752  1.00  0.00     0.011 C 
ENDBRANCH  14  19
BRANCH  17  21
ATOM     21  C   UNL A   1      33.743  18.991  24.461  1.00  0.00     0.019 A 
ATOM     22  C   UNL A   1      32.419  18.525  24.525  1.00  0.00     0.013 A 
ATOM     23  C   UNL A   1      34.795  18.061  24.549  1.00  0.00     0.013 A 
ATOM     24  C   UNL A   1      32.153  17.189  24.825  1.00  0.00     0.021 A 
ATOM     25  C   UNL A   1      34.530  16.727  24.857  1.00  0.00     0.021 A 
ATOM     26  C   UNL A   1      33.214  16.317  25.054  1.00  0.00     0.041 A 
ATOM     27  Cl  UNL A   1      32.920  14.743  25.667  1.00  0.00    -0.084 Cl
ENDBRANCH  17  21
ENDBRANCH   8  13
ENDBRANCH   4   7
ENDBRANCH   2   3
ENDBRANCH   1   2
BRANCH   1  28
ATOM     28  C   UNL A   1      32.631  28.622  25.717  1.00  0.00     0.023 C 
BRANCH  28  29
ATOM     29  C   UNL A   1      32.219  29.423  26.952  1.00  0.00     0.116 C 
BRANCH  29  30
ATOM     30  N   UNL A   1      32.342  30.864  26.818  1.00  0.00    -0.352 N 
ATOM     31  C   UNL A   1      33.344  31.706  27.251  1.00  0.00     0.251 C 
ATOM     32  H   UNL A   1      31.598  31.306  26.348  1.00  0.00     0.163 HD
ATOM     33  O   UNL A   1      33.224  32.917  27.082  1.00  0.00    -0.269 OA
BRANCH  31  34
ATOM     34  C   UNL A   1      34.559  31.190  27.940  1.00  0.00     0.039 A 
ATOM     35  C   UNL A   1      35.646  32.054  28.127  1.00  0.00     0.014 A 
ATOM     36  C   UNL A   1      34.675  29.863  28.359  1.00  0.00     0.014 A 
ATOM     37  C   UNL A   1      36.802  31.608  28.779  1.00  0.00     0.010 A 
ATOM     38  C   UNL A   1      35.811  29.419  29.031  1.00  0.00     0.010 A 
ATOM     39  C   UNL A   1      36.878  30.293  29.255  1.00  0.00    -0.014 A 
BRANCH  39  40
ATOM     40  C   UNL A   1      38.025  29.823  30.063  1.00  0.00     0.031 A 
ATOM     41  C   UNL A   1      38.207  30.275  31.479  1.00  0.00     0.074 A 
ATOM     42  C   UNL A   1      38.969  29.088  29.449  1.00  0.00     0.049 A 
ATOM     43  N   UNL A   1      39.219  30.104  32.289  1.00  0.00    -0.248 NA
ATOM     44  C   UNL A   1      37.119  31.078  32.045  1.00  0.00     0.031 C 
ATOM     45  C   UNL A   1      38.933  28.676  28.045  1.00  0.00     0.029 A 
ATOM     46  N   UNL A   1      40.146  28.575  29.921  1.00  0.00    -0.354 N 
ATOM     47  C   UNL A   1      38.914  30.831  33.436  1.00  0.00     0.074 A 
ATOM     48  C   UNL A   1      37.642  31.476  33.196  1.00  0.00     0.031 C 
ATOM     49  C   UNL A   1      40.034  27.959  27.772  1.00  0.00     0.029 A 
ATOM     50  C   UNL A   1      40.854  27.877  28.976  1.00  0.00     0.049 A 
ATOM     51  H   UNL A   1      40.454  28.694  30.848  1.00  0.00     0.167 HD
ATOM     52  C   UNL A   1      39.623  30.916  34.588  1.00  0.00     0.037 A 
ATOM     53  C   UNL A   1      42.032  27.238  29.083  1.00  0.00     0.037 A 
ATOM     54  C   UNL A   1      40.822  30.156  34.837  1.00  0.00     0.049 A 
ATOM     55  C   UNL A   1      42.715  27.217  30.424  1.00  0.00     0.074 A 
ATOM     56  C   UNL A   1      41.541  30.031  36.012  1.00  0.00     0.029 A 
ATOM     57  N   UNL A   1      41.459  29.363  33.892  1.00  0.00    -0.354 N 
ATOM     58  N   UNL A   1      42.378  27.827  31.535  1.00  0.00    -0.248 NA
ATOM     59  C   UNL A   1      43.926  26.393  30.536  1.00  0.00     0.031 C 
ATOM     60  C   UNL A   1      42.625  29.181  35.773  1.00  0.00     0.029 A 
ATOM     61  C   UNL A   1      42.559  28.742  34.460  1.00  0.00     0.049 A 
ATOM     62  H   UNL A   1      41.171  29.256  32.956  1.00  0.00     0.167 HD
ATOM     63  C   UNL A   1      43.316  27.441  32.482  1.00  0.00     0.074 A 
ATOM     64  C   UNL A   1      44.217  26.520  31.822  1.00  0.00     0.031 C 
ATOM     65  C   UNL A   1      43.431  27.820  33.779  1.00  0.00     0.037 A 
BRANCH  52  66
ATOM     66  C   UNL A   1      39.115  31.811  35.688  1.00  0.00     0.064 A 
ATOM     67  C   UNL A   1      38.249  31.341  36.688  1.00  0.00     0.173 A 
ATOM     68  C   UNL A   1      39.577  33.134  35.800  1.00  0.00     0.173 A 
ATOM     69  F   UNL A   1      37.782  30.084  36.640  1.00  0.00    -0.203 F 
ATOM     70  C   UNL A   1      37.841  32.164  37.735  1.00  0.00     0.198 A 
ATOM     71  C   UNL A   1      39.197  33.943  36.870  1.00  0.00     0.198 A 
ATOM     72  F   UNL A   1      40.422  33.636  34.887  1.00  0.00    -0.203 F 
ATOM     73  F   UNL A   1      36.983  31.700  38.653  1.00  0.00    -0.200 F 
ATOM     74  C   UNL A   1      38.324  33.460  37.832  1.00  0.00     0.200 A 
ATOM     75  F   UNL A   1      39.686  35.186  36.976  1.00  0.00    -0.200 F 
ATOM     76  F   UNL A   1      37.953  34.240  38.856  1.00  0.00    -0.200 F 
ENDBRANCH  52  66
BRANCH  53  77
ATOM     77  C   UNL A   1      42.595  26.516  27.914  1.00  0.00     0.064 A 
ATOM     78  C   UNL A   1      43.440  27.169  27.005  1.00  0.00     0.173 A 
ATOM     79  C   UNL A   1      42.305  25.165  27.681  1.00  0.00     0.173 A 
ATOM     80  F   UNL A   1      43.744  28.463  27.185  1.00  0.00    -0.203 F 
ATOM     81  C   UNL A   1      43.938  26.511  25.884  1.00  0.00     0.198 A 
ATOM     82  C   UNL A   1      42.833  24.498  26.577  1.00  0.00     0.198 A 
ATOM     83  F   UNL A   1      41.522  24.487  28.531  1.00  0.00    -0.203 F 
ATOM     84  F   UNL A   1      44.693  27.177  25.000  1.00  0.00    -0.200 F 
ATOM     85  C   UNL A   1      43.637  25.175  25.672  1.00  0.00     0.200 A 
ATOM     86  F   UNL A   1      42.559  23.199  26.388  1.00  0.00    -0.200 F 
ATOM     87  F   UNL A   1      44.116  24.541  24.593  1.00  0.00    -0.200 F 
ENDBRANCH  53  77
BRANCH  65  88
ATOM     88  C   UNL A   1      44.554  27.212  34.567  1.00  0.00     0.064 A 
ATOM     89  C   UNL A   1      45.810  27.833  34.653  1.00  0.00     0.173 A 
ATOM     90  C   UNL A   1      44.366  26.008  35.262  1.00  0.00     0.173 A 
ATOM     91  F   UNL A   1      46.042  28.978  33.994  1.00  0.00    -0.203 F 
ATOM     92  C   UNL A   1      46.846  27.251  35.374  1.00  0.00     0.198 A 
ATOM     93  C   UNL A   1      45.395  25.447  36.012  1.00  0.00     0.198 A 
ATOM     94  F   UNL A   1      43.181  25.379  35.220  1.00  0.00    -0.203 F 
ATOM     95  F   UNL A   1      48.055  27.829  35.392  1.00  0.00    -0.200 F 
ATOM     96  C   UNL A   1      46.636  26.063  36.059  1.00  0.00     0.200 A 
ATOM     97  F   UNL A   1      45.186  24.307  36.686  1.00  0.00    -0.200 F 
ATOM     98  F   UNL A   1      47.636  25.506  36.757  1.00  0.00    -0.200 F 
ENDBRANCH  65  88
ENDBRANCH  39  40
ENDBRANCH  31  34
ENDBRANCH  29  30
ENDBRANCH  28  29
ENDBRANCH   1  28
TORSDOF 14
ENDMDL
