MODEL 1
REMARK VINA RESULT:     -12.8      0.000      0.000
REMARK SMILES CC[C@H]1SC[C@H](C(=O)NCCCCNC(=O)c2ccc(-c3c4nc(c(-c5c(F)c(F)c(F)c(F)c5F)c5ccc([nH]5)c(-c5c(F)c(F)c(F)c(F)c5F)c5nc(c(-c6c(F)c(F)c(F)c(F)c6F)c6ccc3[nH]6)C=C5)C=C4)cc2)N1C(=O)Cc1ccc(F)c(F)c1
REMARK SMILES IDX 11 1 10 2 9 3 7 4 8 5 6 7 3 8 4 9 80 10 5 11 2 12 1 13 81 14
REMARK SMILES IDX 82 15 83 16 84 17 85 18 91 19 86 20 89 21 87 22 90 23 88 24
REMARK SMILES IDX 12 25 13 26 14 27 15 28 16 30 17 31 18 32 79 33 19 34 78 35
REMARK SMILES IDX 20 36 21 37 22 38 72 39 23 40 77 41 71 42 73 43 24 44 76 45
REMARK SMILES IDX 70 46 69 47 25 49 57 50 37 51 56 52 38 53 41 54 55 55 74 56
REMARK SMILES IDX 39 57 40 58 54 60 75 61 42 62 26 63 27 64 35 65 28 66 29 67
REMARK SMILES IDX 33 68 36 69 30 70 31 71 34 72 32 73 58 74 59 75 67 76 60 77
REMARK SMILES IDX 61 78 65 79 68 80 62 81 63 82 66 83 64 84 43 85 44 86 52 87
REMARK SMILES IDX 45 88 46 89 50 90 53 91 47 92 48 93 51 94 49 95
REMARK H PARENT 9 6 14 29 73 48 41 59
REMARK Flexibility Score: inf
ROOT
ATOM      1  C   UNL A   1      36.664  20.731  25.097  1.00  0.00     0.023 C 
ENDROOT
BRANCH   1   2
ATOM      2  C   UNL A   1      36.871  22.242  25.223  1.00  0.00     0.116 C 
BRANCH   2   3
ATOM      3  N   UNL A   1      36.364  22.984  24.080  1.00  0.00    -0.354 N 
ATOM      4  C   UNL A   1      35.141  23.561  23.872  1.00  0.00     0.243 C 
ATOM      5  O   UNL A   1      34.902  24.016  22.751  1.00  0.00    -0.273 OA
ATOM      6  H   UNL A   1      37.002  23.088  23.336  1.00  0.00     0.163 HD
BRANCH   4   7
ATOM      7  C   UNL A   1      34.116  23.634  25.020  1.00  0.00     0.185 C 
ATOM      8  C   UNL A   1      31.719  24.079  25.241  1.00  0.00     0.143 C 
ATOM      9  S   UNL A   1      32.451  25.735  25.273  1.00  0.00    -0.134 SA
ATOM     10  N   UNL A   1      32.747  23.257  24.622  1.00  0.00    -0.318 N 
ATOM     11  C   UNL A   1      34.118  25.084  25.545  1.00  0.00     0.107 C 
BRANCH   8  12
ATOM     12  C   UNL A   1      31.439  23.601  26.684  1.00  0.00     0.033 C 
ATOM     13  C   UNL A   1      30.058  22.992  26.878  1.00  0.00     0.007 C 
ENDBRANCH   8  12
BRANCH  10  14
ATOM     14  C   UNL A   1      32.529  22.037  24.013  1.00  0.00     0.228 C 
ATOM     15  O   UNL A   1      32.616  21.908  22.791  1.00  0.00    -0.274 OA
BRANCH  14  16
ATOM     16  C   UNL A   1      32.164  20.823  24.853  1.00  0.00     0.135 C 
BRANCH  16  17
ATOM     17  C   UNL A   1      32.708  19.536  24.281  1.00  0.00    -0.036 A 
ATOM     18  C   UNL A   1      32.113  18.943  23.152  1.00  0.00     0.007 A 
ATOM     19  C   UNL A   1      33.844  18.941  24.848  1.00  0.00     0.046 A 
ATOM     20  C   UNL A   1      32.684  17.812  22.564  1.00  0.00     0.043 A 
ATOM     21  C   UNL A   1      34.408  17.818  24.250  1.00  0.00     0.159 A 
ATOM     22  C   UNL A   1      33.839  17.264  23.111  1.00  0.00     0.158 A 
ATOM     23  F   UNL A   1      35.527  17.297  24.770  1.00  0.00    -0.204 F 
ATOM     24  F   UNL A   1      34.405  16.202  22.523  1.00  0.00    -0.204 F 
ENDBRANCH  16  17
ENDBRANCH  14  16
ENDBRANCH  10  14
ENDBRANCH   4   7
ENDBRANCH   2   3
ENDBRANCH   1   2
BRANCH   1  25
ATOM     25  C   UNL A   1      37.936  19.923  24.864  1.00  0.00     0.023 C 
BRANCH  25  26
ATOM     26  C   UNL A   1      39.090  20.303  25.777  1.00  0.00     0.116 C 
BRANCH  26  27
ATOM     27  N   UNL A   1      40.059  19.227  25.923  1.00  0.00    -0.352 N 
ATOM     28  C   UNL A   1      41.413  19.299  26.127  1.00  0.00     0.251 C 
ATOM     29  H   UNL A   1      39.690  18.316  25.865  1.00  0.00     0.163 HD
ATOM     30  O   UNL A   1      42.107  18.289  26.050  1.00  0.00    -0.269 OA
BRANCH  28  31
ATOM     31  C   UNL A   1      42.038  20.605  26.415  1.00  0.00     0.039 A 
ATOM     32  C   UNL A   1      42.378  21.442  25.350  1.00  0.00     0.014 A 
ATOM     33  C   UNL A   1      42.264  21.012  27.733  1.00  0.00     0.014 A 
ATOM     34  C   UNL A   1      42.885  22.715  25.611  1.00  0.00     0.010 A 
ATOM     35  C   UNL A   1      42.683  22.311  27.991  1.00  0.00     0.010 A 
ATOM     36  C   UNL A   1      43.004  23.174  26.933  1.00  0.00    -0.014 A 
BRANCH  36  37
ATOM     37  C   UNL A   1      43.457  24.556  27.229  1.00  0.00     0.031 A 
ATOM     38  C   UNL A   1      42.483  25.574  27.752  1.00  0.00     0.074 A 
ATOM     39  C   UNL A   1      44.725  24.912  26.953  1.00  0.00     0.049 A 
ATOM     40  N   UNL A   1      42.671  26.843  28.011  1.00  0.00    -0.248 NA
ATOM     41  C   UNL A   1      41.106  25.112  27.982  1.00  0.00     0.031 C 
ATOM     42  C   UNL A   1      45.745  24.032  26.382  1.00  0.00     0.029 A 
ATOM     43  N   UNL A   1      45.370  26.115  27.101  1.00  0.00    -0.354 N 
ATOM     44  C   UNL A   1      41.436  27.332  28.413  1.00  0.00     0.074 A 
ATOM     45  C   UNL A   1      40.494  26.240  28.308  1.00  0.00     0.031 C 
ATOM     46  C   UNL A   1      46.890  24.716  26.243  1.00  0.00     0.029 A 
ATOM     47  C   UNL A   1      46.676  26.094  26.677  1.00  0.00     0.049 A 
ATOM     48  H   UNL A   1      44.937  26.916  27.475  1.00  0.00     0.167 HD
ATOM     49  C   UNL A   1      41.121  28.575  28.848  1.00  0.00     0.037 A 
ATOM     50  C   UNL A   1      47.593  27.078  26.631  1.00  0.00     0.037 A 
ATOM     51  C   UNL A   1      42.071  29.651  28.969  1.00  0.00     0.049 A 
ATOM     52  C   UNL A   1      47.226  28.448  27.132  1.00  0.00     0.074 A 
ATOM     53  C   UNL A   1      41.876  30.921  29.483  1.00  0.00     0.029 A 
ATOM     54  N   UNL A   1      43.395  29.586  28.558  1.00  0.00    -0.354 N 
ATOM     55  N   UNL A   1      46.079  28.877  27.600  1.00  0.00    -0.248 NA
ATOM     56  C   UNL A   1      48.283  29.467  27.107  1.00  0.00     0.031 C 
ATOM     57  C   UNL A   1      43.061  31.644  29.322  1.00  0.00     0.029 A 
ATOM     58  C   UNL A   1      44.018  30.806  28.771  1.00  0.00     0.049 A 
ATOM     59  H   UNL A   1      43.829  28.791  28.172  1.00  0.00     0.167 HD
ATOM     60  C   UNL A   1      46.280  30.207  27.946  1.00  0.00     0.074 A 
ATOM     61  C   UNL A   1      47.666  30.508  27.648  1.00  0.00     0.031 C 
ATOM     62  C   UNL A   1      45.396  31.096  28.464  1.00  0.00     0.037 A 
BRANCH  49  63
ATOM     63  C   UNL A   1      39.687  28.841  29.211  1.00  0.00     0.064 A 
ATOM     64  C   UNL A   1      38.759  29.322  28.273  1.00  0.00     0.173 A 
ATOM     65  C   UNL A   1      39.230  28.597  30.515  1.00  0.00     0.173 A 
ATOM     66  F   UNL A   1      39.143  29.582  27.014  1.00  0.00    -0.203 F 
ATOM     67  C   UNL A   1      37.442  29.590  28.638  1.00  0.00     0.198 A 
ATOM     68  C   UNL A   1      37.903  28.831  30.867  1.00  0.00     0.198 A 
ATOM     69  F   UNL A   1      40.070  28.130  31.451  1.00  0.00    -0.203 F 
ATOM     70  F   UNL A   1      36.593  30.113  27.742  1.00  0.00    -0.200 F 
ATOM     71  C   UNL A   1      37.014  29.339  29.933  1.00  0.00     0.200 A 
ATOM     72  F   UNL A   1      37.487  28.573  32.115  1.00  0.00    -0.200 F 
ATOM     73  F   UNL A   1      35.746  29.596  30.282  1.00  0.00    -0.200 F 
ENDBRANCH  49  63
BRANCH  50  74
ATOM     74  C   UNL A   1      48.953  26.787  26.104  1.00  0.00     0.064 A 
ATOM     75  C   UNL A   1      49.949  26.249  26.930  1.00  0.00     0.173 A 
ATOM     76  C   UNL A   1      49.273  27.013  24.757  1.00  0.00     0.173 A 
ATOM     77  F   UNL A   1      49.697  26.033  28.229  1.00  0.00    -0.203 F 
ATOM     78  C   UNL A   1      51.218  25.962  26.432  1.00  0.00     0.198 A 
ATOM     79  C   UNL A   1      50.533  26.697  24.254  1.00  0.00     0.198 A 
ATOM     80  F   UNL A   1      48.351  27.519  23.924  1.00  0.00    -0.203 F 
ATOM     81  F   UNL A   1      52.164  25.483  27.251  1.00  0.00    -0.200 F 
ATOM     82  C   UNL A   1      51.507  26.177  25.092  1.00  0.00     0.200 A 
ATOM     83  F   UNL A   1      50.800  26.891  22.955  1.00  0.00    -0.200 F 
ATOM     84  F   UNL A   1      52.722  25.887  24.611  1.00  0.00    -0.200 F 
ENDBRANCH  50  74
BRANCH  62  85
ATOM     85  C   UNL A   1      45.906  32.476  28.768  1.00  0.00     0.064 A 
ATOM     86  C   UNL A   1      45.823  33.517  27.832  1.00  0.00     0.173 A 
ATOM     87  C   UNL A   1      46.446  32.771  30.030  1.00  0.00     0.173 A 
ATOM     88  F   UNL A   1      45.329  33.287  26.606  1.00  0.00    -0.203 F 
ATOM     89  C   UNL A   1      46.286  34.795  28.138  1.00  0.00     0.198 A 
ATOM     90  C   UNL A   1      46.875  34.056  30.345  1.00  0.00     0.198 A 
ATOM     91  F   UNL A   1      46.542  31.813  30.964  1.00  0.00    -0.203 F 
ATOM     92  F   UNL A   1      46.244  35.762  27.211  1.00  0.00    -0.200 F 
ATOM     93  C   UNL A   1      46.803  35.065  29.396  1.00  0.00     0.200 A 
ATOM     94  F   UNL A   1      47.359  34.319  31.567  1.00  0.00    -0.200 F 
ATOM     95  F   UNL A   1      47.239  36.297  29.693  1.00  0.00    -0.200 F 
ENDBRANCH  62  85
ENDBRANCH  36  37
ENDBRANCH  28  31
ENDBRANCH  26  27
ENDBRANCH  25  26
ENDBRANCH   1  25
TORSDOF 15
ENDMDL
MODEL 2
REMARK VINA RESULT:     -12.7      0.197      1.586
REMARK SMILES CC[C@H]1SC[C@H](C(=O)NCCCCNC(=O)c2ccc(-c3c4nc(c(-c5c(F)c(F)c(F)c(F)c5F)c5ccc([nH]5)c(-c5c(F)c(F)c(F)c(F)c5F)c5nc(c(-c6c(F)c(F)c(F)c(F)c6F)c6ccc3[nH]6)C=C5)C=C4)cc2)N1C(=O)Cc1ccc(F)c(F)c1
REMARK SMILES IDX 11 1 10 2 9 3 7 4 8 5 6 7 3 8 4 9 80 10 5 11 2 12 1 13 81 14
REMARK SMILES IDX 82 15 83 16 84 17 85 18 91 19 86 20 89 21 87 22 90 23 88 24
REMARK SMILES IDX 12 25 13 26 14 27 15 28 16 30 17 31 18 32 79 33 19 34 78 35
REMARK SMILES IDX 20 36 21 37 22 38 72 39 23 40 77 41 71 42 73 43 24 44 76 45
REMARK SMILES IDX 70 46 69 47 25 49 57 50 37 51 56 52 38 53 41 54 55 55 74 56
REMARK SMILES IDX 39 57 40 58 54 60 75 61 42 62 26 63 27 64 35 65 28 66 29 67
REMARK SMILES IDX 33 68 36 69 30 70 31 71 34 72 32 73 58 74 59 75 67 76 60 77
REMARK SMILES IDX 61 78 65 79 68 80 62 81 63 82 66 83 64 84 43 85 44 86 52 87
REMARK SMILES IDX 45 88 46 89 50 90 53 91 47 92 48 93 51 94 49 95
REMARK H PARENT 9 6 14 29 73 48 41 59
REMARK Flexibility Score: inf
ROOT
ATOM      1  C   UNL A   1      36.649  20.669  25.241  1.00  0.00     0.023 C 
ENDROOT
BRANCH   1   2
ATOM      2  C   UNL A   1      36.895  22.179  25.274  1.00  0.00     0.116 C 
BRANCH   2   3
ATOM      3  N   UNL A   1      36.386  22.865  24.096  1.00  0.00    -0.354 N 
ATOM      4  C   UNL A   1      35.167  23.439  23.866  1.00  0.00     0.243 C 
ATOM      5  O   UNL A   1      34.924  23.837  22.724  1.00  0.00    -0.273 OA
ATOM      6  H   UNL A   1      37.021  22.924  23.345  1.00  0.00     0.163 HD
BRANCH   4   7
ATOM      7  C   UNL A   1      34.149  23.580  25.014  1.00  0.00     0.185 C 
ATOM      8  C   UNL A   1      31.773  24.124  25.231  1.00  0.00     0.143 C 
ATOM      9  S   UNL A   1      32.569  25.750  25.222  1.00  0.00    -0.134 SA
ATOM     10  N   UNL A   1      32.765  23.248  24.628  1.00  0.00    -0.318 N 
ATOM     11  C   UNL A   1      34.211  25.040  25.505  1.00  0.00     0.107 C 
BRANCH   8  12
ATOM     12  C   UNL A   1      31.478  23.692  26.685  1.00  0.00     0.033 C 
ATOM     13  C   UNL A   1      30.104  23.071  26.881  1.00  0.00     0.007 C 
ENDBRANCH   8  12
BRANCH  10  14
ATOM     14  C   UNL A   1      32.496  22.024  24.049  1.00  0.00     0.228 C 
ATOM     15  O   UNL A   1      32.476  21.887  22.825  1.00  0.00    -0.274 OA
BRANCH  14  16
ATOM     16  C   UNL A   1      32.209  20.815  24.925  1.00  0.00     0.135 C 
BRANCH  16  17
ATOM     17  C   UNL A   1      32.736  19.530  24.334  1.00  0.00    -0.036 A 
ATOM     18  C   UNL A   1      32.130  18.959  23.199  1.00  0.00     0.007 A 
ATOM     19  C   UNL A   1      33.867  18.914  24.888  1.00  0.00     0.046 A 
ATOM     20  C   UNL A   1      32.686  17.830  22.593  1.00  0.00     0.043 A 
ATOM     21  C   UNL A   1      34.416  17.793  24.273  1.00  0.00     0.159 A 
ATOM     22  C   UNL A   1      33.836  17.261  23.129  1.00  0.00     0.158 A 
ATOM     23  F   UNL A   1      35.531  17.252  24.781  1.00  0.00    -0.204 F 
ATOM     24  F   UNL A   1      34.388  16.202  22.524  1.00  0.00    -0.204 F 
ENDBRANCH  16  17
ENDBRANCH  14  16
ENDBRANCH  10  14
ENDBRANCH   4   7
ENDBRANCH   2   3
ENDBRANCH   1   2
BRANCH   1  25
ATOM     25  C   UNL A   1      37.887  19.820  24.973  1.00  0.00     0.023 C 
BRANCH  25  26
ATOM     26  C   UNL A   1      39.119  20.254  25.751  1.00  0.00     0.116 C 
BRANCH  26  27
ATOM     27  N   UNL A   1      40.081  19.174  25.914  1.00  0.00    -0.352 N 
ATOM     28  C   UNL A   1      41.435  19.240  26.119  1.00  0.00     0.251 C 
ATOM     29  H   UNL A   1      39.706  18.264  25.870  1.00  0.00     0.163 HD
ATOM     30  O   UNL A   1      42.123  18.224  26.059  1.00  0.00    -0.269 OA
BRANCH  28  31
ATOM     31  C   UNL A   1      42.068  20.546  26.389  1.00  0.00     0.039 A 
ATOM     32  C   UNL A   1      42.435  21.355  25.311  1.00  0.00     0.014 A 
ATOM     33  C   UNL A   1      42.277  20.980  27.701  1.00  0.00     0.014 A 
ATOM     34  C   UNL A   1      42.951  22.629  25.552  1.00  0.00     0.010 A 
ATOM     35  C   UNL A   1      42.704  22.281  27.937  1.00  0.00     0.010 A 
ATOM     36  C   UNL A   1      43.052  23.116  26.865  1.00  0.00    -0.014 A 
BRANCH  36  37
ATOM     37  C   UNL A   1      43.514  24.499  27.138  1.00  0.00     0.031 A 
ATOM     38  C   UNL A   1      42.548  25.532  27.645  1.00  0.00     0.074 A 
ATOM     39  C   UNL A   1      44.784  24.844  26.855  1.00  0.00     0.049 A 
ATOM     40  N   UNL A   1      42.744  26.804  27.883  1.00  0.00    -0.248 NA
ATOM     41  C   UNL A   1      41.168  25.083  27.885  1.00  0.00     0.031 C 
ATOM     42  C   UNL A   1      45.797  23.947  26.297  1.00  0.00     0.029 A 
ATOM     43  N   UNL A   1      45.437  26.044  26.982  1.00  0.00    -0.354 N 
ATOM     44  C   UNL A   1      41.512  27.308  28.279  1.00  0.00     0.074 A 
ATOM     45  C   UNL A   1      40.563  26.220  28.193  1.00  0.00     0.031 C 
ATOM     46  C   UNL A   1      46.947  24.622  26.145  1.00  0.00     0.029 A 
ATOM     47  C   UNL A   1      46.742  26.008  26.557  1.00  0.00     0.049 A 
ATOM     48  H   UNL A   1      45.009  26.854  27.343  1.00  0.00     0.167 HD
ATOM     49  C   UNL A   1      41.206  28.560  28.694  1.00  0.00     0.037 A 
ATOM     50  C   UNL A   1      47.665  26.985  26.493  1.00  0.00     0.037 A 
ATOM     51  C   UNL A   1      42.163  29.631  28.796  1.00  0.00     0.049 A 
ATOM     52  C   UNL A   1      47.308  28.366  26.972  1.00  0.00     0.074 A 
ATOM     53  C   UNL A   1      41.976  30.910  29.290  1.00  0.00     0.029 A 
ATOM     54  N   UNL A   1      43.486  29.551  28.384  1.00  0.00    -0.354 N 
ATOM     55  N   UNL A   1      46.164  28.810  27.435  1.00  0.00    -0.248 NA
ATOM     56  C   UNL A   1      48.371  29.378  26.929  1.00  0.00     0.031 C 
ATOM     57  C   UNL A   1      43.166  31.624  29.115  1.00  0.00     0.029 A 
ATOM     58  C   UNL A   1      44.116  30.771  28.577  1.00  0.00     0.049 A 
ATOM     59  H   UNL A   1      43.914  28.747  28.011  1.00  0.00     0.167 HD
ATOM     60  C   UNL A   1      46.374  30.143  27.758  1.00  0.00     0.074 A 
ATOM     61  C   UNL A   1      47.761  30.431  27.454  1.00  0.00     0.031 C 
ATOM     62  C   UNL A   1      45.496  31.046  28.263  1.00  0.00     0.037 A 
BRANCH  49  63
ATOM     63  C   UNL A   1      39.774  28.841  29.054  1.00  0.00     0.064 A 
ATOM     64  C   UNL A   1      38.858  29.350  28.120  1.00  0.00     0.173 A 
ATOM     65  C   UNL A   1      39.307  28.583  30.352  1.00  0.00     0.173 A 
ATOM     66  F   UNL A   1      39.251  29.624  26.867  1.00  0.00    -0.203 F 
ATOM     67  C   UNL A   1      37.543  29.631  28.483  1.00  0.00     0.198 A 
ATOM     68  C   UNL A   1      37.982  28.831  30.702  1.00  0.00     0.198 A 
ATOM     69  F   UNL A   1      40.136  28.089  31.284  1.00  0.00    -0.203 F 
ATOM     70  F   UNL A   1      36.706  30.180  27.591  1.00  0.00    -0.200 F 
ATOM     71  C   UNL A   1      37.105  29.366  29.772  1.00  0.00     0.200 A 
ATOM     72  F   UNL A   1      37.556  28.558  31.943  1.00  0.00    -0.200 F 
ATOM     73  F   UNL A   1      35.839  29.635  30.119  1.00  0.00    -0.200 F 
ENDBRANCH  49  63
BRANCH  50  74
ATOM     74  C   UNL A   1      49.022  26.677  25.970  1.00  0.00     0.064 A 
ATOM     75  C   UNL A   1      49.377  26.991  24.651  1.00  0.00     0.173 A 
ATOM     76  C   UNL A   1      50.000  26.090  26.787  1.00  0.00     0.173 A 
ATOM     77  F   UNL A   1      48.472  27.537  23.825  1.00  0.00    -0.203 F 
ATOM     78  C   UNL A   1      50.655  26.717  24.165  1.00  0.00     0.198 A 
ATOM     79  C   UNL A   1      51.285  25.844  26.309  1.00  0.00     0.198 A 
ATOM     80  F   UNL A   1      49.712  25.778  28.060  1.00  0.00    -0.203 F 
ATOM     81  F   UNL A   1      50.957  26.993  22.890  1.00  0.00    -0.200 F 
ATOM     82  C   UNL A   1      51.610  26.152  24.997  1.00  0.00     0.200 A 
ATOM     83  F   UNL A   1      52.209  25.315  27.123  1.00  0.00    -0.200 F 
ATOM     84  F   UNL A   1      52.841  25.902  24.534  1.00  0.00    -0.200 F 
ENDBRANCH  50  74
BRANCH  62  85
ATOM     85  C   UNL A   1      46.015  32.429  28.544  1.00  0.00     0.064 A 
ATOM     86  C   UNL A   1      46.612  32.759  29.769  1.00  0.00     0.173 A 
ATOM     87  C   UNL A   1      45.953  33.424  27.556  1.00  0.00     0.173 A 
ATOM     88  F   UNL A   1      46.685  31.849  30.753  1.00  0.00    -0.203 F 
ATOM     89  C   UNL A   1      47.103  34.041  30.005  1.00  0.00     0.198 A 
ATOM     90  C   UNL A   1      46.475  34.694  27.782  1.00  0.00     0.198 A 
ATOM     91  F   UNL A   1      45.398  33.159  26.363  1.00  0.00    -0.203 F 
ATOM     92  F   UNL A   1      47.622  34.349  31.202  1.00  0.00    -0.200 F 
ATOM     93  C   UNL A   1      47.042  35.004  29.009  1.00  0.00     0.200 A 
ATOM     94  F   UNL A   1      46.430  35.617  26.812  1.00  0.00    -0.200 F 
ATOM     95  F   UNL A   1      47.523  36.234  29.234  1.00  0.00    -0.200 F 
ENDBRANCH  62  85
ENDBRANCH  36  37
ENDBRANCH  28  31
ENDBRANCH  26  27
ENDBRANCH  25  26
ENDBRANCH   1  25
TORSDOF 15
ENDMDL
MODEL 3
REMARK VINA RESULT:     -12.6      0.472      7.328
REMARK SMILES CC[C@H]1SC[C@H](C(=O)NCCCCNC(=O)c2ccc(-c3c4nc(c(-c5c(F)c(F)c(F)c(F)c5F)c5ccc([nH]5)c(-c5c(F)c(F)c(F)c(F)c5F)c5nc(c(-c6c(F)c(F)c(F)c(F)c6F)c6ccc3[nH]6)C=C5)C=C4)cc2)N1C(=O)Cc1ccc(F)c(F)c1
REMARK SMILES IDX 11 1 10 2 9 3 7 4 8 5 6 7 3 8 4 9 80 10 5 11 2 12 1 13 81 14
REMARK SMILES IDX 82 15 83 16 84 17 85 18 91 19 86 20 89 21 87 22 90 23 88 24
REMARK SMILES IDX 12 25 13 26 14 27 15 28 16 30 17 31 18 32 79 33 19 34 78 35
REMARK SMILES IDX 20 36 21 37 22 38 72 39 23 40 77 41 71 42 73 43 24 44 76 45
REMARK SMILES IDX 70 46 69 47 25 49 57 50 37 51 56 52 38 53 41 54 55 55 74 56
REMARK SMILES IDX 39 57 40 58 54 60 75 61 42 62 26 63 27 64 35 65 28 66 29 67
REMARK SMILES IDX 33 68 36 69 30 70 31 71 34 72 32 73 58 74 59 75 67 76 60 77
REMARK SMILES IDX 61 78 65 79 68 80 62 81 63 82 66 83 64 84 43 85 44 86 52 87
REMARK SMILES IDX 45 88 46 89 50 90 53 91 47 92 48 93 51 94 49 95
REMARK H PARENT 9 6 14 29 73 48 41 59
REMARK Flexibility Score: inf
ROOT
ATOM      1  C   UNL A   1      36.755  20.553  25.002  1.00  0.00     0.023 C 
ENDROOT
BRANCH   1   2
ATOM      2  C   UNL A   1      37.061  22.052  24.950  1.00  0.00     0.116 C 
BRANCH   2   3
ATOM      3  N   UNL A   1      36.474  22.714  23.795  1.00  0.00    -0.354 N 
ATOM      4  C   UNL A   1      35.239  23.277  23.632  1.00  0.00     0.243 C 
ATOM      5  O   UNL A   1      34.923  23.653  22.500  1.00  0.00    -0.273 OA
ATOM      6  H   UNL A   1      37.060  22.762  23.004  1.00  0.00     0.163 HD
BRANCH   4   7
ATOM      7  C   UNL A   1      34.296  23.435  24.840  1.00  0.00     0.185 C 
ATOM      8  C   UNL A   1      31.963  24.080  25.204  1.00  0.00     0.143 C 
ATOM      9  S   UNL A   1      32.832  25.668  25.186  1.00  0.00    -0.134 SA
ATOM     10  N   UNL A   1      32.878  23.175  24.526  1.00  0.00    -0.318 N 
ATOM     11  C   UNL A   1      34.452  24.878  25.359  1.00  0.00     0.107 C 
BRANCH   8  12
ATOM     12  C   UNL A   1      31.731  23.625  26.663  1.00  0.00     0.033 C 
ATOM     13  C   UNL A   1      30.328  23.103  26.934  1.00  0.00     0.007 C 
ENDBRANCH   8  12
BRANCH  10  14
ATOM     14  C   UNL A   1      32.521  21.980  23.935  1.00  0.00     0.228 C 
ATOM     15  O   UNL A   1      32.464  21.864  22.710  1.00  0.00    -0.274 OA
BRANCH  14  16
ATOM     16  C   UNL A   1      32.180  20.776  24.800  1.00  0.00     0.135 C 
BRANCH  16  17
ATOM     17  C   UNL A   1      32.734  19.486  24.246  1.00  0.00    -0.036 A 
ATOM     18  C   UNL A   1      32.156  18.883  23.114  1.00  0.00     0.007 A 
ATOM     19  C   UNL A   1      33.862  18.897  24.834  1.00  0.00     0.046 A 
ATOM     20  C   UNL A   1      32.737  17.749  22.543  1.00  0.00     0.043 A 
ATOM     21  C   UNL A   1      34.436  17.771  24.254  1.00  0.00     0.159 A 
ATOM     22  C   UNL A   1      33.884  17.207  23.111  1.00  0.00     0.158 A 
ATOM     23  F   UNL A   1      35.548  17.255  24.794  1.00  0.00    -0.204 F 
ATOM     24  F   UNL A   1      34.461  16.142  22.539  1.00  0.00    -0.204 F 
ENDBRANCH  16  17
ENDBRANCH  14  16
ENDBRANCH  10  14
ENDBRANCH   4   7
ENDBRANCH   2   3
ENDBRANCH   1   2
BRANCH   1  25
ATOM     25  C   UNL A   1      37.979  19.645  24.950  1.00  0.00     0.023 C 
BRANCH  25  26
ATOM     26  C   UNL A   1      39.178  20.172  25.720  1.00  0.00     0.116 C 
BRANCH  26  27
ATOM     27  N   UNL A   1      40.212  19.162  25.895  1.00  0.00    -0.352 N 
ATOM     28  C   UNL A   1      41.555  19.324  26.124  1.00  0.00     0.251 C 
ATOM     29  H   UNL A   1      39.904  18.228  25.841  1.00  0.00     0.163 HD
ATOM     30  O   UNL A   1      42.314  18.360  26.071  1.00  0.00    -0.269 OA
BRANCH  28  31
ATOM     31  C   UNL A   1      42.088  20.670  26.409  1.00  0.00     0.039 A 
ATOM     32  C   UNL A   1      42.382  21.521  25.341  1.00  0.00     0.014 A 
ATOM     33  C   UNL A   1      42.275  21.099  27.726  1.00  0.00     0.014 A 
ATOM     34  C   UNL A   1      42.801  22.827  25.598  1.00  0.00     0.010 A 
ATOM     35  C   UNL A   1      42.603  22.425  27.979  1.00  0.00     0.010 A 
ATOM     36  C   UNL A   1      42.876  23.301  26.918  1.00  0.00    -0.014 A 
BRANCH  36  37
ATOM     37  C   UNL A   1      43.233  24.711  27.210  1.00  0.00     0.031 A 
ATOM     38  C   UNL A   1      44.640  25.194  26.996  1.00  0.00     0.074 A 
ATOM     39  C   UNL A   1      42.310  25.534  27.740  1.00  0.00     0.049 A 
ATOM     40  N   UNL A   1      45.161  26.368  27.249  1.00  0.00    -0.248 NA
ATOM     41  C   UNL A   1      45.598  24.217  26.456  1.00  0.00     0.031 C 
ATOM     42  C   UNL A   1      40.930  25.163  28.055  1.00  0.00     0.029 A 
ATOM     43  N   UNL A   1      42.396  26.849  28.123  1.00  0.00    -0.354 N 
ATOM     44  C   UNL A   1      46.505  26.263  26.921  1.00  0.00     0.074 A 
ATOM     45  C   UNL A   1      46.734  24.896  26.505  1.00  0.00     0.031 C 
ATOM     46  C   UNL A   1      40.294  26.227  28.566  1.00  0.00     0.029 A 
ATOM     47  C   UNL A   1      41.230  27.344  28.654  1.00  0.00     0.049 A 
ATOM     48  H   UNL A   1      43.216  27.386  28.027  1.00  0.00     0.167 HD
ATOM     49  C   UNL A   1      47.459  27.224  26.945  1.00  0.00     0.037 A 
ATOM     50  C   UNL A   1      40.952  28.558  29.165  1.00  0.00     0.037 A 
ATOM     51  C   UNL A   1      47.216  28.588  27.340  1.00  0.00     0.049 A 
ATOM     52  C   UNL A   1      42.021  29.616  29.170  1.00  0.00     0.074 A 
ATOM     53  C   UNL A   1      48.090  29.661  27.316  1.00  0.00     0.029 A 
ATOM     54  N   UNL A   1      46.014  29.063  27.845  1.00  0.00    -0.354 N 
ATOM     55  N   UNL A   1      43.266  29.534  28.768  1.00  0.00    -0.248 NA
ATOM     56  C   UNL A   1      41.644  30.936  29.692  1.00  0.00     0.031 C 
ATOM     57  C   UNL A   1      47.437  30.767  27.867  1.00  0.00     0.029 A 
ATOM     58  C   UNL A   1      46.135  30.405  28.172  1.00  0.00     0.049 A 
ATOM     59  H   UNL A   1      45.196  28.526  27.954  1.00  0.00     0.167 HD
ATOM     60  C   UNL A   1      43.816  30.793  28.966  1.00  0.00     0.074 A 
ATOM     61  C   UNL A   1      42.761  31.626  29.509  1.00  0.00     0.031 C 
ATOM     62  C   UNL A   1      45.079  31.220  28.719  1.00  0.00     0.037 A 
BRANCH  49  63
ATOM     63  C   UNL A   1      48.853  26.830  26.547  1.00  0.00     0.064 A 
ATOM     64  C   UNL A   1      49.770  26.306  27.472  1.00  0.00     0.173 A 
ATOM     65  C   UNL A   1      49.274  26.965  25.216  1.00  0.00     0.173 A 
ATOM     66  F   UNL A   1      49.425  26.163  28.760  1.00  0.00    -0.203 F 
ATOM     67  C   UNL A   1      51.068  25.975  27.088  1.00  0.00     0.198 A 
ATOM     68  C   UNL A   1      50.560  26.598  24.827  1.00  0.00     0.198 A 
ATOM     69  F   UNL A   1      48.438  27.453  24.287  1.00  0.00    -0.203 F 
ATOM     70  F   UNL A   1      51.945  25.540  28.004  1.00  0.00    -0.200 F 
ATOM     71  C   UNL A   1      51.460  26.115  25.765  1.00  0.00     0.200 A 
ATOM     72  F   UNL A   1      50.932  26.720  23.545  1.00  0.00    -0.200 F 
ATOM     73  F   UNL A   1      52.707  25.794  25.398  1.00  0.00    -0.200 F 
ENDBRANCH  49  63
BRANCH  50  74
ATOM     74  C   UNL A   1      39.591  28.833  29.697  1.00  0.00     0.064 A 
ATOM     75  C   UNL A   1      39.267  28.560  31.032  1.00  0.00     0.173 A 
ATOM     76  C   UNL A   1      38.597  29.403  28.887  1.00  0.00     0.173 A 
ATOM     77  F   UNL A   1      40.176  27.999  31.841  1.00  0.00    -0.203 F 
ATOM     78  C   UNL A   1      37.995  28.834  31.534  1.00  0.00     0.198 A 
ATOM     79  C   UNL A   1      37.336  29.703  29.398  1.00  0.00     0.198 A 
ATOM     80  F   UNL A   1      38.860  29.690  27.603  1.00  0.00    -0.203 F 
ATOM     81  F   UNL A   1      37.699  28.529  32.804  1.00  0.00    -0.200 F 
ATOM     82  C   UNL A   1      37.034  29.414  30.719  1.00  0.00     0.200 A 
ATOM     83  F   UNL A   1      36.417  30.280  28.610  1.00  0.00    -0.200 F 
ATOM     84  F   UNL A   1      35.818  29.689  31.206  1.00  0.00    -0.200 F 
ENDBRANCH  50  74
BRANCH  62  85
ATOM     85  C   UNL A   1      45.388  32.663  29.008  1.00  0.00     0.064 A 
ATOM     86  C   UNL A   1      45.953  33.067  30.227  1.00  0.00     0.173 A 
ATOM     87  C   UNL A   1      45.155  33.647  28.035  1.00  0.00     0.173 A 
ATOM     88  F   UNL A   1      46.183  32.169  31.196  1.00  0.00    -0.203 F 
ATOM     89  C   UNL A   1      46.248  34.406  30.470  1.00  0.00     0.198 A 
ATOM     90  C   UNL A   1      45.482  34.979  28.269  1.00  0.00     0.198 A 
ATOM     91  F   UNL A   1      44.623  33.313  26.850  1.00  0.00    -0.203 F 
ATOM     92  F   UNL A   1      46.738  34.777  31.661  1.00  0.00    -0.200 F 
ATOM     93  C   UNL A   1      46.020  35.359  29.489  1.00  0.00     0.200 A 
ATOM     94  F   UNL A   1      45.277  35.895  27.312  1.00  0.00    -0.200 F 
ATOM     95  F   UNL A   1      46.313  36.646  29.721  1.00  0.00    -0.200 F 
ENDBRANCH  62  85
ENDBRANCH  36  37
ENDBRANCH  28  31
ENDBRANCH  26  27
ENDBRANCH  25  26
ENDBRANCH   1  25
TORSDOF 15
ENDMDL
