MODEL 1
REMARK VINA RESULT:     -11.8      0.000      0.000
REMARK SMILES O=C(NCCCCNC(=O)[C@H](Cc1cccc(Br)c1)CC1CCC1)c1ccc(-c2c3nc(c(-c4c(F)c(F)c(F)c(F)c4F)c4ccc([nH]4)c(-c4c(F)c(F)c(F)c(F)c4F)c4nc(c(-c5c(F)c(F)c(F)c(F)c5F)c5ccc2[nH]5)C=C4)C=C3)cc1
REMARK SMILES IDX 5 1 4 2 3 3 1 4 2 5 25 7 26 8 87 9 27 10 86 11 28 12 29 13
REMARK SMILES IDX 30 14 80 15 31 16 85 17 79 18 81 19 32 20 84 21 78 22 77 23
REMARK SMILES IDX 33 25 65 26 45 27 64 28 46 29 49 30 63 31 82 32 47 33 48 34
REMARK SMILES IDX 62 36 83 37 50 38 34 39 35 40 43 41 36 42 37 43 41 44 44 45
REMARK SMILES IDX 38 46 39 47 42 48 40 49 66 50 67 51 75 52 68 53 69 54 73 55
REMARK SMILES IDX 76 56 70 57 71 58 74 59 72 60 51 61 52 62 60 63 53 64 54 65
REMARK SMILES IDX 58 66 61 67 55 68 56 69 59 70 57 71 6 72 7 73 8 74 9 75
REMARK SMILES IDX 10 77 11 78 20 79 21 80 22 81 24 82 23 83 12 84 13 85 14 86
REMARK SMILES IDX 19 87 15 88 17 89 16 90 18 91
REMARK H PARENT 3 6 81 24 49 35 8 76
REMARK Flexibility Score: inf
ROOT
ATOM      1  C   UNL A   1      32.144  28.338  24.791  1.00  0.00     0.023 C 
ENDROOT
BRANCH   1   2
ATOM      2  C   UNL A   1      33.212  29.208  25.442  1.00  0.00     0.116 C 
BRANCH   2   3
ATOM      3  N   UNL A   1      32.680  30.470  25.933  1.00  0.00    -0.352 N 
ATOM      4  O   UNL A   1      32.463  32.216  27.348  1.00  0.00    -0.269 OA
ATOM      5  C   UNL A   1      33.134  31.273  26.954  1.00  0.00     0.251 C 
ATOM      6  H   UNL A   1      31.878  30.798  25.466  1.00  0.00     0.163 HD
BRANCH   5   7
ATOM      7  C   UNL A   1      34.434  30.971  27.591  1.00  0.00     0.039 A 
ATOM      8  C   UNL A   1      34.718  29.678  28.031  1.00  0.00     0.014 A 
ATOM      9  C   UNL A   1      35.372  31.994  27.757  1.00  0.00     0.014 A 
ATOM     10  C   UNL A   1      35.861  29.445  28.784  1.00  0.00     0.010 A 
ATOM     11  C   UNL A   1      36.569  31.735  28.432  1.00  0.00     0.010 A 
ATOM     12  C   UNL A   1      36.806  30.466  28.984  1.00  0.00    -0.014 A 
BRANCH  12  13
ATOM     13  C   UNL A   1      38.053  30.151  29.726  1.00  0.00     0.031 A 
ATOM     14  C   UNL A   1      38.277  30.650  31.127  1.00  0.00     0.074 A 
ATOM     15  C   UNL A   1      38.962  29.350  29.138  1.00  0.00     0.049 A 
ATOM     16  N   UNL A   1      39.288  30.423  31.929  1.00  0.00    -0.248 NA
ATOM     17  C   UNL A   1      37.242  31.520  31.703  1.00  0.00     0.031 C 
ATOM     18  C   UNL A   1      38.856  28.821  27.777  1.00  0.00     0.029 A 
ATOM     19  N   UNL A   1      40.133  28.818  29.611  1.00  0.00    -0.354 N 
ATOM     20  C   UNL A   1      39.018  31.127  33.095  1.00  0.00     0.074 A 
ATOM     21  C   UNL A   1      37.761  31.814  32.888  1.00  0.00     0.031 C 
ATOM     22  C   UNL A   1      39.887  27.997  27.543  1.00  0.00     0.029 A 
ATOM     23  C   UNL A   1      40.758  27.988  28.712  1.00  0.00     0.049 A 
ATOM     24  H   UNL A   1      40.492  29.012  30.507  1.00  0.00     0.167 HD
ATOM     25  C   UNL A   1      39.746  31.181  34.237  1.00  0.00     0.037 A 
ATOM     26  C   UNL A   1      41.911  27.304  28.812  1.00  0.00     0.037 A 
ATOM     27  C   UNL A   1      40.992  30.485  34.440  1.00  0.00     0.049 A 
ATOM     28  C   UNL A   1      42.698  27.389  30.087  1.00  0.00     0.074 A 
ATOM     29  C   UNL A   1      41.805  30.477  35.560  1.00  0.00     0.029 A 
ATOM     30  N   UNL A   1      41.603  29.668  33.500  1.00  0.00    -0.354 N 
ATOM     31  N   UNL A   1      42.423  28.049  31.185  1.00  0.00    -0.248 NA
ATOM     32  C   UNL A   1      43.957  26.635  30.138  1.00  0.00     0.031 C 
ATOM     33  C   UNL A   1      42.925  29.683  35.286  1.00  0.00     0.029 A 
ATOM     34  C   UNL A   1      42.788  29.161  34.010  1.00  0.00     0.049 A 
ATOM     35  H   UNL A   1      41.249  29.479  32.601  1.00  0.00     0.167 HD
ATOM     36  C   UNL A   1      43.467  27.787  32.058  1.00  0.00     0.074 A 
ATOM     37  C   UNL A   1      44.366  26.880  31.374  1.00  0.00     0.031 C 
ATOM     38  C   UNL A   1      43.670  28.263  33.312  1.00  0.00     0.037 A 
BRANCH  25  39
ATOM     39  C   UNL A   1      39.221  32.027  35.362  1.00  0.00     0.064 A 
ATOM     40  C   UNL A   1      38.435  31.480  36.386  1.00  0.00     0.173 A 
ATOM     41  C   UNL A   1      39.559  33.386  35.450  1.00  0.00     0.173 A 
ATOM     42  F   UNL A   1      38.074  30.189  36.343  1.00  0.00    -0.203 F 
ATOM     43  C   UNL A   1      37.992  32.266  37.448  1.00  0.00     0.198 A 
ATOM     44  C   UNL A   1      39.136  34.163  36.526  1.00  0.00     0.198 A 
ATOM     45  F   UNL A   1      40.314  33.958  34.500  1.00  0.00    -0.203 F 
ATOM     46  F   UNL A   1      37.214  31.729  38.398  1.00  0.00    -0.200 F 
ATOM     47  C   UNL A   1      38.351  33.604  37.522  1.00  0.00     0.200 A 
ATOM     48  F   UNL A   1      39.494  35.453  36.602  1.00  0.00    -0.200 F 
ATOM     49  F   UNL A   1      37.934  34.355  38.551  1.00  0.00    -0.200 F 
ENDBRANCH  25  39
BRANCH  26  50
ATOM     50  C   UNL A   1      42.388  26.491  27.664  1.00  0.00     0.064 A 
ATOM     51  C   UNL A   1      43.354  26.983  26.778  1.00  0.00     0.173 A 
ATOM     52  C   UNL A   1      41.892  25.198  27.439  1.00  0.00     0.173 A 
ATOM     53  F   UNL A   1      43.845  28.221  26.941  1.00  0.00    -0.203 F 
ATOM     54  C   UNL A   1      43.795  26.220  25.699  1.00  0.00     0.198 A 
ATOM     55  C   UNL A   1      42.356  24.423  26.380  1.00  0.00     0.198 A 
ATOM     56  F   UNL A   1      40.970  24.679  28.264  1.00  0.00    -0.203 F 
ATOM     57  F   UNL A   1      44.687  26.729  24.840  1.00  0.00    -0.200 F 
ATOM     58  C   UNL A   1      43.300  24.937  25.505  1.00  0.00     0.200 A 
ATOM     59  F   UNL A   1      41.890  23.179  26.209  1.00  0.00    -0.200 F 
ATOM     60  F   UNL A   1      43.730  24.200  24.472  1.00  0.00    -0.200 F 
ENDBRANCH  26  50
BRANCH  38  61
ATOM     61  C   UNL A   1      44.906  27.793  34.019  1.00  0.00     0.064 A 
ATOM     62  C   UNL A   1      46.111  28.508  33.940  1.00  0.00     0.173 A 
ATOM     63  C   UNL A   1      44.884  26.622  34.789  1.00  0.00     0.173 A 
ATOM     64  F   UNL A   1      46.185  29.626  33.202  1.00  0.00    -0.203 F 
ATOM     65  C   UNL A   1      47.257  28.048  34.582  1.00  0.00     0.198 A 
ATOM     66  C   UNL A   1      46.025  26.179  35.450  1.00  0.00     0.198 A 
ATOM     67  F   UNL A   1      43.755  25.904  34.898  1.00  0.00    -0.203 F 
ATOM     68  F   UNL A   1      48.411  28.717  34.447  1.00  0.00    -0.200 F 
ATOM     69  C   UNL A   1      47.213  26.887  35.338  1.00  0.00     0.200 A 
ATOM     70  F   UNL A   1      45.980  25.062  36.189  1.00  0.00    -0.200 F 
ATOM     71  F   UNL A   1      48.319  26.444  35.952  1.00  0.00    -0.200 F 
ENDBRANCH  38  61
ENDBRANCH  12  13
ENDBRANCH   5   7
ENDBRANCH   2   3
ENDBRANCH   1   2
BRANCH   1  72
ATOM     72  C   UNL A   1      32.122  28.365  23.259  1.00  0.00     0.023 C 
BRANCH  72  73
ATOM     73  C   UNL A   1      31.179  27.351  22.612  1.00  0.00     0.116 C 
BRANCH  73  74
ATOM     74  N   UNL A   1      31.812  26.657  21.512  1.00  0.00    -0.356 N 
ATOM     75  C   UNL A   1      32.463  25.468  21.468  1.00  0.00     0.223 C 
ATOM     76  H   UNL A   1      31.762  27.128  20.649  1.00  0.00     0.163 HD
ATOM     77  O   UNL A   1      33.132  25.283  20.450  1.00  0.00    -0.275 OA
BRANCH  75  78
ATOM     78  C   UNL A   1      32.482  24.504  22.662  1.00  0.00     0.083 C 
BRANCH  78  79
ATOM     79  C   UNL A   1      31.101  24.012  23.151  1.00  0.00     0.017 C 
BRANCH  79  80
ATOM     80  C   UNL A   1      30.885  24.360  24.627  1.00  0.00    -0.010 C 
ATOM     81  C   UNL A   1      30.866  23.152  25.610  1.00  0.00     0.003 C 
ATOM     82  C   UNL A   1      32.127  24.852  25.424  1.00  0.00     0.003 C 
ATOM     83  C   UNL A   1      31.575  24.065  26.630  1.00  0.00     0.001 C 
ENDBRANCH  79  80
ENDBRANCH  78  79
BRANCH  78  84
ATOM     84  C   UNL A   1      33.454  23.310  22.409  1.00  0.00     0.049 C 
BRANCH  84  85
ATOM     85  C   UNL A   1      34.163  22.753  23.632  1.00  0.00    -0.046 A 
ATOM     86  C   UNL A   1      33.734  21.555  24.223  1.00  0.00     0.004 A 
ATOM     87  C   UNL A   1      35.283  23.399  24.179  1.00  0.00     0.019 A 
ATOM     88  C   UNL A   1      34.441  20.990  25.289  1.00  0.00     0.001 A 
ATOM     89  C   UNL A   1      35.995  22.823  25.231  1.00  0.00     0.018 A 
ATOM     90  C   UNL A   1      35.582  21.617  25.784  1.00  0.00     0.016 A 
ATOM     91  Br  UNL A   1      37.548  23.681  25.888  1.00  0.00    -0.051 Br
ENDBRANCH  84  85
ENDBRANCH  78  84
ENDBRANCH  75  78
ENDBRANCH  73  74
ENDBRANCH  72  73
ENDBRANCH   1  72
TORSDOF 15
ENDMDL
MODEL 2
REMARK VINA RESULT:     -11.8      2.512      4.214
REMARK SMILES O=C(NCCCCNC(=O)[C@H](Cc1cccc(Br)c1)CC1CCC1)c1ccc(-c2c3nc(c(-c4c(F)c(F)c(F)c(F)c4F)c4ccc([nH]4)c(-c4c(F)c(F)c(F)c(F)c4F)c4nc(c(-c5c(F)c(F)c(F)c(F)c5F)c5ccc2[nH]5)C=C4)C=C3)cc1
REMARK SMILES IDX 5 1 4 2 3 3 1 4 2 5 25 7 26 8 87 9 27 10 86 11 28 12 29 13
REMARK SMILES IDX 30 14 80 15 31 16 85 17 79 18 81 19 32 20 84 21 78 22 77 23
REMARK SMILES IDX 33 25 65 26 45 27 64 28 46 29 49 30 63 31 82 32 47 33 48 34
REMARK SMILES IDX 62 36 83 37 50 38 34 39 35 40 43 41 36 42 37 43 41 44 44 45
REMARK SMILES IDX 38 46 39 47 42 48 40 49 66 50 67 51 75 52 68 53 69 54 73 55
REMARK SMILES IDX 76 56 70 57 71 58 74 59 72 60 51 61 52 62 60 63 53 64 54 65
REMARK SMILES IDX 58 66 61 67 55 68 56 69 59 70 57 71 6 72 7 73 8 74 9 75
REMARK SMILES IDX 10 77 11 78 20 79 21 80 22 81 24 82 23 83 12 84 13 85 14 86
REMARK SMILES IDX 19 87 15 88 17 89 16 90 18 91
REMARK H PARENT 3 6 81 24 49 35 8 76
REMARK Flexibility Score: inf
ROOT
ATOM      1  C   UNL A   1      31.337  32.184  26.590  1.00  0.00     0.023 C 
ENDROOT
BRANCH   1   2
ATOM      2  C   UNL A   1      32.556  32.799  27.268  1.00  0.00     0.116 C 
BRANCH   2   3
ATOM      3  N   UNL A   1      32.346  34.192  27.635  1.00  0.00    -0.352 N 
ATOM      4  O   UNL A   1      32.556  36.057  28.889  1.00  0.00    -0.269 OA
ATOM      5  C   UNL A   1      32.978  34.948  28.596  1.00  0.00     0.251 C 
ATOM      6  H   UNL A   1      31.652  34.662  27.120  1.00  0.00     0.163 HD
BRANCH   5   7
ATOM      7  C   UNL A   1      34.161  34.397  29.291  1.00  0.00     0.039 A 
ATOM      8  C   UNL A   1      35.441  34.610  28.779  1.00  0.00     0.014 A 
ATOM      9  C   UNL A   1      33.985  33.651  30.460  1.00  0.00     0.014 A 
ATOM     10  C   UNL A   1      36.523  33.941  29.335  1.00  0.00     0.010 A 
ATOM     11  C   UNL A   1      35.090  33.057  31.077  1.00  0.00     0.010 A 
ATOM     12  C   UNL A   1      36.363  33.167  30.498  1.00  0.00    -0.014 A 
BRANCH  12  13
ATOM     13  C   UNL A   1      37.562  32.536  31.106  1.00  0.00     0.031 A 
ATOM     14  C   UNL A   1      38.034  32.915  32.482  1.00  0.00     0.074 A 
ATOM     15  C   UNL A   1      38.191  31.562  30.418  1.00  0.00     0.049 A 
ATOM     16  N   UNL A   1      39.033  32.424  33.175  1.00  0.00    -0.248 NA
ATOM     17  C   UNL A   1      37.300  33.986  33.171  1.00  0.00     0.031 C 
ATOM     18  C   UNL A   1      37.830  31.124  29.069  1.00  0.00     0.029 A 
ATOM     19  N   UNL A   1      39.238  30.748  30.763  1.00  0.00    -0.354 N 
ATOM     20  C   UNL A   1      39.053  33.129  34.370  1.00  0.00     0.074 A 
ATOM     21  C   UNL A   1      37.986  34.105  34.300  1.00  0.00     0.031 C 
ATOM     22  C   UNL A   1      38.603  30.085  28.721  1.00  0.00     0.029 A 
ATOM     23  C   UNL A   1      39.554  29.826  29.796  1.00  0.00     0.049 A 
ATOM     24  H   UNL A   1      39.717  30.818  31.620  1.00  0.00     0.167 HD
ATOM     25  C   UNL A   1      39.879  32.966  35.433  1.00  0.00     0.037 A 
ATOM     26  C   UNL A   1      40.512  28.882  29.769  1.00  0.00     0.037 A 
ATOM     27  C   UNL A   1      40.933  31.985  35.499  1.00  0.00     0.049 A 
ATOM     28  C   UNL A   1      41.415  28.730  30.958  1.00  0.00     0.074 A 
ATOM     29  C   UNL A   1      41.824  31.742  36.531  1.00  0.00     0.029 A 
ATOM     30  N   UNL A   1      41.236  31.080  34.492  1.00  0.00    -0.354 N 
ATOM     31  N   UNL A   1      41.413  29.397  32.087  1.00  0.00    -0.248 NA
ATOM     32  C   UNL A   1      42.452  27.695  30.872  1.00  0.00     0.031 C 
ATOM     33  C   UNL A   1      42.687  30.713  36.134  1.00  0.00     0.029 A 
ATOM     34  C   UNL A   1      42.306  30.286  34.873  1.00  0.00     0.049 A 
ATOM     35  H   UNL A   1      40.761  31.014  33.632  1.00  0.00     0.167 HD
ATOM     36  C   UNL A   1      42.442  28.861  32.846  1.00  0.00     0.074 A 
ATOM     37  C   UNL A   1      43.025  27.790  32.063  1.00  0.00     0.031 C 
ATOM     38  C   UNL A   1      42.873  29.229  34.078  1.00  0.00     0.037 A 
BRANCH  25  39
ATOM     39  C   UNL A   1      39.685  33.872  36.615  1.00  0.00     0.064 A 
ATOM     40  C   UNL A   1      38.871  33.503  37.696  1.00  0.00     0.173 A 
ATOM     41  C   UNL A   1      40.368  35.095  36.697  1.00  0.00     0.173 A 
ATOM     42  F   UNL A   1      38.187  32.349  37.663  1.00  0.00    -0.203 F 
ATOM     43  C   UNL A   1      38.736  34.332  38.807  1.00  0.00     0.198 A 
ATOM     44  C   UNL A   1      40.250  35.910  37.820  1.00  0.00     0.198 A 
ATOM     45  F   UNL A   1      41.164  35.493  35.693  1.00  0.00    -0.203 F 
ATOM     46  F   UNL A   1      37.926  33.973  39.814  1.00  0.00    -0.200 F 
ATOM     47  C   UNL A   1      39.432  35.529  38.873  1.00  0.00     0.200 A 
ATOM     48  F   UNL A   1      40.932  37.061  37.886  1.00  0.00    -0.200 F 
ATOM     49  F   UNL A   1      39.309  36.320  39.948  1.00  0.00    -0.200 F 
ENDBRANCH  25  39
BRANCH  26  50
ATOM     50  C   UNL A   1      40.665  28.022  28.569  1.00  0.00     0.064 A 
ATOM     51  C   UNL A   1      40.018  26.782  28.477  1.00  0.00     0.173 A 
ATOM     52  C   UNL A   1      41.454  28.429  27.483  1.00  0.00     0.173 A 
ATOM     53  F   UNL A   1      39.267  26.341  29.497  1.00  0.00    -0.203 F 
ATOM     54  C   UNL A   1      40.168  25.975  27.352  1.00  0.00     0.198 A 
ATOM     55  C   UNL A   1      41.578  27.637  26.345  1.00  0.00     0.198 A 
ATOM     56  F   UNL A   1      42.088  29.610  27.519  1.00  0.00    -0.203 F 
ATOM     57  F   UNL A   1      39.575  24.776  27.306  1.00  0.00    -0.200 F 
ATOM     58  C   UNL A   1      40.942  26.407  26.283  1.00  0.00     0.200 A 
ATOM     59  F   UNL A   1      42.310  28.067  25.309  1.00  0.00    -0.200 F 
ATOM     60  F   UNL A   1      41.080  25.634  25.198  1.00  0.00    -0.200 F 
ENDBRANCH  26  50
BRANCH  38  61
ATOM     61  C   UNL A   1      44.021  28.452  34.649  1.00  0.00     0.064 A 
ATOM     62  C   UNL A   1      45.349  28.862  34.461  1.00  0.00     0.173 A 
ATOM     63  C   UNL A   1      43.791  27.289  35.400  1.00  0.00     0.173 A 
ATOM     64  F   UNL A   1      45.621  29.958  33.737  1.00  0.00    -0.203 F 
ATOM     65  C   UNL A   1      46.407  28.118  34.977  1.00  0.00     0.198 A 
ATOM     66  C   UNL A   1      44.849  26.563  35.936  1.00  0.00     0.198 A 
ATOM     67  F   UNL A   1      42.538  26.858  35.611  1.00  0.00    -0.203 F 
ATOM     68  F   UNL A   1      47.670  28.498  34.737  1.00  0.00    -0.200 F 
ATOM     69  C   UNL A   1      46.156  26.972  35.716  1.00  0.00     0.200 A 
ATOM     70  F   UNL A   1      44.606  25.460  36.658  1.00  0.00    -0.200 F 
ATOM     71  F   UNL A   1      47.176  26.255  36.208  1.00  0.00    -0.200 F 
ENDBRANCH  38  61
ENDBRANCH  12  13
ENDBRANCH   5   7
ENDBRANCH   2   3
ENDBRANCH   1   2
BRANCH   1  72
ATOM     72  C   UNL A   1      31.521  30.747  26.093  1.00  0.00     0.023 C 
BRANCH  72  73
ATOM     73  C   UNL A   1      32.317  29.840  27.029  1.00  0.00     0.116 C 
BRANCH  73  74
ATOM     74  N   UNL A   1      31.736  28.517  27.115  1.00  0.00    -0.356 N 
ATOM     75  C   UNL A   1      31.434  27.614  26.149  1.00  0.00     0.223 C 
ATOM     76  H   UNL A   1      31.525  28.223  28.031  1.00  0.00     0.163 HD
ATOM     77  O   UNL A   1      30.693  26.698  26.512  1.00  0.00    -0.275 OA
BRANCH  75  78
ATOM     78  C   UNL A   1      31.858  27.811  24.687  1.00  0.00     0.083 C 
BRANCH  78  79
ATOM     79  C   UNL A   1      33.258  27.272  24.316  1.00  0.00     0.017 C 
BRANCH  79  80
ATOM     80  C   UNL A   1      33.322  25.751  24.478  1.00  0.00    -0.010 C 
ATOM     81  C   UNL A   1      34.140  24.989  23.394  1.00  0.00     0.003 C 
ATOM     82  C   UNL A   1      34.354  25.193  25.498  1.00  0.00     0.003 C 
ATOM     83  C   UNL A   1      34.591  24.030  24.513  1.00  0.00     0.001 C 
ENDBRANCH  79  80
ENDBRANCH  78  79
BRANCH  78  84
ATOM     84  C   UNL A   1      30.767  27.282  23.707  1.00  0.00     0.049 C 
BRANCH  84  85
ATOM     85  C   UNL A   1      29.593  28.212  23.447  1.00  0.00    -0.046 A 
ATOM     86  C   UNL A   1      28.287  27.705  23.353  1.00  0.00     0.004 A 
ATOM     87  C   UNL A   1      29.776  29.598  23.331  1.00  0.00     0.019 A 
ATOM     88  C   UNL A   1      27.195  28.566  23.209  1.00  0.00     0.001 A 
ATOM     89  C   UNL A   1      28.683  30.455  23.205  1.00  0.00     0.018 A 
ATOM     90  C   UNL A   1      27.391  29.945  23.150  1.00  0.00     0.016 A 
ATOM     91  Br  UNL A   1      28.963  32.324  23.134  1.00  0.00    -0.051 Br
ENDBRANCH  84  85
ENDBRANCH  78  84
ENDBRANCH  75  78
ENDBRANCH  73  74
ENDBRANCH  72  73
ENDBRANCH   1  72
TORSDOF 15
ENDMDL
MODEL 3
REMARK VINA RESULT:     -11.7      1.891      3.058
REMARK SMILES O=C(NCCCCNC(=O)[C@H](Cc1cccc(Br)c1)CC1CCC1)c1ccc(-c2c3nc(c(-c4c(F)c(F)c(F)c(F)c4F)c4ccc([nH]4)c(-c4c(F)c(F)c(F)c(F)c4F)c4nc(c(-c5c(F)c(F)c(F)c(F)c5F)c5ccc2[nH]5)C=C4)C=C3)cc1
REMARK SMILES IDX 5 1 4 2 3 3 1 4 2 5 25 7 26 8 87 9 27 10 86 11 28 12 29 13
REMARK SMILES IDX 30 14 80 15 31 16 85 17 79 18 81 19 32 20 84 21 78 22 77 23
REMARK SMILES IDX 33 25 65 26 45 27 64 28 46 29 49 30 63 31 82 32 47 33 48 34
REMARK SMILES IDX 62 36 83 37 50 38 34 39 35 40 43 41 36 42 37 43 41 44 44 45
REMARK SMILES IDX 38 46 39 47 42 48 40 49 66 50 67 51 75 52 68 53 69 54 73 55
REMARK SMILES IDX 76 56 70 57 71 58 74 59 72 60 51 61 52 62 60 63 53 64 54 65
REMARK SMILES IDX 58 66 61 67 55 68 56 69 59 70 57 71 6 72 7 73 8 74 9 75
REMARK SMILES IDX 10 77 11 78 20 79 21 80 22 81 24 82 23 83 12 84 13 85 14 86
REMARK SMILES IDX 19 87 15 88 17 89 16 90 18 91
REMARK H PARENT 3 6 81 24 49 35 8 76
REMARK Flexibility Score: inf
ROOT
ATOM      1  C   UNL A   1      31.458  31.804  26.438  1.00  0.00     0.023 C 
ENDROOT
BRANCH   1   2
ATOM      2  C   UNL A   1      32.673  32.442  27.101  1.00  0.00     0.116 C 
BRANCH   2   3
ATOM      3  N   UNL A   1      32.432  33.824  27.490  1.00  0.00    -0.352 N 
ATOM      4  O   UNL A   1      32.595  35.671  28.778  1.00  0.00    -0.269 OA
ATOM      5  C   UNL A   1      33.041  34.576  28.469  1.00  0.00     0.251 C 
ATOM      6  H   UNL A   1      31.733  34.289  26.978  1.00  0.00     0.163 HD
BRANCH   5   7
ATOM      7  C   UNL A   1      34.229  34.036  29.164  1.00  0.00     0.039 A 
ATOM      8  C   UNL A   1      35.509  34.449  28.795  1.00  0.00     0.014 A 
ATOM      9  C   UNL A   1      34.059  33.099  30.189  1.00  0.00     0.014 A 
ATOM     10  C   UNL A   1      36.618  33.806  29.328  1.00  0.00     0.010 A 
ATOM     11  C   UNL A   1      35.179  32.523  30.794  1.00  0.00     0.010 A 
ATOM     12  C   UNL A   1      36.468  32.845  30.342  1.00  0.00    -0.014 A 
BRANCH  12  13
ATOM     13  C   UNL A   1      37.686  32.242  30.941  1.00  0.00     0.031 A 
ATOM     14  C   UNL A   1      38.151  32.621  32.320  1.00  0.00     0.074 A 
ATOM     15  C   UNL A   1      38.340  31.293  30.242  1.00  0.00     0.049 A 
ATOM     16  N   UNL A   1      39.165  32.152  33.005  1.00  0.00    -0.248 NA
ATOM     17  C   UNL A   1      37.390  33.665  33.021  1.00  0.00     0.031 C 
ATOM     18  C   UNL A   1      37.987  30.857  28.890  1.00  0.00     0.029 A 
ATOM     19  N   UNL A   1      39.410  30.505  30.577  1.00  0.00    -0.354 N 
ATOM     20  C   UNL A   1      39.169  32.845  34.207  1.00  0.00     0.074 A 
ATOM     21  C   UNL A   1      38.075  33.792  34.149  1.00  0.00     0.031 C 
ATOM     22  C   UNL A   1      38.788  29.844  28.530  1.00  0.00     0.029 A 
ATOM     23  C   UNL A   1      39.749  29.602  29.600  1.00  0.00     0.049 A 
ATOM     24  H   UNL A   1      39.889  30.580  31.433  1.00  0.00     0.167 HD
ATOM     25  C   UNL A   1      40.003  32.695  35.266  1.00  0.00     0.037 A 
ATOM     26  C   UNL A   1      40.733  28.686  29.562  1.00  0.00     0.037 A 
ATOM     27  C   UNL A   1      41.084  31.744  35.320  1.00  0.00     0.049 A 
ATOM     28  C   UNL A   1      41.643  28.547  30.747  1.00  0.00     0.074 A 
ATOM     29  C   UNL A   1      41.984  31.517  36.347  1.00  0.00     0.029 A 
ATOM     30  N   UNL A   1      41.409  30.858  34.303  1.00  0.00    -0.354 N 
ATOM     31  N   UNL A   1      41.627  29.204  31.882  1.00  0.00    -0.248 NA
ATOM     32  C   UNL A   1      42.709  27.543  30.647  1.00  0.00     0.031 C 
ATOM     33  C   UNL A   1      42.875  30.516  35.938  1.00  0.00     0.029 A 
ATOM     34  C   UNL A   1      42.502  30.090  34.673  1.00  0.00     0.049 A 
ATOM     35  H   UNL A   1      40.934  30.786  33.444  1.00  0.00     0.167 HD
ATOM     36  C   UNL A   1      42.672  28.689  32.633  1.00  0.00     0.074 A 
ATOM     37  C   UNL A   1      43.282  27.643  31.838  1.00  0.00     0.031 C 
ATOM     38  C   UNL A   1      43.097  29.057  33.867  1.00  0.00     0.037 A 
BRANCH  25  39
ATOM     39  C   UNL A   1      39.787  33.585  36.457  1.00  0.00     0.064 A 
ATOM     40  C   UNL A   1      40.373  34.856  36.539  1.00  0.00     0.173 A 
ATOM     41  C   UNL A   1      38.934  33.188  37.498  1.00  0.00     0.173 A 
ATOM     42  F   UNL A   1      41.206  35.279  35.576  1.00  0.00    -0.203 F 
ATOM     43  C   UNL A   1      40.128  35.690  37.628  1.00  0.00     0.198 A 
ATOM     44  C   UNL A   1      38.671  34.034  38.573  1.00  0.00     0.198 A 
ATOM     45  F   UNL A   1      38.342  31.985  37.466  1.00  0.00    -0.203 F 
ATOM     46  F   UNL A   1      40.727  36.887  37.701  1.00  0.00    -0.200 F 
ATOM     47  C   UNL A   1      39.270  35.282  38.639  1.00  0.00     0.200 A 
ATOM     48  F   UNL A   1      37.833  33.643  39.543  1.00  0.00    -0.200 F 
ATOM     49  F   UNL A   1      39.027  36.091  39.679  1.00  0.00    -0.200 F 
ENDBRANCH  25  39
BRANCH  26  50
ATOM     50  C   UNL A   1      40.907  27.841  28.353  1.00  0.00     0.064 A 
ATOM     51  C   UNL A   1      41.683  28.274  27.270  1.00  0.00     0.173 A 
ATOM     52  C   UNL A   1      40.308  26.575  28.264  1.00  0.00     0.173 A 
ATOM     53  F   UNL A   1      42.261  29.483  27.301  1.00  0.00    -0.203 F 
ATOM     54  C   UNL A   1      41.839  27.480  26.136  1.00  0.00     0.198 A 
ATOM     55  C   UNL A   1      40.491  25.769  27.143  1.00  0.00     0.198 A 
ATOM     56  F   UNL A   1      39.561  26.112  29.277  1.00  0.00    -0.203 F 
ATOM     57  F   UNL A   1      42.550  27.935  25.095  1.00  0.00    -0.200 F 
ATOM     58  C   UNL A   1      41.249  26.225  26.076  1.00  0.00     0.200 A 
ATOM     59  F   UNL A   1      39.935  24.551  27.100  1.00  0.00    -0.200 F 
ATOM     60  F   UNL A   1      41.406  25.459  24.989  1.00  0.00    -0.200 F 
ENDBRANCH  26  50
BRANCH  38  61
ATOM     61  C   UNL A   1      44.267  28.307  34.428  1.00  0.00     0.064 A 
ATOM     62  C   UNL A   1      44.095  27.123  35.161  1.00  0.00     0.173 A 
ATOM     63  C   UNL A   1      45.575  28.772  34.225  1.00  0.00     0.173 A 
ATOM     64  F   UNL A   1      42.863  26.648  35.396  1.00  0.00    -0.203 F 
ATOM     65  C   UNL A   1      45.189  26.450  35.698  1.00  0.00     0.198 A 
ATOM     66  C   UNL A   1      46.667  28.082  34.740  1.00  0.00     0.198 A 
ATOM     67  F   UNL A   1      45.792  29.898  33.527  1.00  0.00    -0.203 F 
ATOM     68  F   UNL A   1      44.998  25.352  36.442  1.00  0.00    -0.200 F 
ATOM     69  C   UNL A   1      46.473  26.927  35.484  1.00  0.00     0.200 A 
ATOM     70  F   UNL A   1      47.909  28.539  34.526  1.00  0.00    -0.200 F 
ATOM     71  F   UNL A   1      47.525  26.280  36.005  1.00  0.00    -0.200 F 
ENDBRANCH  38  61
ENDBRANCH  12  13
ENDBRANCH   5   7
ENDBRANCH   2   3
ENDBRANCH   1   2
BRANCH   1  72
ATOM     72  C   UNL A   1      31.519  30.280  26.290  1.00  0.00     0.023 C 
BRANCH  72  73
ATOM     73  C   UNL A   1      32.924  29.707  26.112  1.00  0.00     0.116 C 
BRANCH  73  74
ATOM     74  N   UNL A   1      33.370  29.798  24.739  1.00  0.00    -0.356 N 
ATOM     75  C   UNL A   1      33.394  28.871  23.749  1.00  0.00     0.223 C 
ATOM     76  H   UNL A   1      33.716  30.683  24.480  1.00  0.00     0.163 HD
ATOM     77  O   UNL A   1      34.090  29.172  22.777  1.00  0.00    -0.275 OA
BRANCH  75  78
ATOM     78  C   UNL A   1      32.729  27.497  23.902  1.00  0.00     0.083 C 
BRANCH  78  79
ATOM     79  C   UNL A   1      31.262  27.403  23.423  1.00  0.00     0.017 C 
BRANCH  79  80
ATOM     80  C   UNL A   1      30.356  26.863  24.532  1.00  0.00    -0.010 C 
ATOM     81  C   UNL A   1      30.085  25.330  24.499  1.00  0.00     0.003 C 
ATOM     82  C   UNL A   1      31.013  26.610  25.919  1.00  0.00     0.003 C 
ATOM     83  C   UNL A   1      30.109  25.366  26.039  1.00  0.00     0.001 C 
ENDBRANCH  79  80
ENDBRANCH  78  79
BRANCH  78  84
ATOM     84  C   UNL A   1      33.607  26.372  23.273  1.00  0.00     0.049 C 
BRANCH  84  85
ATOM     85  C   UNL A   1      33.731  25.089  24.079  1.00  0.00    -0.046 A 
ATOM     86  C   UNL A   1      34.325  25.100  25.351  1.00  0.00     0.004 A 
ATOM     87  C   UNL A   1      33.224  23.875  23.593  1.00  0.00     0.019 A 
ATOM     88  C   UNL A   1      34.356  23.943  26.135  1.00  0.00     0.001 A 
ATOM     89  C   UNL A   1      33.241  22.727  24.386  1.00  0.00     0.018 A 
ATOM     90  C   UNL A   1      33.800  22.757  25.658  1.00  0.00     0.016 A 
ATOM     91  Br  UNL A   1      32.476  21.126  23.729  1.00  0.00    -0.051 Br
ENDBRANCH  84  85
ENDBRANCH  78  84
ENDBRANCH  75  78
ENDBRANCH  73  74
ENDBRANCH  72  73
ENDBRANCH   1  72
TORSDOF 15
ENDMDL
