MODEL 1
REMARK VINA RESULT:     -11.5      0.000      0.000
REMARK SMILES Cc1nc(CSCC(=O)N2CCCC[C@@H]2C(=O)NCCCCNC(=O)c2ccc(-c3c4nc(c(-c5c(F)c(F)c(F)c(F)c5F)c5ccc([nH]5)c(-c5c(F)c(F)c(F)c(F)c5F)c5nc(c(-c6c(F)c(F)c(F)c(F)c6F)c6ccc3[nH]6)C=C5)C=C4)cc2)cs1
REMARK SMILES IDX 19 1 18 2 16 3 17 4 15 6 10 7 11 8 12 9 14 10 13 11 8 12
REMARK SMILES IDX 9 13 7 14 6 15 5 16 4 17 1 18 2 19 3 20 90 21 89 22 20 23
REMARK SMILES IDX 21 24 22 25 23 26 24 27 25 29 26 30 27 31 88 32 28 33 87 34
REMARK SMILES IDX 29 35 30 36 31 37 81 38 32 39 86 40 80 41 82 42 33 43 85 44
REMARK SMILES IDX 79 45 78 46 34 48 66 49 46 50 65 51 47 52 50 53 64 54 83 55
REMARK SMILES IDX 48 56 49 57 63 59 84 60 51 61 35 62 36 63 44 64 37 65 38 66
REMARK SMILES IDX 42 67 45 68 39 69 40 70 43 71 41 72 67 73 68 74 76 75 69 76
REMARK SMILES IDX 70 77 74 78 77 79 71 80 72 81 75 82 73 83 52 84 53 85 61 86
REMARK SMILES IDX 54 87 55 88 59 89 62 90 56 91 57 92 60 93 58 94
REMARK H PARENT 18 5 23 28 82 47 50 58
REMARK Flexibility Score: inf
ROOT
ATOM      1  C   UNL A   1      32.178  29.507  26.798  1.00  0.00     0.116 C 
ENDROOT
BRANCH   1   2
ATOM      2  N   UNL A   1      31.467  28.239  26.851  1.00  0.00    -0.354 N 
ATOM      3  C   UNL A   1      31.783  27.033  26.294  1.00  0.00     0.242 C 
ATOM      4  O   UNL A   1      30.959  26.122  26.428  1.00  0.00    -0.273 OA
ATOM      5  H   UNL A   1      30.630  28.252  27.369  1.00  0.00     0.163 HD
BRANCH   3   6
ATOM      6  C   UNL A   1      32.996  26.868  25.351  1.00  0.00     0.174 C 
ATOM      7  N   UNL A   1      32.674  26.840  23.907  1.00  0.00    -0.330 N 
ATOM      8  C   UNL A   1      33.646  26.184  23.035  1.00  0.00     0.120 C 
ATOM      9  C   UNL A   1      34.005  24.787  23.500  1.00  0.00     0.022 C 
ATOM     10  C   UNL A   1      33.623  25.534  25.855  1.00  0.00     0.035 C 
ATOM     11  C   UNL A   1      34.583  24.845  24.902  1.00  0.00     0.004 C 
BRANCH   7  12
ATOM     12  C   UNL A   1      31.835  27.733  23.243  1.00  0.00     0.233 C 
ATOM     13  O   UNL A   1      32.108  28.941  23.282  1.00  0.00    -0.274 OA
BRANCH  12  14
ATOM     14  C   UNL A   1      30.473  27.305  22.712  1.00  0.00     0.170 C 
BRANCH  14  15
ATOM     15  S   UNL A   1      29.031  27.389  23.794  1.00  0.00    -0.146 SA
BRANCH  15  16
ATOM     16  C   UNL A   1      27.849  28.326  22.795  1.00  0.00     0.127 C 
BRANCH  16  17
ATOM     17  C   UNL A   1      28.192  29.748  22.523  1.00  0.00     0.061 A 
ATOM     18  C   UNL A   1      28.042  32.353  19.968  1.00  0.00     0.079 C 
ATOM     19  C   UNL A   1      28.198  31.525  21.193  1.00  0.00     0.090 A 
ATOM     20  N   UNL A   1      27.940  30.239  21.248  1.00  0.00    -0.246 NA
ATOM     21  S   UNL A   1      28.719  32.235  22.667  1.00  0.00    -0.127 S 
ATOM     22  C   UNL A   1      28.609  30.704  23.431  1.00  0.00     0.091 A 
ENDBRANCH  16  17
ENDBRANCH  15  16
ENDBRANCH  14  15
ENDBRANCH  12  14
ENDBRANCH   7  12
ENDBRANCH   3   6
ENDBRANCH   1   2
BRANCH   1  23
ATOM     23  C   UNL A   1      31.454  30.513  25.910  1.00  0.00     0.023 C 
BRANCH  23  24
ATOM     24  C   UNL A   1      31.336  31.910  26.523  1.00  0.00     0.023 C 
BRANCH  24  25
ATOM     25  C   UNL A   1      32.643  32.472  27.075  1.00  0.00     0.116 C 
BRANCH  25  26
ATOM     26  N   UNL A   1      32.505  33.860  27.495  1.00  0.00    -0.352 N 
ATOM     27  C   UNL A   1      33.130  34.539  28.508  1.00  0.00     0.251 C 
ATOM     28  H   UNL A   1      31.863  34.392  26.970  1.00  0.00     0.163 HD
ATOM     29  O   UNL A   1      32.718  35.649  28.851  1.00  0.00    -0.269 OA
BRANCH  27  30
ATOM     30  C   UNL A   1      34.291  33.947  29.204  1.00  0.00     0.039 A 
ATOM     31  C   UNL A   1      34.077  32.970  30.180  1.00  0.00     0.014 A 
ATOM     32  C   UNL A   1      35.592  34.370  28.917  1.00  0.00     0.014 A 
ATOM     33  C   UNL A   1      35.168  32.378  30.821  1.00  0.00     0.010 A 
ATOM     34  C   UNL A   1      36.680  33.723  29.493  1.00  0.00     0.010 A 
ATOM     35  C   UNL A   1      36.480  32.725  30.457  1.00  0.00    -0.014 A 
BRANCH  35  36
ATOM     36  C   UNL A   1      37.652  32.053  31.076  1.00  0.00     0.031 A 
ATOM     37  C   UNL A   1      38.108  32.437  32.457  1.00  0.00     0.074 A 
ATOM     38  C   UNL A   1      38.337  31.131  30.370  1.00  0.00     0.049 A 
ATOM     39  N   UNL A   1      39.127  31.990  33.147  1.00  0.00    -0.248 NA
ATOM     40  C   UNL A   1      37.330  33.479  33.146  1.00  0.00     0.031 C 
ATOM     41  C   UNL A   1      38.025  30.710  29.003  1.00  0.00     0.029 A 
ATOM     42  N   UNL A   1      39.437  30.383  30.704  1.00  0.00    -0.354 N 
ATOM     43  C   UNL A   1      39.112  32.693  34.345  1.00  0.00     0.074 A 
ATOM     44  C   UNL A   1      38.024  33.643  34.263  1.00  0.00     0.031 C 
ATOM     45  C   UNL A   1      38.895  29.760  28.625  1.00  0.00     0.029 A 
ATOM     46  C   UNL A   1      39.847  29.530  29.708  1.00  0.00     0.049 A 
ATOM     47  H   UNL A   1      39.892  30.451  31.575  1.00  0.00     0.167 HD
ATOM     48  C   UNL A   1      39.912  32.539  35.426  1.00  0.00     0.037 A 
ATOM     49  C   UNL A   1      40.876  28.662  29.672  1.00  0.00     0.037 A 
ATOM     50  C   UNL A   1      40.986  31.584  35.510  1.00  0.00     0.049 A 
ATOM     51  C   UNL A   1      41.760  28.526  30.883  1.00  0.00     0.074 A 
ATOM     52  C   UNL A   1      41.835  31.329  36.572  1.00  0.00     0.029 A 
ATOM     53  N   UNL A   1      41.357  30.723  34.487  1.00  0.00    -0.354 N 
ATOM     54  N   UNL A   1      41.693  29.150  32.034  1.00  0.00    -0.248 NA
ATOM     55  C   UNL A   1      42.858  27.552  30.793  1.00  0.00     0.031 C 
ATOM     56  C   UNL A   1      42.748  30.346  36.179  1.00  0.00     0.029 A 
ATOM     57  C   UNL A   1      42.430  29.944  34.891  1.00  0.00     0.049 A 
ATOM     58  H   UNL A   1      40.922  30.673  33.605  1.00  0.00     0.167 HD
ATOM     59  C   UNL A   1      42.706  28.612  32.819  1.00  0.00     0.074 A 
ATOM     60  C   UNL A   1      43.365  27.605  32.016  1.00  0.00     0.031 C 
ATOM     61  C   UNL A   1      43.058  28.925  34.089  1.00  0.00     0.037 A 
BRANCH  48  62
ATOM     62  C   UNL A   1      39.647  33.412  36.620  1.00  0.00     0.064 A 
ATOM     63  C   UNL A   1      38.783  33.004  37.648  1.00  0.00     0.173 A 
ATOM     64  C   UNL A   1      40.307  34.641  36.770  1.00  0.00     0.173 A 
ATOM     65  F   UNL A   1      38.118  31.843  37.551  1.00  0.00    -0.203 F 
ATOM     66  C   UNL A   1      38.570  33.805  38.768  1.00  0.00     0.198 A 
ATOM     67  C   UNL A   1      40.116  35.424  37.906  1.00  0.00     0.198 A 
ATOM     68  F   UNL A   1      41.149  35.077  35.821  1.00  0.00    -0.203 F 
ATOM     69  F   UNL A   1      37.706  33.414  39.714  1.00  0.00    -0.200 F 
ATOM     70  C   UNL A   1      39.244  35.009  38.901  1.00  0.00     0.200 A 
ATOM     71  F   UNL A   1      40.780  36.581  38.039  1.00  0.00    -0.200 F 
ATOM     72  F   UNL A   1      39.050  35.771  39.985  1.00  0.00    -0.200 F 
ENDBRANCH  48  62
BRANCH  49  73
ATOM     73  C   UNL A   1      41.115  27.827  28.464  1.00  0.00     0.064 A 
ATOM     74  C   UNL A   1      41.978  28.263  27.448  1.00  0.00     0.173 A 
ATOM     75  C   UNL A   1      40.463  26.599  28.282  1.00  0.00     0.173 A 
ATOM     76  F   UNL A   1      42.612  29.439  27.566  1.00  0.00    -0.203 F 
ATOM     77  C   UNL A   1      42.151  27.521  26.281  1.00  0.00     0.198 A 
ATOM     78  C   UNL A   1      40.662  25.842  27.129  1.00  0.00     0.198 A 
ATOM     79  F   UNL A   1      39.633  26.132  29.226  1.00  0.00    -0.203 F 
ATOM     80  F   UNL A   1      42.931  27.993  25.300  1.00  0.00    -0.200 F 
ATOM     81  C   UNL A   1      41.495  26.310  26.124  1.00  0.00     0.200 A 
ATOM     82  F   UNL A   1      40.039  24.664  26.988  1.00  0.00    -0.200 F 
ATOM     83  F   UNL A   1      41.656  25.600  25.000  1.00  0.00    -0.200 F 
ENDBRANCH  49  73
BRANCH  61  84
ATOM     84  C   UNL A   1      44.161  28.121  34.717  1.00  0.00     0.064 A 
ATOM     85  C   UNL A   1      45.504  28.521  34.647  1.00  0.00     0.173 A 
ATOM     86  C   UNL A   1      43.861  26.944  35.421  1.00  0.00     0.173 A 
ATOM     87  F   UNL A   1      45.845  29.630  33.976  1.00  0.00    -0.203 F 
ATOM     88  C   UNL A   1      46.510  27.751  35.227  1.00  0.00     0.198 A 
ATOM     89  C   UNL A   1      44.866  26.197  36.029  1.00  0.00     0.198 A 
ATOM     90  F   UNL A   1      42.592  26.522  35.525  1.00  0.00    -0.203 F 
ATOM     91  F   UNL A   1      47.792  28.120  35.096  1.00  0.00    -0.200 F 
ATOM     92  C   UNL A   1      46.189  26.595  35.923  1.00  0.00     0.200 A 
ATOM     93  F   UNL A   1      44.553  25.089  36.714  1.00  0.00    -0.200 F 
ATOM     94  F   UNL A   1      47.159  25.859  36.483  1.00  0.00    -0.200 F 
ENDBRANCH  61  84
ENDBRANCH  35  36
ENDBRANCH  27  30
ENDBRANCH  25  26
ENDBRANCH  24  25
ENDBRANCH  23  24
ENDBRANCH   1  23
TORSDOF 16
ENDMDL
MODEL 2
REMARK VINA RESULT:     -11.5      1.736      2.937
REMARK SMILES Cc1nc(CSCC(=O)N2CCCC[C@@H]2C(=O)NCCCCNC(=O)c2ccc(-c3c4nc(c(-c5c(F)c(F)c(F)c(F)c5F)c5ccc([nH]5)c(-c5c(F)c(F)c(F)c(F)c5F)c5nc(c(-c6c(F)c(F)c(F)c(F)c6F)c6ccc3[nH]6)C=C5)C=C4)cc2)cs1
REMARK SMILES IDX 19 1 18 2 16 3 17 4 15 6 10 7 11 8 12 9 14 10 13 11 8 12
REMARK SMILES IDX 9 13 7 14 6 15 5 16 4 17 1 18 2 19 3 20 90 21 89 22 20 23
REMARK SMILES IDX 21 24 22 25 23 26 24 27 25 29 26 30 27 31 88 32 28 33 87 34
REMARK SMILES IDX 29 35 30 36 31 37 81 38 32 39 86 40 80 41 82 42 33 43 85 44
REMARK SMILES IDX 79 45 78 46 34 48 66 49 46 50 65 51 47 52 50 53 64 54 83 55
REMARK SMILES IDX 48 56 49 57 63 59 84 60 51 61 35 62 36 63 44 64 37 65 38 66
REMARK SMILES IDX 42 67 45 68 39 69 40 70 43 71 41 72 67 73 68 74 76 75 69 76
REMARK SMILES IDX 70 77 74 78 77 79 71 80 72 81 75 82 73 83 52 84 53 85 61 86
REMARK SMILES IDX 54 87 55 88 59 89 62 90 56 91 57 92 60 93 58 94
REMARK H PARENT 18 5 23 28 82 47 50 58
REMARK Flexibility Score: inf
ROOT
ATOM      1  C   UNL A   1      32.284  26.884  26.513  1.00  0.00     0.116 C 
ENDROOT
BRANCH   1   2
ATOM      2  N   UNL A   1      31.568  25.707  26.983  1.00  0.00    -0.354 N 
ATOM      3  C   UNL A   1      31.757  24.388  26.681  1.00  0.00     0.242 C 
ATOM      4  O   UNL A   1      30.952  23.584  27.161  1.00  0.00    -0.273 OA
ATOM      5  H   UNL A   1      30.836  25.889  27.615  1.00  0.00     0.163 HD
BRANCH   3   6
ATOM      6  C   UNL A   1      32.781  23.940  25.613  1.00  0.00     0.174 C 
ATOM      7  N   UNL A   1      32.203  23.540  24.312  1.00  0.00    -0.330 N 
ATOM      8  C   UNL A   1      33.010  22.644  23.487  1.00  0.00     0.120 C 
ATOM      9  C   UNL A   1      33.471  21.409  24.236  1.00  0.00     0.022 C 
ATOM     10  C   UNL A   1      33.511  22.767  26.335  1.00  0.00     0.035 C 
ATOM     11  C   UNL A   1      34.294  21.818  25.444  1.00  0.00     0.004 C 
BRANCH   7  12
ATOM     12  C   UNL A   1      31.243  24.252  23.595  1.00  0.00     0.233 C 
ATOM     13  O   UNL A   1      30.276  23.634  23.128  1.00  0.00    -0.274 OA
BRANCH  12  14
ATOM     14  C   UNL A   1      31.482  25.688  23.148  1.00  0.00     0.170 C 
BRANCH  14  15
ATOM     15  S   UNL A   1      30.205  26.932  23.431  1.00  0.00    -0.146 SA
BRANCH  15  16
ATOM     16  C   UNL A   1      30.753  28.300  22.382  1.00  0.00     0.127 C 
BRANCH  16  17
ATOM     17  C   UNL A   1      29.959  29.556  22.461  1.00  0.00     0.061 A 
ATOM     18  C   UNL A   1      28.027  31.921  20.459  1.00  0.00     0.079 C 
ATOM     19  C   UNL A   1      28.704  31.123  21.514  1.00  0.00     0.090 A 
ATOM     20  N   UNL A   1      29.464  30.080  21.273  1.00  0.00    -0.246 NA
ATOM     21  S   UNL A   1      28.502  31.518  23.173  1.00  0.00    -0.127 S 
ATOM     22  C   UNL A   1      29.521  30.207  23.599  1.00  0.00     0.091 A 
ENDBRANCH  16  17
ENDBRANCH  15  16
ENDBRANCH  14  15
ENDBRANCH  12  14
ENDBRANCH   7  12
ENDBRANCH   3   6
ENDBRANCH   1   2
BRANCH   1  23
ATOM     23  C   UNL A   1      32.049  28.079  27.430  1.00  0.00     0.023 C 
BRANCH  23  24
ATOM     24  C   UNL A   1      31.625  29.352  26.694  1.00  0.00     0.023 C 
BRANCH  24  25
ATOM     25  C   UNL A   1      32.780  30.159  26.108  1.00  0.00     0.116 C 
BRANCH  25  26
ATOM     26  N   UNL A   1      32.684  31.573  26.447  1.00  0.00    -0.352 N 
ATOM     27  C   UNL A   1      33.398  32.310  27.355  1.00  0.00     0.251 C 
ATOM     28  H   UNL A   1      32.000  32.075  25.946  1.00  0.00     0.163 HD
ATOM     29  O   UNL A   1      33.022  33.444  27.659  1.00  0.00    -0.269 OA
BRANCH  27  30
ATOM     30  C   UNL A   1      34.614  31.754  27.984  1.00  0.00     0.039 A 
ATOM     31  C   UNL A   1      35.742  32.567  28.124  1.00  0.00     0.014 A 
ATOM     32  C   UNL A   1      34.657  30.425  28.412  1.00  0.00     0.014 A 
ATOM     33  C   UNL A   1      36.886  32.064  28.748  1.00  0.00     0.010 A 
ATOM     34  C   UNL A   1      35.764  29.950  29.108  1.00  0.00     0.010 A 
ATOM     35  C   UNL A   1      36.894  30.762  29.277  1.00  0.00    -0.014 A 
BRANCH  35  36
ATOM     36  C   UNL A   1      38.076  30.237  30.008  1.00  0.00     0.031 A 
ATOM     37  C   UNL A   1      38.354  30.677  31.420  1.00  0.00     0.074 A 
ATOM     38  C   UNL A   1      38.928  29.403  29.380  1.00  0.00     0.049 A 
ATOM     39  N   UNL A   1      39.351  30.358  32.206  1.00  0.00    -0.248 NA
ATOM     40  C   UNL A   1      37.397  31.620  32.021  1.00  0.00     0.031 C 
ATOM     41  C   UNL A   1      38.796  28.945  27.996  1.00  0.00     0.029 A 
ATOM     42  N   UNL A   1      40.076  28.794  29.823  1.00  0.00    -0.354 N 
ATOM     43  C   UNL A   1      39.142  31.057  33.388  1.00  0.00     0.074 A 
ATOM     44  C   UNL A   1      37.960  31.869  33.195  1.00  0.00     0.031 C 
ATOM     45  C   UNL A   1      39.805  28.106  27.712  1.00  0.00     0.029 A 
ATOM     46  C   UNL A   1      40.675  27.995  28.879  1.00  0.00     0.049 A 
ATOM     47  H   UNL A   1      40.437  28.920  30.731  1.00  0.00     0.167 HD
ATOM     48  C   UNL A   1      39.852  31.003  34.539  1.00  0.00     0.037 A 
ATOM     49  C   UNL A   1      41.799  27.258  28.949  1.00  0.00     0.037 A 
ATOM     50  C   UNL A   1      41.021  30.185  34.733  1.00  0.00     0.049 A 
ATOM     51  C   UNL A   1      42.578  27.232  30.237  1.00  0.00     0.074 A 
ATOM     52  C   UNL A   1      41.793  30.037  35.871  1.00  0.00     0.029 A 
ATOM     53  N   UNL A   1      41.584  29.372  33.760  1.00  0.00    -0.354 N 
ATOM     54  N   UNL A   1      42.331  27.846  31.369  1.00  0.00    -0.248 NA
ATOM     55  C   UNL A   1      43.788  26.397  30.260  1.00  0.00     0.031 C 
ATOM     56  C   UNL A   1      42.850  29.170  35.576  1.00  0.00     0.029 A 
ATOM     57  C   UNL A   1      42.702  28.730  34.270  1.00  0.00     0.049 A 
ATOM     58  H   UNL A   1      41.242  29.268  32.843  1.00  0.00     0.167 HD
ATOM     59  C   UNL A   1      43.325  27.437  32.249  1.00  0.00     0.074 A 
ATOM     60  C   UNL A   1      44.171  26.514  31.523  1.00  0.00     0.031 C 
ATOM     61  C   UNL A   1      43.518  27.792  33.542  1.00  0.00     0.037 A 
BRANCH  48  62
ATOM     62  C   UNL A   1      39.376  31.841  35.692  1.00  0.00     0.064 A 
ATOM     63  C   UNL A   1      39.806  33.167  35.860  1.00  0.00     0.173 A 
ATOM     64  C   UNL A   1      38.439  31.336  36.606  1.00  0.00     0.173 A 
ATOM     65  F   UNL A   1      40.709  33.696  35.021  1.00  0.00    -0.203 F 
ATOM     66  C   UNL A   1      39.333  33.947  36.912  1.00  0.00     0.198 A 
ATOM     67  C   UNL A   1      37.945  32.130  37.639  1.00  0.00     0.198 A 
ATOM     68  F   UNL A   1      37.990  30.078  36.490  1.00  0.00    -0.203 F 
ATOM     69  F   UNL A   1      39.791  35.195  37.076  1.00  0.00    -0.200 F 
ATOM     70  C   UNL A   1      38.396  33.432  37.794  1.00  0.00     0.200 A 
ATOM     71  F   UNL A   1      37.028  31.635  38.481  1.00  0.00    -0.200 F 
ATOM     72  F   UNL A   1      37.931  34.189  38.798  1.00  0.00    -0.200 F 
ENDBRANCH  48  62
BRANCH  49  73
ATOM     73  C   UNL A   1      42.246  26.455  27.779  1.00  0.00     0.064 A 
ATOM     74  C   UNL A   1      41.724  25.176  27.542  1.00  0.00     0.173 A 
ATOM     75  C   UNL A   1      43.226  26.932  26.896  1.00  0.00     0.173 A 
ATOM     76  F   UNL A   1      40.798  24.667  28.368  1.00  0.00    -0.203 F 
ATOM     77  C   UNL A   1      42.190  24.389  26.491  1.00  0.00     0.198 A 
ATOM     78  C   UNL A   1      43.668  26.157  25.825  1.00  0.00     0.198 A 
ATOM     79  F   UNL A   1      43.753  28.152  27.071  1.00  0.00    -0.203 F 
ATOM     80  F   UNL A   1      41.720  23.145  26.329  1.00  0.00    -0.200 F 
ATOM     81  C   UNL A   1      43.160  24.881  25.632  1.00  0.00     0.200 A 
ATOM     82  F   UNL A   1      44.594  26.643  24.986  1.00  0.00    -0.200 F 
ATOM     83  F   UNL A   1      43.613  24.123  24.624  1.00  0.00    -0.200 F 
ENDBRANCH  49  73
BRANCH  61  84
ATOM     84  C   UNL A   1      44.648  27.129  34.278  1.00  0.00     0.064 A 
ATOM     85  C   UNL A   1      44.483  25.908  34.948  1.00  0.00     0.173 A 
ATOM     86  C   UNL A   1      45.923  27.717  34.288  1.00  0.00     0.173 A 
ATOM     87  F   UNL A   1      43.283  25.312  34.980  1.00  0.00    -0.203 F 
ATOM     88  C   UNL A   1      45.544  25.319  35.633  1.00  0.00     0.198 A 
ATOM     89  C   UNL A   1      46.989  27.108  34.943  1.00  0.00     0.198 A 
ATOM     90  F   UNL A   1      46.137  28.880  33.655  1.00  0.00    -0.203 F 
ATOM     91  F   UNL A   1      45.348  24.183  36.317  1.00  0.00    -0.200 F 
ATOM     92  C   UNL A   1      46.796  25.915  35.624  1.00  0.00     0.200 A 
ATOM     93  F   UNL A   1      48.201  27.677  34.920  1.00  0.00    -0.200 F 
ATOM     94  F   UNL A   1      47.815  25.345  36.280  1.00  0.00    -0.200 F 
ENDBRANCH  61  84
ENDBRANCH  35  36
ENDBRANCH  27  30
ENDBRANCH  25  26
ENDBRANCH  24  25
ENDBRANCH  23  24
ENDBRANCH   1  23
TORSDOF 16
ENDMDL
MODEL 3
REMARK VINA RESULT:     -11.2      2.959      4.859
REMARK SMILES Cc1nc(CSCC(=O)N2CCCC[C@@H]2C(=O)NCCCCNC(=O)c2ccc(-c3c4nc(c(-c5c(F)c(F)c(F)c(F)c5F)c5ccc([nH]5)c(-c5c(F)c(F)c(F)c(F)c5F)c5nc(c(-c6c(F)c(F)c(F)c(F)c6F)c6ccc3[nH]6)C=C5)C=C4)cc2)cs1
REMARK SMILES IDX 19 1 18 2 16 3 17 4 15 6 10 7 11 8 12 9 14 10 13 11 8 12
REMARK SMILES IDX 9 13 7 14 6 15 5 16 4 17 1 18 2 19 3 20 90 21 89 22 20 23
REMARK SMILES IDX 21 24 22 25 23 26 24 27 25 29 26 30 27 31 88 32 28 33 87 34
REMARK SMILES IDX 29 35 30 36 31 37 81 38 32 39 86 40 80 41 82 42 33 43 85 44
REMARK SMILES IDX 79 45 78 46 34 48 66 49 46 50 65 51 47 52 50 53 64 54 83 55
REMARK SMILES IDX 48 56 49 57 63 59 84 60 51 61 35 62 36 63 44 64 37 65 38 66
REMARK SMILES IDX 42 67 45 68 39 69 40 70 43 71 41 72 67 73 68 74 76 75 69 76
REMARK SMILES IDX 70 77 74 78 77 79 71 80 72 81 75 82 73 83 52 84 53 85 61 86
REMARK SMILES IDX 54 87 55 88 59 89 62 90 56 91 57 92 60 93 58 94
REMARK H PARENT 18 5 23 28 82 47 50 58
REMARK Flexibility Score: inf
ROOT
ATOM      1  C   UNL A   1      32.592  26.533  26.237  1.00  0.00     0.116 C 
ENDROOT
BRANCH   1   2
ATOM      2  N   UNL A   1      31.960  25.287  26.641  1.00  0.00    -0.354 N 
ATOM      3  C   UNL A   1      31.163  24.437  25.928  1.00  0.00     0.242 C 
ATOM      4  O   UNL A   1      30.686  23.474  26.537  1.00  0.00    -0.273 OA
ATOM      5  H   UNL A   1      32.132  25.013  27.570  1.00  0.00     0.163 HD
BRANCH   3   6
ATOM      6  C   UNL A   1      30.693  24.777  24.495  1.00  0.00     0.174 C 
ATOM      7  N   UNL A   1      31.775  24.993  23.509  1.00  0.00    -0.330 N 
ATOM      8  C   UNL A   1      31.440  25.800  22.339  1.00  0.00     0.120 C 
ATOM      9  C   UNL A   1      30.814  27.132  22.702  1.00  0.00     0.022 C 
ATOM     10  C   UNL A   1      29.827  26.051  24.730  1.00  0.00     0.035 C 
ATOM     11  C   UNL A   1      29.545  26.902  23.504  1.00  0.00     0.004 C 
BRANCH   7  12
ATOM     12  C   UNL A   1      32.884  24.170  23.326  1.00  0.00     0.233 C 
ATOM     13  O   UNL A   1      33.959  24.690  23.000  1.00  0.00    -0.274 OA
BRANCH  12  14
ATOM     14  C   UNL A   1      32.750  22.654  23.251  1.00  0.00     0.170 C 
BRANCH  14  15
ATOM     15  S   UNL A   1      33.625  21.624  24.448  1.00  0.00    -0.146 SA
BRANCH  15  16
ATOM     16  C   UNL A   1      32.462  20.264  24.716  1.00  0.00     0.127 C 
BRANCH  16  17
ATOM     17  C   UNL A   1      33.052  18.906  24.862  1.00  0.00     0.061 A 
ATOM     18  C   UNL A   1      32.273  15.468  25.816  1.00  0.00     0.079 C 
ATOM     19  C   UNL A   1      32.863  16.746  25.339  1.00  0.00     0.090 A 
ATOM     20  N   UNL A   1      32.237  17.900  25.365  1.00  0.00    -0.246 NA
ATOM     21  S   UNL A   1      34.447  16.784  24.677  1.00  0.00    -0.127 S 
ATOM     22  C   UNL A   1      34.290  18.473  24.424  1.00  0.00     0.091 A 
ENDBRANCH  16  17
ENDBRANCH  15  16
ENDBRANCH  14  15
ENDBRANCH  12  14
ENDBRANCH   7  12
ENDBRANCH   3   6
ENDBRANCH   1   2
BRANCH   1  23
ATOM     23  C   UNL A   1      32.041  27.717  27.024  1.00  0.00     0.023 C 
BRANCH  23  24
ATOM     24  C   UNL A   1      31.755  28.952  26.168  1.00  0.00     0.023 C 
BRANCH  24  25
ATOM     25  C   UNL A   1      32.973  29.829  25.893  1.00  0.00     0.116 C 
BRANCH  25  26
ATOM     26  N   UNL A   1      32.753  31.210  26.300  1.00  0.00    -0.352 N 
ATOM     27  C   UNL A   1      33.379  31.953  27.266  1.00  0.00     0.251 C 
ATOM     28  H   UNL A   1      32.044  31.683  25.804  1.00  0.00     0.163 HD
ATOM     29  O   UNL A   1      32.904  33.035  27.615  1.00  0.00    -0.269 OA
BRANCH  27  30
ATOM     30  C   UNL A   1      34.619  31.464  27.904  1.00  0.00     0.039 A 
ATOM     31  C   UNL A   1      35.714  32.324  28.016  1.00  0.00     0.014 A 
ATOM     32  C   UNL A   1      34.717  30.150  28.369  1.00  0.00     0.014 A 
ATOM     33  C   UNL A   1      36.880  31.885  28.648  1.00  0.00     0.010 A 
ATOM     34  C   UNL A   1      35.845  29.739  29.072  1.00  0.00     0.010 A 
ATOM     35  C   UNL A   1      36.942  30.599  29.212  1.00  0.00    -0.014 A 
BRANCH  35  36
ATOM     36  C   UNL A   1      38.147  30.142  29.952  1.00  0.00     0.031 A 
ATOM     37  C   UNL A   1      38.416  30.637  31.348  1.00  0.00     0.074 A 
ATOM     38  C   UNL A   1      39.026  29.321  29.345  1.00  0.00     0.049 A 
ATOM     39  N   UNL A   1      39.429  30.380  32.136  1.00  0.00    -0.248 NA
ATOM     40  C   UNL A   1      37.428  31.562  31.925  1.00  0.00     0.031 C 
ATOM     41  C   UNL A   1      38.904  28.814  27.977  1.00  0.00     0.029 A 
ATOM     42  N   UNL A   1      40.198  28.770  29.799  1.00  0.00    -0.354 N 
ATOM     43  C   UNL A   1      39.200  31.108  33.297  1.00  0.00     0.074 A 
ATOM     44  C   UNL A   1      37.987  31.869  33.086  1.00  0.00     0.031 C 
ATOM     45  C   UNL A   1      39.942  28.005  27.713  1.00  0.00     0.029 A 
ATOM     46  C   UNL A   1      40.822  27.963  28.877  1.00  0.00     0.049 A 
ATOM     47  H   UNL A   1      40.559  28.937  30.700  1.00  0.00     0.167 HD
ATOM     48  C   UNL A   1      39.918  31.117  34.445  1.00  0.00     0.037 A 
ATOM     49  C   UNL A   1      41.973  27.271  28.963  1.00  0.00     0.037 A 
ATOM     50  C   UNL A   1      41.117  30.349  34.657  1.00  0.00     0.049 A 
ATOM     51  C   UNL A   1      42.759  27.315  30.246  1.00  0.00     0.074 A 
ATOM     52  C   UNL A   1      41.901  30.266  35.794  1.00  0.00     0.029 A 
ATOM     53  N   UNL A   1      41.706  29.528  33.706  1.00  0.00    -0.354 N 
ATOM     54  N   UNL A   1      42.496  27.955  31.360  1.00  0.00    -0.248 NA
ATOM     55  C   UNL A   1      44.000  26.527  30.288  1.00  0.00     0.031 C 
ATOM     56  C   UNL A   1      42.987  29.431  35.519  1.00  0.00     0.029 A 
ATOM     57  C   UNL A   1      42.849  28.945  34.229  1.00  0.00     0.049 A 
ATOM     58  H   UNL A   1      41.362  29.382  32.795  1.00  0.00     0.167 HD
ATOM     59  C   UNL A   1      43.509  27.611  32.246  1.00  0.00     0.074 A 
ATOM     60  C   UNL A   1      44.385  26.698  31.543  1.00  0.00     0.031 C 
ATOM     61  C   UNL A   1      43.696  28.015  33.526  1.00  0.00     0.037 A 
BRANCH  48  62
ATOM     62  C   UNL A   1      39.417  31.973  35.574  1.00  0.00     0.064 A 
ATOM     63  C   UNL A   1      38.541  31.463  36.545  1.00  0.00     0.173 A 
ATOM     64  C   UNL A   1      39.860  33.296  35.722  1.00  0.00     0.173 A 
ATOM     65  F   UNL A   1      38.078  30.208  36.446  1.00  0.00    -0.203 F 
ATOM     66  C   UNL A   1      38.110  32.253  37.608  1.00  0.00     0.198 A 
ATOM     67  C   UNL A   1      39.451  34.072  36.804  1.00  0.00     0.198 A 
ATOM     68  F   UNL A   1      40.703  33.832  34.826  1.00  0.00    -0.203 F 
ATOM     69  F   UNL A   1      37.239  31.758  38.498  1.00  0.00    -0.200 F 
ATOM     70  C   UNL A   1      38.573  33.553  37.742  1.00  0.00     0.200 A 
ATOM     71  F   UNL A   1      39.912  35.324  36.940  1.00  0.00    -0.200 F 
ATOM     72  F   UNL A   1      38.167  34.308  38.773  1.00  0.00    -0.200 F 
ENDBRANCH  48  62
BRANCH  49  73
ATOM     73  C   UNL A   1      42.443  26.449  27.816  1.00  0.00     0.064 A 
ATOM     74  C   UNL A   1      43.352  26.969  26.883  1.00  0.00     0.173 A 
ATOM     75  C   UNL A   1      41.971  25.145  27.607  1.00  0.00     0.173 A 
ATOM     76  F   UNL A   1      43.820  28.217  27.028  1.00  0.00    -0.203 F 
ATOM     77  C   UNL A   1      43.742  26.231  25.767  1.00  0.00     0.198 A 
ATOM     78  C   UNL A   1      42.387  24.396  26.508  1.00  0.00     0.198 A 
ATOM     79  F   UNL A   1      41.106  24.596  28.473  1.00  0.00    -0.203 F 
ATOM     80  F   UNL A   1      44.561  26.778  24.859  1.00  0.00    -0.200 F 
ATOM     81  C   UNL A   1      43.261  24.944  25.582  1.00  0.00     0.200 A 
ATOM     82  F   UNL A   1      41.933  23.146  26.341  1.00  0.00    -0.200 F 
ATOM     83  F   UNL A   1      43.631  24.237  24.506  1.00  0.00    -0.200 F 
ENDBRANCH  49  73
BRANCH  61  84
ATOM     84  C   UNL A   1      44.853  27.418  34.274  1.00  0.00     0.064 A 
ATOM     85  C   UNL A   1      44.733  26.225  35.001  1.00  0.00     0.173 A 
ATOM     86  C   UNL A   1      46.111  28.041  34.239  1.00  0.00     0.173 A 
ATOM     87  F   UNL A   1      43.550  25.596  35.077  1.00  0.00    -0.203 F 
ATOM     88  C   UNL A   1      45.819  25.697  35.696  1.00  0.00     0.198 A 
ATOM     89  C   UNL A   1      47.203  27.493  34.906  1.00  0.00     0.198 A 
ATOM     90  F   UNL A   1      46.284  29.180  33.552  1.00  0.00    -0.203 F 
ATOM     91  F   UNL A   1      45.664  24.589  36.434  1.00  0.00    -0.200 F 
ATOM     92  C   UNL A   1      47.053  26.328  35.643  1.00  0.00     0.200 A 
ATOM     93  F   UNL A   1      48.397  28.095  34.841  1.00  0.00    -0.200 F 
ATOM     94  F   UNL A   1      48.096  25.816  36.310  1.00  0.00    -0.200 F 
ENDBRANCH  61  84
ENDBRANCH  35  36
ENDBRANCH  27  30
ENDBRANCH  25  26
ENDBRANCH  24  25
ENDBRANCH  23  24
ENDBRANCH   1  23
TORSDOF 16
ENDMDL
