MODEL 1
REMARK VINA RESULT:     -13.1      0.000      0.000
REMARK SMILES O=C(NCCCCNC(=O)c1ccc(-c2c3nc(c(-c4c(F)c(F)c(F)c(F)c4F)c4ccc([nH]4)c(-c4c(F)c(F)c(F)c(F)c4F)c4nc(c(-c5c(F)c(F)c(F)c(F)c5F)c5ccc2[nH]5)C=C4)C=C3)cc1)c1ccc(/[NH+]=C2\S[C@@H](Cc3ccc(F)cc3)C(=O)N2Cc2ccccc2)cc1
REMARK SMILES IDX 5 1 4 2 3 3 1 4 2 5 74 7 75 8 101 9 76 10 100 11 77 12 78 13
REMARK SMILES IDX 79 14 80 16 92 17 81 18 90 19 91 20 93 21 94 22 95 23 99 24
REMARK SMILES IDX 96 25 98 26 97 27 82 28 83 29 84 30 89 31 85 32 88 33 86 34
REMARK SMILES IDX 87 35 6 36 7 37 8 38 9 39 10 41 11 42 12 43 73 44 13 45
REMARK SMILES IDX 72 46 14 47 15 48 16 49 66 50 17 51 71 52 65 53 67 54 18 55
REMARK SMILES IDX 70 56 64 57 63 58 19 60 51 61 31 62 50 63 32 64 35 65 49 66
REMARK SMILES IDX 68 67 33 68 34 69 48 71 69 72 36 73 20 74 21 75 29 76 22 77
REMARK SMILES IDX 23 78 27 79 30 80 24 81 25 82 28 83 26 84 52 85 53 86 61 87
REMARK SMILES IDX 54 88 55 89 59 90 62 91 56 92 57 93 60 94 58 95 37 96 38 97
REMARK SMILES IDX 46 98 39 99 40 100 44 101 47 102 41 103 42 104 45 105 43 106
REMARK H PARENT 3 6 78 15 8 40 67 59 35 70
REMARK Flexibility Score: inf
ROOT
ATOM      1  C   UNL A   1      42.213  18.840  27.631  1.00  0.00     0.023 C 
ENDROOT
BRANCH   1   2
ATOM      2  C   UNL A   1      41.335  20.033  27.279  1.00  0.00     0.116 C 
BRANCH   2   3
ATOM      3  N   UNL A   1      41.584  21.178  28.141  1.00  0.00    -0.352 N 
ATOM      4  O   UNL A   1      41.480  23.341  28.784  1.00  0.00    -0.269 OA
ATOM      5  C   UNL A   1      41.028  22.433  28.091  1.00  0.00     0.251 C 
ATOM      6  H   UNL A   1      42.243  21.034  28.858  1.00  0.00     0.163 HD
BRANCH   5   7
ATOM      7  C   UNL A   1      39.884  22.686  27.195  1.00  0.00     0.040 A 
ATOM      8  C   UNL A   1      39.216  23.910  27.249  1.00  0.00     0.018 A 
ATOM      9  C   UNL A   1      39.492  21.706  26.278  1.00  0.00     0.018 A 
ATOM     10  C   UNL A   1      38.094  24.108  26.455  1.00  0.00     0.052 A 
ATOM     11  C   UNL A   1      38.385  21.932  25.451  1.00  0.00     0.052 A 
ATOM     12  C   UNL A   1      37.667  23.125  25.556  1.00  0.00     0.125 A 
BRANCH  12  13
ATOM     13  N   UNL A   1      36.634  23.467  24.688  1.00  0.00    -0.235 N 
ATOM     14  C   UNL A   1      35.585  22.745  24.503  1.00  0.00     0.320 C 
ATOM     15  H   UNL A   1      36.710  24.311  24.187  1.00  0.00     0.313 HD
ATOM     16  S   UNL A   1      35.275  21.133  25.080  1.00  0.00    -0.022 SA
ATOM     17  N   UNL A   1      34.517  23.228  23.799  1.00  0.00    -0.186 N 
ATOM     18  C   UNL A   1      33.836  20.931  23.974  1.00  0.00     0.178 C 
ATOM     19  C   UNL A   1      33.488  22.350  23.541  1.00  0.00     0.324 C 
ATOM     20  O   UNL A   1      32.457  22.657  22.952  1.00  0.00    -0.245 OA
BRANCH  17  21
ATOM     21  C   UNL A   1      34.455  24.612  23.335  1.00  0.00     0.283 C 
BRANCH  21  22
ATOM     22  C   UNL A   1      33.612  25.519  24.214  1.00  0.00    -0.006 A 
ATOM     23  C   UNL A   1      34.043  25.901  25.491  1.00  0.00     0.008 A 
ATOM     24  C   UNL A   1      32.360  25.980  23.775  1.00  0.00     0.008 A 
ATOM     25  C   UNL A   1      33.243  26.722  26.295  1.00  0.00     0.000 A 
ATOM     26  C   UNL A   1      31.581  26.832  24.557  1.00  0.00     0.000 A 
ATOM     27  C   UNL A   1      32.021  27.199  25.824  1.00  0.00     0.000 A 
ENDBRANCH  21  22
ENDBRANCH  17  21
BRANCH  18  28
ATOM     28  C   UNL A   1      32.703  20.176  24.672  1.00  0.00     0.063 C 
BRANCH  28  29
ATOM     29  C   UNL A   1      32.921  18.680  24.747  1.00  0.00    -0.046 A 
ATOM     30  C   UNL A   1      32.521  17.972  25.893  1.00  0.00     0.007 A 
ATOM     31  C   UNL A   1      33.485  17.973  23.673  1.00  0.00     0.007 A 
ATOM     32  C   UNL A   1      32.650  16.585  25.951  1.00  0.00     0.039 A 
ATOM     33  C   UNL A   1      33.610  16.582  23.733  1.00  0.00     0.039 A 
ATOM     34  C   UNL A   1      33.185  15.902  24.867  1.00  0.00     0.123 A 
ATOM     35  F   UNL A   1      33.290  14.568  24.915  1.00  0.00    -0.207 F 
ENDBRANCH  28  29
ENDBRANCH  18  28
ENDBRANCH  12  13
ENDBRANCH   5   7
ENDBRANCH   2   3
ENDBRANCH   1   2
BRANCH   1  36
ATOM     36  C   UNL A   1      42.937  18.200  26.449  1.00  0.00     0.023 C 
BRANCH  36  37
ATOM     37  C   UNL A   1      43.062  19.075  25.207  1.00  0.00     0.116 C 
BRANCH  37  38
ATOM     38  N   UNL A   1      44.300  18.856  24.476  1.00  0.00    -0.352 N 
ATOM     39  C   UNL A   1      45.308  19.735  24.163  1.00  0.00     0.251 C 
ATOM     40  H   UNL A   1      44.437  17.935  24.156  1.00  0.00     0.163 HD
ATOM     41  O   UNL A   1      46.217  19.376  23.421  1.00  0.00    -0.269 OA
BRANCH  39  42
ATOM     42  C   UNL A   1      45.287  21.122  24.680  1.00  0.00     0.039 A 
ATOM     43  C   UNL A   1      45.583  21.332  26.030  1.00  0.00     0.014 A 
ATOM     44  C   UNL A   1      44.976  22.209  23.859  1.00  0.00     0.014 A 
ATOM     45  C   UNL A   1      45.636  22.632  26.534  1.00  0.00     0.010 A 
ATOM     46  C   UNL A   1      45.113  23.510  24.341  1.00  0.00     0.010 A 
ATOM     47  C   UNL A   1      45.444  23.736  25.685  1.00  0.00    -0.014 A 
BRANCH  47  48
ATOM     48  C   UNL A   1      45.628  25.118  26.199  1.00  0.00     0.031 A 
ATOM     49  C   UNL A   1      46.971  25.791  26.156  1.00  0.00     0.074 A 
ATOM     50  C   UNL A   1      44.573  25.762  26.735  1.00  0.00     0.049 A 
ATOM     51  N   UNL A   1      47.295  27.013  26.502  1.00  0.00    -0.248 NA
ATOM     52  C   UNL A   1      48.105  24.983  25.687  1.00  0.00     0.031 C 
ATOM     53  C   UNL A   1      43.234  25.194  26.902  1.00  0.00     0.029 A 
ATOM     54  N   UNL A   1      44.455  27.037  27.230  1.00  0.00    -0.354 N 
ATOM     55  C   UNL A   1      48.665  27.114  26.301  1.00  0.00     0.074 A 
ATOM     56  C   UNL A   1      49.121  25.815  25.858  1.00  0.00     0.031 C 
ATOM     57  C   UNL A   1      42.418  26.131  27.408  1.00  0.00     0.029 A 
ATOM     58  C   UNL A   1      43.181  27.354  27.633  1.00  0.00     0.049 A 
ATOM     59  H   UNL A   1      45.212  27.665  27.289  1.00  0.00     0.167 HD
ATOM     60  C   UNL A   1      49.465  28.199  26.447  1.00  0.00     0.037 A 
ATOM     61  C   UNL A   1      42.679  28.507  28.115  1.00  0.00     0.037 A 
ATOM     62  C   UNL A   1      49.003  29.495  26.876  1.00  0.00     0.049 A 
ATOM     63  C   UNL A   1      43.586  29.698  28.256  1.00  0.00     0.074 A 
ATOM     64  C   UNL A   1      49.718  30.675  26.983  1.00  0.00     0.029 A 
ATOM     65  N   UNL A   1      47.707  29.779  27.280  1.00  0.00    -0.354 N 
ATOM     66  N   UNL A   1      44.859  29.812  27.966  1.00  0.00    -0.248 NA
ATOM     67  C   UNL A   1      42.977  30.927  28.784  1.00  0.00     0.031 C 
ATOM     68  C   UNL A   1      48.871  31.657  27.510  1.00  0.00     0.029 A 
ATOM     69  C   UNL A   1      47.609  31.107  27.670  1.00  0.00     0.049 A 
ATOM     70  H   UNL A   1      46.964  29.133  27.290  1.00  0.00     0.167 HD
ATOM     71  C   UNL A   1      45.198  31.128  28.247  1.00  0.00     0.074 A 
ATOM     72  C   UNL A   1      43.988  31.779  28.708  1.00  0.00     0.031 C 
ATOM     73  C   UNL A   1      46.402  31.743  28.137  1.00  0.00     0.037 A 
BRANCH  60  74
ATOM     74  C   UNL A   1      50.929  28.027  26.149  1.00  0.00     0.064 A 
ATOM     75  C   UNL A   1      51.439  28.158  24.847  1.00  0.00     0.173 A 
ATOM     76  C   UNL A   1      51.839  27.754  27.182  1.00  0.00     0.173 A 
ATOM     77  F   UNL A   1      50.614  28.408  23.819  1.00  0.00    -0.203 F 
ATOM     78  C   UNL A   1      52.797  27.986  24.587  1.00  0.00     0.198 A 
ATOM     79  C   UNL A   1      53.201  27.618  26.923  1.00  0.00     0.198 A 
ATOM     80  F   UNL A   1      51.409  27.626  28.446  1.00  0.00    -0.203 F 
ATOM     81  F   UNL A   1      53.250  28.057  23.328  1.00  0.00    -0.200 F 
ATOM     82  C   UNL A   1      53.677  27.722  25.625  1.00  0.00     0.200 A 
ATOM     83  F   UNL A   1      54.052  27.378  27.930  1.00  0.00    -0.200 F 
ATOM     84  F   UNL A   1      54.983  27.561  25.374  1.00  0.00    -0.200 F 
ENDBRANCH  60  74
BRANCH  61  85
ATOM     85  C   UNL A   1      41.233  28.605  28.448  1.00  0.00     0.064 A 
ATOM     86  C   UNL A   1      40.306  29.038  27.489  1.00  0.00     0.173 A 
ATOM     87  C   UNL A   1      40.750  28.270  29.720  1.00  0.00     0.173 A 
ATOM     88  F   UNL A   1      40.722  29.389  26.264  1.00  0.00    -0.203 F 
ATOM     89  C   UNL A   1      38.952  29.153  27.798  1.00  0.00     0.198 A 
ATOM     90  C   UNL A   1      39.391  28.356  30.018  1.00  0.00     0.198 A 
ATOM     91  F   UNL A   1      41.596  27.844  30.670  1.00  0.00    -0.203 F 
ATOM     92  F   UNL A   1      38.094  29.614  26.878  1.00  0.00    -0.200 F 
ATOM     93  C   UNL A   1      38.495  28.805  29.060  1.00  0.00     0.200 A 
ATOM     94  F   UNL A   1      38.952  28.003  31.234  1.00  0.00    -0.200 F 
ATOM     95  F   UNL A   1      37.192  28.909  29.356  1.00  0.00    -0.200 F 
ENDBRANCH  61  85
BRANCH  73  96
ATOM     96  C   UNL A   1      46.458  33.202  28.496  1.00  0.00     0.064 A 
ATOM     97  C   UNL A   1      46.719  33.630  29.807  1.00  0.00     0.173 A 
ATOM     98  C   UNL A   1      46.239  34.183  27.518  1.00  0.00     0.173 A 
ATOM     99  F   UNL A   1      46.922  32.733  30.784  1.00  0.00    -0.203 F 
ATOM    100  C   UNL A   1      46.710  34.984  30.134  1.00  0.00     0.198 A 
ATOM    101  C   UNL A   1      46.268  35.537  27.841  1.00  0.00     0.198 A 
ATOM    102  F   UNL A   1      45.994  33.832  26.247  1.00  0.00    -0.203 F 
ATOM    103  F   UNL A   1      46.886  35.365  31.406  1.00  0.00    -0.200 F 
ATOM    104  C   UNL A   1      46.489  35.936  29.150  1.00  0.00     0.200 A 
ATOM    105  F   UNL A   1      46.069  36.456  26.886  1.00  0.00    -0.200 F 
ATOM    106  F   UNL A   1      46.474  37.239  29.467  1.00  0.00    -0.200 F 
ENDBRANCH  73  96
ENDBRANCH  47  48
ENDBRANCH  39  42
ENDBRANCH  37  38
ENDBRANCH  36  37
ENDBRANCH   1  36
TORSDOF 16
ENDMDL
MODEL 2
REMARK VINA RESULT:     -13.0      0.637      7.055
REMARK SMILES O=C(NCCCCNC(=O)c1ccc(-c2c3nc(c(-c4c(F)c(F)c(F)c(F)c4F)c4ccc([nH]4)c(-c4c(F)c(F)c(F)c(F)c4F)c4nc(c(-c5c(F)c(F)c(F)c(F)c5F)c5ccc2[nH]5)C=C4)C=C3)cc1)c1ccc(/[NH+]=C2\S[C@@H](Cc3ccc(F)cc3)C(=O)N2Cc2ccccc2)cc1
REMARK SMILES IDX 5 1 4 2 3 3 1 4 2 5 74 7 75 8 101 9 76 10 100 11 77 12 78 13
REMARK SMILES IDX 79 14 80 16 92 17 81 18 90 19 91 20 93 21 94 22 95 23 99 24
REMARK SMILES IDX 96 25 98 26 97 27 82 28 83 29 84 30 89 31 85 32 88 33 86 34
REMARK SMILES IDX 87 35 6 36 7 37 8 38 9 39 10 41 11 42 12 43 73 44 13 45
REMARK SMILES IDX 72 46 14 47 15 48 16 49 66 50 17 51 71 52 65 53 67 54 18 55
REMARK SMILES IDX 70 56 64 57 63 58 19 60 51 61 31 62 50 63 32 64 35 65 49 66
REMARK SMILES IDX 68 67 33 68 34 69 48 71 69 72 36 73 20 74 21 75 29 76 22 77
REMARK SMILES IDX 23 78 27 79 30 80 24 81 25 82 28 83 26 84 52 85 53 86 61 87
REMARK SMILES IDX 54 88 55 89 59 90 62 91 56 92 57 93 60 94 58 95 37 96 38 97
REMARK SMILES IDX 46 98 39 99 40 100 44 101 47 102 41 103 42 104 45 105 43 106
REMARK H PARENT 3 6 78 15 8 40 67 59 35 70
REMARK Flexibility Score: inf
ROOT
ATOM      1  C   UNL A   1      42.268  18.758  27.835  1.00  0.00     0.023 C 
ENDROOT
BRANCH   1   2
ATOM      2  C   UNL A   1      41.427  19.967  27.447  1.00  0.00     0.116 C 
BRANCH   2   3
ATOM      3  N   UNL A   1      41.735  21.139  28.252  1.00  0.00    -0.352 N 
ATOM      4  O   UNL A   1      41.726  23.330  28.800  1.00  0.00    -0.269 OA
ATOM      5  C   UNL A   1      41.227  22.411  28.156  1.00  0.00     0.251 C 
ATOM      6  H   UNL A   1      42.401  21.001  28.964  1.00  0.00     0.163 HD
BRANCH   5   7
ATOM      7  C   UNL A   1      40.078  22.669  27.268  1.00  0.00     0.040 A 
ATOM      8  C   UNL A   1      39.430  23.904  27.310  1.00  0.00     0.018 A 
ATOM      9  C   UNL A   1      39.659  21.681  26.371  1.00  0.00     0.018 A 
ATOM     10  C   UNL A   1      38.303  24.109  26.526  1.00  0.00     0.052 A 
ATOM     11  C   UNL A   1      38.548  21.913  25.552  1.00  0.00     0.052 A 
ATOM     12  C   UNL A   1      37.851  23.119  25.646  1.00  0.00     0.125 A 
BRANCH  12  13
ATOM     13  N   UNL A   1      36.813  23.465  24.784  1.00  0.00    -0.235 N 
ATOM     14  C   UNL A   1      35.755  22.751  24.614  1.00  0.00     0.320 C 
ATOM     15  H   UNL A   1      36.894  24.303  24.275  1.00  0.00     0.313 HD
ATOM     16  S   UNL A   1      35.434  21.148  25.208  1.00  0.00    -0.022 SA
ATOM     17  N   UNL A   1      34.686  23.240  23.916  1.00  0.00    -0.186 N 
ATOM     18  C   UNL A   1      33.983  20.952  24.115  1.00  0.00     0.178 C 
ATOM     19  C   UNL A   1      33.646  22.371  23.673  1.00  0.00     0.324 C 
ATOM     20  O   UNL A   1      32.613  22.683  23.091  1.00  0.00    -0.245 OA
BRANCH  17  21
ATOM     21  C   UNL A   1      34.635  24.621  23.440  1.00  0.00     0.283 C 
BRANCH  21  22
ATOM     22  C   UNL A   1      33.777  25.535  24.297  1.00  0.00    -0.006 A 
ATOM     23  C   UNL A   1      33.228  26.715  23.777  1.00  0.00     0.008 A 
ATOM     24  C   UNL A   1      33.533  25.232  25.646  1.00  0.00     0.008 A 
ATOM     25  C   UNL A   1      32.455  27.555  24.587  1.00  0.00     0.000 A 
ATOM     26  C   UNL A   1      32.729  26.047  26.443  1.00  0.00     0.000 A 
ATOM     27  C   UNL A   1      32.194  27.215  25.913  1.00  0.00     0.000 A 
ENDBRANCH  21  22
ENDBRANCH  17  21
BRANCH  18  28
ATOM     28  C   UNL A   1      32.848  20.215  24.829  1.00  0.00     0.063 C 
BRANCH  28  29
ATOM     29  C   UNL A   1      33.013  18.709  24.847  1.00  0.00    -0.046 A 
ATOM     30  C   UNL A   1      32.541  17.969  25.943  1.00  0.00     0.007 A 
ATOM     31  C   UNL A   1      33.599  18.030  23.768  1.00  0.00     0.007 A 
ATOM     32  C   UNL A   1      32.621  16.577  25.946  1.00  0.00     0.039 A 
ATOM     33  C   UNL A   1      33.676  16.634  23.772  1.00  0.00     0.039 A 
ATOM     34  C   UNL A   1      33.180  15.922  24.856  1.00  0.00     0.123 A 
ATOM     35  F   UNL A   1      33.239  14.584  24.850  1.00  0.00    -0.207 F 
ENDBRANCH  28  29
ENDBRANCH  18  28
ENDBRANCH  12  13
ENDBRANCH   5   7
ENDBRANCH   2   3
ENDBRANCH   1   2
BRANCH   1  36
ATOM     36  C   UNL A   1      43.032  18.107  26.684  1.00  0.00     0.023 C 
BRANCH  36  37
ATOM     37  C   UNL A   1      43.042  18.893  25.378  1.00  0.00     0.116 C 
BRANCH  37  38
ATOM     38  N   UNL A   1      44.221  18.637  24.567  1.00  0.00    -0.352 N 
ATOM     39  C   UNL A   1      45.200  19.497  24.134  1.00  0.00     0.251 C 
ATOM     40  H   UNL A   1      44.335  17.700  24.283  1.00  0.00     0.163 HD
ATOM     41  O   UNL A   1      46.050  19.100  23.342  1.00  0.00    -0.269 OA
BRANCH  39  42
ATOM     42  C   UNL A   1      45.215  20.908  24.581  1.00  0.00     0.039 A 
ATOM     43  C   UNL A   1      45.596  21.183  25.897  1.00  0.00     0.014 A 
ATOM     44  C   UNL A   1      44.855  21.955  23.727  1.00  0.00     0.014 A 
ATOM     45  C   UNL A   1      45.685  22.507  26.331  1.00  0.00     0.010 A 
ATOM     46  C   UNL A   1      45.026  23.277  24.134  1.00  0.00     0.010 A 
ATOM     47  C   UNL A   1      45.443  23.568  25.442  1.00  0.00    -0.014 A 
BRANCH  47  48
ATOM     48  C   UNL A   1      45.661  24.973  25.873  1.00  0.00     0.031 A 
ATOM     49  C   UNL A   1      44.549  25.781  26.481  1.00  0.00     0.074 A 
ATOM     50  C   UNL A   1      46.873  25.534  25.688  1.00  0.00     0.049 A 
ATOM     51  N   UNL A   1      44.583  26.997  26.970  1.00  0.00    -0.248 NA
ATOM     52  C   UNL A   1      43.220  25.155  26.526  1.00  0.00     0.031 C 
ATOM     53  C   UNL A   1      48.013  24.881  25.043  1.00  0.00     0.029 A 
ATOM     54  N   UNL A   1      47.350  26.773  26.032  1.00  0.00    -0.354 N 
ATOM     55  C   UNL A   1      43.283  27.281  27.370  1.00  0.00     0.074 A 
ATOM     56  C   UNL A   1      42.475  26.135  27.015  1.00  0.00     0.031 C 
ATOM     57  C   UNL A   1      49.073  25.704  25.086  1.00  0.00     0.029 A 
ATOM     58  C   UNL A   1      48.679  26.952  25.730  1.00  0.00     0.049 A 
ATOM     59  H   UNL A   1      46.795  27.468  26.454  1.00  0.00     0.167 HD
ATOM     60  C   UNL A   1      42.813  28.386  27.999  1.00  0.00     0.037 A 
ATOM     61  C   UNL A   1      49.493  28.000  25.961  1.00  0.00     0.037 A 
ATOM     62  C   UNL A   1      43.625  29.519  28.363  1.00  0.00     0.049 A 
ATOM     63  C   UNL A   1      48.948  29.208  26.671  1.00  0.00     0.074 A 
ATOM     64  C   UNL A   1      43.261  30.653  29.068  1.00  0.00     0.029 A 
ATOM     65  N   UNL A   1      44.966  29.668  28.038  1.00  0.00    -0.354 N 
ATOM     66  N   UNL A   1      47.743  29.425  27.137  1.00  0.00    -0.248 NA
ATOM     67  C   UNL A   1      49.888  30.315  26.897  1.00  0.00     0.031 C 
ATOM     68  C   UNL A   1      44.363  31.515  29.117  1.00  0.00     0.029 A 
ATOM     69  C   UNL A   1      45.435  30.890  28.499  1.00  0.00     0.049 A 
ATOM     70  H   UNL A   1      45.506  29.005  27.551  1.00  0.00     0.167 HD
ATOM     71  C   UNL A   1      47.784  30.677  27.735  1.00  0.00     0.074 A 
ATOM     72  C   UNL A   1      49.143  31.159  27.593  1.00  0.00     0.031 C 
ATOM     73  C   UNL A   1      46.787  31.366  28.344  1.00  0.00     0.037 A 
BRANCH  60  74
ATOM     74  C   UNL A   1      41.346  28.426  28.328  1.00  0.00     0.064 A 
ATOM     75  C   UNL A   1      40.849  27.955  29.554  1.00  0.00     0.173 A 
ATOM     76  C   UNL A   1      40.427  28.967  27.416  1.00  0.00     0.173 A 
ATOM     77  F   UNL A   1      41.681  27.418  30.459  1.00  0.00    -0.203 F 
ATOM     78  C   UNL A   1      39.485  27.991  29.837  1.00  0.00     0.198 A 
ATOM     79  C   UNL A   1      39.069  29.034  27.718  1.00  0.00     0.198 A 
ATOM     80  F   UNL A   1      40.845  29.439  26.233  1.00  0.00    -0.203 F 
ATOM     81  F   UNL A   1      39.030  27.480  30.990  1.00  0.00    -0.200 F 
ATOM     82  C   UNL A   1      38.597  28.535  28.923  1.00  0.00     0.200 A 
ATOM     83  F   UNL A   1      38.214  29.575  26.839  1.00  0.00    -0.200 F 
ATOM     84  F   UNL A   1      37.287  28.573  29.199  1.00  0.00    -0.200 F 
ENDBRANCH  60  74
BRANCH  61  85
ATOM     85  C   UNL A   1      50.924  27.928  25.564  1.00  0.00     0.064 A 
ATOM     86  C   UNL A   1      51.914  27.618  26.507  1.00  0.00     0.173 A 
ATOM     87  C   UNL A   1      51.330  28.165  24.244  1.00  0.00     0.173 A 
ATOM     88  F   UNL A   1      51.578  27.403  27.787  1.00  0.00    -0.203 F 
ATOM     89  C   UNL A   1      53.260  27.570  26.149  1.00  0.00     0.198 A 
ATOM     90  C   UNL A   1      52.674  28.086  23.880  1.00  0.00     0.198 A 
ATOM     91  F   UNL A   1      50.421  28.459  23.303  1.00  0.00    -0.203 F 
ATOM     92  F   UNL A   1      54.190  27.318  27.080  1.00  0.00    -0.200 F 
ATOM     93  C   UNL A   1      53.638  27.797  24.834  1.00  0.00     0.200 A 
ATOM     94  F   UNL A   1      53.033  28.290  22.605  1.00  0.00    -0.200 F 
ATOM     95  F   UNL A   1      54.931  27.744  24.487  1.00  0.00    -0.200 F 
ENDBRANCH  61  85
BRANCH  73  96
ATOM     96  C   UNL A   1      47.143  32.706  28.927  1.00  0.00     0.064 A 
ATOM     97  C   UNL A   1      47.017  33.890  28.185  1.00  0.00     0.173 A 
ATOM     98  C   UNL A   1      47.623  32.804  30.241  1.00  0.00     0.173 A 
ATOM     99  F   UNL A   1      46.576  33.853  26.919  1.00  0.00    -0.203 F 
ATOM    100  C   UNL A   1      47.406  35.116  28.721  1.00  0.00     0.198 A 
ATOM    101  C   UNL A   1      47.975  34.036  30.786  1.00  0.00     0.198 A 
ATOM    102  F   UNL A   1      47.755  31.705  30.999  1.00  0.00    -0.203 F 
ATOM    103  F   UNL A   1      47.348  36.223  27.968  1.00  0.00    -0.200 F 
ATOM    104  C   UNL A   1      47.880  35.188  30.022  1.00  0.00     0.200 A 
ATOM    105  F   UNL A   1      48.419  34.105  32.049  1.00  0.00    -0.200 F 
ATOM    106  F   UNL A   1      48.260  36.367  30.534  1.00  0.00    -0.200 F 
ENDBRANCH  73  96
ENDBRANCH  47  48
ENDBRANCH  39  42
ENDBRANCH  37  38
ENDBRANCH  36  37
ENDBRANCH   1  36
TORSDOF 16
ENDMDL
MODEL 3
REMARK VINA RESULT:     -12.9      7.168     12.416
REMARK SMILES O=C(NCCCCNC(=O)c1ccc(-c2c3nc(c(-c4c(F)c(F)c(F)c(F)c4F)c4ccc([nH]4)c(-c4c(F)c(F)c(F)c(F)c4F)c4nc(c(-c5c(F)c(F)c(F)c(F)c5F)c5ccc2[nH]5)C=C4)C=C3)cc1)c1ccc(/[NH+]=C2\S[C@@H](Cc3ccc(F)cc3)C(=O)N2Cc2ccccc2)cc1
REMARK SMILES IDX 5 1 4 2 3 3 1 4 2 5 74 7 75 8 101 9 76 10 100 11 77 12 78 13
REMARK SMILES IDX 79 14 80 16 92 17 81 18 90 19 91 20 93 21 94 22 95 23 99 24
REMARK SMILES IDX 96 25 98 26 97 27 82 28 83 29 84 30 89 31 85 32 88 33 86 34
REMARK SMILES IDX 87 35 6 36 7 37 8 38 9 39 10 41 11 42 12 43 73 44 13 45
REMARK SMILES IDX 72 46 14 47 15 48 16 49 66 50 17 51 71 52 65 53 67 54 18 55
REMARK SMILES IDX 70 56 64 57 63 58 19 60 51 61 31 62 50 63 32 64 35 65 49 66
REMARK SMILES IDX 68 67 33 68 34 69 48 71 69 72 36 73 20 74 21 75 29 76 22 77
REMARK SMILES IDX 23 78 27 79 30 80 24 81 25 82 28 83 26 84 52 85 53 86 61 87
REMARK SMILES IDX 54 88 55 89 59 90 62 91 56 92 57 93 60 94 58 95 37 96 38 97
REMARK SMILES IDX 46 98 39 99 40 100 44 101 47 102 41 103 42 104 45 105 43 106
REMARK H PARENT 3 6 78 15 8 40 67 59 35 70
REMARK Flexibility Score: inf
ROOT
ATOM      1  C   UNL A   1      33.234  34.687  28.975  1.00  0.00     0.023 C 
ENDROOT
BRANCH   1   2
ATOM      2  C   UNL A   1      33.867  34.060  27.740  1.00  0.00     0.116 C 
BRANCH   2   3
ATOM      3  N   UNL A   1      35.296  33.839  27.902  1.00  0.00    -0.352 N 
ATOM      4  O   UNL A   1      37.169  32.645  28.315  1.00  0.00    -0.269 OA
ATOM      5  C   UNL A   1      35.980  32.653  28.004  1.00  0.00     0.251 C 
ATOM      6  H   UNL A   1      35.849  34.653  27.946  1.00  0.00     0.163 HD
BRANCH   5   7
ATOM      7  C   UNL A   1      35.277  31.384  27.739  1.00  0.00     0.040 A 
ATOM      8  C   UNL A   1      36.004  30.199  27.614  1.00  0.00     0.018 A 
ATOM      9  C   UNL A   1      33.883  31.371  27.640  1.00  0.00     0.018 A 
ATOM     10  C   UNL A   1      35.340  29.024  27.290  1.00  0.00     0.052 A 
ATOM     11  C   UNL A   1      33.218  30.172  27.356  1.00  0.00     0.052 A 
ATOM     12  C   UNL A   1      33.948  29.000  27.154  1.00  0.00     0.125 A 
BRANCH  12  13
ATOM     13  N   UNL A   1      33.350  27.754  26.986  1.00  0.00    -0.235 N 
ATOM     14  C   UNL A   1      32.460  27.501  26.092  1.00  0.00     0.320 C 
ATOM     15  H   UNL A   1      33.624  27.024  27.587  1.00  0.00     0.313 HD
ATOM     16  S   UNL A   1      31.641  28.622  25.044  1.00  0.00    -0.022 SA
ATOM     17  N   UNL A   1      32.062  26.216  25.843  1.00  0.00    -0.186 N 
ATOM     18  C   UNL A   1      30.402  27.374  24.550  1.00  0.00     0.178 C 
ATOM     19  C   UNL A   1      31.020  26.043  24.960  1.00  0.00     0.324 C 
ATOM     20  O   UNL A   1      30.584  24.948  24.620  1.00  0.00    -0.245 OA
BRANCH  17  21
ATOM     21  C   UNL A   1      32.705  25.068  26.478  1.00  0.00     0.283 C 
BRANCH  21  22
ATOM     22  C   UNL A   1      33.565  24.244  25.535  1.00  0.00    -0.006 A 
ATOM     23  C   UNL A   1      34.589  24.834  24.781  1.00  0.00     0.008 A 
ATOM     24  C   UNL A   1      33.336  22.868  25.374  1.00  0.00     0.008 A 
ATOM     25  C   UNL A   1      35.358  24.062  23.903  1.00  0.00     0.000 A 
ATOM     26  C   UNL A   1      34.129  22.090  24.531  1.00  0.00     0.000 A 
ATOM     27  C   UNL A   1      35.139  22.690  23.788  1.00  0.00     0.000 A 
ENDBRANCH  21  22
ENDBRANCH  17  21
BRANCH  18  28
ATOM     28  C   UNL A   1      30.060  27.492  23.063  1.00  0.00     0.063 C 
BRANCH  28  29
ATOM     29  C   UNL A   1      29.399  28.802  22.690  1.00  0.00    -0.046 A 
ATOM     30  C   UNL A   1      30.057  29.696  21.830  1.00  0.00     0.007 A 
ATOM     31  C   UNL A   1      28.117  29.129  23.160  1.00  0.00     0.007 A 
ATOM     32  C   UNL A   1      29.434  30.875  21.420  1.00  0.00     0.039 A 
ATOM     33  C   UNL A   1      27.494  30.309  22.746  1.00  0.00     0.039 A 
ATOM     34  C   UNL A   1      28.155  31.166  21.875  1.00  0.00     0.123 A 
ATOM     35  F   UNL A   1      27.549  32.288  21.466  1.00  0.00    -0.207 F 
ENDBRANCH  28  29
ENDBRANCH  18  28
ENDBRANCH  12  13
ENDBRANCH   5   7
ENDBRANCH   2   3
ENDBRANCH   1   2
BRANCH   1  36
ATOM     36  C   UNL A   1      33.102  36.208  28.931  1.00  0.00     0.023 C 
BRANCH  36  37
ATOM     37  C   UNL A   1      33.336  36.922  30.257  1.00  0.00     0.116 C 
BRANCH  37  38
ATOM     38  N   UNL A   1      32.342  36.594  31.266  1.00  0.00    -0.352 N 
ATOM     39  C   UNL A   1      32.384  35.669  32.280  1.00  0.00     0.251 C 
ATOM     40  H   UNL A   1      31.509  37.117  31.215  1.00  0.00     0.163 HD
ATOM     41  O   UNL A   1      31.378  35.457  32.951  1.00  0.00    -0.269 OA
BRANCH  39  42
ATOM     42  C   UNL A   1      33.618  34.895  32.544  1.00  0.00     0.039 A 
ATOM     43  C   UNL A   1      34.848  35.550  32.433  1.00  0.00     0.014 A 
ATOM     44  C   UNL A   1      33.580  33.542  32.891  1.00  0.00     0.014 A 
ATOM     45  C   UNL A   1      36.027  34.868  32.739  1.00  0.00     0.010 A 
ATOM     46  C   UNL A   1      34.748  32.887  33.279  1.00  0.00     0.010 A 
ATOM     47  C   UNL A   1      35.985  33.544  33.206  1.00  0.00    -0.014 A 
BRANCH  47  48
ATOM     48  C   UNL A   1      37.231  32.865  33.651  1.00  0.00     0.031 A 
ATOM     49  C   UNL A   1      37.933  31.874  32.766  1.00  0.00     0.074 A 
ATOM     50  C   UNL A   1      37.717  33.129  34.879  1.00  0.00     0.049 A 
ATOM     51  N   UNL A   1      39.062  31.239  32.969  1.00  0.00    -0.248 NA
ATOM     52  C   UNL A   1      37.275  31.531  31.497  1.00  0.00     0.031 C 
ATOM     53  C   UNL A   1      37.090  34.014  35.861  1.00  0.00     0.029 A 
ATOM     54  N   UNL A   1      38.853  32.687  35.509  1.00  0.00    -0.354 N 
ATOM     55  C   UNL A   1      39.241  30.419  31.863  1.00  0.00     0.074 A 
ATOM     56  C   UNL A   1      38.079  30.593  31.019  1.00  0.00     0.031 C 
ATOM     57  C   UNL A   1      37.875  34.094  36.947  1.00  0.00     0.029 A 
ATOM     58  C   UNL A   1      39.041  33.241  36.752  1.00  0.00     0.049 A 
ATOM     59  H   UNL A   1      39.474  32.036  35.109  1.00  0.00     0.167 HD
ATOM     60  C   UNL A   1      40.291  29.614  31.566  1.00  0.00     0.037 A 
ATOM     61  C   UNL A   1      40.051  33.090  37.631  1.00  0.00     0.037 A 
ATOM     62  C   UNL A   1      41.452  29.455  32.403  1.00  0.00     0.049 A 
ATOM     63  C   UNL A   1      41.208  32.201  37.271  1.00  0.00     0.074 A 
ATOM     64  C   UNL A   1      42.601  28.723  32.158  1.00  0.00     0.029 A 
ATOM     65  N   UNL A   1      41.608  30.028  33.658  1.00  0.00    -0.354 N 
ATOM     66  N   UNL A   1      41.417  31.509  36.177  1.00  0.00    -0.248 NA
ATOM     67  C   UNL A   1      42.280  32.082  38.270  1.00  0.00     0.031 C 
ATOM     68  C   UNL A   1      43.425  28.804  33.287  1.00  0.00     0.029 A 
ATOM     69  C   UNL A   1      42.819  29.639  34.212  1.00  0.00     0.049 A 
ATOM     70  H   UNL A   1      40.955  30.623  34.091  1.00  0.00     0.167 HD
ATOM     71  C   UNL A   1      42.651  30.897  36.342  1.00  0.00     0.074 A 
ATOM     72  C   UNL A   1      43.156  31.320  37.633  1.00  0.00     0.031 C 
ATOM     73  C   UNL A   1      43.307  30.057  35.502  1.00  0.00     0.037 A 
BRANCH  60  74
ATOM     74  C   UNL A   1      40.226  28.835  30.281  1.00  0.00     0.064 A 
ATOM     75  C   UNL A   1      39.572  27.595  30.200  1.00  0.00     0.173 A 
ATOM     76  C   UNL A   1      40.803  29.347  29.109  1.00  0.00     0.173 A 
ATOM     77  F   UNL A   1      39.012  27.053  31.291  1.00  0.00    -0.203 F 
ATOM     78  C   UNL A   1      39.531  26.882  29.003  1.00  0.00     0.198 A 
ATOM     79  C   UNL A   1      40.729  28.647  27.906  1.00  0.00     0.198 A 
ATOM     80  F   UNL A   1      41.434  30.530  29.126  1.00  0.00    -0.203 F 
ATOM     81  F   UNL A   1      38.952  25.674  28.966  1.00  0.00    -0.200 F 
ATOM     82  C   UNL A   1      40.103  27.411  27.857  1.00  0.00     0.200 A 
ATOM     83  F   UNL A   1      41.269  29.167  26.796  1.00  0.00    -0.200 F 
ATOM     84  F   UNL A   1      40.058  26.726  26.707  1.00  0.00    -0.200 F 
ENDBRANCH  60  74
BRANCH  61  85
ATOM     85  C   UNL A   1      40.036  33.843  38.913  1.00  0.00     0.064 A 
ATOM     86  C   UNL A   1      40.705  35.070  39.031  1.00  0.00     0.173 A 
ATOM     87  C   UNL A   1      39.360  33.356  40.040  1.00  0.00     0.173 A 
ATOM     88  F   UNL A   1      41.383  35.567  37.987  1.00  0.00    -0.203 F 
ATOM     89  C   UNL A   1      40.714  35.772  40.235  1.00  0.00     0.198 A 
ATOM     90  C   UNL A   1      39.344  34.075  41.234  1.00  0.00     0.198 A 
ATOM     91  F   UNL A   1      38.699  32.191  39.977  1.00  0.00    -0.203 F 
ATOM     92  F   UNL A   1      41.400  36.918  40.333  1.00  0.00    -0.200 F 
ATOM     93  C   UNL A   1      40.028  35.277  41.333  1.00  0.00     0.200 A 
ATOM     94  F   UNL A   1      38.665  33.601  42.289  1.00  0.00    -0.200 F 
ATOM     95  F   UNL A   1      40.031  35.954  42.489  1.00  0.00    -0.200 F 
ENDBRANCH  61  85
BRANCH  73  96
ATOM     96  C   UNL A   1      44.657  29.567  35.947  1.00  0.00     0.064 A 
ATOM     97  C   UNL A   1      45.832  30.281  35.665  1.00  0.00     0.173 A 
ATOM     98  C   UNL A   1      44.778  28.363  36.657  1.00  0.00     0.173 A 
ATOM     99  F   UNL A   1      45.776  31.431  34.977  1.00  0.00    -0.203 F 
ATOM    100  C   UNL A   1      47.079  29.783  36.034  1.00  0.00     0.198 A 
ATOM    101  C   UNL A   1      46.023  27.887  37.058  1.00  0.00     0.198 A 
ATOM    102  F   UNL A   1      43.687  27.643  36.962  1.00  0.00    -0.203 F 
ATOM    103  F   UNL A   1      48.192  30.445  35.688  1.00  0.00    -0.200 F 
ATOM    104  C   UNL A   1      47.174  28.589  36.734  1.00  0.00     0.200 A 
ATOM    105  F   UNL A   1      46.110  26.741  37.747  1.00  0.00    -0.200 F 
ATOM    106  F   UNL A   1      48.375  28.108  37.083  1.00  0.00    -0.200 F 
ENDBRANCH  73  96
ENDBRANCH  47  48
ENDBRANCH  39  42
ENDBRANCH  37  38
ENDBRANCH  36  37
ENDBRANCH   1  36
TORSDOF 16
ENDMDL
