MODEL 1
REMARK VINA RESULT:     -12.8      0.000      0.000
REMARK SMILES O=C(NCCCCNC(=O)[C@@H]1CC[C@H](CNC(=O)C2CCOCC2)O1)c1ccc(-c2c3nc(c(-c4c(F)c(F)c(F)c(F)c4F)c4ccc([nH]4)c(-c4c(F)c(F)c(F)c(F)c4F)c4nc(c(-c5c(F)c(F)c(F)c(F)c5F)c5ccc2[nH]5)C=C4)C=C3)cc1
REMARK SMILES IDX 6 1 5 2 4 3 3 4 1 5 2 6 26 8 27 9 88 10 28 11 87 12 29 13
REMARK SMILES IDX 30 14 31 15 81 16 32 17 86 18 80 19 82 20 33 21 85 22 79 23
REMARK SMILES IDX 78 24 34 26 66 27 46 28 65 29 47 30 50 31 64 32 83 33 48 34
REMARK SMILES IDX 49 35 63 37 84 38 51 39 35 40 36 41 44 42 37 43 38 44 42 45
REMARK SMILES IDX 45 46 39 47 40 48 43 49 41 50 67 51 68 52 76 53 69 54 70 55
REMARK SMILES IDX 74 56 77 57 71 58 72 59 75 60 73 61 52 62 53 63 61 64 54 65
REMARK SMILES IDX 55 66 59 67 62 68 56 69 57 70 60 71 58 72 7 73 8 74 9 75
REMARK SMILES IDX 10 77 11 78 12 79 25 80 13 81 14 82 15 83 16 84 17 85 18 87
REMARK SMILES IDX 19 88 20 89 24 90 21 91 23 92 22 93
REMARK H PARENT 3 7 82 25 50 36 8 76 16 86
REMARK Flexibility Score: inf
ROOT
ATOM      1  C   UNL A   1      31.653  30.568  26.847  1.00  0.00     0.023 C 
ENDROOT
BRANCH   1   2
ATOM      2  C   UNL A   1      31.480  32.084  26.795  1.00  0.00     0.023 C 
BRANCH   2   3
ATOM      3  C   UNL A   1      32.724  32.899  27.129  1.00  0.00     0.116 C 
BRANCH   3   4
ATOM      4  N   UNL A   1      32.416  34.229  27.633  1.00  0.00    -0.352 N 
ATOM      5  O   UNL A   1      32.501  36.003  29.017  1.00  0.00    -0.269 OA
ATOM      6  C   UNL A   1      32.997  34.941  28.653  1.00  0.00     0.251 C 
ATOM      7  H   UNL A   1      31.677  34.687  27.173  1.00  0.00     0.163 HD
BRANCH   6   8
ATOM      8  C   UNL A   1      34.193  34.412  29.341  1.00  0.00     0.039 A 
ATOM      9  C   UNL A   1      35.477  34.643  28.841  1.00  0.00     0.014 A 
ATOM     10  C   UNL A   1      34.019  33.671  30.513  1.00  0.00     0.014 A 
ATOM     11  C   UNL A   1      36.572  34.015  29.429  1.00  0.00     0.010 A 
ATOM     12  C   UNL A   1      35.125  33.101  31.143  1.00  0.00     0.010 A 
ATOM     13  C   UNL A   1      36.406  33.237  30.585  1.00  0.00    -0.014 A 
BRANCH  13  14
ATOM     14  C   UNL A   1      37.577  32.587  31.223  1.00  0.00     0.031 A 
ATOM     15  C   UNL A   1      38.310  31.477  30.526  1.00  0.00     0.074 A 
ATOM     16  C   UNL A   1      37.968  32.993  32.444  1.00  0.00     0.049 A 
ATOM     17  N   UNL A   1      39.306  30.744  30.958  1.00  0.00    -0.248 NA
ATOM     18  C   UNL A   1      37.861  31.139  29.167  1.00  0.00     0.031 C 
ATOM     19  C   UNL A   1      37.335  34.062  33.218  1.00  0.00     0.029 A 
ATOM     20  N   UNL A   1      38.986  32.553  33.251  1.00  0.00    -0.354 N 
ATOM     21  C   UNL A   1      39.584  29.843  29.939  1.00  0.00     0.074 A 
ATOM     22  C   UNL A   1      38.641  30.108  28.873  1.00  0.00     0.031 C 
ATOM     23  C   UNL A   1      37.984  34.203  34.382  1.00  0.00     0.029 A 
ATOM     24  C   UNL A   1      39.042  33.201  34.460  1.00  0.00     0.049 A 
ATOM     25  H   UNL A   1      39.613  31.842  32.990  1.00  0.00     0.167 HD
ATOM     26  C   UNL A   1      40.543  28.887  29.897  1.00  0.00     0.037 A 
ATOM     27  C   UNL A   1      39.839  32.994  35.525  1.00  0.00     0.037 A 
ATOM     28  C   UNL A   1      41.490  28.641  30.954  1.00  0.00     0.049 A 
ATOM     29  C   UNL A   1      40.878  31.912  35.464  1.00  0.00     0.074 A 
ATOM     30  C   UNL A   1      42.524  27.721  30.992  1.00  0.00     0.029 A 
ATOM     31  N   UNL A   1      41.513  29.318  32.165  1.00  0.00    -0.354 N 
ATOM     32  N   UNL A   1      41.149  31.082  34.487  1.00  0.00    -0.248 NA
ATOM     33  C   UNL A   1      41.720  31.736  36.655  1.00  0.00     0.031 C 
ATOM     34  C   UNL A   1      43.146  27.813  32.242  1.00  0.00     0.029 A 
ATOM     35  C   UNL A   1      42.531  28.821  32.966  1.00  0.00     0.049 A 
ATOM     36  H   UNL A   1      40.899  30.043  32.419  1.00  0.00     0.167 HD
ATOM     37  C   UNL A   1      42.205  30.301  34.931  1.00  0.00     0.074 A 
ATOM     38  C   UNL A   1      42.531  30.760  36.267  1.00  0.00     0.031 C 
ATOM     39  C   UNL A   1      42.847  29.294  34.289  1.00  0.00     0.037 A 
BRANCH  26  40
ATOM     40  C   UNL A   1      40.601  28.015  28.677  1.00  0.00     0.064 A 
ATOM     41  C   UNL A   1      41.367  28.364  27.555  1.00  0.00     0.173 A 
ATOM     42  C   UNL A   1      39.904  26.798  28.641  1.00  0.00     0.173 A 
ATOM     43  F   UNL A   1      42.044  29.522  27.533  1.00  0.00    -0.203 F 
ATOM     44  C   UNL A   1      41.410  27.541  26.431  1.00  0.00     0.198 A 
ATOM     45  C   UNL A   1      39.970  25.964  27.527  1.00  0.00     0.198 A 
ATOM     46  F   UNL A   1      39.162  26.413  29.691  1.00  0.00    -0.203 F 
ATOM     47  F   UNL A   1      42.110  27.917  25.353  1.00  0.00    -0.200 F 
ATOM     48  C   UNL A   1      40.716  26.340  26.421  1.00  0.00     0.200 A 
ATOM     49  F   UNL A   1      39.307  24.799  27.524  1.00  0.00    -0.200 F 
ATOM     50  F   UNL A   1      40.759  25.549  25.340  1.00  0.00    -0.200 F 
ENDBRANCH  26  40
BRANCH  27  51
ATOM     51  C   UNL A   1      39.666  33.837  36.733  1.00  0.00     0.064 A 
ATOM     52  C   UNL A   1      40.276  35.094  36.825  1.00  0.00     0.173 A 
ATOM     53  C   UNL A   1      38.849  33.424  37.795  1.00  0.00     0.173 A 
ATOM     54  F   UNL A   1      41.080  35.523  35.841  1.00  0.00    -0.203 F 
ATOM     55  C   UNL A   1      40.076  35.908  37.938  1.00  0.00     0.198 A 
ATOM     56  C   UNL A   1      38.629  34.248  38.895  1.00  0.00     0.198 A 
ATOM     57  F   UNL A   1      38.240  32.230  37.748  1.00  0.00    -0.203 F 
ATOM     58  F   UNL A   1      40.688  37.098  38.015  1.00  0.00    -0.200 F 
ATOM     59  C   UNL A   1      39.246  35.488  38.968  1.00  0.00     0.200 A 
ATOM     60  F   UNL A   1      37.814  33.846  39.880  1.00  0.00    -0.200 F 
ATOM     61  F   UNL A   1      39.041  36.278  40.030  1.00  0.00    -0.200 F 
ENDBRANCH  27  51
BRANCH  39  62
ATOM     62  C   UNL A   1      43.993  28.645  35.006  1.00  0.00     0.064 A 
ATOM     63  C   UNL A   1      43.809  27.511  35.809  1.00  0.00     0.173 A 
ATOM     64  C   UNL A   1      45.297  29.135  34.845  1.00  0.00     0.173 A 
ATOM     65  F   UNL A   1      42.577  27.016  36.006  1.00  0.00    -0.203 F 
ATOM     66  C   UNL A   1      44.890  26.899  36.439  1.00  0.00     0.198 A 
ATOM     67  C   UNL A   1      46.378  28.507  35.455  1.00  0.00     0.198 A 
ATOM     68  F   UNL A   1      45.524  30.215  34.082  1.00  0.00    -0.203 F 
ATOM     69  F   UNL A   1      44.688  25.837  37.230  1.00  0.00    -0.200 F 
ATOM     70  C   UNL A   1      46.173  27.393  36.255  1.00  0.00     0.200 A 
ATOM     71  F   UNL A   1      47.618  28.978  35.269  1.00  0.00    -0.200 F 
ATOM     72  F   UNL A   1      47.213  26.796  36.854  1.00  0.00    -0.200 F 
ENDBRANCH  39  62
ENDBRANCH  13  14
ENDBRANCH   6   8
ENDBRANCH   3   4
ENDBRANCH   2   3
ENDBRANCH   1   2
BRANCH   1  73
ATOM     73  C   UNL A   1      33.058  30.057  26.553  1.00  0.00     0.116 C 
BRANCH  73  74
ATOM     74  N   UNL A   1      33.335  29.958  25.132  1.00  0.00    -0.354 N 
ATOM     75  C   UNL A   1      33.077  28.953  24.247  1.00  0.00     0.249 C 
ATOM     76  H   UNL A   1      33.783  30.745  24.744  1.00  0.00     0.163 HD
ATOM     77  O   UNL A   1      33.362  29.163  23.064  1.00  0.00    -0.272 OA
BRANCH  75  78
ATOM     78  C   UNL A   1      32.521  27.585  24.713  1.00  0.00     0.207 C 
ATOM     79  C   UNL A   1      32.755  26.509  23.649  1.00  0.00     0.045 C 
ATOM     80  O   UNL A   1      31.126  27.544  25.024  1.00  0.00    -0.363 OA
ATOM     81  C   UNL A   1      31.482  25.692  23.670  1.00  0.00     0.037 C 
ATOM     82  C   UNL A   1      30.440  26.712  24.082  1.00  0.00     0.138 C 
BRANCH  82  83
ATOM     83  C   UNL A   1      29.919  27.585  22.926  1.00  0.00     0.147 C 
BRANCH  83  84
ATOM     84  N   UNL A   1      28.540  27.989  23.131  1.00  0.00    -0.353 N 
ATOM     85  C   UNL A   1      27.829  29.118  22.938  1.00  0.00     0.223 C 
ATOM     86  H   UNL A   1      27.989  27.260  23.502  1.00  0.00     0.163 HD
ATOM     87  O   UNL A   1      26.651  29.052  23.321  1.00  0.00    -0.275 OA
BRANCH  85  88
ATOM     88  C   UNL A   1      28.336  30.438  22.345  1.00  0.00     0.083 C 
ATOM     89  C   UNL A   1      28.142  31.527  23.424  1.00  0.00     0.042 C 
ATOM     90  C   UNL A   1      27.790  30.947  21.014  1.00  0.00     0.042 C 
ATOM     91  C   UNL A   1      28.614  32.894  22.956  1.00  0.00     0.161 C 
ATOM     92  C   UNL A   1      28.319  32.340  20.687  1.00  0.00     0.161 C 
ATOM     93  O   UNL A   1      27.983  33.249  21.730  1.00  0.00    -0.381 OA
ENDBRANCH  85  88
ENDBRANCH  83  84
ENDBRANCH  82  83
ENDBRANCH  75  78
ENDBRANCH  73  74
ENDBRANCH   1  73
TORSDOF 14
ENDMDL
MODEL 2
REMARK VINA RESULT:     -12.8      0.209      1.615
REMARK SMILES O=C(NCCCCNC(=O)[C@@H]1CC[C@H](CNC(=O)C2CCOCC2)O1)c1ccc(-c2c3nc(c(-c4c(F)c(F)c(F)c(F)c4F)c4ccc([nH]4)c(-c4c(F)c(F)c(F)c(F)c4F)c4nc(c(-c5c(F)c(F)c(F)c(F)c5F)c5ccc2[nH]5)C=C4)C=C3)cc1
REMARK SMILES IDX 6 1 5 2 4 3 3 4 1 5 2 6 26 8 27 9 88 10 28 11 87 12 29 13
REMARK SMILES IDX 30 14 31 15 81 16 32 17 86 18 80 19 82 20 33 21 85 22 79 23
REMARK SMILES IDX 78 24 34 26 66 27 46 28 65 29 47 30 50 31 64 32 83 33 48 34
REMARK SMILES IDX 49 35 63 37 84 38 51 39 35 40 36 41 44 42 37 43 38 44 42 45
REMARK SMILES IDX 45 46 39 47 40 48 43 49 41 50 67 51 68 52 76 53 69 54 70 55
REMARK SMILES IDX 74 56 77 57 71 58 72 59 75 60 73 61 52 62 53 63 61 64 54 65
REMARK SMILES IDX 55 66 59 67 62 68 56 69 57 70 60 71 58 72 7 73 8 74 9 75
REMARK SMILES IDX 10 77 11 78 12 79 25 80 13 81 14 82 15 83 16 84 17 85 18 87
REMARK SMILES IDX 19 88 20 89 24 90 21 91 23 92 22 93
REMARK H PARENT 3 7 82 25 50 36 8 76 16 86
REMARK Flexibility Score: inf
ROOT
ATOM      1  C   UNL A   1      31.591  30.764  26.069  1.00  0.00     0.023 C 
ENDROOT
BRANCH   1   2
ATOM      2  C   UNL A   1      31.374  32.088  26.799  1.00  0.00     0.023 C 
BRANCH   2   3
ATOM      3  C   UNL A   1      32.642  32.827  27.209  1.00  0.00     0.116 C 
BRANCH   3   4
ATOM      4  N   UNL A   1      32.390  34.192  27.644  1.00  0.00    -0.352 N 
ATOM      5  O   UNL A   1      32.565  36.036  28.925  1.00  0.00    -0.269 OA
ATOM      6  C   UNL A   1      33.017  34.939  28.611  1.00  0.00     0.251 C 
ATOM      7  H   UNL A   1      31.658  34.651  27.173  1.00  0.00     0.163 HD
BRANCH   6   8
ATOM      8  C   UNL A   1      34.209  34.407  29.305  1.00  0.00     0.039 A 
ATOM      9  C   UNL A   1      35.493  34.608  28.793  1.00  0.00     0.014 A 
ATOM     10  C   UNL A   1      34.029  33.694  30.493  1.00  0.00     0.014 A 
ATOM     11  C   UNL A   1      36.582  33.976  29.389  1.00  0.00     0.010 A 
ATOM     12  C   UNL A   1      35.131  33.121  31.130  1.00  0.00     0.010 A 
ATOM     13  C   UNL A   1      36.410  33.226  30.563  1.00  0.00    -0.014 A 
BRANCH  13  14
ATOM     14  C   UNL A   1      37.575  32.572  31.208  1.00  0.00     0.031 A 
ATOM     15  C   UNL A   1      38.309  31.459  30.517  1.00  0.00     0.074 A 
ATOM     16  C   UNL A   1      37.960  32.979  32.431  1.00  0.00     0.049 A 
ATOM     17  N   UNL A   1      39.299  30.723  30.955  1.00  0.00    -0.248 NA
ATOM     18  C   UNL A   1      37.866  31.121  29.156  1.00  0.00     0.031 C 
ATOM     19  C   UNL A   1      37.326  34.050  33.200  1.00  0.00     0.029 A 
ATOM     20  N   UNL A   1      38.971  32.535  33.245  1.00  0.00    -0.354 N 
ATOM     21  C   UNL A   1      39.580  29.820  29.939  1.00  0.00     0.074 A 
ATOM     22  C   UNL A   1      38.645  30.087  28.867  1.00  0.00     0.031 C 
ATOM     23  C   UNL A   1      37.968  34.190  34.368  1.00  0.00     0.029 A 
ATOM     24  C   UNL A   1      39.022  33.184  34.453  1.00  0.00     0.049 A 
ATOM     25  H   UNL A   1      39.598  31.822  32.988  1.00  0.00     0.167 HD
ATOM     26  C   UNL A   1      40.536  28.860  29.904  1.00  0.00     0.037 A 
ATOM     27  C   UNL A   1      39.812  32.976  35.523  1.00  0.00     0.037 A 
ATOM     28  C   UNL A   1      41.475  28.612  30.968  1.00  0.00     0.049 A 
ATOM     29  C   UNL A   1      40.847  31.890  35.470  1.00  0.00     0.074 A 
ATOM     30  C   UNL A   1      42.505  27.688  31.012  1.00  0.00     0.029 A 
ATOM     31  N   UNL A   1      41.494  29.290  32.178  1.00  0.00    -0.354 N 
ATOM     32  N   UNL A   1      41.122  31.058  34.496  1.00  0.00    -0.248 NA
ATOM     33  C   UNL A   1      41.682  31.712  36.666  1.00  0.00     0.031 C 
ATOM     34  C   UNL A   1      43.120  27.779  32.266  1.00  0.00     0.029 A 
ATOM     35  C   UNL A   1      42.504  28.790  32.985  1.00  0.00     0.049 A 
ATOM     36  H   UNL A   1      40.880  30.017  32.427  1.00  0.00     0.167 HD
ATOM     37  C   UNL A   1      42.172  30.273  34.947  1.00  0.00     0.074 A 
ATOM     38  C   UNL A   1      42.491  30.733  36.284  1.00  0.00     0.031 C 
ATOM     39  C   UNL A   1      42.814  29.264  34.310  1.00  0.00     0.037 A 
BRANCH  26  40
ATOM     40  C   UNL A   1      40.598  27.986  28.685  1.00  0.00     0.064 A 
ATOM     41  C   UNL A   1      39.885  26.781  28.603  1.00  0.00     0.173 A 
ATOM     42  C   UNL A   1      41.358  28.375  27.572  1.00  0.00     0.173 A 
ATOM     43  F   UNL A   1      39.152  26.358  29.644  1.00  0.00    -0.203 F 
ATOM     44  C   UNL A   1      39.954  25.983  27.463  1.00  0.00     0.198 A 
ATOM     45  C   UNL A   1      41.403  27.589  26.423  1.00  0.00     0.198 A 
ATOM     46  F   UNL A   1      42.053  29.522  27.595  1.00  0.00    -0.203 F 
ATOM     47  F   UNL A   1      39.303  24.813  27.425  1.00  0.00    -0.200 F 
ATOM     48  C   UNL A   1      40.709  26.390  26.373  1.00  0.00     0.200 A 
ATOM     49  F   UNL A   1      42.124  27.990  25.366  1.00  0.00    -0.200 F 
ATOM     50  F   UNL A   1      40.772  25.623  25.276  1.00  0.00    -0.200 F 
ENDBRANCH  26  40
BRANCH  27  51
ATOM     51  C   UNL A   1      39.635  33.821  36.729  1.00  0.00     0.064 A 
ATOM     52  C   UNL A   1      40.240  35.080  36.820  1.00  0.00     0.173 A 
ATOM     53  C   UNL A   1      38.818  33.407  37.792  1.00  0.00     0.173 A 
ATOM     54  F   UNL A   1      41.044  35.509  35.836  1.00  0.00    -0.203 F 
ATOM     55  C   UNL A   1      40.036  35.895  37.931  1.00  0.00     0.198 A 
ATOM     56  C   UNL A   1      38.594  34.233  38.890  1.00  0.00     0.198 A 
ATOM     57  F   UNL A   1      38.213  32.211  37.746  1.00  0.00    -0.203 F 
ATOM     58  F   UNL A   1      40.645  37.087  38.006  1.00  0.00    -0.200 F 
ATOM     59  C   UNL A   1      39.206  35.475  38.961  1.00  0.00     0.200 A 
ATOM     60  F   UNL A   1      37.779  33.830  39.874  1.00  0.00    -0.200 F 
ATOM     61  F   UNL A   1      38.997  36.267  40.021  1.00  0.00    -0.200 F 
ENDBRANCH  27  51
BRANCH  39  62
ATOM     62  C   UNL A   1      43.953  28.610  35.034  1.00  0.00     0.064 A 
ATOM     63  C   UNL A   1      45.261  29.106  34.946  1.00  0.00     0.173 A 
ATOM     64  C   UNL A   1      43.721  27.505  35.867  1.00  0.00     0.173 A 
ATOM     65  F   UNL A   1      45.535  30.150  34.149  1.00  0.00    -0.203 F 
ATOM     66  C   UNL A   1      46.300  28.508  35.654  1.00  0.00     0.198 A 
ATOM     67  C   UNL A   1      44.757  26.925  36.592  1.00  0.00     0.198 A 
ATOM     68  F   UNL A   1      42.484  26.998  35.987  1.00  0.00    -0.203 F 
ATOM     69  F   UNL A   1      47.550  28.975  35.528  1.00  0.00    -0.200 F 
ATOM     70  C   UNL A   1      46.046  27.423  36.481  1.00  0.00     0.200 A 
ATOM     71  F   UNL A   1      44.508  25.885  37.398  1.00  0.00    -0.200 F 
ATOM     72  F   UNL A   1      47.046  26.856  37.169  1.00  0.00    -0.200 F 
ENDBRANCH  39  62
ENDBRANCH  13  14
ENDBRANCH   6   8
ENDBRANCH   3   4
ENDBRANCH   2   3
ENDBRANCH   1   2
BRANCH   1  73
ATOM     73  C   UNL A   1      32.960  30.124  26.263  1.00  0.00     0.116 C 
BRANCH  73  74
ATOM     74  N   UNL A   1      33.572  29.715  25.013  1.00  0.00    -0.354 N 
ATOM     75  C   UNL A   1      33.473  28.545  24.318  1.00  0.00     0.249 C 
ATOM     76  H   UNL A   1      34.154  30.393  24.598  1.00  0.00     0.163 HD
ATOM     77  O   UNL A   1      34.054  28.489  23.230  1.00  0.00    -0.272 OA
BRANCH  75  78
ATOM     78  C   UNL A   1      32.726  27.319  24.899  1.00  0.00     0.207 C 
ATOM     79  C   UNL A   1      32.739  26.151  23.908  1.00  0.00     0.045 C 
ATOM     80  O   UNL A   1      31.358  27.525  25.257  1.00  0.00    -0.363 OA
ATOM     81  C   UNL A   1      31.355  25.555  24.028  1.00  0.00     0.037 C 
ATOM     82  C   UNL A   1      30.508  26.755  24.401  1.00  0.00     0.138 C 
BRANCH  82  83
ATOM     83  C   UNL A   1      30.082  27.623  23.202  1.00  0.00     0.147 C 
BRANCH  83  84
ATOM     84  N   UNL A   1      28.667  27.944  23.241  1.00  0.00    -0.353 N 
ATOM     85  C   UNL A   1      27.917  29.025  22.947  1.00  0.00     0.223 C 
ATOM     86  H   UNL A   1      28.122  27.188  23.560  1.00  0.00     0.163 HD
ATOM     87  O   UNL A   1      26.709  28.891  23.195  1.00  0.00    -0.275 OA
BRANCH  85  88
ATOM     88  C   UNL A   1      28.410  30.367  22.390  1.00  0.00     0.083 C 
ATOM     89  C   UNL A   1      28.233  31.416  23.510  1.00  0.00     0.042 C 
ATOM     90  C   UNL A   1      27.837  30.919  21.089  1.00  0.00     0.042 C 
ATOM     91  C   UNL A   1      28.694  32.800  23.082  1.00  0.00     0.161 C 
ATOM     92  C   UNL A   1      28.355  32.325  20.801  1.00  0.00     0.161 C 
ATOM     93  O   UNL A   1      28.038  33.196  21.880  1.00  0.00    -0.381 OA
ENDBRANCH  85  88
ENDBRANCH  83  84
ENDBRANCH  82  83
ENDBRANCH  75  78
ENDBRANCH  73  74
ENDBRANCH   1  73
TORSDOF 14
ENDMDL
MODEL 3
REMARK VINA RESULT:     -12.7      0.430      7.532
REMARK SMILES O=C(NCCCCNC(=O)[C@@H]1CC[C@H](CNC(=O)C2CCOCC2)O1)c1ccc(-c2c3nc(c(-c4c(F)c(F)c(F)c(F)c4F)c4ccc([nH]4)c(-c4c(F)c(F)c(F)c(F)c4F)c4nc(c(-c5c(F)c(F)c(F)c(F)c5F)c5ccc2[nH]5)C=C4)C=C3)cc1
REMARK SMILES IDX 6 1 5 2 4 3 3 4 1 5 2 6 26 8 27 9 88 10 28 11 87 12 29 13
REMARK SMILES IDX 30 14 31 15 81 16 32 17 86 18 80 19 82 20 33 21 85 22 79 23
REMARK SMILES IDX 78 24 34 26 66 27 46 28 65 29 47 30 50 31 64 32 83 33 48 34
REMARK SMILES IDX 49 35 63 37 84 38 51 39 35 40 36 41 44 42 37 43 38 44 42 45
REMARK SMILES IDX 45 46 39 47 40 48 43 49 41 50 67 51 68 52 76 53 69 54 70 55
REMARK SMILES IDX 74 56 77 57 71 58 72 59 75 60 73 61 52 62 53 63 61 64 54 65
REMARK SMILES IDX 55 66 59 67 62 68 56 69 57 70 60 71 58 72 7 73 8 74 9 75
REMARK SMILES IDX 10 77 11 78 12 79 25 80 13 81 14 82 15 83 16 84 17 85 18 87
REMARK SMILES IDX 19 88 20 89 24 90 21 91 23 92 22 93
REMARK H PARENT 3 7 82 25 50 36 8 76 16 86
REMARK Flexibility Score: inf
ROOT
ATOM      1  C   UNL A   1      31.402  30.780  25.759  1.00  0.00     0.023 C 
ENDROOT
BRANCH   1   2
ATOM      2  C   UNL A   1      31.234  32.088  26.528  1.00  0.00     0.023 C 
BRANCH   2   3
ATOM      3  C   UNL A   1      32.510  32.669  27.124  1.00  0.00     0.116 C 
BRANCH   3   4
ATOM      4  N   UNL A   1      32.371  34.062  27.521  1.00  0.00    -0.352 N 
ATOM      5  O   UNL A   1      32.697  35.920  28.751  1.00  0.00    -0.269 OA
ATOM      6  C   UNL A   1      33.057  34.781  28.468  1.00  0.00     0.251 C 
ATOM      7  H   UNL A   1      31.677  34.565  27.037  1.00  0.00     0.163 HD
BRANCH   6   8
ATOM      8  C   UNL A   1      34.203  34.174  29.176  1.00  0.00     0.039 A 
ATOM      9  C   UNL A   1      35.519  34.434  28.782  1.00  0.00     0.014 A 
ATOM     10  C   UNL A   1      33.949  33.326  30.259  1.00  0.00     0.014 A 
ATOM     11  C   UNL A   1      36.569  33.738  29.375  1.00  0.00     0.010 A 
ATOM     12  C   UNL A   1      35.009  32.684  30.899  1.00  0.00     0.010 A 
ATOM     13  C   UNL A   1      36.324  32.856  30.439  1.00  0.00    -0.014 A 
BRANCH  13  14
ATOM     14  C   UNL A   1      37.447  32.133  31.084  1.00  0.00     0.031 A 
ATOM     15  C   UNL A   1      37.902  32.501  32.466  1.00  0.00     0.074 A 
ATOM     16  C   UNL A   1      38.067  31.149  30.407  1.00  0.00     0.049 A 
ATOM     17  N   UNL A   1      38.909  32.031  33.159  1.00  0.00    -0.248 NA
ATOM     18  C   UNL A   1      37.129  33.542  33.161  1.00  0.00     0.031 C 
ATOM     19  C   UNL A   1      37.713  30.702  29.060  1.00  0.00     0.029 A 
ATOM     20  N   UNL A   1      39.127  30.352  30.758  1.00  0.00    -0.354 N 
ATOM     21  C   UNL A   1      38.908  32.734  34.356  1.00  0.00     0.074 A 
ATOM     22  C   UNL A   1      37.811  33.676  34.291  1.00  0.00     0.031 C 
ATOM     23  C   UNL A   1      38.532  29.704  28.700  1.00  0.00     0.029 A 
ATOM     24  C   UNL A   1      39.501  29.478  29.768  1.00  0.00     0.049 A 
ATOM     25  H   UNL A   1      39.575  30.403  31.632  1.00  0.00     0.167 HD
ATOM     26  C   UNL A   1      39.744  32.600  35.414  1.00  0.00     0.037 A 
ATOM     27  C   UNL A   1      40.528  28.610  29.713  1.00  0.00     0.037 A 
ATOM     28  C   UNL A   1      40.823  31.648  35.479  1.00  0.00     0.049 A 
ATOM     29  C   UNL A   1      41.456  28.496  30.889  1.00  0.00     0.074 A 
ATOM     30  C   UNL A   1      41.702  31.409  36.522  1.00  0.00     0.029 A 
ATOM     31  N   UNL A   1      41.173  30.780  34.455  1.00  0.00    -0.354 N 
ATOM     32  N   UNL A   1      41.432  29.147  32.025  1.00  0.00    -0.248 NA
ATOM     33  C   UNL A   1      42.556  27.529  30.772  1.00  0.00     0.031 C 
ATOM     34  C   UNL A   1      42.610  30.425  36.112  1.00  0.00     0.029 A 
ATOM     35  C   UNL A   1      42.267  30.018  34.832  1.00  0.00     0.049 A 
ATOM     36  H   UNL A   1      40.712  30.715  33.588  1.00  0.00     0.167 HD
ATOM     37  C   UNL A   1      42.494  28.657  32.770  1.00  0.00     0.074 A 
ATOM     38  C   UNL A   1      43.141  27.646  31.957  1.00  0.00     0.031 C 
ATOM     39  C   UNL A   1      42.895  29.011  34.015  1.00  0.00     0.037 A 
BRANCH  26  40
ATOM     40  C   UNL A   1      39.543  33.524  36.580  1.00  0.00     0.064 A 
ATOM     41  C   UNL A   1      38.752  33.162  37.681  1.00  0.00     0.173 A 
ATOM     42  C   UNL A   1      40.173  34.777  36.609  1.00  0.00     0.173 A 
ATOM     43  F   UNL A   1      38.118  31.980  37.698  1.00  0.00    -0.203 F 
ATOM     44  C   UNL A   1      38.578  34.032  38.755  1.00  0.00     0.198 A 
ATOM     45  C   UNL A   1      40.019  35.634  37.697  1.00  0.00     0.198 A 
ATOM     46  F   UNL A   1      40.946  35.169  35.585  1.00  0.00    -0.203 F 
ATOM     47  F   UNL A   1      37.780  33.686  39.774  1.00  0.00    -0.200 F 
ATOM     48  C   UNL A   1      39.215  35.265  38.764  1.00  0.00     0.200 A 
ATOM     49  F   UNL A   1      40.645  36.819  37.708  1.00  0.00    -0.200 F 
ATOM     50  F   UNL A   1      39.047  36.100  39.798  1.00  0.00    -0.200 F 
ENDBRANCH  26  40
BRANCH  27  51
ATOM     51  C   UNL A   1      40.720  27.790  28.492  1.00  0.00     0.064 A 
ATOM     52  C   UNL A   1      40.077  26.555  28.347  1.00  0.00     0.173 A 
ATOM     53  C   UNL A   1      41.507  28.250  27.426  1.00  0.00     0.173 A 
ATOM     54  F   UNL A   1      39.328  26.067  29.347  1.00  0.00    -0.203 F 
ATOM     55  C   UNL A   1      40.218  25.806  27.181  1.00  0.00     0.198 A 
ATOM     56  C   UNL A   1      41.626  27.513  26.251  1.00  0.00     0.198 A 
ATOM     57  F   UNL A   1      42.136  29.431  27.518  1.00  0.00    -0.203 F 
ATOM     58  F   UNL A   1      39.612  24.615  27.074  1.00  0.00    -0.200 F 
ATOM     59  C   UNL A   1      40.984  26.290  26.130  1.00  0.00     0.200 A 
ATOM     60  F   UNL A   1      42.354  27.992  25.233  1.00  0.00    -0.200 F 
ATOM     61  F   UNL A   1      41.105  25.578  25.002  1.00  0.00    -0.200 F 
ENDBRANCH  27  51
BRANCH  39  62
ATOM     62  C   UNL A   1      44.067  28.276  34.593  1.00  0.00     0.064 A 
ATOM     63  C   UNL A   1      45.376  28.759  34.460  1.00  0.00     0.173 A 
ATOM     64  C   UNL A   1      43.869  27.100  35.333  1.00  0.00     0.173 A 
ATOM     65  F   UNL A   1      45.616  29.870  33.747  1.00  0.00    -0.203 F 
ATOM     66  C   UNL A   1      46.448  28.082  35.034  1.00  0.00     0.198 A 
ATOM     67  C   UNL A   1      44.940  26.439  35.925  1.00  0.00     0.198 A 
ATOM     68  F   UNL A   1      42.633  26.602  35.491  1.00  0.00    -0.203 F 
ATOM     69  F   UNL A   1      47.696  28.540  34.865  1.00  0.00    -0.200 F 
ATOM     70  C   UNL A   1      46.229  26.927  35.772  1.00  0.00     0.200 A 
ATOM     71  F   UNL A   1      44.725  25.331  36.647  1.00  0.00    -0.200 F 
ATOM     72  F   UNL A   1      47.261  26.283  36.332  1.00  0.00    -0.200 F 
ENDBRANCH  39  62
ENDBRANCH  13  14
ENDBRANCH   6   8
ENDBRANCH   3   4
ENDBRANCH   2   3
ENDBRANCH   1   2
BRANCH   1  73
ATOM     73  C   UNL A   1      32.742  30.078  25.942  1.00  0.00     0.116 C 
BRANCH  73  74
ATOM     74  N   UNL A   1      33.357  29.702  24.684  1.00  0.00    -0.354 N 
ATOM     75  C   UNL A   1      33.302  28.531  23.986  1.00  0.00     0.249 C 
ATOM     76  H   UNL A   1      33.904  30.406  24.265  1.00  0.00     0.163 HD
ATOM     77  O   UNL A   1      33.873  28.505  22.891  1.00  0.00    -0.272 OA
BRANCH  75  78
ATOM     78  C   UNL A   1      32.619  27.270  24.570  1.00  0.00     0.207 C 
ATOM     79  C   UNL A   1      32.643  26.118  23.562  1.00  0.00     0.045 C 
ATOM     80  O   UNL A   1      31.255  27.421  24.972  1.00  0.00    -0.363 OA
ATOM     81  C   UNL A   1      31.285  25.470  23.714  1.00  0.00     0.037 C 
ATOM     82  C   UNL A   1      30.408  26.633  24.130  1.00  0.00     0.138 C 
BRANCH  82  83
ATOM     83  C   UNL A   1      29.915  27.502  22.958  1.00  0.00     0.147 C 
BRANCH  83  84
ATOM     84  N   UNL A   1      28.530  27.902  23.126  1.00  0.00    -0.353 N 
ATOM     85  C   UNL A   1      27.827  29.038  22.939  1.00  0.00     0.223 C 
ATOM     86  H   UNL A   1      27.965  27.165  23.456  1.00  0.00     0.163 HD
ATOM     87  O   UNL A   1      26.637  28.964  23.279  1.00  0.00    -0.275 OA
BRANCH  85  88
ATOM     88  C   UNL A   1      28.357  30.374  22.401  1.00  0.00     0.083 C 
ATOM     89  C   UNL A   1      28.124  31.432  23.502  1.00  0.00     0.042 C 
ATOM     90  C   UNL A   1      27.859  30.919  21.067  1.00  0.00     0.042 C 
ATOM     91  C   UNL A   1      28.614  32.810  23.091  1.00  0.00     0.161 C 
ATOM     92  C   UNL A   1      28.401  32.320  20.798  1.00  0.00     0.161 C 
ATOM     93  O   UNL A   1      28.028  33.201  21.852  1.00  0.00    -0.381 OA
ENDBRANCH  85  88
ENDBRANCH  83  84
ENDBRANCH  82  83
ENDBRANCH  75  78
ENDBRANCH  73  74
ENDBRANCH   1  73
TORSDOF 14
ENDMDL
