MODEL 1
REMARK VINA RESULT:     -12.9      0.000      0.000
REMARK SMILES Cc1csc(NC(=O)[C@@H]2CC=CC[C@H]2C(=O)NCCCCNC(=O)c2ccc(-c3c4nc(c(-c5c(F)c(F)c(F)c(F)c5F)c5ccc([nH]5)c(-c5c(F)c(F)c(F)c(F)c5F)c5nc(c(-c6c(F)c(F)c(F)c(F)c6F)c6ccc3[nH]6)C=C5)C=C4)cc2)n1
REMARK SMILES IDX 19 1 18 2 17 3 15 4 16 5 14 7 9 8 10 9 11 10 13 11 12 12
REMARK SMILES IDX 7 13 6 14 8 16 5 17 1 18 2 19 3 20 88 21 4 22 20 23 21 24
REMARK SMILES IDX 22 25 23 26 24 28 25 29 26 30 87 31 27 32 86 33 28 34 29 35
REMARK SMILES IDX 30 36 80 37 31 38 85 39 79 40 81 41 32 42 84 43 78 44 77 45
REMARK SMILES IDX 33 47 65 48 45 49 64 50 46 51 49 52 63 53 82 54 47 55 48 56
REMARK SMILES IDX 62 58 83 59 50 60 34 61 35 62 43 63 36 64 37 65 41 66 44 67
REMARK SMILES IDX 38 68 39 69 42 70 40 71 66 72 67 73 75 74 68 75 69 76 73 77
REMARK SMILES IDX 76 78 70 79 71 80 74 81 72 82 51 83 52 84 60 85 53 86 54 87
REMARK SMILES IDX 58 88 61 89 55 90 56 91 59 92 57 93
REMARK H PARENT 17 6 6 15 22 27 81 46 49 57
REMARK Flexibility Score: inf
ROOT
ATOM      1  C   UNL A   1      31.642  30.893  26.068  1.00  0.00     0.023 C 
ENDROOT
BRANCH   1   2
ATOM      2  C   UNL A   1      32.426  29.833  26.838  1.00  0.00     0.116 C 
BRANCH   2   3
ATOM      3  N   UNL A   1      31.623  28.646  27.058  1.00  0.00    -0.356 N 
ATOM      4  C   UNL A   1      31.327  27.608  26.227  1.00  0.00     0.224 C 
ATOM      5  O   UNL A   1      30.707  26.656  26.707  1.00  0.00    -0.275 OA
ATOM      6  H   UNL A   1      31.226  28.580  27.956  1.00  0.00     0.163 HD
BRANCH   4   7
ATOM      7  C   UNL A   1      31.866  27.552  24.799  1.00  0.00     0.095 C 
ATOM      8  C   UNL A   1      31.205  28.568  23.810  1.00  0.00     0.095 C 
ATOM      9  C   UNL A   1      32.103  28.798  22.597  1.00  0.00     0.041 C 
ATOM     10  C   UNL A   1      33.577  28.847  22.822  1.00  0.00    -0.030 C 
ATOM     11  C   UNL A   1      33.409  27.563  24.930  1.00  0.00     0.041 C 
ATOM     12  C   UNL A   1      34.168  28.288  23.876  1.00  0.00    -0.030 C 
BRANCH   8  13
ATOM     13  C   UNL A   1      29.727  28.146  23.570  1.00  0.00     0.230 C 
ATOM     14  N   UNL A   1      28.664  28.901  23.209  1.00  0.00    -0.302 N 
ATOM     15  H   UNL A   1      27.813  28.408  23.184  1.00  0.00     0.172 HD
ATOM     16  O   UNL A   1      29.415  26.965  23.805  1.00  0.00    -0.274 OA
BRANCH  14  17
ATOM     17  C   UNL A   1      28.552  30.212  22.875  1.00  0.00     0.189 A 
ATOM     18  C   UNL A   1      29.347  33.638  23.430  1.00  0.00     0.068 C 
ATOM     19  C   UNL A   1      28.836  32.396  22.799  1.00  0.00     0.051 A 
ATOM     20  C   UNL A   1      28.446  32.183  21.492  1.00  0.00     0.092 A 
ATOM     21  N   UNL A   1      28.791  31.269  23.588  1.00  0.00    -0.225 NA
ATOM     22  S   UNL A   1      28.088  30.514  21.258  1.00  0.00    -0.105 S 
ENDBRANCH  14  17
ENDBRANCH   8  13
ENDBRANCH   4   7
ENDBRANCH   2   3
ENDBRANCH   1   2
BRANCH   1  23
ATOM     23  C   UNL A   1      31.390  32.176  26.860  1.00  0.00     0.023 C 
BRANCH  23  24
ATOM     24  C   UNL A   1      32.650  32.901  27.322  1.00  0.00     0.116 C 
BRANCH  24  25
ATOM     25  N   UNL A   1      32.409  34.290  27.671  1.00  0.00    -0.352 N 
ATOM     26  C   UNL A   1      33.037  35.060  28.629  1.00  0.00     0.251 C 
ATOM     27  H   UNL A   1      31.703  34.743  27.156  1.00  0.00     0.163 HD
ATOM     28  O   UNL A   1      32.635  36.179  28.893  1.00  0.00    -0.269 OA
BRANCH  26  29
ATOM     29  C   UNL A   1      34.186  34.486  29.360  1.00  0.00     0.039 A 
ATOM     30  C   UNL A   1      33.942  33.738  30.513  1.00  0.00     0.014 A 
ATOM     31  C   UNL A   1      35.489  34.650  28.882  1.00  0.00     0.014 A 
ATOM     32  C   UNL A   1      35.003  33.092  31.150  1.00  0.00     0.010 A 
ATOM     33  C   UNL A   1      36.531  33.946  29.473  1.00  0.00     0.010 A 
ATOM     34  C   UNL A   1      36.298  33.158  30.610  1.00  0.00    -0.014 A 
BRANCH  34  35
ATOM     35  C   UNL A   1      37.421  32.400  31.216  1.00  0.00     0.031 A 
ATOM     36  C   UNL A   1      37.926  32.764  32.583  1.00  0.00     0.074 A 
ATOM     37  C   UNL A   1      38.029  31.430  30.504  1.00  0.00     0.049 A 
ATOM     38  N   UNL A   1      38.939  32.271  33.251  1.00  0.00    -0.248 NA
ATOM     39  C   UNL A   1      37.215  33.845  33.284  1.00  0.00     0.031 C 
ATOM     40  C   UNL A   1      37.665  31.022  29.147  1.00  0.00     0.029 A 
ATOM     41  N   UNL A   1      39.093  30.621  30.819  1.00  0.00    -0.354 N 
ATOM     42  C   UNL A   1      38.995  32.990  34.436  1.00  0.00     0.074 A 
ATOM     43  C   UNL A   1      37.949  33.987  34.379  1.00  0.00     0.031 C 
ATOM     44  C   UNL A   1      38.476  30.027  28.753  1.00  0.00     0.029 A 
ATOM     45  C   UNL A   1      39.441  29.753  29.813  1.00  0.00     0.049 A 
ATOM     46  H   UNL A   1      39.561  30.660  31.685  1.00  0.00     0.167 HD
ATOM     47  C   UNL A   1      39.829  32.817  35.489  1.00  0.00     0.037 A 
ATOM     48  C   UNL A   1      40.433  28.844  29.752  1.00  0.00     0.037 A 
ATOM     49  C   UNL A   1      40.850  31.805  35.554  1.00  0.00     0.049 A 
ATOM     50  C   UNL A   1      41.346  28.674  30.937  1.00  0.00     0.074 A 
ATOM     51  C   UNL A   1      41.704  31.507  36.602  1.00  0.00     0.029 A 
ATOM     52  N   UNL A   1      41.158  30.926  34.526  1.00  0.00    -0.354 N 
ATOM     53  N   UNL A   1      41.341  29.308  32.084  1.00  0.00    -0.248 NA
ATOM     54  C   UNL A   1      42.398  27.655  30.820  1.00  0.00     0.031 C 
ATOM     55  C   UNL A   1      42.558  30.480  36.192  1.00  0.00     0.029 A 
ATOM     56  C   UNL A   1      42.202  30.100  34.907  1.00  0.00     0.049 A 
ATOM     57  H   UNL A   1      40.701  30.895  33.654  1.00  0.00     0.167 HD
ATOM     58  C   UNL A   1      42.364  28.747  32.836  1.00  0.00     0.074 A 
ATOM     59  C   UNL A   1      42.960  27.710  32.020  1.00  0.00     0.031 C 
ATOM     60  C   UNL A   1      42.774  29.063  34.088  1.00  0.00     0.037 A 
BRANCH  47  61
ATOM     61  C   UNL A   1      39.667  33.737  36.664  1.00  0.00     0.064 A 
ATOM     62  C   UNL A   1      40.280  34.998  36.700  1.00  0.00     0.173 A 
ATOM     63  C   UNL A   1      38.851  33.374  37.746  1.00  0.00     0.173 A 
ATOM     64  F   UNL A   1      41.080  35.389  35.696  1.00  0.00    -0.203 F 
ATOM     65  C   UNL A   1      40.101  35.852  37.784  1.00  0.00     0.198 A 
ATOM     66  C   UNL A   1      38.650  34.242  38.816  1.00  0.00     0.198 A 
ATOM     67  F   UNL A   1      38.238  32.180  37.760  1.00  0.00    -0.203 F 
ATOM     68  F   UNL A   1      40.732  37.034  37.816  1.00  0.00    -0.200 F 
ATOM     69  C   UNL A   1      39.280  35.476  38.837  1.00  0.00     0.200 A 
ATOM     70  F   UNL A   1      37.846  33.884  39.826  1.00  0.00    -0.200 F 
ATOM     71  F   UNL A   1      39.100  36.305  39.876  1.00  0.00    -0.200 F 
ENDBRANCH  47  61
BRANCH  48  72
ATOM     72  C   UNL A   1      40.606  28.009  28.535  1.00  0.00     0.064 A 
ATOM     73  C   UNL A   1      41.385  28.458  27.459  1.00  0.00     0.173 A 
ATOM     74  C   UNL A   1      39.986  26.757  28.412  1.00  0.00     0.173 A 
ATOM     75  F   UNL A   1      41.981  29.658  27.519  1.00  0.00    -0.203 F 
ATOM     76  C   UNL A   1      41.516  27.699  26.297  1.00  0.00     0.198 A 
ATOM     77  C   UNL A   1      40.141  25.985  27.263  1.00  0.00     0.198 A 
ATOM     78  F   UNL A   1      39.234  26.279  29.415  1.00  0.00    -0.203 F 
ATOM     79  F   UNL A   1      42.222  28.176  25.264  1.00  0.00    -0.200 F 
ATOM     80  C   UNL A   1      40.897  26.461  26.202  1.00  0.00     0.200 A 
ATOM     81  F   UNL A   1      39.554  24.784  27.181  1.00  0.00    -0.200 F 
ATOM     82  F   UNL A   1      41.023  25.732  25.085  1.00  0.00    -0.200 F 
ENDBRANCH  48  72
BRANCH  60  83
ATOM     83  C   UNL A   1      43.892  28.250  34.672  1.00  0.00     0.064 A 
ATOM     84  C   UNL A   1      45.232  28.651  34.562  1.00  0.00     0.173 A 
ATOM     85  C   UNL A   1      43.615  27.076  35.388  1.00  0.00     0.173 A 
ATOM     86  F   UNL A   1      45.550  29.759  33.874  1.00  0.00    -0.203 F 
ATOM     87  C   UNL A   1      46.254  27.892  35.124  1.00  0.00     0.198 A 
ATOM     88  C   UNL A   1      44.637  26.337  35.976  1.00  0.00     0.198 A 
ATOM     89  F   UNL A   1      42.350  26.652  35.530  1.00  0.00    -0.203 F 
ATOM     90  F   UNL A   1      47.531  28.269  34.965  1.00  0.00    -0.200 F 
ATOM     91  C   UNL A   1      45.956  26.741  35.838  1.00  0.00     0.200 A 
ATOM     92  F   UNL A   1      44.346  25.231  36.677  1.00  0.00    -0.200 F 
ATOM     93  F   UNL A   1      46.942  26.017  36.386  1.00  0.00    -0.200 F 
ENDBRANCH  60  83
ENDBRANCH  34  35
ENDBRANCH  26  29
ENDBRANCH  24  25
ENDBRANCH  23  24
ENDBRANCH   1  23
TORSDOF 13
ENDMDL
MODEL 2
REMARK VINA RESULT:     -12.9      0.472      7.365
REMARK SMILES Cc1csc(NC(=O)[C@@H]2CC=CC[C@H]2C(=O)NCCCCNC(=O)c2ccc(-c3c4nc(c(-c5c(F)c(F)c(F)c(F)c5F)c5ccc([nH]5)c(-c5c(F)c(F)c(F)c(F)c5F)c5nc(c(-c6c(F)c(F)c(F)c(F)c6F)c6ccc3[nH]6)C=C5)C=C4)cc2)n1
REMARK SMILES IDX 19 1 18 2 17 3 15 4 16 5 14 7 9 8 10 9 11 10 13 11 12 12
REMARK SMILES IDX 7 13 6 14 8 16 5 17 1 18 2 19 3 20 88 21 4 22 20 23 21 24
REMARK SMILES IDX 22 25 23 26 24 28 25 29 26 30 87 31 27 32 86 33 28 34 29 35
REMARK SMILES IDX 30 36 80 37 31 38 85 39 79 40 81 41 32 42 84 43 78 44 77 45
REMARK SMILES IDX 33 47 65 48 45 49 64 50 46 51 49 52 63 53 82 54 47 55 48 56
REMARK SMILES IDX 62 58 83 59 50 60 34 61 35 62 43 63 36 64 37 65 41 66 44 67
REMARK SMILES IDX 38 68 39 69 42 70 40 71 66 72 67 73 75 74 68 75 69 76 73 77
REMARK SMILES IDX 76 78 70 79 71 80 74 81 72 82 51 83 52 84 60 85 53 86 54 87
REMARK SMILES IDX 58 88 61 89 55 90 56 91 59 92 57 93
REMARK H PARENT 17 6 6 15 22 27 81 46 49 57
REMARK Flexibility Score: inf
ROOT
ATOM      1  C   UNL A   1      31.780  30.794  26.087  1.00  0.00     0.023 C 
ENDROOT
BRANCH   1   2
ATOM      2  C   UNL A   1      32.492  29.700  26.879  1.00  0.00     0.116 C 
BRANCH   2   3
ATOM      3  N   UNL A   1      31.635  28.544  27.060  1.00  0.00    -0.356 N 
ATOM      4  C   UNL A   1      31.299  27.545  26.196  1.00  0.00     0.224 C 
ATOM      5  O   UNL A   1      30.634  26.607  26.643  1.00  0.00    -0.275 OA
ATOM      6  H   UNL A   1      31.230  28.469  27.953  1.00  0.00     0.163 HD
BRANCH   4   7
ATOM      7  C   UNL A   1      31.845  27.509  24.769  1.00  0.00     0.095 C 
ATOM      8  C   UNL A   1      31.191  28.539  23.792  1.00  0.00     0.095 C 
ATOM      9  C   UNL A   1      32.096  28.785  22.587  1.00  0.00     0.041 C 
ATOM     10  C   UNL A   1      33.568  28.828  22.820  1.00  0.00    -0.030 C 
ATOM     11  C   UNL A   1      33.387  27.515  24.908  1.00  0.00     0.041 C 
ATOM     12  C   UNL A   1      34.153  28.252  23.868  1.00  0.00    -0.030 C 
BRANCH   8  13
ATOM     13  C   UNL A   1      29.714  28.124  23.539  1.00  0.00     0.230 C 
ATOM     14  N   UNL A   1      28.655  28.885  23.176  1.00  0.00    -0.302 N 
ATOM     15  H   UNL A   1      27.803  28.395  23.141  1.00  0.00     0.172 HD
ATOM     16  O   UNL A   1      29.397  26.943  23.763  1.00  0.00    -0.274 OA
BRANCH  14  17
ATOM     17  C   UNL A   1      28.549  30.199  22.851  1.00  0.00     0.189 A 
ATOM     18  C   UNL A   1      29.377  33.615  23.417  1.00  0.00     0.068 C 
ATOM     19  C   UNL A   1      28.850  32.381  22.785  1.00  0.00     0.051 A 
ATOM     20  C   UNL A   1      28.443  32.179  21.481  1.00  0.00     0.092 A 
ATOM     21  N   UNL A   1      28.805  31.250  23.567  1.00  0.00    -0.225 NA
ATOM     22  S   UNL A   1      28.070  30.514  21.241  1.00  0.00    -0.105 S 
ENDBRANCH  14  17
ENDBRANCH   8  13
ENDBRANCH   4   7
ENDBRANCH   2   3
ENDBRANCH   1   2
BRANCH   1  23
ATOM     23  C   UNL A   1      31.446  32.039  26.909  1.00  0.00     0.023 C 
BRANCH  23  24
ATOM     24  C   UNL A   1      32.655  32.824  27.403  1.00  0.00     0.116 C 
BRANCH  24  25
ATOM     25  N   UNL A   1      32.356  34.221  27.668  1.00  0.00    -0.352 N 
ATOM     26  C   UNL A   1      32.953  35.074  28.573  1.00  0.00     0.251 C 
ATOM     27  H   UNL A   1      31.630  34.610  27.130  1.00  0.00     0.163 HD
ATOM     28  O   UNL A   1      32.504  36.189  28.769  1.00  0.00    -0.269 OA
BRANCH  26  29
ATOM     29  C   UNL A   1      34.128  34.596  29.331  1.00  0.00     0.039 A 
ATOM     30  C   UNL A   1      33.931  34.055  30.602  1.00  0.00     0.014 A 
ATOM     31  C   UNL A   1      35.406  34.644  28.769  1.00  0.00     0.014 A 
ATOM     32  C   UNL A   1      35.011  33.493  31.284  1.00  0.00     0.010 A 
ATOM     33  C   UNL A   1      36.465  34.018  29.417  1.00  0.00     0.010 A 
ATOM     34  C   UNL A   1      36.278  33.434  30.679  1.00  0.00    -0.014 A 
BRANCH  34  35
ATOM     35  C   UNL A   1      37.416  32.754  31.346  1.00  0.00     0.031 A 
ATOM     36  C   UNL A   1      38.095  31.592  30.679  1.00  0.00     0.074 A 
ATOM     37  C   UNL A   1      37.791  33.141  32.581  1.00  0.00     0.049 A 
ATOM     38  N   UNL A   1      39.055  30.824  31.129  1.00  0.00    -0.248 NA
ATOM     39  C   UNL A   1      37.613  31.225  29.338  1.00  0.00     0.031 C 
ATOM     40  C   UNL A   1      37.175  34.221  33.353  1.00  0.00     0.029 A 
ATOM     41  N   UNL A   1      38.773  32.660  33.411  1.00  0.00    -0.354 N 
ATOM     42  C   UNL A   1      39.279  29.879  30.137  1.00  0.00     0.074 A 
ATOM     43  C   UNL A   1      38.322  30.134  29.083  1.00  0.00     0.031 C 
ATOM     44  C   UNL A   1      37.804  34.334  34.533  1.00  0.00     0.029 A 
ATOM     45  C   UNL A   1      38.842  33.312  34.618  1.00  0.00     0.049 A 
ATOM     46  H   UNL A   1      39.371  31.918  33.163  1.00  0.00     0.167 HD
ATOM     47  C   UNL A   1      40.215  28.902  30.100  1.00  0.00     0.037 A 
ATOM     48  C   UNL A   1      39.648  33.102  35.676  1.00  0.00     0.037 A 
ATOM     49  C   UNL A   1      41.183  28.668  31.138  1.00  0.00     0.049 A 
ATOM     50  C   UNL A   1      40.679  32.007  35.606  1.00  0.00     0.074 A 
ATOM     51  C   UNL A   1      42.214  27.744  31.166  1.00  0.00     0.029 A 
ATOM     52  N   UNL A   1      41.240  29.365  32.336  1.00  0.00    -0.354 N 
ATOM     53  N   UNL A   1      40.931  31.168  34.632  1.00  0.00    -0.248 NA
ATOM     54  C   UNL A   1      41.541  31.835  36.784  1.00  0.00     0.031 C 
ATOM     55  C   UNL A   1      42.864  27.851  32.398  1.00  0.00     0.029 A 
ATOM     56  C   UNL A   1      42.274  28.878  33.119  1.00  0.00     0.049 A 
ATOM     57  H   UNL A   1      40.634  30.098  32.593  1.00  0.00     0.167 HD
ATOM     58  C   UNL A   1      41.999  30.392  35.062  1.00  0.00     0.074 A 
ATOM     59  C   UNL A   1      42.356  30.870  36.382  1.00  0.00     0.031 C 
ATOM     60  C   UNL A   1      42.625  29.375  34.424  1.00  0.00     0.037 A 
BRANCH  47  61
ATOM     61  C   UNL A   1      40.245  28.012  28.890  1.00  0.00     0.064 A 
ATOM     62  C   UNL A   1      40.970  28.359  27.741  1.00  0.00     0.173 A 
ATOM     63  C   UNL A   1      39.583  26.775  28.901  1.00  0.00     0.173 A 
ATOM     64  F   UNL A   1      41.611  29.535  27.676  1.00  0.00    -0.203 F 
ATOM     65  C   UNL A   1      41.011  27.512  26.637  1.00  0.00     0.198 A 
ATOM     66  C   UNL A   1      39.650  25.917  27.806  1.00  0.00     0.198 A 
ATOM     67  F   UNL A   1      38.879  26.392  29.977  1.00  0.00    -0.203 F 
ATOM     68  F   UNL A   1      41.673  27.885  25.533  1.00  0.00    -0.200 F 
ATOM     69  C   UNL A   1      40.358  26.289  26.673  1.00  0.00     0.200 A 
ATOM     70  F   UNL A   1      39.031  24.730  27.847  1.00  0.00    -0.200 F 
ATOM     71  F   UNL A   1      40.408  25.470  25.613  1.00  0.00    -0.200 F 
ENDBRANCH  47  61
BRANCH  48  72
ATOM     72  C   UNL A   1      39.529  33.956  36.886  1.00  0.00     0.064 A 
ATOM     73  C   UNL A   1      38.765  33.542  37.987  1.00  0.00     0.173 A 
ATOM     74  C   UNL A   1      40.158  35.208  36.963  1.00  0.00     0.173 A 
ATOM     75  F   UNL A   1      38.126  32.364  37.953  1.00  0.00    -0.203 F 
ATOM     76  C   UNL A   1      38.614  34.358  39.107  1.00  0.00     0.198 A 
ATOM     77  C   UNL A   1      40.031  36.009  38.096  1.00  0.00     0.198 A 
ATOM     78  F   UNL A   1      40.904  35.648  35.940  1.00  0.00    -0.203 F 
ATOM     79  F   UNL A   1      37.835  33.961  40.122  1.00  0.00    -0.200 F 
ATOM     80  C   UNL A   1      39.251  35.589  39.162  1.00  0.00     0.200 A 
ATOM     81  F   UNL A   1      40.660  37.191  38.151  1.00  0.00    -0.200 F 
ATOM     82  F   UNL A   1      39.104  36.373  40.239  1.00  0.00    -0.200 F 
ENDBRANCH  48  72
BRANCH  60  83
ATOM     83  C   UNL A   1      43.791  28.736  35.122  1.00  0.00     0.064 A 
ATOM     84  C   UNL A   1      45.095  29.236  34.988  1.00  0.00     0.173 A 
ATOM     85  C   UNL A   1      43.592  27.637  35.970  1.00  0.00     0.173 A 
ATOM     86  F   UNL A   1      45.339  30.277  34.177  1.00  0.00    -0.203 F 
ATOM     87  C   UNL A   1      46.160  28.640  35.657  1.00  0.00     0.198 A 
ATOM     88  C   UNL A   1      44.656  27.064  36.662  1.00  0.00     0.198 A 
ATOM     89  F   UNL A   1      42.363  27.125  36.139  1.00  0.00    -0.203 F 
ATOM     90  F   UNL A   1      47.405  29.104  35.476  1.00  0.00    -0.200 F 
ATOM     91  C   UNL A   1      45.940  27.561  36.499  1.00  0.00     0.200 A 
ATOM     92  F   UNL A   1      44.437  26.029  37.486  1.00  0.00    -0.200 F 
ATOM     93  F   UNL A   1      46.966  26.995  37.148  1.00  0.00    -0.200 F 
ENDBRANCH  60  83
ENDBRANCH  34  35
ENDBRANCH  26  29
ENDBRANCH  24  25
ENDBRANCH  23  24
ENDBRANCH   1  23
TORSDOF 13
ENDMDL
MODEL 3
REMARK VINA RESULT:     -12.6      6.807     10.853
REMARK SMILES Cc1csc(NC(=O)[C@@H]2CC=CC[C@H]2C(=O)NCCCCNC(=O)c2ccc(-c3c4nc(c(-c5c(F)c(F)c(F)c(F)c5F)c5ccc([nH]5)c(-c5c(F)c(F)c(F)c(F)c5F)c5nc(c(-c6c(F)c(F)c(F)c(F)c6F)c6ccc3[nH]6)C=C5)C=C4)cc2)n1
REMARK SMILES IDX 19 1 18 2 17 3 15 4 16 5 14 7 9 8 10 9 11 10 13 11 12 12
REMARK SMILES IDX 7 13 6 14 8 16 5 17 1 18 2 19 3 20 88 21 4 22 20 23 21 24
REMARK SMILES IDX 22 25 23 26 24 28 25 29 26 30 87 31 27 32 86 33 28 34 29 35
REMARK SMILES IDX 30 36 80 37 31 38 85 39 79 40 81 41 32 42 84 43 78 44 77 45
REMARK SMILES IDX 33 47 65 48 45 49 64 50 46 51 49 52 63 53 82 54 47 55 48 56
REMARK SMILES IDX 62 58 83 59 50 60 34 61 35 62 43 63 36 64 37 65 41 66 44 67
REMARK SMILES IDX 38 68 39 69 42 70 40 71 66 72 67 73 75 74 68 75 69 76 73 77
REMARK SMILES IDX 76 78 70 79 71 80 74 81 72 82 51 83 52 84 60 85 53 86 54 87
REMARK SMILES IDX 58 88 61 89 55 90 56 91 59 92 57 93
REMARK H PARENT 17 6 6 15 22 27 81 46 49 57
REMARK Flexibility Score: inf
ROOT
ATOM      1  C   UNL A   1      36.918  20.745  25.023  1.00  0.00     0.023 C 
ENDROOT
BRANCH   1   2
ATOM      2  C   UNL A   1      37.043  22.238  24.732  1.00  0.00     0.116 C 
BRANCH   2   3
ATOM      3  N   UNL A   1      36.267  22.610  23.565  1.00  0.00    -0.356 N 
ATOM      4  C   UNL A   1      34.935  22.861  23.428  1.00  0.00     0.224 C 
ATOM      5  O   UNL A   1      34.544  23.275  22.333  1.00  0.00    -0.275 OA
ATOM      6  H   UNL A   1      36.788  22.694  22.734  1.00  0.00     0.163 HD
BRANCH   4   7
ATOM      7  C   UNL A   1      33.982  22.778  24.619  1.00  0.00     0.095 C 
ATOM      8  C   UNL A   1      33.627  21.324  25.074  1.00  0.00     0.095 C 
ATOM      9  C   UNL A   1      33.112  21.321  26.510  1.00  0.00     0.041 C 
ATOM     10  C   UNL A   1      33.750  22.256  27.481  1.00  0.00    -0.030 C 
ATOM     11  C   UNL A   1      34.548  23.754  25.680  1.00  0.00     0.041 C 
ATOM     12  C   UNL A   1      34.398  23.357  27.106  1.00  0.00    -0.030 C 
BRANCH   8  13
ATOM     13  C   UNL A   1      32.760  20.651  23.972  1.00  0.00     0.230 C 
ATOM     14  N   UNL A   1      32.534  19.338  23.736  1.00  0.00    -0.302 N 
ATOM     15  H   UNL A   1      31.994  19.163  22.931  1.00  0.00     0.172 HD
ATOM     16  O   UNL A   1      32.239  21.386  23.114  1.00  0.00    -0.274 OA
BRANCH  14  17
ATOM     17  C   UNL A   1      32.912  18.217  24.401  1.00  0.00     0.189 A 
ATOM     18  C   UNL A   1      32.130  15.092  25.919  1.00  0.00     0.068 C 
ATOM     19  C   UNL A   1      32.896  16.231  25.357  1.00  0.00     0.051 A 
ATOM     20  C   UNL A   1      34.229  16.287  24.998  1.00  0.00     0.092 A 
ATOM     21  N   UNL A   1      32.195  17.385  25.093  1.00  0.00    -0.225 NA
ATOM     22  S   UNL A   1      34.564  17.804  24.251  1.00  0.00    -0.105 S 
ENDBRANCH  14  17
ENDBRANCH   8  13
ENDBRANCH   4   7
ENDBRANCH   2   3
ENDBRANCH   1   2
BRANCH   1  23
ATOM     23  C   UNL A   1      38.201  19.953  24.770  1.00  0.00     0.023 C 
BRANCH  23  24
ATOM     24  C   UNL A   1      39.325  20.221  25.764  1.00  0.00     0.116 C 
BRANCH  24  25
ATOM     25  N   UNL A   1      40.250  19.108  25.890  1.00  0.00    -0.352 N 
ATOM     26  C   UNL A   1      41.604  19.137  26.153  1.00  0.00     0.251 C 
ATOM     27  H   UNL A   1      39.858  18.213  25.770  1.00  0.00     0.163 HD
ATOM     28  O   UNL A   1      42.272  18.120  26.102  1.00  0.00    -0.269 OA
BRANCH  26  29
ATOM     29  C   UNL A   1      42.239  20.435  26.463  1.00  0.00     0.039 A 
ATOM     30  C   UNL A   1      42.727  21.211  25.410  1.00  0.00     0.014 A 
ATOM     31  C   UNL A   1      42.311  20.898  27.779  1.00  0.00     0.014 A 
ATOM     32  C   UNL A   1      43.224  22.489  25.671  1.00  0.00     0.010 A 
ATOM     33  C   UNL A   1      42.737  22.198  28.028  1.00  0.00     0.010 A 
ATOM     34  C   UNL A   1      43.194  23.006  26.977  1.00  0.00    -0.014 A 
BRANCH  34  35
ATOM     35  C   UNL A   1      43.627  24.398  27.261  1.00  0.00     0.031 A 
ATOM     36  C   UNL A   1      42.637  25.404  27.775  1.00  0.00     0.074 A 
ATOM     37  C   UNL A   1      44.893  24.769  26.989  1.00  0.00     0.049 A 
ATOM     38  N   UNL A   1      42.803  26.681  28.014  1.00  0.00    -0.248 NA
ATOM     39  C   UNL A   1      41.272  24.919  28.030  1.00  0.00     0.031 C 
ATOM     40  C   UNL A   1      45.931  23.896  26.438  1.00  0.00     0.029 A 
ATOM     41  N   UNL A   1      45.520  25.982  27.126  1.00  0.00    -0.354 N 
ATOM     42  C   UNL A   1      41.565  27.150  28.429  1.00  0.00     0.074 A 
ATOM     43  C   UNL A   1      40.644  26.038  28.362  1.00  0.00     0.031 C 
ATOM     44  C   UNL A   1      47.069  24.595  26.303  1.00  0.00     0.029 A 
ATOM     45  C   UNL A   1      46.833  25.973  26.721  1.00  0.00     0.049 A 
ATOM     46  H   UNL A   1      45.071  26.783  27.482  1.00  0.00     0.167 HD
ATOM     47  C   UNL A   1      41.233  28.393  28.852  1.00  0.00     0.037 A 
ATOM     48  C   UNL A   1      47.739  26.968  26.684  1.00  0.00     0.037 A 
ATOM     49  C   UNL A   1      42.159  29.491  28.944  1.00  0.00     0.049 A 
ATOM     50  C   UNL A   1      47.342  28.341  27.160  1.00  0.00     0.074 A 
ATOM     51  C   UNL A   1      41.936  30.771  29.420  1.00  0.00     0.029 A 
ATOM     52  N   UNL A   1      43.488  29.438  28.548  1.00  0.00    -0.354 N 
ATOM     53  N   UNL A   1      46.187  28.755  27.622  1.00  0.00    -0.248 NA
ATOM     54  C   UNL A   1      48.378  29.382  27.113  1.00  0.00     0.031 C 
ATOM     55  C   UNL A   1      43.115  31.506  29.270  1.00  0.00     0.029 A 
ATOM     56  C   UNL A   1      44.090  30.669  28.750  1.00  0.00     0.049 A 
ATOM     57  H   UNL A   1      43.936  28.644  28.178  1.00  0.00     0.167 HD
ATOM     58  C   UNL A   1      46.365  30.091  27.951  1.00  0.00     0.074 A 
ATOM     59  C   UNL A   1      47.744  30.416  27.649  1.00  0.00     0.031 C 
ATOM     60  C   UNL A   1      45.468  30.971  28.457  1.00  0.00     0.037 A 
BRANCH  47  61
ATOM     61  C   UNL A   1      39.808  28.634  29.258  1.00  0.00     0.064 A 
ATOM     62  C   UNL A   1      39.369  28.407  30.570  1.00  0.00     0.173 A 
ATOM     63  C   UNL A   1      38.882  29.144  28.335  1.00  0.00     0.173 A 
ATOM     64  F   UNL A   1      40.211  27.909  31.487  1.00  0.00    -0.203 F 
ATOM     65  C   UNL A   1      38.051  28.660  30.939  1.00  0.00     0.198 A 
ATOM     66  C   UNL A   1      37.572  29.424  28.715  1.00  0.00     0.198 A 
ATOM     67  F   UNL A   1      39.251  29.384  27.068  1.00  0.00    -0.203 F 
ATOM     68  F   UNL A   1      37.643  28.393  32.188  1.00  0.00    -0.200 F 
ATOM     69  C   UNL A   1      37.156  29.175  30.013  1.00  0.00     0.200 A 
ATOM     70  F   UNL A   1      36.712  29.935  27.824  1.00  0.00    -0.200 F 
ATOM     71  F   UNL A   1      35.889  29.428  30.374  1.00  0.00    -0.200 F 
ENDBRANCH  47  61
BRANCH  48  72
ATOM     72  C   UNL A   1      49.119  26.703  26.199  1.00  0.00     0.064 A 
ATOM     73  C   UNL A   1      49.466  26.932  24.860  1.00  0.00     0.173 A 
ATOM     74  C   UNL A   1      50.112  26.202  27.053  1.00  0.00     0.173 A 
ATOM     75  F   UNL A   1      48.546  27.390  23.998  1.00  0.00    -0.203 F 
ATOM     76  C   UNL A   1      50.746  26.644  24.388  1.00  0.00     0.198 A 
ATOM     77  C   UNL A   1      51.399  25.944  26.588  1.00  0.00     0.198 A 
ATOM     78  F   UNL A   1      49.833  25.971  28.344  1.00  0.00    -0.203 F 
ATOM     79  F   UNL A   1      51.035  26.822  23.092  1.00  0.00    -0.200 F 
ATOM     80  C   UNL A   1      51.712  26.155  25.254  1.00  0.00     0.200 A 
ATOM     81  F   UNL A   1      52.334  25.485  27.431  1.00  0.00    -0.200 F 
ATOM     82  F   UNL A   1      52.942  25.878  24.799  1.00  0.00    -0.200 F 
ENDBRANCH  48  72
BRANCH  60  83
ATOM     83  C   UNL A   1      45.957  32.358  28.757  1.00  0.00     0.064 A 
ATOM     84  C   UNL A   1      46.534  32.686  29.993  1.00  0.00     0.173 A 
ATOM     85  C   UNL A   1      45.885  33.362  27.779  1.00  0.00     0.173 A 
ATOM     86  F   UNL A   1      46.611  31.765  30.967  1.00  0.00    -0.203 F 
ATOM     87  C   UNL A   1      46.996  33.974  30.247  1.00  0.00     0.198 A 
ATOM     88  C   UNL A   1      46.377  34.640  28.026  1.00  0.00     0.198 A 
ATOM     89  F   UNL A   1      45.349  33.098  26.577  1.00  0.00    -0.203 F 
ATOM     90  F   UNL A   1      47.499  34.277  31.452  1.00  0.00    -0.200 F 
ATOM     91  C   UNL A   1      46.925  34.947  29.262  1.00  0.00     0.200 A 
ATOM     92  F   UNL A   1      46.321  35.575  27.067  1.00  0.00    -0.200 F 
ATOM     93  F   UNL A   1      47.379  36.184  29.506  1.00  0.00    -0.200 F 
ENDBRANCH  60  83
ENDBRANCH  34  35
ENDBRANCH  26  29
ENDBRANCH  24  25
ENDBRANCH  23  24
ENDBRANCH   1  23
TORSDOF 13
ENDMDL
