MODEL 1
REMARK VINA RESULT:     -12.8      0.000      0.000
REMARK SMILES C[C@@]1(CN2C(=O)c3ccc(C(=O)NCCCCNC(=O)c4ccc(-c5c6nc(c(-c7c(F)c(F)c(F)c(F)c7F)c7ccc([nH]7)c(-c7c(F)c(F)c(F)c(F)c7F)c7nc(c(-c8c(F)c(F)c(F)c(F)c8F)c8ccc5[nH]8)C=C7)C=C6)cc4)cc3C2=O)CCCO1
REMARK SMILES IDX 15 1 14 2 13 3 11 4 12 5 10 7 4 8 5 9 86 10 6 11 7 12 85 13
REMARK SMILES IDX 87 14 8 15 84 16 9 17 3 18 2 19 1 20 88 21 91 22 89 23 90 24
REMARK SMILES IDX 16 25 17 26 18 27 19 28 20 30 21 31 22 32 83 33 23 34 82 35
REMARK SMILES IDX 24 36 25 37 26 38 76 39 27 40 81 41 75 42 77 43 28 44 80 45
REMARK SMILES IDX 74 46 73 47 29 49 61 50 41 51 60 52 42 53 45 54 59 55 78 56
REMARK SMILES IDX 43 57 44 58 58 60 79 61 46 62 30 63 31 64 39 65 32 66 33 67
REMARK SMILES IDX 37 68 40 69 34 70 35 71 38 72 36 73 62 74 63 75 71 76 64 77
REMARK SMILES IDX 65 78 69 79 72 80 66 81 67 82 70 83 68 84 47 85 48 86 56 87
REMARK SMILES IDX 49 88 50 89 54 90 57 91 51 92 52 93 55 94 53 95
REMARK H PARENT 13 6 18 29 77 48 45 59
REMARK Flexibility Score: inf
ROOT
ATOM      1  C   UNL A   1      35.772  21.461  25.862  1.00  0.00     0.023 C 
ENDROOT
BRANCH   1   2
ATOM      2  C   UNL A   1      35.649  20.237  24.948  1.00  0.00     0.116 C 
BRANCH   2   3
ATOM      3  N   UNL A   1      34.478  19.454  25.287  1.00  0.00    -0.352 N 
ATOM      4  C   UNL A   1      33.134  19.704  25.188  1.00  0.00     0.251 C 
ATOM      5  O   UNL A   1      32.368  18.796  25.512  1.00  0.00    -0.269 OA
ATOM      6  H   UNL A   1      34.690  18.568  25.662  1.00  0.00     0.163 HD
BRANCH   4   7
ATOM      7  C   UNL A   1      32.552  20.990  24.697  1.00  0.00     0.040 A 
ATOM      8  N   UNL A   1      30.862  25.265  25.075  1.00  0.00    -0.271 N 
ATOM      9  C   UNL A   1      31.077  24.822  23.803  1.00  0.00     0.261 C 
ATOM     10  C   UNL A   1      31.246  24.335  26.008  1.00  0.00     0.261 C 
ATOM     11  O   UNL A   1      30.956  25.408  22.742  1.00  0.00    -0.269 OA
ATOM     12  C   UNL A   1      31.556  23.454  23.915  1.00  0.00     0.053 A 
ATOM     13  C   UNL A   1      31.675  23.150  25.256  1.00  0.00     0.054 A 
ATOM     14  O   UNL A   1      31.305  24.430  27.216  1.00  0.00    -0.269 OA
ATOM     15  C   UNL A   1      31.915  22.571  22.926  1.00  0.00     0.015 A 
ATOM     16  C   UNL A   1      32.171  21.930  25.680  1.00  0.00     0.028 A 
ATOM     17  C   UNL A   1      32.438  21.339  23.332  1.00  0.00     0.015 A 
BRANCH   8  18
ATOM     18  C   UNL A   1      30.385  26.602  25.385  1.00  0.00     0.164 C 
BRANCH  18  19
ATOM     19  C   UNL A   1      31.508  27.612  25.752  1.00  0.00     0.084 C 
ATOM     20  C   UNL A   1      31.600  27.899  27.251  1.00  0.00     0.044 C 
ATOM     21  C   UNL A   1      31.327  28.918  24.971  1.00  0.00     0.039 C 
ATOM     22  O   UNL A   1      32.778  27.077  25.321  1.00  0.00    -0.373 OA
ATOM     23  C   UNL A   1      32.064  28.644  23.684  1.00  0.00     0.031 C 
ATOM     24  C   UNL A   1      33.215  27.780  24.149  1.00  0.00     0.161 C 
ENDBRANCH  18  19
ENDBRANCH   8  18
ENDBRANCH   4   7
ENDBRANCH   2   3
ENDBRANCH   1   2
BRANCH   1  25
ATOM     25  C   UNL A   1      35.844  22.796  25.121  1.00  0.00     0.023 C 
BRANCH  25  26
ATOM     26  C   UNL A   1      37.167  23.540  25.263  1.00  0.00     0.116 C 
BRANCH  26  27
ATOM     27  N   UNL A   1      38.287  22.674  25.603  1.00  0.00    -0.352 N 
ATOM     28  C   UNL A   1      39.421  22.987  26.313  1.00  0.00     0.251 C 
ATOM     29  H   UNL A   1      38.225  21.744  25.282  1.00  0.00     0.163 HD
ATOM     30  O   UNL A   1      40.331  22.176  26.439  1.00  0.00    -0.269 OA
BRANCH  28  31
ATOM     31  C   UNL A   1      39.546  24.343  26.882  1.00  0.00     0.039 A 
ATOM     32  C   UNL A   1      39.088  24.572  28.181  1.00  0.00     0.014 A 
ATOM     33  C   UNL A   1      40.197  25.350  26.166  1.00  0.00     0.014 A 
ATOM     34  C   UNL A   1      39.368  25.790  28.799  1.00  0.00     0.010 A 
ATOM     35  C   UNL A   1      40.536  26.535  26.807  1.00  0.00     0.010 A 
ATOM     36  C   UNL A   1      40.142  26.758  28.136  1.00  0.00    -0.014 A 
BRANCH  36  37
ATOM     37  C   UNL A   1      40.601  27.984  28.832  1.00  0.00     0.031 A 
ATOM     38  C   UNL A   1      42.005  28.079  29.351  1.00  0.00     0.074 A 
ATOM     39  C   UNL A   1      39.719  28.975  29.070  1.00  0.00     0.049 A 
ATOM     40  N   UNL A   1      42.562  29.026  30.062  1.00  0.00    -0.248 NA
ATOM     41  C   UNL A   1      42.895  26.945  29.056  1.00  0.00     0.031 C 
ATOM     42  C   UNL A   1      38.316  28.976  28.655  1.00  0.00     0.029 A 
ATOM     43  N   UNL A   1      39.869  30.168  29.735  1.00  0.00    -0.354 N 
ATOM     44  C   UNL A   1      43.860  28.602  30.304  1.00  0.00     0.074 A 
ATOM     45  C   UNL A   1      43.994  27.288  29.713  1.00  0.00     0.031 C 
ATOM     46  C   UNL A   1      37.738  30.118  29.058  1.00  0.00     0.029 A 
ATOM     47  C   UNL A   1      38.715  30.911  29.797  1.00  0.00     0.049 A 
ATOM     48  H   UNL A   1      40.722  30.463  30.128  1.00  0.00     0.167 HD
ATOM     49  C   UNL A   1      44.856  29.260  30.945  1.00  0.00     0.037 A 
ATOM     50  C   UNL A   1      38.468  32.089  30.400  1.00  0.00     0.037 A 
ATOM     51  C   UNL A   1      44.717  30.573  31.520  1.00  0.00     0.049 A 
ATOM     52  C   UNL A   1      39.581  32.781  31.139  1.00  0.00     0.074 A 
ATOM     53  C   UNL A   1      45.684  31.353  32.129  1.00  0.00     0.029 A 
ATOM     54  N   UNL A   1      43.533  31.293  31.568  1.00  0.00    -0.354 N 
ATOM     55  N   UNL A   1      40.828  32.408  31.292  1.00  0.00    -0.248 NA
ATOM     56  C   UNL A   1      39.253  34.057  31.790  1.00  0.00     0.031 C 
ATOM     57  C   UNL A   1      45.072  32.520  32.598  1.00  0.00     0.029 A 
ATOM     58  C   UNL A   1      43.735  32.493  32.232  1.00  0.00     0.049 A 
ATOM     59  H   UNL A   1      42.675  30.996  31.188  1.00  0.00     0.167 HD
ATOM     60  C   UNL A   1      41.438  33.409  32.038  1.00  0.00     0.074 A 
ATOM     61  C   UNL A   1      40.427  34.415  32.289  1.00  0.00     0.031 C 
ATOM     62  C   UNL A   1      42.718  33.484  32.477  1.00  0.00     0.037 A 
BRANCH  49  63
ATOM     63  C   UNL A   1      46.183  28.570  31.059  1.00  0.00     0.064 A 
ATOM     64  C   UNL A   1      46.493  27.743  32.151  1.00  0.00     0.173 A 
ATOM     65  C   UNL A   1      47.146  28.705  30.047  1.00  0.00     0.173 A 
ATOM     66  F   UNL A   1      45.613  27.588  33.151  1.00  0.00    -0.203 F 
ATOM     67  C   UNL A   1      47.726  27.103  32.239  1.00  0.00     0.198 A 
ATOM     68  C   UNL A   1      48.365  28.037  30.122  1.00  0.00     0.198 A 
ATOM     69  F   UNL A   1      46.900  29.478  28.978  1.00  0.00    -0.203 F 
ATOM     70  F   UNL A   1      48.018  26.360  33.314  1.00  0.00    -0.200 F 
ATOM     71  C   UNL A   1      48.658  27.244  31.222  1.00  0.00     0.200 A 
ATOM     72  F   UNL A   1      49.259  28.164  29.131  1.00  0.00    -0.200 F 
ATOM     73  F   UNL A   1      49.841  26.621  31.303  1.00  0.00    -0.200 F 
ENDBRANCH  49  63
BRANCH  50  74
ATOM     74  C   UNL A   1      37.111  32.692  30.326  1.00  0.00     0.064 A 
ATOM     75  C   UNL A   1      36.153  32.431  31.315  1.00  0.00     0.173 A 
ATOM     76  C   UNL A   1      36.742  33.536  29.267  1.00  0.00     0.173 A 
ATOM     77  F   UNL A   1      36.450  31.613  32.335  1.00  0.00    -0.203 F 
ATOM     78  C   UNL A   1      34.872  32.977  31.240  1.00  0.00     0.198 A 
ATOM     79  C   UNL A   1      35.472  34.106  29.209  1.00  0.00     0.198 A 
ATOM     80  F   UNL A   1      37.623  33.821  28.296  1.00  0.00    -0.203 F 
ATOM     81  F   UNL A   1      33.963  32.675  32.176  1.00  0.00    -0.200 F 
ATOM     82  C   UNL A   1      34.536  33.820  30.192  1.00  0.00     0.200 A 
ATOM     83  F   UNL A   1      35.155  34.932  28.203  1.00  0.00    -0.200 F 
ATOM     84  F   UNL A   1      33.307  34.349  30.124  1.00  0.00    -0.200 F 
ENDBRANCH  50  74
BRANCH  62  85
ATOM     85  C   UNL A   1      43.106  34.702  33.264  1.00  0.00     0.064 A 
ATOM     86  C   UNL A   1      43.482  35.895  32.630  1.00  0.00     0.173 A 
ATOM     87  C   UNL A   1      43.047  34.693  34.665  1.00  0.00     0.173 A 
ATOM     88  F   UNL A   1      43.570  35.951  31.293  1.00  0.00    -0.203 F 
ATOM     89  C   UNL A   1      43.803  37.029  33.372  1.00  0.00     0.198 A 
ATOM     90  C   UNL A   1      43.338  35.837  35.403  1.00  0.00     0.198 A 
ATOM     91  F   UNL A   1      42.688  33.578  35.321  1.00  0.00    -0.203 F 
ATOM     92  F   UNL A   1      44.200  38.146  32.747  1.00  0.00    -0.200 F 
ATOM     93  C   UNL A   1      43.720  37.002  34.757  1.00  0.00     0.200 A 
ATOM     94  F   UNL A   1      43.243  35.813  36.739  1.00  0.00    -0.200 F 
ATOM     95  F   UNL A   1      44.016  38.098  35.469  1.00  0.00    -0.200 F 
ENDBRANCH  62  85
ENDBRANCH  36  37
ENDBRANCH  28  31
ENDBRANCH  26  27
ENDBRANCH  25  26
ENDBRANCH   1  25
TORSDOF 13
ENDMDL
MODEL 2
REMARK VINA RESULT:     -12.7      3.555      8.693
REMARK SMILES C[C@@]1(CN2C(=O)c3ccc(C(=O)NCCCCNC(=O)c4ccc(-c5c6nc(c(-c7c(F)c(F)c(F)c(F)c7F)c7ccc([nH]7)c(-c7c(F)c(F)c(F)c(F)c7F)c7nc(c(-c8c(F)c(F)c(F)c(F)c8F)c8ccc5[nH]8)C=C7)C=C6)cc4)cc3C2=O)CCCO1
REMARK SMILES IDX 15 1 14 2 13 3 11 4 12 5 10 7 4 8 5 9 86 10 6 11 7 12 85 13
REMARK SMILES IDX 87 14 8 15 84 16 9 17 3 18 2 19 1 20 88 21 91 22 89 23 90 24
REMARK SMILES IDX 16 25 17 26 18 27 19 28 20 30 21 31 22 32 83 33 23 34 82 35
REMARK SMILES IDX 24 36 25 37 26 38 76 39 27 40 81 41 75 42 77 43 28 44 80 45
REMARK SMILES IDX 74 46 73 47 29 49 61 50 41 51 60 52 42 53 45 54 59 55 78 56
REMARK SMILES IDX 43 57 44 58 58 60 79 61 46 62 30 63 31 64 39 65 32 66 33 67
REMARK SMILES IDX 37 68 40 69 34 70 35 71 38 72 36 73 62 74 63 75 71 76 64 77
REMARK SMILES IDX 65 78 69 79 72 80 66 81 67 82 70 83 68 84 47 85 48 86 56 87
REMARK SMILES IDX 49 88 50 89 54 90 57 91 51 92 52 93 55 94 53 95
REMARK H PARENT 13 6 18 29 77 48 45 59
REMARK Flexibility Score: inf
ROOT
ATOM      1  C   UNL A   1      31.997  30.459  26.807  1.00  0.00     0.023 C 
ENDROOT
BRANCH   1   2
ATOM      2  C   UNL A   1      32.257  29.944  25.388  1.00  0.00     0.116 C 
BRANCH   2   3
ATOM      3  N   UNL A   1      31.058  30.029  24.578  1.00  0.00    -0.352 N 
ATOM      4  C   UNL A   1      30.377  29.104  23.830  1.00  0.00     0.251 C 
ATOM      5  O   UNL A   1      29.335  29.476  23.290  1.00  0.00    -0.269 OA
ATOM      6  H   UNL A   1      30.655  30.927  24.562  1.00  0.00     0.163 HD
BRANCH   4   7
ATOM      7  C   UNL A   1      30.810  27.685  23.651  1.00  0.00     0.040 A 
ATOM      8  N   UNL A   1      31.653  23.340  24.948  1.00  0.00    -0.271 N 
ATOM      9  C   UNL A   1      31.749  23.588  23.611  1.00  0.00     0.261 C 
ATOM     10  C   UNL A   1      31.273  24.458  25.647  1.00  0.00     0.261 C 
ATOM     11  O   UNL A   1      31.957  22.822  22.688  1.00  0.00    -0.269 OA
ATOM     12  C   UNL A   1      31.497  25.010  23.434  1.00  0.00     0.053 A 
ATOM     13  C   UNL A   1      31.193  25.548  24.668  1.00  0.00     0.054 A 
ATOM     14  O   UNL A   1      30.982  24.577  26.819  1.00  0.00    -0.269 OA
ATOM     15  C   UNL A   1      31.476  25.756  22.280  1.00  0.00     0.015 A 
ATOM     16  C   UNL A   1      30.844  26.879  24.810  1.00  0.00     0.028 A 
ATOM     17  C   UNL A   1      31.107  27.099  22.398  1.00  0.00     0.015 A 
BRANCH   8  18
ATOM     18  C   UNL A   1      31.833  22.021  25.530  1.00  0.00     0.164 C 
BRANCH  18  19
ATOM     19  C   UNL A   1      33.318  21.580  25.666  1.00  0.00     0.084 C 
ATOM     20  C   UNL A   1      33.691  20.414  24.749  1.00  0.00     0.044 C 
ATOM     21  C   UNL A   1      33.639  21.232  27.124  1.00  0.00     0.039 C 
ATOM     22  O   UNL A   1      34.170  22.698  25.339  1.00  0.00    -0.373 OA
ATOM     23  C   UNL A   1      34.034  22.566  27.707  1.00  0.00     0.031 C 
ATOM     24  C   UNL A   1      34.737  23.230  26.544  1.00  0.00     0.161 C 
ENDBRANCH  18  19
ENDBRANCH   8  18
ENDBRANCH   4   7
ENDBRANCH   2   3
ENDBRANCH   1   2
BRANCH   1  25
ATOM     25  C   UNL A   1      31.688  31.954  26.889  1.00  0.00     0.023 C 
BRANCH  25  26
ATOM     26  C   UNL A   1      32.840  32.822  27.384  1.00  0.00     0.116 C 
BRANCH  26  27
ATOM     27  N   UNL A   1      32.448  34.192  27.682  1.00  0.00    -0.352 N 
ATOM     28  C   UNL A   1      32.982  35.045  28.618  1.00  0.00     0.251 C 
ATOM     29  H   UNL A   1      31.704  34.553  27.147  1.00  0.00     0.163 HD
ATOM     30  O   UNL A   1      32.483  36.145  28.826  1.00  0.00    -0.269 OA
BRANCH  28  31
ATOM     31  C   UNL A   1      34.144  34.592  29.406  1.00  0.00     0.039 A 
ATOM     32  C   UNL A   1      33.930  34.079  30.686  1.00  0.00     0.014 A 
ATOM     33  C   UNL A   1      35.422  34.589  28.839  1.00  0.00     0.014 A 
ATOM     34  C   UNL A   1      34.986  33.475  31.366  1.00  0.00     0.010 A 
ATOM     35  C   UNL A   1      36.455  33.925  29.488  1.00  0.00     0.010 A 
ATOM     36  C   UNL A   1      36.242  33.344  30.749  1.00  0.00    -0.014 A 
BRANCH  36  37
ATOM     37  C   UNL A   1      37.330  32.555  31.376  1.00  0.00     0.031 A 
ATOM     38  C   UNL A   1      37.850  32.927  32.733  1.00  0.00     0.074 A 
ATOM     39  C   UNL A   1      37.905  31.556  30.677  1.00  0.00     0.049 A 
ATOM     40  N   UNL A   1      38.852  32.418  33.402  1.00  0.00    -0.248 NA
ATOM     41  C   UNL A   1      37.170  34.038  33.417  1.00  0.00     0.031 C 
ATOM     42  C   UNL A   1      37.516  31.133  29.331  1.00  0.00     0.029 A 
ATOM     43  N   UNL A   1      38.951  30.726  30.996  1.00  0.00    -0.354 N 
ATOM     44  C   UNL A   1      38.927  33.148  34.580  1.00  0.00     0.074 A 
ATOM     45  C   UNL A   1      37.907  34.171  34.510  1.00  0.00     0.031 C 
ATOM     46  C   UNL A   1      38.299  30.113  28.947  1.00  0.00     0.029 A 
ATOM     47  C   UNL A   1      39.274  29.839  29.998  1.00  0.00     0.049 A 
ATOM     48  H   UNL A   1      39.424  30.762  31.859  1.00  0.00     0.167 HD
ATOM     49  C   UNL A   1      39.762  32.966  35.631  1.00  0.00     0.037 A 
ATOM     50  C   UNL A   1      40.257  28.921  29.930  1.00  0.00     0.037 A 
ATOM     51  C   UNL A   1      40.767  31.937  35.697  1.00  0.00     0.049 A 
ATOM     52  C   UNL A   1      41.195  28.766  31.097  1.00  0.00     0.074 A 
ATOM     53  C   UNL A   1      41.615  31.627  36.745  1.00  0.00     0.029 A 
ATOM     54  N   UNL A   1      41.068  31.060  34.665  1.00  0.00    -0.354 N 
ATOM     55  N   UNL A   1      41.205  29.407  32.240  1.00  0.00    -0.248 NA
ATOM     56  C   UNL A   1      42.258  27.760  30.964  1.00  0.00     0.031 C 
ATOM     57  C   UNL A   1      42.469  30.600  36.327  1.00  0.00     0.029 A 
ATOM     58  C   UNL A   1      42.116  30.233  35.038  1.00  0.00     0.049 A 
ATOM     59  H   UNL A   1      40.606  31.030  33.796  1.00  0.00     0.167 HD
ATOM     60  C   UNL A   1      42.259  28.872  32.968  1.00  0.00     0.074 A 
ATOM     61  C   UNL A   1      42.852  27.839  32.146  1.00  0.00     0.031 C 
ATOM     62  C   UNL A   1      42.697  29.210  34.206  1.00  0.00     0.037 A 
BRANCH  49  63
ATOM     63  C   UNL A   1      39.623  33.901  36.797  1.00  0.00     0.064 A 
ATOM     64  C   UNL A   1      38.856  33.565  37.924  1.00  0.00     0.173 A 
ATOM     65  C   UNL A   1      40.296  35.132  36.807  1.00  0.00     0.173 A 
ATOM     66  F   UNL A   1      38.184  32.406  37.962  1.00  0.00    -0.203 F 
ATOM     67  C   UNL A   1      38.743  34.440  39.001  1.00  0.00     0.198 A 
ATOM     68  C   UNL A   1      40.208  35.990  37.900  1.00  0.00     0.198 A 
ATOM     69  F   UNL A   1      41.049  35.500  35.759  1.00  0.00    -0.203 F 
ATOM     70  F   UNL A   1      37.964  34.120  40.043  1.00  0.00    -0.200 F 
ATOM     71  C   UNL A   1      39.425  35.648  38.992  1.00  0.00     0.200 A 
ATOM     72  F   UNL A   1      40.879  37.150  37.894  1.00  0.00    -0.200 F 
ATOM     73  F   UNL A   1      39.323  36.484  40.033  1.00  0.00    -0.200 F 
ENDBRANCH  49  63
BRANCH  50  74
ATOM     74  C   UNL A   1      40.401  28.075  28.716  1.00  0.00     0.064 A 
ATOM     75  C   UNL A   1      39.770  26.827  28.631  1.00  0.00     0.173 A 
ATOM     76  C   UNL A   1      41.171  28.493  27.620  1.00  0.00     0.173 A 
ATOM     77  F   UNL A   1      39.041  26.374  29.661  1.00  0.00    -0.203 F 
ATOM     78  C   UNL A   1      39.917  26.021  27.503  1.00  0.00     0.198 A 
ATOM     79  C   UNL A   1      41.293  27.700  26.481  1.00  0.00     0.198 A 
ATOM     80  F   UNL A   1      41.792  29.682  27.649  1.00  0.00    -0.203 F 
ATOM     81  F   UNL A   1      39.339  24.813  27.467  1.00  0.00    -0.200 F 
ATOM     82  C   UNL A   1      40.672  26.461  26.427  1.00  0.00     0.200 A 
ATOM     83  F   UNL A   1      42.010  28.137  25.436  1.00  0.00    -0.200 F 
ATOM     84  F   UNL A   1      40.808  25.689  25.340  1.00  0.00    -0.200 F 
ENDBRANCH  50  74
BRANCH  62  85
ATOM     85  C   UNL A   1      43.867  28.446  34.755  1.00  0.00     0.064 A 
ATOM     86  C   UNL A   1      45.181  28.917  34.616  1.00  0.00     0.173 A 
ATOM     87  C   UNL A   1      43.668  27.259  35.475  1.00  0.00     0.173 A 
ATOM     88  F   UNL A   1      45.426  30.038  33.921  1.00  0.00    -0.203 F 
ATOM     89  C   UNL A   1      46.254  28.217  35.162  1.00  0.00     0.198 A 
ATOM     90  C   UNL A   1      44.739  26.578  36.047  1.00  0.00     0.198 A 
ATOM     91  F   UNL A   1      42.430  26.768  35.642  1.00  0.00    -0.203 F 
ATOM     92  F   UNL A   1      47.504  28.664  34.981  1.00  0.00    -0.200 F 
ATOM     93  C   UNL A   1      46.030  27.055  35.886  1.00  0.00     0.200 A 
ATOM     94  F   UNL A   1      44.520  25.464  36.759  1.00  0.00    -0.200 F 
ATOM     95  F   UNL A   1      47.063  26.390  36.424  1.00  0.00    -0.200 F 
ENDBRANCH  62  85
ENDBRANCH  36  37
ENDBRANCH  28  31
ENDBRANCH  26  27
ENDBRANCH  25  26
ENDBRANCH   1  25
TORSDOF 13
ENDMDL
MODEL 3
REMARK VINA RESULT:     -12.7      3.677      8.065
REMARK SMILES C[C@@]1(CN2C(=O)c3ccc(C(=O)NCCCCNC(=O)c4ccc(-c5c6nc(c(-c7c(F)c(F)c(F)c(F)c7F)c7ccc([nH]7)c(-c7c(F)c(F)c(F)c(F)c7F)c7nc(c(-c8c(F)c(F)c(F)c(F)c8F)c8ccc5[nH]8)C=C7)C=C6)cc4)cc3C2=O)CCCO1
REMARK SMILES IDX 15 1 14 2 13 3 11 4 12 5 10 7 4 8 5 9 86 10 6 11 7 12 85 13
REMARK SMILES IDX 87 14 8 15 84 16 9 17 3 18 2 19 1 20 88 21 91 22 89 23 90 24
REMARK SMILES IDX 16 25 17 26 18 27 19 28 20 30 21 31 22 32 83 33 23 34 82 35
REMARK SMILES IDX 24 36 25 37 26 38 76 39 27 40 81 41 75 42 77 43 28 44 80 45
REMARK SMILES IDX 74 46 73 47 29 49 61 50 41 51 60 52 42 53 45 54 59 55 78 56
REMARK SMILES IDX 43 57 44 58 58 60 79 61 46 62 30 63 31 64 39 65 32 66 33 67
REMARK SMILES IDX 37 68 40 69 34 70 35 71 38 72 36 73 62 74 63 75 71 76 64 77
REMARK SMILES IDX 65 78 69 79 72 80 66 81 67 82 70 83 68 84 47 85 48 86 56 87
REMARK SMILES IDX 49 88 50 89 54 90 57 91 51 92 52 93 55 94 53 95
REMARK H PARENT 13 6 18 29 77 48 45 59
REMARK Flexibility Score: inf
ROOT
ATOM      1  C   UNL A   1      32.251  30.309  26.790  1.00  0.00     0.023 C 
ENDROOT
BRANCH   1   2
ATOM      2  C   UNL A   1      32.456  29.793  25.362  1.00  0.00     0.116 C 
BRANCH   2   3
ATOM      3  N   UNL A   1      31.233  29.900  24.593  1.00  0.00    -0.352 N 
ATOM      4  C   UNL A   1      30.509  28.988  23.870  1.00  0.00     0.251 C 
ATOM      5  O   UNL A   1      29.457  29.379  23.364  1.00  0.00    -0.269 OA
ATOM      6  H   UNL A   1      30.846  30.805  24.588  1.00  0.00     0.163 HD
BRANCH   4   7
ATOM      7  C   UNL A   1      30.908  27.560  23.679  1.00  0.00     0.040 A 
ATOM      8  N   UNL A   1      31.702  23.199  24.956  1.00  0.00    -0.271 N 
ATOM      9  C   UNL A   1      31.762  23.445  23.616  1.00  0.00     0.261 C 
ATOM     10  C   UNL A   1      31.364  24.325  25.665  1.00  0.00     0.261 C 
ATOM     11  O   UNL A   1      31.928  22.675  22.688  1.00  0.00    -0.269 OA
ATOM     12  C   UNL A   1      31.534  24.871  23.446  1.00  0.00     0.053 A 
ATOM     13  C   UNL A   1      31.277  25.416  24.687  1.00  0.00     0.054 A 
ATOM     14  O   UNL A   1      31.112  24.450  26.844  1.00  0.00    -0.269 OA
ATOM     15  C   UNL A   1      31.494  25.617  22.292  1.00  0.00     0.015 A 
ATOM     16  C   UNL A   1      30.960  26.754  24.838  1.00  0.00     0.028 A 
ATOM     17  C   UNL A   1      31.155  26.967  22.419  1.00  0.00     0.015 A 
BRANCH   8  18
ATOM     18  C   UNL A   1      31.872  21.877  25.533  1.00  0.00     0.164 C 
BRANCH  18  19
ATOM     19  C   UNL A   1      33.354  21.435  25.691  1.00  0.00     0.084 C 
ATOM     20  C   UNL A   1      33.711  20.201  24.862  1.00  0.00     0.044 C 
ATOM     21  C   UNL A   1      33.685  21.197  27.168  1.00  0.00     0.039 C 
ATOM     22  O   UNL A   1      34.213  22.518  25.272  1.00  0.00    -0.373 OA
ATOM     23  C   UNL A   1      34.096  22.568  27.645  1.00  0.00     0.031 C 
ATOM     24  C   UNL A   1      34.794  23.136  26.429  1.00  0.00     0.161 C 
ENDBRANCH  18  19
ENDBRANCH   8  18
ENDBRANCH   4   7
ENDBRANCH   2   3
ENDBRANCH   1   2
BRANCH   1  25
ATOM     25  C   UNL A   1      31.885  31.790  26.879  1.00  0.00     0.023 C 
BRANCH  25  26
ATOM     26  C   UNL A   1      32.932  32.673  27.550  1.00  0.00     0.116 C 
BRANCH  26  27
ATOM     27  N   UNL A   1      32.494  34.047  27.746  1.00  0.00    -0.352 N 
ATOM     28  C   UNL A   1      33.016  34.994  28.594  1.00  0.00     0.251 C 
ATOM     29  H   UNL A   1      31.725  34.335  27.202  1.00  0.00     0.163 HD
ATOM     30  O   UNL A   1      32.479  36.088  28.725  1.00  0.00    -0.269 OA
BRANCH  28  31
ATOM     31  C   UNL A   1      34.212  34.651  29.386  1.00  0.00     0.039 A 
ATOM     32  C   UNL A   1      34.046  34.237  30.709  1.00  0.00     0.014 A 
ATOM     33  C   UNL A   1      35.476  34.648  28.789  1.00  0.00     0.014 A 
ATOM     34  C   UNL A   1      35.141  33.731  31.409  1.00  0.00     0.010 A 
ATOM     35  C   UNL A   1      36.549  34.079  29.464  1.00  0.00     0.010 A 
ATOM     36  C   UNL A   1      36.386  33.596  30.772  1.00  0.00    -0.014 A 
BRANCH  36  37
ATOM     37  C   UNL A   1      37.518  32.902  31.434  1.00  0.00     0.031 A 
ATOM     38  C   UNL A   1      38.159  31.712  30.783  1.00  0.00     0.074 A 
ATOM     39  C   UNL A   1      37.904  33.296  32.663  1.00  0.00     0.049 A 
ATOM     40  N   UNL A   1      39.094  30.921  31.245  1.00  0.00    -0.248 NA
ATOM     41  C   UNL A   1      37.666  31.345  29.447  1.00  0.00     0.031 C 
ATOM     42  C   UNL A   1      37.324  34.409  33.415  1.00  0.00     0.029 A 
ATOM     43  N   UNL A   1      38.866  32.793  33.505  1.00  0.00    -0.354 N 
ATOM     44  C   UNL A   1      39.295  29.962  30.262  1.00  0.00     0.074 A 
ATOM     45  C   UNL A   1      38.348  30.236  29.203  1.00  0.00     0.031 C 
ATOM     46  C   UNL A   1      37.951  34.516  34.597  1.00  0.00     0.029 A 
ATOM     47  C   UNL A   1      38.945  33.455  34.706  1.00  0.00     0.049 A 
ATOM     48  H   UNL A   1      39.444  32.031  33.269  1.00  0.00     0.167 HD
ATOM     49  C   UNL A   1      40.203  28.957  30.240  1.00  0.00     0.037 A 
ATOM     50  C   UNL A   1      39.720  33.218  35.782  1.00  0.00     0.037 A 
ATOM     51  C   UNL A   1      41.150  28.700  31.294  1.00  0.00     0.049 A 
ATOM     52  C   UNL A   1      40.693  32.071  35.746  1.00  0.00     0.074 A 
ATOM     53  C   UNL A   1      42.155  27.750  31.336  1.00  0.00     0.029 A 
ATOM     54  N   UNL A   1      41.198  29.387  32.497  1.00  0.00    -0.354 N 
ATOM     55  N   UNL A   1      40.932  31.221  34.778  1.00  0.00    -0.248 NA
ATOM     56  C   UNL A   1      41.503  31.851  36.952  1.00  0.00     0.031 C 
ATOM     57  C   UNL A   1      42.774  27.824  32.588  1.00  0.00     0.029 A 
ATOM     58  C   UNL A   1      42.192  28.857  33.306  1.00  0.00     0.049 A 
ATOM     59  H   UNL A   1      40.613  30.141  32.742  1.00  0.00     0.167 HD
ATOM     60  C   UNL A   1      41.930  30.377  35.249  1.00  0.00     0.074 A 
ATOM     61  C   UNL A   1      42.266  30.832  36.582  1.00  0.00     0.031 C 
ATOM     62  C   UNL A   1      42.512  29.320  34.632  1.00  0.00     0.037 A 
BRANCH  49  63
ATOM     63  C   UNL A   1      40.215  28.060  29.037  1.00  0.00     0.064 A 
ATOM     64  C   UNL A   1      40.949  28.381  27.884  1.00  0.00     0.173 A 
ATOM     65  C   UNL A   1      39.517  26.843  29.050  1.00  0.00     0.173 A 
ATOM     66  F   UNL A   1      41.625  29.537  27.816  1.00  0.00    -0.203 F 
ATOM     67  C   UNL A   1      40.956  27.535  26.779  1.00  0.00     0.198 A 
ATOM     68  C   UNL A   1      39.553  25.983  27.955  1.00  0.00     0.198 A 
ATOM     69  F   UNL A   1      38.804  26.482  30.128  1.00  0.00    -0.203 F 
ATOM     70  F   UNL A   1      41.622  27.888  25.672  1.00  0.00    -0.200 F 
ATOM     71  C   UNL A   1      40.265  26.333  26.818  1.00  0.00     0.200 A 
ATOM     72  F   UNL A   1      38.896  24.816  28.000  1.00  0.00    -0.200 F 
ATOM     73  F   UNL A   1      40.281  25.515  25.757  1.00  0.00    -0.200 F 
ENDBRANCH  49  63
BRANCH  50  74
ATOM     74  C   UNL A   1      39.610  34.090  36.982  1.00  0.00     0.064 A 
ATOM     75  C   UNL A   1      38.836  33.702  38.084  1.00  0.00     0.173 A 
ATOM     76  C   UNL A   1      40.271  35.325  37.052  1.00  0.00     0.173 A 
ATOM     77  F   UNL A   1      38.168  32.540  38.056  1.00  0.00    -0.203 F 
ATOM     78  C   UNL A   1      38.714  34.524  39.203  1.00  0.00     0.198 A 
ATOM     79  C   UNL A   1      40.173  36.132  38.183  1.00  0.00     0.198 A 
ATOM     80  F   UNL A   1      41.029  35.742  36.026  1.00  0.00    -0.203 F 
ATOM     81  F   UNL A   1      37.932  34.148  40.224  1.00  0.00    -0.200 F 
ATOM     82  C   UNL A   1      39.388  35.734  39.255  1.00  0.00     0.200 A 
ATOM     83  F   UNL A   1      40.839  37.294  38.236  1.00  0.00    -0.200 F 
ATOM     84  F   UNL A   1      39.275  36.520  40.334  1.00  0.00    -0.200 F 
ENDBRANCH  50  74
BRANCH  62  85
ATOM     85  C   UNL A   1      43.584  28.587  35.386  1.00  0.00     0.064 A 
ATOM     86  C   UNL A   1      43.276  27.546  36.273  1.00  0.00     0.173 A 
ATOM     87  C   UNL A   1      44.937  28.894  35.177  1.00  0.00     0.173 A 
ATOM     88  F   UNL A   1      41.997  27.226  36.520  1.00  0.00    -0.203 F 
ATOM     89  C   UNL A   1      44.283  26.851  36.938  1.00  0.00     0.198 A 
ATOM     90  C   UNL A   1      45.942  28.176  35.819  1.00  0.00     0.198 A 
ATOM     91  F   UNL A   1      45.287  29.878  34.335  1.00  0.00    -0.203 F 
ATOM     92  F   UNL A   1      43.963  25.887  37.813  1.00  0.00    -0.200 F 
ATOM     93  C   UNL A   1      45.615  27.159  36.702  1.00  0.00     0.200 A 
ATOM     94  F   UNL A   1      47.229  28.465  35.579  1.00  0.00    -0.200 F 
ATOM     95  F   UNL A   1      46.583  26.478  37.332  1.00  0.00    -0.200 F 
ENDBRANCH  62  85
ENDBRANCH  36  37
ENDBRANCH  28  31
ENDBRANCH  26  27
ENDBRANCH  25  26
ENDBRANCH   1  25
TORSDOF 13
ENDMDL
