MODEL 1
REMARK VINA RESULT:     -11.9      0.000      0.000
REMARK SMILES C[C@H](C(=O)NCCCCNC(=O)c1ccc(-c2c3nc(c(-c4c(F)c(F)c(F)c(F)c4F)c4ccc([nH]4)c(-c4c(F)c(F)c(F)c(F)c4F)c4nc(c(-c5c(F)c(F)c(F)c(F)c5F)c5ccc2[nH]5)C=C4)C=C3)cc1)n1nnnc1-c1csc(I)c1
REMARK SMILES IDX 7 1 6 2 5 3 3 4 4 5 2 7 1 8 76 9 77 10 80 11 78 12 79 13
REMARK SMILES IDX 81 14 82 15 86 16 83 17 84 18 85 19 8 20 9 21 10 22 11 23
REMARK SMILES IDX 12 25 13 26 14 27 75 28 15 29 74 30 16 31 17 32 18 33 68 34
REMARK SMILES IDX 19 35 73 36 67 37 69 38 20 39 72 40 66 41 65 42 21 44 53 45
REMARK SMILES IDX 33 46 52 47 34 48 37 49 51 50 70 51 35 52 36 53 50 55 71 56
REMARK SMILES IDX 38 57 22 58 23 59 31 60 24 61 25 62 29 63 32 64 26 65 27 66
REMARK SMILES IDX 30 67 28 68 54 69 55 70 63 71 56 72 57 73 61 74 64 75 58 76
REMARK SMILES IDX 59 77 62 78 60 79 39 80 40 81 48 82 41 83 42 84 46 85 49 86
REMARK SMILES IDX 43 87 44 88 47 89 45 90
REMARK H PARENT 5 6 10 24 69 43 37 54
REMARK Flexibility Score: inf
ROOT
ATOM      1  C   UNL A   1      32.129  27.567  27.197  1.00  0.00     0.023 C 
ENDROOT
BRANCH   1   2
ATOM      2  C   UNL A   1      31.662  26.608  26.111  1.00  0.00     0.116 C 
BRANCH   2   3
ATOM      3  N   UNL A   1      30.946  25.496  26.699  1.00  0.00    -0.354 N 
ATOM      4  C   UNL A   1      31.314  24.186  26.827  1.00  0.00     0.244 C 
ATOM      5  O   UNL A   1      30.452  23.413  27.249  1.00  0.00    -0.273 OA
ATOM      6  H   UNL A   1      30.059  25.718  27.063  1.00  0.00     0.163 HD
BRANCH   4   7
ATOM      7  C   UNL A   1      32.743  23.733  26.511  1.00  0.00     0.197 C 
ATOM      8  C   UNL A   1      33.092  22.567  27.441  1.00  0.00     0.044 C 
BRANCH   7   9
ATOM      9  N   UNL A   1      32.881  23.388  25.106  1.00  0.00    -0.213 N 
ATOM     10  N   UNL A   1      31.822  23.512  24.279  1.00  0.00    -0.044 NA
ATOM     11  C   UNL A   1      33.999  23.089  24.358  1.00  0.00     0.183 A 
ATOM     12  N   UNL A   1      32.312  23.414  23.056  1.00  0.00    -0.023 NA
ATOM     13  N   UNL A   1      33.661  23.196  23.088  1.00  0.00    -0.108 NA
BRANCH  11  14
ATOM     14  C   UNL A   1      35.395  22.752  24.772  1.00  0.00     0.033 A 
ATOM     15  C   UNL A   1      36.012  21.528  24.627  1.00  0.00     0.078 A 
ATOM     16  C   UNL A   1      36.272  23.718  25.371  1.00  0.00     0.038 A 
ATOM     17  S   UNL A   1      37.613  21.533  25.263  1.00  0.00    -0.137 S 
ATOM     18  C   UNL A   1      37.463  23.150  25.749  1.00  0.00     0.066 A 
ATOM     19  I   UNL A   1      38.904  24.136  26.830  1.00  0.00    -0.032 I 
ENDBRANCH  11  14
ENDBRANCH   7   9
ENDBRANCH   4   7
ENDBRANCH   2   3
ENDBRANCH   1   2
BRANCH   1  20
ATOM     20  C   UNL A   1      31.744  29.023  26.991  1.00  0.00     0.023 C 
BRANCH  20  21
ATOM     21  C   UNL A   1      32.871  29.896  26.455  1.00  0.00     0.116 C 
BRANCH  21  22
ATOM     22  N   UNL A   1      32.769  31.303  26.828  1.00  0.00    -0.352 N 
ATOM     23  C   UNL A   1      33.658  32.087  27.533  1.00  0.00     0.251 C 
ATOM     24  H   UNL A   1      31.948  31.759  26.533  1.00  0.00     0.163 HD
ATOM     25  O   UNL A   1      33.387  33.242  27.808  1.00  0.00    -0.269 OA
BRANCH  23  26
ATOM     26  C   UNL A   1      34.925  31.485  27.997  1.00  0.00     0.039 A 
ATOM     27  C   UNL A   1      36.041  32.308  28.166  1.00  0.00     0.014 A 
ATOM     28  C   UNL A   1      34.980  30.135  28.344  1.00  0.00     0.014 A 
ATOM     29  C   UNL A   1      37.182  31.797  28.789  1.00  0.00     0.010 A 
ATOM     30  C   UNL A   1      36.072  29.659  29.055  1.00  0.00     0.010 A 
ATOM     31  C   UNL A   1      37.181  30.487  29.293  1.00  0.00    -0.014 A 
BRANCH  31  32
ATOM     32  C   UNL A   1      38.319  29.945  30.076  1.00  0.00     0.031 A 
ATOM     33  C   UNL A   1      38.515  30.387  31.500  1.00  0.00     0.074 A 
ATOM     34  C   UNL A   1      39.234  29.157  29.477  1.00  0.00     0.049 A 
ATOM     35  N   UNL A   1      39.528  30.181  32.300  1.00  0.00    -0.248 NA
ATOM     36  C   UNL A   1      37.445  31.213  32.085  1.00  0.00     0.031 C 
ATOM     37  C   UNL A   1      39.191  28.711  28.083  1.00  0.00     0.029 A 
ATOM     38  N   UNL A   1      40.394  28.607  29.964  1.00  0.00    -0.354 N 
ATOM     39  C   UNL A   1      39.238  30.886  33.461  1.00  0.00     0.074 A 
ATOM     40  C   UNL A   1      37.979  31.565  33.245  1.00  0.00     0.031 C 
ATOM     41  C   UNL A   1      40.261  27.939  27.834  1.00  0.00     0.029 A 
ATOM     42  C   UNL A   1      41.085  27.868  29.035  1.00  0.00     0.049 A 
ATOM     43  H   UNL A   1      40.700  28.730  30.892  1.00  0.00     0.167 HD
ATOM     44  C   UNL A   1      39.946  30.942  34.613  1.00  0.00     0.037 A 
ATOM     45  C   UNL A   1      42.259  27.216  29.142  1.00  0.00     0.037 A 
ATOM     46  C   UNL A   1      41.163  30.212  34.846  1.00  0.00     0.049 A 
ATOM     47  C   UNL A   1      42.998  27.250  30.452  1.00  0.00     0.074 A 
ATOM     48  C   UNL A   1      41.916  30.136  36.004  1.00  0.00     0.029 A 
ATOM     49  N   UNL A   1      41.797  29.419  33.901  1.00  0.00    -0.354 N 
ATOM     50  N   UNL A   1      42.686  27.874  31.560  1.00  0.00    -0.248 NA
ATOM     51  C   UNL A   1      44.250  26.483  30.526  1.00  0.00     0.031 C 
ATOM     52  C   UNL A   1      43.020  29.315  35.753  1.00  0.00     0.029 A 
ATOM     53  C   UNL A   1      42.935  28.852  34.450  1.00  0.00     0.049 A 
ATOM     54  H   UNL A   1      41.485  29.280  32.979  1.00  0.00     0.167 HD
ATOM     55  C   UNL A   1      43.684  27.555  32.471  1.00  0.00     0.074 A 
ATOM     56  C   UNL A   1      44.606  26.671  31.788  1.00  0.00     0.031 C 
ATOM     57  C   UNL A   1      43.826  27.960  33.756  1.00  0.00     0.037 A 
BRANCH  44  58
ATOM     58  C   UNL A   1      39.411  31.808  35.715  1.00  0.00     0.064 A 
ATOM     59  C   UNL A   1      38.463  31.329  36.631  1.00  0.00     0.173 A 
ATOM     60  C   UNL A   1      39.872  33.123  35.874  1.00  0.00     0.173 A 
ATOM     61  F   UNL A   1      37.979  30.083  36.512  1.00  0.00    -0.203 F 
ATOM     62  C   UNL A   1      37.974  32.144  37.648  1.00  0.00     0.198 A 
ATOM     63  C   UNL A   1      39.402  33.926  36.910  1.00  0.00     0.198 A 
ATOM     64  F   UNL A   1      40.780  33.629  35.026  1.00  0.00    -0.203 F 
ATOM     65  F   UNL A   1      37.030  31.682  38.479  1.00  0.00    -0.200 F 
ATOM     66  C   UNL A   1      38.448  33.439  37.790  1.00  0.00     0.200 A 
ATOM     67  F   UNL A   1      39.869  35.174  37.053  1.00  0.00    -0.200 F 
ATOM     68  F   UNL A   1      37.980  34.221  38.773  1.00  0.00    -0.200 F 
ENDBRANCH  44  58
BRANCH  45  69
ATOM     69  C   UNL A   1      42.793  26.450  27.987  1.00  0.00     0.064 A 
ATOM     70  C   UNL A   1      43.560  27.086  27.001  1.00  0.00     0.173 A 
ATOM     71  C   UNL A   1      42.544  25.078  27.836  1.00  0.00     0.173 A 
ATOM     72  F   UNL A   1      43.808  28.401  27.091  1.00  0.00    -0.203 F 
ATOM     73  C   UNL A   1      44.038  26.386  25.895  1.00  0.00     0.198 A 
ATOM     74  C   UNL A   1      43.044  24.373  26.743  1.00  0.00     0.198 A 
ATOM     75  F   UNL A   1      41.820  24.423  28.755  1.00  0.00    -0.203 F 
ATOM     76  F   UNL A   1      44.730  27.029  24.945  1.00  0.00    -0.200 F 
ATOM     77  C   UNL A   1      43.783  25.028  25.770  1.00  0.00     0.200 A 
ATOM     78  F   UNL A   1      42.806  23.059  26.630  1.00  0.00    -0.200 F 
ATOM     79  F   UNL A   1      44.243  24.354  24.707  1.00  0.00    -0.200 F 
ENDBRANCH  45  69
BRANCH  57  80
ATOM     80  C   UNL A   1      44.996  27.417  34.520  1.00  0.00     0.064 A 
ATOM     81  C   UNL A   1      46.238  28.068  34.518  1.00  0.00     0.173 A 
ATOM     82  C   UNL A   1      44.857  26.260  35.301  1.00  0.00     0.173 A 
ATOM     83  F   UNL A   1      46.422  29.169  33.775  1.00  0.00    -0.203 F 
ATOM     84  C   UNL A   1      47.306  27.567  35.257  1.00  0.00     0.198 A 
ATOM     85  C   UNL A   1      45.919  25.777  36.058  1.00  0.00     0.198 A 
ATOM     86  F   UNL A   1      43.686  25.608  35.339  1.00  0.00    -0.203 F 
ATOM     87  F   UNL A   1      48.496  28.181  35.211  1.00  0.00    -0.200 F 
ATOM     88  C   UNL A   1      47.144  26.426  36.031  1.00  0.00     0.200 A 
ATOM     89  F   UNL A   1      45.758  24.683  36.815  1.00  0.00    -0.200 F 
ATOM     90  F   UNL A   1      48.171  25.951  36.748  1.00  0.00    -0.200 F 
ENDBRANCH  57  80
ENDBRANCH  31  32
ENDBRANCH  23  26
ENDBRANCH  21  22
ENDBRANCH  20  21
ENDBRANCH   1  20
TORSDOF 13
ENDMDL
MODEL 2
REMARK VINA RESULT:     -11.9      0.060      1.147
REMARK SMILES C[C@H](C(=O)NCCCCNC(=O)c1ccc(-c2c3nc(c(-c4c(F)c(F)c(F)c(F)c4F)c4ccc([nH]4)c(-c4c(F)c(F)c(F)c(F)c4F)c4nc(c(-c5c(F)c(F)c(F)c(F)c5F)c5ccc2[nH]5)C=C4)C=C3)cc1)n1nnnc1-c1csc(I)c1
REMARK SMILES IDX 7 1 6 2 5 3 3 4 4 5 2 7 1 8 76 9 77 10 80 11 78 12 79 13
REMARK SMILES IDX 81 14 82 15 86 16 83 17 84 18 85 19 8 20 9 21 10 22 11 23
REMARK SMILES IDX 12 25 13 26 14 27 75 28 15 29 74 30 16 31 17 32 18 33 68 34
REMARK SMILES IDX 19 35 73 36 67 37 69 38 20 39 72 40 66 41 65 42 21 44 53 45
REMARK SMILES IDX 33 46 52 47 34 48 37 49 51 50 70 51 35 52 36 53 50 55 71 56
REMARK SMILES IDX 38 57 22 58 23 59 31 60 24 61 25 62 29 63 32 64 26 65 27 66
REMARK SMILES IDX 30 67 28 68 54 69 55 70 63 71 56 72 57 73 61 74 64 75 58 76
REMARK SMILES IDX 59 77 62 78 60 79 39 80 40 81 48 82 41 83 42 84 46 85 49 86
REMARK SMILES IDX 43 87 44 88 47 89 45 90
REMARK H PARENT 5 6 10 24 69 43 37 54
REMARK Flexibility Score: inf
ROOT
ATOM      1  C   UNL A   1      32.129  27.567  27.197  1.00  0.00     0.023 C 
ENDROOT
BRANCH   1   2
ATOM      2  C   UNL A   1      31.662  26.608  26.111  1.00  0.00     0.116 C 
BRANCH   2   3
ATOM      3  N   UNL A   1      30.946  25.496  26.699  1.00  0.00    -0.354 N 
ATOM      4  C   UNL A   1      31.314  24.186  26.827  1.00  0.00     0.244 C 
ATOM      5  O   UNL A   1      30.452  23.413  27.249  1.00  0.00    -0.273 OA
ATOM      6  H   UNL A   1      30.059  25.718  27.063  1.00  0.00     0.163 HD
BRANCH   4   7
ATOM      7  C   UNL A   1      32.743  23.733  26.511  1.00  0.00     0.197 C 
ATOM      8  C   UNL A   1      33.092  22.567  27.441  1.00  0.00     0.044 C 
BRANCH   7   9
ATOM      9  N   UNL A   1      32.881  23.388  25.106  1.00  0.00    -0.213 N 
ATOM     10  N   UNL A   1      31.822  23.512  24.279  1.00  0.00    -0.044 NA
ATOM     11  C   UNL A   1      33.999  23.089  24.358  1.00  0.00     0.183 A 
ATOM     12  N   UNL A   1      32.312  23.414  23.056  1.00  0.00    -0.023 NA
ATOM     13  N   UNL A   1      33.661  23.196  23.088  1.00  0.00    -0.108 NA
BRANCH  11  14
ATOM     14  C   UNL A   1      35.395  22.752  24.772  1.00  0.00     0.033 A 
ATOM     15  C   UNL A   1      36.012  21.528  24.627  1.00  0.00     0.078 A 
ATOM     16  C   UNL A   1      36.272  23.718  25.371  1.00  0.00     0.038 A 
ATOM     17  S   UNL A   1      37.613  21.533  25.263  1.00  0.00    -0.137 S 
ATOM     18  C   UNL A   1      37.463  23.150  25.749  1.00  0.00     0.066 A 
ATOM     19  I   UNL A   1      38.904  24.136  26.830  1.00  0.00    -0.032 I 
ENDBRANCH  11  14
ENDBRANCH   7   9
ENDBRANCH   4   7
ENDBRANCH   2   3
ENDBRANCH   1   2
BRANCH   1  20
ATOM     20  C   UNL A   1      31.744  29.023  26.991  1.00  0.00     0.023 C 
BRANCH  20  21
ATOM     21  C   UNL A   1      32.871  29.896  26.455  1.00  0.00     0.116 C 
BRANCH  21  22
ATOM     22  N   UNL A   1      32.769  31.303  26.828  1.00  0.00    -0.352 N 
ATOM     23  C   UNL A   1      33.658  32.087  27.533  1.00  0.00     0.251 C 
ATOM     24  H   UNL A   1      31.948  31.759  26.533  1.00  0.00     0.163 HD
ATOM     25  O   UNL A   1      33.387  33.242  27.808  1.00  0.00    -0.269 OA
BRANCH  23  26
ATOM     26  C   UNL A   1      34.925  31.485  27.997  1.00  0.00     0.039 A 
ATOM     27  C   UNL A   1      36.041  32.308  28.166  1.00  0.00     0.014 A 
ATOM     28  C   UNL A   1      34.980  30.135  28.344  1.00  0.00     0.014 A 
ATOM     29  C   UNL A   1      37.182  31.797  28.789  1.00  0.00     0.010 A 
ATOM     30  C   UNL A   1      36.072  29.659  29.055  1.00  0.00     0.010 A 
ATOM     31  C   UNL A   1      37.181  30.487  29.293  1.00  0.00    -0.014 A 
BRANCH  31  32
ATOM     32  C   UNL A   1      38.319  29.945  30.076  1.00  0.00     0.031 A 
ATOM     33  C   UNL A   1      38.515  30.387  31.500  1.00  0.00     0.074 A 
ATOM     34  C   UNL A   1      39.234  29.157  29.477  1.00  0.00     0.049 A 
ATOM     35  N   UNL A   1      39.528  30.181  32.300  1.00  0.00    -0.248 NA
ATOM     36  C   UNL A   1      37.445  31.213  32.085  1.00  0.00     0.031 C 
ATOM     37  C   UNL A   1      39.191  28.711  28.083  1.00  0.00     0.029 A 
ATOM     38  N   UNL A   1      40.394  28.607  29.964  1.00  0.00    -0.354 N 
ATOM     39  C   UNL A   1      39.238  30.886  33.461  1.00  0.00     0.074 A 
ATOM     40  C   UNL A   1      37.979  31.565  33.245  1.00  0.00     0.031 C 
ATOM     41  C   UNL A   1      40.261  27.939  27.834  1.00  0.00     0.029 A 
ATOM     42  C   UNL A   1      41.085  27.868  29.035  1.00  0.00     0.049 A 
ATOM     43  H   UNL A   1      40.700  28.730  30.892  1.00  0.00     0.167 HD
ATOM     44  C   UNL A   1      39.946  30.942  34.613  1.00  0.00     0.037 A 
ATOM     45  C   UNL A   1      42.259  27.216  29.142  1.00  0.00     0.037 A 
ATOM     46  C   UNL A   1      41.163  30.212  34.846  1.00  0.00     0.049 A 
ATOM     47  C   UNL A   1      42.998  27.250  30.452  1.00  0.00     0.074 A 
ATOM     48  C   UNL A   1      41.916  30.136  36.004  1.00  0.00     0.029 A 
ATOM     49  N   UNL A   1      41.797  29.419  33.901  1.00  0.00    -0.354 N 
ATOM     50  N   UNL A   1      42.686  27.874  31.560  1.00  0.00    -0.248 NA
ATOM     51  C   UNL A   1      44.250  26.483  30.526  1.00  0.00     0.031 C 
ATOM     52  C   UNL A   1      43.020  29.315  35.753  1.00  0.00     0.029 A 
ATOM     53  C   UNL A   1      42.935  28.852  34.450  1.00  0.00     0.049 A 
ATOM     54  H   UNL A   1      41.485  29.280  32.979  1.00  0.00     0.167 HD
ATOM     55  C   UNL A   1      43.684  27.555  32.471  1.00  0.00     0.074 A 
ATOM     56  C   UNL A   1      44.606  26.671  31.788  1.00  0.00     0.031 C 
ATOM     57  C   UNL A   1      43.826  27.960  33.756  1.00  0.00     0.037 A 
BRANCH  44  58
ATOM     58  C   UNL A   1      39.411  31.808  35.715  1.00  0.00     0.064 A 
ATOM     59  C   UNL A   1      38.463  31.329  36.631  1.00  0.00     0.173 A 
ATOM     60  C   UNL A   1      39.872  33.123  35.874  1.00  0.00     0.173 A 
ATOM     61  F   UNL A   1      37.979  30.083  36.512  1.00  0.00    -0.203 F 
ATOM     62  C   UNL A   1      37.974  32.144  37.648  1.00  0.00     0.198 A 
ATOM     63  C   UNL A   1      39.402  33.926  36.910  1.00  0.00     0.198 A 
ATOM     64  F   UNL A   1      40.780  33.629  35.026  1.00  0.00    -0.203 F 
ATOM     65  F   UNL A   1      37.030  31.682  38.479  1.00  0.00    -0.200 F 
ATOM     66  C   UNL A   1      38.448  33.439  37.790  1.00  0.00     0.200 A 
ATOM     67  F   UNL A   1      39.869  35.174  37.053  1.00  0.00    -0.200 F 
ATOM     68  F   UNL A   1      37.980  34.221  38.773  1.00  0.00    -0.200 F 
ENDBRANCH  44  58
BRANCH  45  69
ATOM     69  C   UNL A   1      42.793  26.450  27.987  1.00  0.00     0.064 A 
ATOM     70  C   UNL A   1      43.560  27.086  27.001  1.00  0.00     0.173 A 
ATOM     71  C   UNL A   1      42.544  25.078  27.836  1.00  0.00     0.173 A 
ATOM     72  F   UNL A   1      43.808  28.401  27.091  1.00  0.00    -0.203 F 
ATOM     73  C   UNL A   1      44.038  26.386  25.895  1.00  0.00     0.198 A 
ATOM     74  C   UNL A   1      43.044  24.373  26.743  1.00  0.00     0.198 A 
ATOM     75  F   UNL A   1      41.820  24.423  28.755  1.00  0.00    -0.203 F 
ATOM     76  F   UNL A   1      44.730  27.029  24.945  1.00  0.00    -0.200 F 
ATOM     77  C   UNL A   1      43.783  25.028  25.770  1.00  0.00     0.200 A 
ATOM     78  F   UNL A   1      42.806  23.059  26.630  1.00  0.00    -0.200 F 
ATOM     79  F   UNL A   1      44.243  24.354  24.707  1.00  0.00    -0.200 F 
ENDBRANCH  45  69
BRANCH  57  80
ATOM     80  C   UNL A   1      44.996  27.417  34.520  1.00  0.00     0.064 A 
ATOM     81  C   UNL A   1      44.918  26.203  35.216  1.00  0.00     0.173 A 
ATOM     82  C   UNL A   1      46.222  28.099  34.515  1.00  0.00     0.173 A 
ATOM     83  F   UNL A   1      43.762  25.524  35.262  1.00  0.00    -0.203 F 
ATOM     84  C   UNL A   1      46.023  25.699  35.897  1.00  0.00     0.198 A 
ATOM     85  C   UNL A   1      47.331  27.579  35.174  1.00  0.00     0.198 A 
ATOM     86  F   UNL A   1      46.347  29.261  33.857  1.00  0.00    -0.203 F 
ATOM     87  F   UNL A   1      45.916  24.556  36.588  1.00  0.00    -0.200 F 
ATOM     88  C   UNL A   1      47.230  26.384  35.870  1.00  0.00     0.200 A 
ATOM     89  F   UNL A   1      48.500  28.235  35.138  1.00  0.00    -0.200 F 
ATOM     90  F   UNL A   1      48.294  25.892  36.519  1.00  0.00    -0.200 F 
ENDBRANCH  57  80
ENDBRANCH  31  32
ENDBRANCH  23  26
ENDBRANCH  21  22
ENDBRANCH  20  21
ENDBRANCH   1  20
TORSDOF 13
ENDMDL
MODEL 3
REMARK VINA RESULT:     -11.8      3.441      4.739
REMARK SMILES C[C@H](C(=O)NCCCCNC(=O)c1ccc(-c2c3nc(c(-c4c(F)c(F)c(F)c(F)c4F)c4ccc([nH]4)c(-c4c(F)c(F)c(F)c(F)c4F)c4nc(c(-c5c(F)c(F)c(F)c(F)c5F)c5ccc2[nH]5)C=C4)C=C3)cc1)n1nnnc1-c1csc(I)c1
REMARK SMILES IDX 7 1 6 2 5 3 3 4 4 5 2 7 1 8 76 9 77 10 80 11 78 12 79 13
REMARK SMILES IDX 81 14 82 15 86 16 83 17 84 18 85 19 8 20 9 21 10 22 11 23
REMARK SMILES IDX 12 25 13 26 14 27 75 28 15 29 74 30 16 31 17 32 18 33 68 34
REMARK SMILES IDX 19 35 73 36 67 37 69 38 20 39 72 40 66 41 65 42 21 44 53 45
REMARK SMILES IDX 33 46 52 47 34 48 37 49 51 50 70 51 35 52 36 53 50 55 71 56
REMARK SMILES IDX 38 57 22 58 23 59 31 60 24 61 25 62 29 63 32 64 26 65 27 66
REMARK SMILES IDX 30 67 28 68 54 69 55 70 63 71 56 72 57 73 61 74 64 75 58 76
REMARK SMILES IDX 59 77 62 78 60 79 39 80 40 81 48 82 41 83 42 84 46 85 49 86
REMARK SMILES IDX 43 87 44 88 47 89 45 90
REMARK H PARENT 5 6 10 24 69 43 37 54
REMARK Flexibility Score: inf
ROOT
ATOM      1  C   UNL A   1      33.268  29.364  24.852  1.00  0.00     0.023 C 
ENDROOT
BRANCH   1   2
ATOM      2  C   UNL A   1      33.234  28.938  23.391  1.00  0.00     0.116 C 
BRANCH   2   3
ATOM      3  N   UNL A   1      31.877  28.981  22.889  1.00  0.00    -0.354 N 
ATOM      4  C   UNL A   1      30.970  27.970  22.726  1.00  0.00     0.244 C 
ATOM      5  O   UNL A   1      29.923  28.262  22.146  1.00  0.00    -0.273 OA
ATOM      6  H   UNL A   1      31.559  29.874  22.625  1.00  0.00     0.163 HD
BRANCH   4   7
ATOM      7  C   UNL A   1      31.237  26.572  23.292  1.00  0.00     0.197 C 
ATOM      8  C   UNL A   1      29.894  25.959  23.703  1.00  0.00     0.044 C 
BRANCH   7   9
ATOM      9  N   UNL A   1      31.957  25.751  22.333  1.00  0.00    -0.213 N 
ATOM     10  N   UNL A   1      32.114  26.185  21.065  1.00  0.00    -0.044 NA
ATOM     11  C   UNL A   1      32.704  24.607  22.509  1.00  0.00     0.183 A 
ATOM     12  N   UNL A   1      33.028  25.396  20.529  1.00  0.00    -0.023 NA
ATOM     13  N   UNL A   1      33.433  24.444  21.423  1.00  0.00    -0.108 NA
BRANCH  11  14
ATOM     14  C   UNL A   1      32.810  23.674  23.672  1.00  0.00     0.033 A 
ATOM     15  C   UNL A   1      33.087  24.028  24.975  1.00  0.00     0.078 A 
ATOM     16  C   UNL A   1      32.610  22.259  23.541  1.00  0.00     0.038 A 
ATOM     17  S   UNL A   1      33.162  22.657  26.014  1.00  0.00    -0.137 S 
ATOM     18  C   UNL A   1      32.854  21.605  24.722  1.00  0.00     0.066 A 
ATOM     19  I   UNL A   1      32.887  19.559  24.907  1.00  0.00    -0.032 I 
ENDBRANCH  11  14
ENDBRANCH   7   9
ENDBRANCH   4   7
ENDBRANCH   2   3
ENDBRANCH   1   2
BRANCH   1  20
ATOM     20  C   UNL A   1      33.784  28.316  25.825  1.00  0.00     0.023 C 
BRANCH  20  21
ATOM     21  C   UNL A   1      33.459  28.605  27.284  1.00  0.00     0.116 C 
BRANCH  21  22
ATOM     22  N   UNL A   1      33.512  30.017  27.644  1.00  0.00    -0.352 N 
ATOM     23  C   UNL A   1      34.568  30.755  28.136  1.00  0.00     0.251 C 
ATOM     24  H   UNL A   1      32.673  30.516  27.516  1.00  0.00     0.163 HD
ATOM     25  O   UNL A   1      34.422  31.925  28.440  1.00  0.00    -0.269 OA
BRANCH  23  26
ATOM     26  C   UNL A   1      35.870  30.086  28.339  1.00  0.00     0.039 A 
ATOM     27  C   UNL A   1      36.833  30.165  27.330  1.00  0.00     0.014 A 
ATOM     28  C   UNL A   1      36.163  29.465  29.553  1.00  0.00     0.014 A 
ATOM     29  C   UNL A   1      38.130  29.713  27.584  1.00  0.00     0.010 A 
ATOM     30  C   UNL A   1      37.474  29.115  29.839  1.00  0.00     0.010 A 
ATOM     31  C   UNL A   1      38.474  29.242  28.861  1.00  0.00    -0.014 A 
BRANCH  31  32
ATOM     32  C   UNL A   1      39.867  28.876  29.216  1.00  0.00     0.031 A 
ATOM     33  C   UNL A   1      40.714  29.847  29.991  1.00  0.00     0.074 A 
ATOM     34  C   UNL A   1      40.404  27.734  28.741  1.00  0.00     0.049 A 
ATOM     35  N   UNL A   1      41.994  29.808  30.250  1.00  0.00    -0.248 NA
ATOM     36  C   UNL A   1      40.034  31.048  30.504  1.00  0.00     0.031 C 
ATOM     37  C   UNL A   1      39.706  26.741  27.923  1.00  0.00     0.029 A 
ATOM     38  N   UNL A   1      41.674  27.226  28.866  1.00  0.00    -0.354 N 
ATOM     39  C   UNL A   1      42.279  30.994  30.914  1.00  0.00     0.074 A 
ATOM     40  C   UNL A   1      41.050  31.754  30.975  1.00  0.00     0.031 C 
ATOM     41  C   UNL A   1      40.548  25.734  27.638  1.00  0.00     0.029 A 
ATOM     42  C   UNL A   1      41.854  26.029  28.217  1.00  0.00     0.049 A 
ATOM     43  H   UNL A   1      42.387  27.677  29.373  1.00  0.00     0.167 HD
ATOM     44  C   UNL A   1      43.455  31.402  31.446  1.00  0.00     0.037 A 
ATOM     45  C   UNL A   1      42.954  25.261  28.097  1.00  0.00     0.037 A 
ATOM     46  C   UNL A   1      44.658  30.614  31.439  1.00  0.00     0.049 A 
ATOM     47  C   UNL A   1      44.234  25.712  28.746  1.00  0.00     0.074 A 
ATOM     48  C   UNL A   1      45.880  30.899  32.021  1.00  0.00     0.029 A 
ATOM     49  N   UNL A   1      44.782  29.374  30.830  1.00  0.00    -0.354 N 
ATOM     50  N   UNL A   1      44.478  26.809  29.419  1.00  0.00    -0.248 NA
ATOM     51  C   UNL A   1      45.391  24.815  28.623  1.00  0.00     0.031 C 
ATOM     52  C   UNL A   1      46.752  29.841  31.743  1.00  0.00     0.029 A 
ATOM     53  C   UNL A   1      46.062  28.882  31.019  1.00  0.00     0.049 A 
ATOM     54  H   UNL A   1      44.066  28.911  30.338  1.00  0.00     0.167 HD
ATOM     55  C   UNL A   1      45.803  26.724  29.822  1.00  0.00     0.074 A 
ATOM     56  C   UNL A   1      46.308  25.459  29.329  1.00  0.00     0.031 C 
ATOM     57  C   UNL A   1      46.536  27.612  30.535  1.00  0.00     0.037 A 
BRANCH  44  58
ATOM     58  C   UNL A   1      43.491  32.753  32.094  1.00  0.00     0.064 A 
ATOM     59  C   UNL A   1      43.787  33.912  31.361  1.00  0.00     0.173 A 
ATOM     60  C   UNL A   1      43.199  32.897  33.459  1.00  0.00     0.173 A 
ATOM     61  F   UNL A   1      44.088  33.826  30.056  1.00  0.00    -0.203 F 
ATOM     62  C   UNL A   1      43.818  35.160  31.976  1.00  0.00     0.198 A 
ATOM     63  C   UNL A   1      43.203  34.151  34.064  1.00  0.00     0.198 A 
ATOM     64  F   UNL A   1      42.908  31.821  34.205  1.00  0.00    -0.203 F 
ATOM     65  F   UNL A   1      44.156  36.247  31.266  1.00  0.00    -0.200 F 
ATOM     66  C   UNL A   1      43.520  35.280  33.324  1.00  0.00     0.200 A 
ATOM     67  F   UNL A   1      42.905  34.266  35.366  1.00  0.00    -0.200 F 
ATOM     68  F   UNL A   1      43.546  36.483  33.914  1.00  0.00    -0.200 F 
ENDBRANCH  44  58
BRANCH  45  69
ATOM     69  C   UNL A   1      42.888  23.973  27.361  1.00  0.00     0.064 A 
ATOM     70  C   UNL A   1      42.482  22.798  28.010  1.00  0.00     0.173 A 
ATOM     71  C   UNL A   1      43.235  23.883  26.005  1.00  0.00     0.173 A 
ATOM     72  F   UNL A   1      42.161  22.831  29.312  1.00  0.00    -0.203 F 
ATOM     73  C   UNL A   1      42.449  21.578  27.339  1.00  0.00     0.198 A 
ATOM     74  C   UNL A   1      43.177  22.666  25.327  1.00  0.00     0.198 A 
ATOM     75  F   UNL A   1      43.624  24.979  25.338  1.00  0.00    -0.203 F 
ATOM     76  F   UNL A   1      42.102  20.464  27.996  1.00  0.00    -0.200 F 
ATOM     77  C   UNL A   1      42.792  21.514  25.996  1.00  0.00     0.200 A 
ATOM     78  F   UNL A   1      43.497  22.610  24.028  1.00  0.00    -0.200 F 
ATOM     79  F   UNL A   1      42.760  20.341  25.350  1.00  0.00    -0.200 F 
ENDBRANCH  45  69
BRANCH  57  80
ATOM     80  C   UNL A   1      47.949  27.230  30.861  1.00  0.00     0.064 A 
ATOM     81  C   UNL A   1      48.257  26.449  31.983  1.00  0.00     0.173 A 
ATOM     82  C   UNL A   1      48.998  27.612  30.012  1.00  0.00     0.173 A 
ATOM     83  F   UNL A   1      47.287  26.073  32.831  1.00  0.00    -0.203 F 
ATOM     84  C   UNL A   1      49.571  26.079  32.255  1.00  0.00     0.198 A 
ATOM     85  C   UNL A   1      50.307  27.219  30.273  1.00  0.00     0.198 A 
ATOM     86  F   UNL A   1      48.751  28.354  28.923  1.00  0.00    -0.203 F 
ATOM     87  F   UNL A   1      49.850  25.365  33.354  1.00  0.00    -0.200 F 
ATOM     88  C   UNL A   1      50.593  26.458  31.397  1.00  0.00     0.200 A 
ATOM     89  F   UNL A   1      51.292  27.575  29.437  1.00  0.00    -0.200 F 
ATOM     90  F   UNL A   1      51.856  26.093  31.656  1.00  0.00    -0.200 F 
ENDBRANCH  57  80
ENDBRANCH  31  32
ENDBRANCH  23  26
ENDBRANCH  21  22
ENDBRANCH  20  21
ENDBRANCH   1  20
TORSDOF 13
ENDMDL
