MODEL 1
REMARK VINA RESULT:     -14.1      0.000      0.000
REMARK SMILES O=C(C[C@H](NC(=O)[C@]12C[C@H]3C[C@H](C[C@H](C3)C1)C2)c1cccc([N+](=O)[O-])c1)NCCCCNC(=O)c1ccc(-c2c3nc(c(-c4c(F)c(F)c(F)c(F)c4F)c4ccc([nH]4)c(-c4c(F)c(F)c(F)c(F)c4F)c4nc(c(-c5c(F)c(F)c(F)c(F)c5F)c5ccc2[nH]5)C=C4)C=C3)cc1
REMARK SMILES IDX 29 1 28 2 27 3 1 4 2 5 3 7 4 8 18 9 19 10 26 11 20 12 22 13
REMARK SMILES IDX 21 14 23 15 24 16 25 17 5 18 6 19 7 21 8 22 9 23 16 24 17 25
REMARK SMILES IDX 10 26 14 27 12 28 11 29 15 30 13 31 30 32 31 33 32 34 33 35
REMARK SMILES IDX 34 37 35 38 36 39 97 40 37 41 96 42 38 43 39 44 40 45 90 46
REMARK SMILES IDX 41 47 95 48 89 49 91 50 42 51 94 52 88 53 87 54 43 56 75 57
REMARK SMILES IDX 55 58 74 59 56 60 59 61 73 62 92 63 57 64 58 65 72 67 93 68
REMARK SMILES IDX 60 69 44 70 45 71 53 72 46 73 47 74 51 75 54 76 48 77 49 78
REMARK SMILES IDX 52 79 50 80 76 81 77 82 85 83 78 84 79 85 83 86 86 87 80 88
REMARK SMILES IDX 81 89 84 90 82 91 61 92 62 93 70 94 63 95 64 96 68 97 71 98
REMARK SMILES IDX 65 99 66 100 69 101 67 102
REMARK H PARENT 27 6 5 20 32 36 91 55 59 66
REMARK Flexibility Score: inf
ROOT
ATOM      1  C   UNL A   1      31.762  30.572  26.516  1.00  0.00     0.023 C 
ENDROOT
BRANCH   1   2
ATOM      2  C   UNL A   1      33.225  30.201  26.263  1.00  0.00     0.116 C 
BRANCH   2   3
ATOM      3  N   UNL A   1      33.476  29.405  25.073  1.00  0.00    -0.356 N 
ATOM      4  O   UNL A   1      33.750  27.455  26.213  1.00  0.00    -0.275 OA
ATOM      5  C   UNL A   1      33.589  28.042  25.144  1.00  0.00     0.222 C 
ATOM      6  H   UNL A   1      33.566  29.854  24.201  1.00  0.00     0.163 HD
BRANCH   5   7
ATOM      7  C   UNL A   1      33.571  27.246  23.855  1.00  0.00     0.129 C 
BRANCH   7   8
ATOM      8  C   UNL A   1      32.598  26.065  23.683  1.00  0.00     0.122 C 
BRANCH   8   9
ATOM      9  C   UNL A   1      31.151  26.561  23.523  1.00  0.00    -0.018 A 
ATOM     10  C   UNL A   1      30.104  25.833  24.123  1.00  0.00     0.006 A 
ATOM     11  C   UNL A   1      30.812  27.743  22.845  1.00  0.00     0.091 A 
ATOM     12  C   UNL A   1      28.786  26.300  24.113  1.00  0.00     0.007 A 
ATOM     13  C   UNL A   1      29.497  28.236  22.881  1.00  0.00     0.269 A 
ATOM     14  C   UNL A   1      28.479  27.517  23.511  1.00  0.00     0.085 A 
BRANCH  13  15
ATOM     15  N   UNL A   1      29.200  29.552  22.297  1.00  0.00     0.062 N 
ATOM     16  O   UNL A   1      28.319  30.235  22.837  1.00  0.00    -0.258 OA
ATOM     17  O   UNL A   1      29.863  29.908  21.313  1.00  0.00    -0.258 OA
ENDBRANCH  13  15
ENDBRANCH   8   9
BRANCH   8  18
ATOM     18  N   UNL A   1      32.941  24.953  22.776  1.00  0.00    -0.348 N 
ATOM     19  C   UNL A   1      33.819  23.925  22.649  1.00  0.00     0.226 C 
ATOM     20  H   UNL A   1      32.329  24.959  22.004  1.00  0.00     0.164 HD
ATOM     21  O   UNL A   1      33.804  23.397  21.528  1.00  0.00    -0.274 OA
BRANCH  19  22
ATOM     22  C   UNL A   1      34.726  23.355  23.755  1.00  0.00     0.050 C 
ATOM     23  C   UNL A   1      34.983  24.349  24.900  1.00  0.00     0.020 C 
ATOM     24  C   UNL A   1      36.136  22.982  23.187  1.00  0.00     0.020 C 
ATOM     25  C   UNL A   1      34.131  22.030  24.256  1.00  0.00     0.020 C 
ATOM     26  C   UNL A   1      35.821  23.715  26.015  1.00  0.00    -0.010 C 
ATOM     27  C   UNL A   1      37.023  22.348  24.285  1.00  0.00    -0.010 C 
ATOM     28  C   UNL A   1      34.965  21.428  25.389  1.00  0.00    -0.010 C 
ATOM     29  C   UNL A   1      35.099  22.458  26.524  1.00  0.00     0.007 C 
ATOM     30  C   UNL A   1      37.196  23.342  25.444  1.00  0.00     0.007 C 
ATOM     31  C   UNL A   1      36.350  21.078  24.834  1.00  0.00     0.007 C 
ENDBRANCH  19  22
ENDBRANCH   8  18
ENDBRANCH   7   8
ENDBRANCH   5   7
ENDBRANCH   2   3
ENDBRANCH   1   2
BRANCH   1  32
ATOM     32  C   UNL A   1      31.506  32.049  26.800  1.00  0.00     0.023 C 
BRANCH  32  33
ATOM     33  C   UNL A   1      32.719  32.827  27.287  1.00  0.00     0.116 C 
BRANCH  33  34
ATOM     34  N   UNL A   1      32.407  34.203  27.639  1.00  0.00    -0.352 N 
ATOM     35  C   UNL A   1      32.977  34.998  28.608  1.00  0.00     0.251 C 
ATOM     36  H   UNL A   1      31.691  34.625  27.112  1.00  0.00     0.163 HD
ATOM     37  O   UNL A   1      32.505  36.096  28.868  1.00  0.00    -0.269 OA
BRANCH  35  38
ATOM     38  C   UNL A   1      34.148  34.499  29.361  1.00  0.00     0.039 A 
ATOM     39  C   UNL A   1      33.943  33.909  30.611  1.00  0.00     0.014 A 
ATOM     40  C   UNL A   1      35.436  34.589  28.826  1.00  0.00     0.014 A 
ATOM     41  C   UNL A   1      35.023  33.347  31.293  1.00  0.00     0.010 A 
ATOM     42  C   UNL A   1      36.496  33.958  29.470  1.00  0.00     0.010 A 
ATOM     43  C   UNL A   1      36.302  33.331  30.711  1.00  0.00    -0.014 A 
BRANCH  43  44
ATOM     44  C   UNL A   1      37.445  32.663  31.383  1.00  0.00     0.031 A 
ATOM     45  C   UNL A   1      38.125  31.490  30.735  1.00  0.00     0.074 A 
ATOM     46  C   UNL A   1      37.831  33.073  32.608  1.00  0.00     0.049 A 
ATOM     47  N   UNL A   1      39.091  30.734  31.192  1.00  0.00    -0.248 NA
ATOM     48  C   UNL A   1      37.634  31.096  29.405  1.00  0.00     0.031 C 
ATOM     49  C   UNL A   1      37.221  34.168  33.364  1.00  0.00     0.029 A 
ATOM     50  N   UNL A   1      38.823  32.611  33.437  1.00  0.00    -0.354 N 
ATOM     51  C   UNL A   1      39.316  29.776  30.212  1.00  0.00     0.074 A 
ATOM     52  C   UNL A   1      38.345  30.004  29.166  1.00  0.00     0.031 C 
ATOM     53  C   UNL A   1      37.864  34.306  34.534  1.00  0.00     0.029 A 
ATOM     54  C   UNL A   1      38.905  33.287  34.630  1.00  0.00     0.049 A 
ATOM     55  H   UNL A   1      39.420  31.866  33.199  1.00  0.00     0.167 HD
ATOM     56  C   UNL A   1      40.267  28.810  30.177  1.00  0.00     0.037 A 
ATOM     57  C   UNL A   1      39.718  33.099  35.687  1.00  0.00     0.037 A 
ATOM     58  C   UNL A   1      41.242  28.598  31.214  1.00  0.00     0.049 A 
ATOM     59  C   UNL A   1      40.754  32.007  35.630  1.00  0.00     0.074 A 
ATOM     60  C   UNL A   1      42.276  27.678  31.250  1.00  0.00     0.029 A 
ATOM     61  N   UNL A   1      41.303  29.313  32.402  1.00  0.00    -0.354 N 
ATOM     62  N   UNL A   1      41.001  31.150  34.670  1.00  0.00    -0.248 NA
ATOM     63  C   UNL A   1      41.629  31.864  36.801  1.00  0.00     0.031 C 
ATOM     64  C   UNL A   1      42.928  27.800  32.481  1.00  0.00     0.029 A 
ATOM     65  C   UNL A   1      42.340  28.838  33.187  1.00  0.00     0.049 A 
ATOM     66  H   UNL A   1      40.698  30.049  32.649  1.00  0.00     0.167 HD
ATOM     67  C   UNL A   1      42.075  30.387  35.106  1.00  0.00     0.074 A 
ATOM     68  C   UNL A   1      42.444  30.894  36.411  1.00  0.00     0.031 C 
ATOM     69  C   UNL A   1      42.700  29.357  34.482  1.00  0.00     0.037 A 
BRANCH  56  70
ATOM     70  C   UNL A   1      40.297  27.912  28.973  1.00  0.00     0.064 A 
ATOM     71  C   UNL A   1      41.052  28.232  27.834  1.00  0.00     0.173 A 
ATOM     72  C   UNL A   1      39.593  26.698  28.971  1.00  0.00     0.173 A 
ATOM     73  F   UNL A   1      41.736  29.386  27.779  1.00  0.00    -0.203 F 
ATOM     74  C   UNL A   1      41.074  27.388  26.727  1.00  0.00     0.198 A 
ATOM     75  C   UNL A   1      39.644  25.840  27.875  1.00  0.00     0.198 A 
ATOM     76  F   UNL A   1      38.859  26.339  30.035  1.00  0.00    -0.203 F 
ATOM     77  F   UNL A   1      41.757  27.743  25.629  1.00  0.00    -0.200 F 
ATOM     78  C   UNL A   1      40.377  26.190  26.751  1.00  0.00     0.200 A 
ATOM     79  F   UNL A   1      38.982  24.677  27.906  1.00  0.00    -0.200 F 
ATOM     80  F   UNL A   1      40.405  25.376  25.687  1.00  0.00    -0.200 F 
ENDBRANCH  56  70
BRANCH  57  81
ATOM     81  C   UNL A   1      39.598  33.974  36.884  1.00  0.00     0.064 A 
ATOM     82  C   UNL A   1      38.834  33.583  37.991  1.00  0.00     0.173 A 
ATOM     83  C   UNL A   1      40.236  35.222  36.941  1.00  0.00     0.173 A 
ATOM     84  F   UNL A   1      38.188  32.407  37.976  1.00  0.00    -0.203 F 
ATOM     85  C   UNL A   1      38.691  34.415  39.100  1.00  0.00     0.198 A 
ATOM     86  C   UNL A   1      40.119  36.040  38.063  1.00  0.00     0.198 A 
ATOM     87  F   UNL A   1      40.985  35.642  35.911  1.00  0.00    -0.203 F 
ATOM     88  F   UNL A   1      37.910  34.038  40.121  1.00  0.00    -0.200 F 
ATOM     89  C   UNL A   1      39.338  35.641  39.137  1.00  0.00     0.200 A 
ATOM     90  F   UNL A   1      40.759  37.216  38.101  1.00  0.00    -0.200 F 
ATOM     91  F   UNL A   1      39.202  36.440  40.204  1.00  0.00    -0.200 F 
ENDBRANCH  57  81
BRANCH  69  92
ATOM     92  C   UNL A   1      43.874  28.734  35.185  1.00  0.00     0.064 A 
ATOM     93  C   UNL A   1      45.187  29.172  34.961  1.00  0.00     0.173 A 
ATOM     94  C   UNL A   1      43.674  27.712  36.126  1.00  0.00     0.173 A 
ATOM     95  F   UNL A   1      45.433  30.137  34.061  1.00  0.00    -0.203 F 
ATOM     96  C   UNL A   1      46.260  28.591  35.632  1.00  0.00     0.198 A 
ATOM     97  C   UNL A   1      44.746  27.157  36.820  1.00  0.00     0.198 A 
ATOM     98  F   UNL A   1      42.437  27.262  36.384  1.00  0.00    -0.203 F 
ATOM     99  F   UNL A   1      47.510  28.990  35.364  1.00  0.00    -0.200 F 
ATOM    100  C   UNL A   1      46.037  27.590  36.566  1.00  0.00     0.200 A 
ATOM    101  F   UNL A   1      44.526  26.202  37.735  1.00  0.00    -0.200 F 
ATOM    102  F   UNL A   1      47.070  27.038  37.217  1.00  0.00    -0.200 F 
ENDBRANCH  69  92
ENDBRANCH  43  44
ENDBRANCH  35  38
ENDBRANCH  33  34
ENDBRANCH  32  33
ENDBRANCH   1  32
TORSDOF 16
ENDMDL
MODEL 2
REMARK VINA RESULT:     -14.0      0.138      1.559
REMARK SMILES O=C(C[C@H](NC(=O)[C@]12C[C@H]3C[C@H](C[C@H](C3)C1)C2)c1cccc([N+](=O)[O-])c1)NCCCCNC(=O)c1ccc(-c2c3nc(c(-c4c(F)c(F)c(F)c(F)c4F)c4ccc([nH]4)c(-c4c(F)c(F)c(F)c(F)c4F)c4nc(c(-c5c(F)c(F)c(F)c(F)c5F)c5ccc2[nH]5)C=C4)C=C3)cc1
REMARK SMILES IDX 29 1 28 2 27 3 1 4 2 5 3 7 4 8 18 9 19 10 26 11 20 12 22 13
REMARK SMILES IDX 21 14 23 15 24 16 25 17 5 18 6 19 7 21 8 22 9 23 16 24 17 25
REMARK SMILES IDX 10 26 14 27 12 28 11 29 15 30 13 31 30 32 31 33 32 34 33 35
REMARK SMILES IDX 34 37 35 38 36 39 97 40 37 41 96 42 38 43 39 44 40 45 90 46
REMARK SMILES IDX 41 47 95 48 89 49 91 50 42 51 94 52 88 53 87 54 43 56 75 57
REMARK SMILES IDX 55 58 74 59 56 60 59 61 73 62 92 63 57 64 58 65 72 67 93 68
REMARK SMILES IDX 60 69 44 70 45 71 53 72 46 73 47 74 51 75 54 76 48 77 49 78
REMARK SMILES IDX 52 79 50 80 76 81 77 82 85 83 78 84 79 85 83 86 86 87 80 88
REMARK SMILES IDX 81 89 84 90 82 91 61 92 62 93 70 94 63 95 64 96 68 97 71 98
REMARK SMILES IDX 65 99 66 100 69 101 67 102
REMARK H PARENT 27 6 5 20 32 36 91 55 59 66
REMARK Flexibility Score: inf
ROOT
ATOM      1  C   UNL A   1      31.778  30.599  26.477  1.00  0.00     0.023 C 
ENDROOT
BRANCH   1   2
ATOM      2  C   UNL A   1      33.250  30.206  26.325  1.00  0.00     0.116 C 
BRANCH   2   3
ATOM      3  N   UNL A   1      33.564  29.376  25.174  1.00  0.00    -0.356 N 
ATOM      4  O   UNL A   1      33.602  27.432  26.357  1.00  0.00    -0.275 OA
ATOM      5  C   UNL A   1      33.583  28.010  25.271  1.00  0.00     0.222 C 
ATOM      6  H   UNL A   1      33.766  29.804  24.311  1.00  0.00     0.163 HD
BRANCH   5   7
ATOM      7  C   UNL A   1      33.640  27.195  23.995  1.00  0.00     0.129 C 
BRANCH   7   8
ATOM      8  C   UNL A   1      32.631  26.057  23.753  1.00  0.00     0.122 C 
BRANCH   8   9
ATOM      9  C   UNL A   1      31.213  26.613  23.544  1.00  0.00    -0.018 A 
ATOM     10  C   UNL A   1      30.108  25.872  24.009  1.00  0.00     0.006 A 
ATOM     11  C   UNL A   1      30.953  27.859  22.951  1.00  0.00     0.091 A 
ATOM     12  C   UNL A   1      28.807  26.382  23.955  1.00  0.00     0.007 A 
ATOM     13  C   UNL A   1      29.653  28.391  22.945  1.00  0.00     0.269 A 
ATOM     14  C   UNL A   1      28.575  27.655  23.443  1.00  0.00     0.085 A 
BRANCH  13  15
ATOM     15  N   UNL A   1      29.432  29.761  22.460  1.00  0.00     0.062 N 
ATOM     16  O   UNL A   1      29.636  29.987  21.259  1.00  0.00    -0.258 OA
ATOM     17  O   UNL A   1      29.035  30.603  23.278  1.00  0.00    -0.258 OA
ENDBRANCH  13  15
ENDBRANCH   8   9
BRANCH   8  18
ATOM     18  N   UNL A   1      32.971  24.954  22.833  1.00  0.00    -0.348 N 
ATOM     19  C   UNL A   1      33.846  23.925  22.696  1.00  0.00     0.226 C 
ATOM     20  H   UNL A   1      32.359  24.971  22.062  1.00  0.00     0.164 HD
ATOM     21  O   UNL A   1      33.829  23.409  21.569  1.00  0.00    -0.274 OA
BRANCH  19  22
ATOM     22  C   UNL A   1      34.751  23.340  23.794  1.00  0.00     0.050 C 
ATOM     23  C   UNL A   1      34.995  24.314  24.960  1.00  0.00     0.020 C 
ATOM     24  C   UNL A   1      36.166  22.988  23.227  1.00  0.00     0.020 C 
ATOM     25  C   UNL A   1      34.163  22.002  24.267  1.00  0.00     0.020 C 
ATOM     26  C   UNL A   1      35.832  23.664  26.067  1.00  0.00    -0.010 C 
ATOM     27  C   UNL A   1      37.052  22.340  24.318  1.00  0.00    -0.010 C 
ATOM     28  C   UNL A   1      34.996  21.384  25.393  1.00  0.00    -0.010 C 
ATOM     29  C   UNL A   1      35.117  22.392  26.548  1.00  0.00     0.007 C 
ATOM     30  C   UNL A   1      37.212  23.312  25.496  1.00  0.00     0.007 C 
ATOM     31  C   UNL A   1      36.386  21.055  24.839  1.00  0.00     0.007 C 
ENDBRANCH  19  22
ENDBRANCH   8  18
ENDBRANCH   7   8
ENDBRANCH   5   7
ENDBRANCH   2   3
ENDBRANCH   1   2
BRANCH   1  32
ATOM     32  C   UNL A   1      31.526  32.077  26.758  1.00  0.00     0.023 C 
BRANCH  32  33
ATOM     33  C   UNL A   1      32.726  32.840  27.299  1.00  0.00     0.116 C 
BRANCH  33  34
ATOM     34  N   UNL A   1      32.414  34.216  27.648  1.00  0.00    -0.352 N 
ATOM     35  C   UNL A   1      32.980  35.013  28.618  1.00  0.00     0.251 C 
ATOM     36  H   UNL A   1      31.699  34.637  27.118  1.00  0.00     0.163 HD
ATOM     37  O   UNL A   1      32.508  36.111  28.874  1.00  0.00    -0.269 OA
BRANCH  35  38
ATOM     38  C   UNL A   1      34.149  34.514  29.375  1.00  0.00     0.039 A 
ATOM     39  C   UNL A   1      33.937  33.897  30.610  1.00  0.00     0.014 A 
ATOM     40  C   UNL A   1      35.442  34.631  28.859  1.00  0.00     0.014 A 
ATOM     41  C   UNL A   1      35.016  33.335  31.294  1.00  0.00     0.010 A 
ATOM     42  C   UNL A   1      36.503  34.001  29.503  1.00  0.00     0.010 A 
ATOM     43  C   UNL A   1      36.301  33.348  30.728  1.00  0.00    -0.014 A 
BRANCH  43  44
ATOM     44  C   UNL A   1      37.446  32.681  31.402  1.00  0.00     0.031 A 
ATOM     45  C   UNL A   1      38.118  31.499  30.761  1.00  0.00     0.074 A 
ATOM     46  C   UNL A   1      37.839  33.102  32.620  1.00  0.00     0.049 A 
ATOM     47  N   UNL A   1      39.082  30.743  31.220  1.00  0.00    -0.248 NA
ATOM     48  C   UNL A   1      37.618  31.094  29.437  1.00  0.00     0.031 C 
ATOM     49  C   UNL A   1      37.237  34.206  33.368  1.00  0.00     0.029 A 
ATOM     50  N   UNL A   1      38.834  32.643  33.448  1.00  0.00    -0.354 N 
ATOM     51  C   UNL A   1      39.299  29.775  30.249  1.00  0.00     0.074 A 
ATOM     52  C   UNL A   1      38.323  29.998  29.205  1.00  0.00     0.031 C 
ATOM     53  C   UNL A   1      37.888  34.353  34.534  1.00  0.00     0.029 A 
ATOM     54  C   UNL A   1      38.924  33.331  34.634  1.00  0.00     0.049 A 
ATOM     55  H   UNL A   1      39.427  31.894  33.215  1.00  0.00     0.167 HD
ATOM     56  C   UNL A   1      40.245  28.805  30.218  1.00  0.00     0.037 A 
ATOM     57  C   UNL A   1      39.742  33.150  35.689  1.00  0.00     0.037 A 
ATOM     58  C   UNL A   1      41.225  28.599  31.252  1.00  0.00     0.049 A 
ATOM     59  C   UNL A   1      40.773  32.053  35.638  1.00  0.00     0.074 A 
ATOM     60  C   UNL A   1      42.255  27.675  31.293  1.00  0.00     0.029 A 
ATOM     61  N   UNL A   1      41.294  29.325  32.433  1.00  0.00    -0.354 N 
ATOM     62  N   UNL A   1      41.011  31.185  34.685  1.00  0.00    -0.248 NA
ATOM     63  C   UNL A   1      41.654  31.918  36.805  1.00  0.00     0.031 C 
ATOM     64  C   UNL A   1      42.914  27.806  32.519  1.00  0.00     0.029 A 
ATOM     65  C   UNL A   1      42.334  28.853  33.218  1.00  0.00     0.049 A 
ATOM     66  H   UNL A   1      40.694  30.066  32.676  1.00  0.00     0.167 HD
ATOM     67  C   UNL A   1      42.085  30.422  35.123  1.00  0.00     0.074 A 
ATOM     68  C   UNL A   1      42.463  30.940  36.421  1.00  0.00     0.031 C 
ATOM     69  C   UNL A   1      42.702  29.384  34.506  1.00  0.00     0.037 A 
BRANCH  56  70
ATOM     70  C   UNL A   1      40.266  27.895  29.023  1.00  0.00     0.064 A 
ATOM     71  C   UNL A   1      41.019  28.200  27.879  1.00  0.00     0.173 A 
ATOM     72  C   UNL A   1      39.555  26.686  29.036  1.00  0.00     0.173 A 
ATOM     73  F   UNL A   1      41.708  29.349  27.810  1.00  0.00    -0.203 F 
ATOM     74  C   UNL A   1      41.031  27.345  26.780  1.00  0.00     0.198 A 
ATOM     75  C   UNL A   1      39.597  25.817  27.948  1.00  0.00     0.198 A 
ATOM     76  F   UNL A   1      38.823  26.341  30.106  1.00  0.00    -0.203 F 
ATOM     77  F   UNL A   1      41.712  27.686  25.676  1.00  0.00    -0.200 F 
ATOM     78  C   UNL A   1      40.327  26.152  26.818  1.00  0.00     0.200 A 
ATOM     79  F   UNL A   1      38.928  24.657  27.993  1.00  0.00    -0.200 F 
ATOM     80  F   UNL A   1      40.346  25.327  25.761  1.00  0.00    -0.200 F 
ENDBRANCH  56  70
BRANCH  57  81
ATOM     81  C   UNL A   1      39.632  34.036  36.878  1.00  0.00     0.064 A 
ATOM     82  C   UNL A   1      40.306  35.264  36.930  1.00  0.00     0.173 A 
ATOM     83  C   UNL A   1      38.858  33.671  37.990  1.00  0.00     0.173 A 
ATOM     84  F   UNL A   1      41.075  35.648  35.900  1.00  0.00    -0.203 F 
ATOM     85  C   UNL A   1      40.232  36.080  38.057  1.00  0.00     0.198 A 
ATOM     86  C   UNL A   1      38.759  34.504  39.103  1.00  0.00     0.198 A 
ATOM     87  F   UNL A   1      38.187  32.510  37.990  1.00  0.00    -0.203 F 
ATOM     88  F   UNL A   1      40.931  37.223  38.099  1.00  0.00    -0.200 F 
ATOM     89  C   UNL A   1      39.454  35.703  39.140  1.00  0.00     0.200 A 
ATOM     90  F   UNL A   1      37.993  34.141  40.141  1.00  0.00    -0.200 F 
ATOM     91  F   UNL A   1      39.381  36.489  40.223  1.00  0.00    -0.200 F 
ENDBRANCH  57  81
BRANCH  69  92
ATOM     92  C   UNL A   1      43.877  28.763  35.209  1.00  0.00     0.064 A 
ATOM     93  C   UNL A   1      43.725  27.681  36.088  1.00  0.00     0.173 A 
ATOM     94  C   UNL A   1      45.177  29.233  34.966  1.00  0.00     0.173 A 
ATOM     95  F   UNL A   1      42.502  27.203  36.365  1.00  0.00    -0.203 F 
ATOM     96  C   UNL A   1      44.827  27.111  36.720  1.00  0.00     0.198 A 
ATOM     97  C   UNL A   1      46.280  28.639  35.573  1.00  0.00     0.198 A 
ATOM     98  F   UNL A   1      45.379  30.261  34.127  1.00  0.00    -0.203 F 
ATOM     99  F   UNL A   1      44.652  26.112  37.596  1.00  0.00    -0.200 F 
ATOM    100  C   UNL A   1      46.103  27.585  36.455  1.00  0.00     0.200 A 
ATOM    101  F   UNL A   1      47.514  29.088  35.302  1.00  0.00    -0.200 F 
ATOM    102  F   UNL A   1      47.164  27.029  37.057  1.00  0.00    -0.200 F 
ENDBRANCH  69  92
ENDBRANCH  43  44
ENDBRANCH  35  38
ENDBRANCH  33  34
ENDBRANCH  32  33
ENDBRANCH   1  32
TORSDOF 16
ENDMDL
MODEL 3
REMARK VINA RESULT:     -13.9      5.552     11.127
REMARK SMILES O=C(C[C@H](NC(=O)[C@]12C[C@H]3C[C@H](C[C@H](C3)C1)C2)c1cccc([N+](=O)[O-])c1)NCCCCNC(=O)c1ccc(-c2c3nc(c(-c4c(F)c(F)c(F)c(F)c4F)c4ccc([nH]4)c(-c4c(F)c(F)c(F)c(F)c4F)c4nc(c(-c5c(F)c(F)c(F)c(F)c5F)c5ccc2[nH]5)C=C4)C=C3)cc1
REMARK SMILES IDX 29 1 28 2 27 3 1 4 2 5 3 7 4 8 18 9 19 10 26 11 20 12 22 13
REMARK SMILES IDX 21 14 23 15 24 16 25 17 5 18 6 19 7 21 8 22 9 23 16 24 17 25
REMARK SMILES IDX 10 26 14 27 12 28 11 29 15 30 13 31 30 32 31 33 32 34 33 35
REMARK SMILES IDX 34 37 35 38 36 39 97 40 37 41 96 42 38 43 39 44 40 45 90 46
REMARK SMILES IDX 41 47 95 48 89 49 91 50 42 51 94 52 88 53 87 54 43 56 75 57
REMARK SMILES IDX 55 58 74 59 56 60 59 61 73 62 92 63 57 64 58 65 72 67 93 68
REMARK SMILES IDX 60 69 44 70 45 71 53 72 46 73 47 74 51 75 54 76 48 77 49 78
REMARK SMILES IDX 52 79 50 80 76 81 77 82 85 83 78 84 79 85 83 86 86 87 80 88
REMARK SMILES IDX 81 89 84 90 82 91 61 92 62 93 70 94 63 95 64 96 68 97 71 98
REMARK SMILES IDX 65 99 66 100 69 101 67 102
REMARK H PARENT 27 6 5 20 32 36 91 55 59 66
REMARK Flexibility Score: inf
ROOT
ATOM      1  C   UNL A   1      37.309  20.878  24.672  1.00  0.00     0.023 C 
ENDROOT
BRANCH   1   2
ATOM      2  C   UNL A   1      37.231  21.970  25.742  1.00  0.00     0.116 C 
BRANCH   2   3
ATOM      3  N   UNL A   1      35.916  22.192  26.319  1.00  0.00    -0.356 N 
ATOM      4  O   UNL A   1      35.803  24.373  25.678  1.00  0.00    -0.275 OA
ATOM      5  C   UNL A   1      35.244  23.368  26.117  1.00  0.00     0.222 C 
ATOM      6  H   UNL A   1      35.502  21.485  26.865  1.00  0.00     0.163 HD
BRANCH   5   7
ATOM      7  C   UNL A   1      33.780  23.441  26.501  1.00  0.00     0.129 C 
BRANCH   7   8
ATOM      8  C   UNL A   1      32.705  23.691  25.427  1.00  0.00     0.122 C 
BRANCH   8   9
ATOM      9  C   UNL A   1      32.472  22.431  24.576  1.00  0.00    -0.018 A 
ATOM     10  C   UNL A   1      32.125  22.573  23.217  1.00  0.00     0.006 A 
ATOM     11  C   UNL A   1      32.636  21.127  25.069  1.00  0.00     0.091 A 
ATOM     12  C   UNL A   1      32.019  21.468  22.367  1.00  0.00     0.007 A 
ATOM     13  C   UNL A   1      32.580  20.022  24.203  1.00  0.00     0.269 A 
ATOM     14  C   UNL A   1      32.269  20.187  22.851  1.00  0.00     0.085 A 
BRANCH  13  15
ATOM     15  N   UNL A   1      32.909  18.684  24.712  1.00  0.00     0.062 N 
ATOM     16  O   UNL A   1      34.094  18.325  24.666  1.00  0.00    -0.258 OA
ATOM     17  O   UNL A   1      31.984  18.002  25.177  1.00  0.00    -0.258 OA
ENDBRANCH  13  15
ENDBRANCH   8   9
BRANCH   8  18
ATOM     18  N   UNL A   1      31.460  24.398  25.782  1.00  0.00    -0.348 N 
ATOM     19  C   UNL A   1      31.013  25.621  26.169  1.00  0.00     0.226 C 
ATOM     20  H   UNL A   1      30.699  23.776  25.715  1.00  0.00     0.164 HD
ATOM     21  O   UNL A   1      29.838  25.615  26.563  1.00  0.00    -0.274 OA
BRANCH  19  22
ATOM     22  C   UNL A   1      31.790  26.946  26.092  1.00  0.00     0.050 C 
ATOM     23  C   UNL A   1      33.317  26.756  26.128  1.00  0.00     0.020 C 
ATOM     24  C   UNL A   1      31.445  27.872  27.305  1.00  0.00     0.020 C 
ATOM     25  C   UNL A   1      31.330  27.724  24.849  1.00  0.00     0.020 C 
ATOM     26  C   UNL A   1      34.051  28.092  25.966  1.00  0.00    -0.010 C 
ATOM     27  C   UNL A   1      32.177  29.230  27.190  1.00  0.00    -0.010 C 
ATOM     28  C   UNL A   1      32.096  29.039  24.689  1.00  0.00    -0.010 C 
ATOM     29  C   UNL A   1      33.605  28.747  24.650  1.00  0.00     0.007 C 
ATOM     30  C   UNL A   1      33.695  28.994  27.155  1.00  0.00     0.007 C 
ATOM     31  C   UNL A   1      31.768  29.937  25.887  1.00  0.00     0.007 C 
ENDBRANCH  19  22
ENDBRANCH   8  18
ENDBRANCH   7   8
ENDBRANCH   5   7
ENDBRANCH   2   3
ENDBRANCH   1   2
BRANCH   1  32
ATOM     32  C   UNL A   1      38.232  19.709  25.004  1.00  0.00     0.023 C 
BRANCH  32  33
ATOM     33  C   UNL A   1      39.449  20.072  25.841  1.00  0.00     0.116 C 
BRANCH  33  34
ATOM     34  N   UNL A   1      40.443  19.011  25.889  1.00  0.00    -0.352 N 
ATOM     35  C   UNL A   1      41.803  19.107  26.076  1.00  0.00     0.251 C 
ATOM     36  H   UNL A   1      40.094  18.097  25.772  1.00  0.00     0.163 HD
ATOM     37  O   UNL A   1      42.519  18.123  25.955  1.00  0.00    -0.269 OA
BRANCH  35  38
ATOM     38  C   UNL A   1      42.401  20.423  26.391  1.00  0.00     0.039 A 
ATOM     39  C   UNL A   1      42.946  21.181  25.352  1.00  0.00     0.014 A 
ATOM     40  C   UNL A   1      42.401  20.916  27.698  1.00  0.00     0.014 A 
ATOM     41  C   UNL A   1      43.428  22.465  25.615  1.00  0.00     0.010 A 
ATOM     42  C   UNL A   1      42.807  22.225  27.943  1.00  0.00     0.010 A 
ATOM     43  C   UNL A   1      43.327  23.012  26.904  1.00  0.00    -0.014 A 
BRANCH  43  44
ATOM     44  C   UNL A   1      43.756  24.406  27.184  1.00  0.00     0.031 A 
ATOM     45  C   UNL A   1      42.757  25.428  27.648  1.00  0.00     0.074 A 
ATOM     46  C   UNL A   1      45.035  24.768  26.960  1.00  0.00     0.049 A 
ATOM     47  N   UNL A   1      42.922  26.706  27.878  1.00  0.00    -0.248 NA
ATOM     48  C   UNL A   1      41.378  24.956  27.855  1.00  0.00     0.031 C 
ATOM     49  C   UNL A   1      46.089  23.882  26.463  1.00  0.00     0.029 A 
ATOM     50  N   UNL A   1      45.664  25.979  27.110  1.00  0.00    -0.354 N 
ATOM     51  C   UNL A   1      41.674  27.189  28.248  1.00  0.00     0.074 A 
ATOM     52  C   UNL A   1      40.747  26.082  28.149  1.00  0.00     0.031 C 
ATOM     53  C   UNL A   1      47.237  24.573  26.372  1.00  0.00     0.029 A 
ATOM     54  C   UNL A   1      46.993  25.958  26.762  1.00  0.00     0.049 A 
ATOM     55  H   UNL A   1      45.207  26.787  27.438  1.00  0.00     0.167 HD
ATOM     56  C   UNL A   1      41.336  28.435  28.659  1.00  0.00     0.037 A 
ATOM     57  C   UNL A   1      47.908  26.946  26.749  1.00  0.00     0.037 A 
ATOM     58  C   UNL A   1      42.266  29.528  28.772  1.00  0.00     0.049 A 
ATOM     59  C   UNL A   1      47.504  28.327  27.193  1.00  0.00     0.074 A 
ATOM     60  C   UNL A   1      42.033  30.815  29.224  1.00  0.00     0.029 A 
ATOM     61  N   UNL A   1      43.608  29.464  28.424  1.00  0.00    -0.354 N 
ATOM     62  N   UNL A   1      46.334  28.755  27.604  1.00  0.00    -0.248 NA
ATOM     63  C   UNL A   1      48.549  29.359  27.180  1.00  0.00     0.031 C 
ATOM     64  C   UNL A   1      43.220  31.545  29.100  1.00  0.00     0.029 A 
ATOM     65  C   UNL A   1      44.209  30.696  28.628  1.00  0.00     0.049 A 
ATOM     66  H   UNL A   1      44.065  28.663  28.083  1.00  0.00     0.167 HD
ATOM     67  C   UNL A   1      46.510  30.094  27.925  1.00  0.00     0.074 A 
ATOM     68  C   UNL A   1      47.902  30.403  27.678  1.00  0.00     0.031 C 
ATOM     69  C   UNL A   1      45.598  30.987  28.384  1.00  0.00     0.037 A 
BRANCH  56  70
ATOM     70  C   UNL A   1      39.899  28.680  29.022  1.00  0.00     0.064 A 
ATOM     71  C   UNL A   1      39.417  28.447  30.319  1.00  0.00     0.173 A 
ATOM     72  C   UNL A   1      39.001  29.189  28.071  1.00  0.00     0.173 A 
ATOM     73  F   UNL A   1      40.231  27.950  31.263  1.00  0.00    -0.203 F 
ATOM     74  C   UNL A   1      38.083  28.682  30.642  1.00  0.00     0.198 A 
ATOM     75  C   UNL A   1      37.675  29.455  28.407  1.00  0.00     0.198 A 
ATOM     76  F   UNL A   1      39.409  29.435  26.818  1.00  0.00    -0.203 F 
ATOM     77  F   UNL A   1      37.633  28.397  31.872  1.00  0.00    -0.200 F 
ATOM     78  C   UNL A   1      37.216  29.192  29.689  1.00  0.00     0.200 A 
ATOM     79  F   UNL A   1      36.843  29.962  27.488  1.00  0.00    -0.200 F 
ATOM     80  F   UNL A   1      35.933  29.424  30.003  1.00  0.00    -0.200 F 
ENDBRANCH  56  70
BRANCH  57  81
ATOM     81  C   UNL A   1      49.302  26.664  26.313  1.00  0.00     0.064 A 
ATOM     82  C   UNL A   1      49.706  26.891  24.990  1.00  0.00     0.173 A 
ATOM     83  C   UNL A   1      50.254  26.152  27.206  1.00  0.00     0.173 A 
ATOM     84  F   UNL A   1      48.826  27.361  24.093  1.00  0.00    -0.203 F 
ATOM     85  C   UNL A   1      51.002  26.595  24.571  1.00  0.00     0.198 A 
ATOM     86  C   UNL A   1      51.559  25.886  26.793  1.00  0.00     0.198 A 
ATOM     87  F   UNL A   1      49.922  25.921  28.484  1.00  0.00    -0.203 F 
ATOM     88  F   UNL A   1      51.344  26.773  23.287  1.00  0.00    -0.200 F 
ATOM     89  C   UNL A   1      51.929  26.098  25.474  1.00  0.00     0.200 A 
ATOM     90  F   UNL A   1      52.455  25.420  27.673  1.00  0.00    -0.200 F 
ATOM     91  F   UNL A   1      53.175  25.814  25.071  1.00  0.00    -0.200 F 
ENDBRANCH  57  81
BRANCH  69  92
ATOM     92  C   UNL A   1      46.086  32.377  28.686  1.00  0.00     0.064 A 
ATOM     93  C   UNL A   1      46.053  33.397  27.724  1.00  0.00     0.173 A 
ATOM     94  C   UNL A   1      46.554  32.700  29.969  1.00  0.00     0.173 A 
ATOM     95  F   UNL A   1      45.628  33.138  26.478  1.00  0.00    -0.203 F 
ATOM     96  C   UNL A   1      46.497  34.682  28.028  1.00  0.00     0.198 A 
ATOM     97  C   UNL A   1      46.965  33.993  30.279  1.00  0.00     0.198 A 
ATOM     98  F   UNL A   1      46.598  31.762  30.929  1.00  0.00    -0.203 F 
ATOM     99  F   UNL A   1      46.506  35.627  27.079  1.00  0.00    -0.200 F 
ATOM    100  C   UNL A   1      46.944  34.980  29.306  1.00  0.00     0.200 A 
ATOM    101  F   UNL A   1      47.380  34.283  31.521  1.00  0.00    -0.200 F 
ATOM    102  F   UNL A   1      47.362  36.219  29.599  1.00  0.00    -0.200 F 
ENDBRANCH  69  92
ENDBRANCH  43  44
ENDBRANCH  35  38
ENDBRANCH  33  34
ENDBRANCH  32  33
ENDBRANCH   1  32
TORSDOF 16
ENDMDL
