MODEL 1
REMARK VINA RESULT:     -12.3      0.000      0.000
REMARK SMILES Cc1nc2n(n1)[C@@H](c1ccc([N+](=O)[O-])o1)CC(C(=O)NCCCCNC(=O)c1ccc(-c3c4nc(c(-c5c(F)c(F)c(F)c(F)c5F)c5ccc([nH]5)c(-c5c(F)c(F)c(F)c(F)c5F)c5nc(c(-c6c(F)c(F)c(F)c(F)c6F)c6ccc3[nH]6)C=C5)C=C4)cc1)=N2
REMARK SMILES IDX 22 1 21 2 20 3 18 4 19 5 17 7 1 8 2 9 3 10 6 11 4 12 5 13
REMARK SMILES IDX 91 14 7 15 16 16 8 17 9 18 15 19 10 20 11 21 12 22 13 23
REMARK SMILES IDX 14 24 23 25 24 26 25 27 26 28 27 30 28 31 29 32 90 33 30 34
REMARK SMILES IDX 89 35 31 36 32 37 33 38 83 39 34 40 88 41 82 42 84 43 35 44
REMARK SMILES IDX 87 45 81 46 80 47 36 49 68 50 48 51 67 52 49 53 52 54 66 55
REMARK SMILES IDX 85 56 50 57 51 58 65 60 86 61 53 62 37 63 38 64 46 65 39 66
REMARK SMILES IDX 40 67 44 68 47 69 41 70 42 71 45 72 43 73 69 74 70 75 78 76
REMARK SMILES IDX 71 77 72 78 76 79 79 80 73 81 74 82 77 83 75 84 54 85 55 86
REMARK SMILES IDX 63 87 56 88 57 89 61 90 64 91 58 92 59 93 62 94 60 95
REMARK H PARENT 20 6 25 29 84 48 52 59
REMARK Flexibility Score: inf
ROOT
ATOM      1  C   UNL A   1      39.381  23.549  26.663  1.00  0.00     0.023 C 
ENDROOT
BRANCH   1   2
ATOM      2  C   UNL A   1      38.021  24.094  26.213  1.00  0.00     0.116 C 
BRANCH   2   3
ATOM      3  N   UNL A   1      37.710  23.707  24.845  1.00  0.00    -0.351 N 
ATOM      4  C   UNL A   1      36.665  23.112  24.173  1.00  0.00     0.265 C 
ATOM      5  O   UNL A   1      36.811  22.969  22.968  1.00  0.00    -0.268 OA
ATOM      6  H   UNL A   1      38.448  23.930  24.234  1.00  0.00     0.163 HD
BRANCH   4   7
ATOM      7  C   UNL A   1      35.341  22.625  24.806  1.00  0.00     0.112 C 
ATOM      8  C   UNL A   1      29.903  23.473  26.700  1.00  0.00     0.092 C 
ATOM      9  C   UNL A   1      31.251  23.049  26.268  1.00  0.00     0.149 A 
ATOM     10  N   UNL A   1      32.162  23.918  25.727  1.00  0.00    -0.195 NA
ATOM     11  N   UNL A   1      31.672  21.780  26.355  1.00  0.00    -0.154 NA
ATOM     12  C   UNL A   1      33.206  23.168  25.448  1.00  0.00     0.249 A 
ATOM     13  N   UNL A   1      32.896  21.887  25.804  1.00  0.00    -0.219 N 
ATOM     14  N   UNL A   1      34.389  23.510  24.889  1.00  0.00    -0.211 NA
ATOM     15  C   UNL A   1      33.789  20.765  25.639  1.00  0.00     0.184 C 
ATOM     16  C   UNL A   1      35.222  21.221  25.333  1.00  0.00     0.098 C 
BRANCH  15  17
ATOM     17  C   UNL A   1      33.289  19.799  24.601  1.00  0.00     0.136 A 
ATOM     18  C   UNL A   1      32.396  19.854  23.543  1.00  0.00     0.056 A 
ATOM     19  O   UNL A   1      33.788  18.526  24.709  1.00  0.00    -0.404 OA
ATOM     20  C   UNL A   1      32.362  18.557  22.960  1.00  0.00     0.134 A 
ATOM     21  C   UNL A   1      33.235  17.802  23.703  1.00  0.00     0.433 A 
BRANCH  21  22
ATOM     22  N   UNL A   1      33.662  16.443  23.603  1.00  0.00     0.102 N 
ATOM     23  O   UNL A   1      34.384  16.161  22.639  1.00  0.00    -0.256 OA
ATOM     24  O   UNL A   1      33.296  15.663  24.492  1.00  0.00    -0.256 OA
ENDBRANCH  21  22
ENDBRANCH  15  17
ENDBRANCH   4   7
ENDBRANCH   2   3
ENDBRANCH   1   2
BRANCH   1  25
ATOM     25  C   UNL A   1      39.566  22.026  26.487  1.00  0.00     0.023 C 
BRANCH  25  26
ATOM     26  C   UNL A   1      40.574  21.343  27.438  1.00  0.00     0.116 C 
BRANCH  26  27
ATOM     27  N   UNL A   1      41.765  20.904  26.731  1.00  0.00    -0.352 N 
ATOM     28  C   UNL A   1      42.788  21.574  26.114  1.00  0.00     0.251 C 
ATOM     29  H   UNL A   1      41.856  19.924  26.686  1.00  0.00     0.163 HD
ATOM     30  O   UNL A   1      43.561  20.914  25.418  1.00  0.00    -0.269 OA
BRANCH  28  31
ATOM     31  C   UNL A   1      43.026  23.035  26.225  1.00  0.00     0.039 A 
ATOM     32  C   UNL A   1      43.142  23.572  27.520  1.00  0.00     0.014 A 
ATOM     33  C   UNL A   1      42.968  23.905  25.139  1.00  0.00     0.014 A 
ATOM     34  C   UNL A   1      43.248  24.953  27.733  1.00  0.00     0.010 A 
ATOM     35  C   UNL A   1      43.062  25.291  25.354  1.00  0.00     0.010 A 
ATOM     36  C   UNL A   1      43.232  25.831  26.648  1.00  0.00    -0.014 A 
BRANCH  36  37
ATOM     37  C   UNL A   1      43.578  27.263  26.866  1.00  0.00     0.031 A 
ATOM     38  C   UNL A   1      42.396  28.156  26.964  1.00  0.00     0.074 A 
ATOM     39  C   UNL A   1      44.720  27.746  27.410  1.00  0.00     0.049 A 
ATOM     40  N   UNL A   1      41.771  28.266  28.094  1.00  0.00    -0.248 NA
ATOM     41  C   UNL A   1      41.695  28.773  25.845  1.00  0.00     0.031 C 
ATOM     42  C   UNL A   1      45.688  26.952  28.169  1.00  0.00     0.029 A 
ATOM     43  N   UNL A   1      45.162  29.051  27.569  1.00  0.00    -0.354 N 
ATOM     44  C   UNL A   1      40.556  28.863  27.847  1.00  0.00     0.074 A 
ATOM     45  C   UNL A   1      40.567  29.205  26.443  1.00  0.00     0.031 C 
ATOM     46  C   UNL A   1      46.528  27.789  28.815  1.00  0.00     0.029 A 
ATOM     47  C   UNL A   1      46.262  29.174  28.414  1.00  0.00     0.049 A 
ATOM     48  H   UNL A   1      44.736  29.820  27.125  1.00  0.00     0.167 HD
ATOM     49  C   UNL A   1      39.657  29.025  28.857  1.00  0.00     0.037 A 
ATOM     50  C   UNL A   1      46.550  30.231  29.224  1.00  0.00     0.037 A 
ATOM     51  C   UNL A   1      40.074  28.571  30.168  1.00  0.00     0.049 A 
ATOM     52  C   UNL A   1      45.379  30.322  30.155  1.00  0.00     0.074 A 
ATOM     53  C   UNL A   1      39.592  27.850  31.240  1.00  0.00     0.029 A 
ATOM     54  N   UNL A   1      41.353  28.905  30.503  1.00  0.00    -0.354 N 
ATOM     55  N   UNL A   1      45.190  29.567  31.203  1.00  0.00    -0.248 NA
ATOM     56  C   UNL A   1      44.244  31.192  29.809  1.00  0.00     0.031 C 
ATOM     57  C   UNL A   1      40.645  27.786  32.224  1.00  0.00     0.029 A 
ATOM     58  C   UNL A   1      41.732  28.503  31.749  1.00  0.00     0.049 A 
ATOM     59  H   UNL A   1      41.952  29.396  29.896  1.00  0.00     0.167 HD
ATOM     60  C   UNL A   1      43.841  29.700  31.494  1.00  0.00     0.074 A 
ATOM     61  C   UNL A   1      43.361  30.835  30.736  1.00  0.00     0.031 C 
ATOM     62  C   UNL A   1      43.115  28.714  32.096  1.00  0.00     0.037 A 
BRANCH  49  63
ATOM     63  C   UNL A   1      38.444  29.852  28.740  1.00  0.00     0.064 A 
ATOM     64  C   UNL A   1      37.335  29.289  28.085  1.00  0.00     0.173 A 
ATOM     65  C   UNL A   1      38.393  31.202  29.087  1.00  0.00     0.173 A 
ATOM     66  F   UNL A   1      37.342  27.988  27.751  1.00  0.00    -0.203 F 
ATOM     67  C   UNL A   1      36.231  30.061  27.746  1.00  0.00     0.198 A 
ATOM     68  C   UNL A   1      37.279  31.973  28.754  1.00  0.00     0.198 A 
ATOM     69  F   UNL A   1      39.429  31.780  29.713  1.00  0.00    -0.203 F 
ATOM     70  F   UNL A   1      35.205  29.505  27.088  1.00  0.00    -0.200 F 
ATOM     71  C   UNL A   1      36.208  31.406  28.072  1.00  0.00     0.200 A 
ATOM     72  F   UNL A   1      37.248  33.275  29.070  1.00  0.00    -0.200 F 
ATOM     73  F   UNL A   1      35.155  32.160  27.724  1.00  0.00    -0.200 F 
ENDBRANCH  49  63
BRANCH  50  74
ATOM     74  C   UNL A   1      47.223  31.451  28.671  1.00  0.00     0.064 A 
ATOM     75  C   UNL A   1      48.361  31.987  29.308  1.00  0.00     0.173 A 
ATOM     76  C   UNL A   1      46.745  32.187  27.570  1.00  0.00     0.173 A 
ATOM     77  F   UNL A   1      48.816  31.442  30.446  1.00  0.00    -0.203 F 
ATOM     78  C   UNL A   1      49.037  33.104  28.804  1.00  0.00     0.198 A 
ATOM     79  C   UNL A   1      47.441  33.278  27.043  1.00  0.00     0.198 A 
ATOM     80  F   UNL A   1      45.584  31.878  26.980  1.00  0.00    -0.203 F 
ATOM     81  F   UNL A   1      50.120  33.573  29.440  1.00  0.00    -0.200 F 
ATOM     82  C   UNL A   1      48.596  33.728  27.652  1.00  0.00     0.200 A 
ATOM     83  F   UNL A   1      46.986  33.882  25.937  1.00  0.00    -0.200 F 
ATOM     84  F   UNL A   1      49.267  34.767  27.140  1.00  0.00    -0.200 F 
ENDBRANCH  50  74
BRANCH  62  85
ATOM     85  C   UNL A   1      43.917  27.736  32.870  1.00  0.00     0.064 A 
ATOM     86  C   UNL A   1      44.254  26.504  32.285  1.00  0.00     0.173 A 
ATOM     87  C   UNL A   1      44.302  27.964  34.196  1.00  0.00     0.173 A 
ATOM     88  F   UNL A   1      43.930  26.249  31.006  1.00  0.00    -0.203 F 
ATOM     89  C   UNL A   1      44.923  25.525  33.008  1.00  0.00     0.198 A 
ATOM     90  C   UNL A   1      44.993  26.989  34.911  1.00  0.00     0.198 A 
ATOM     91  F   UNL A   1      43.996  29.117  34.812  1.00  0.00    -0.203 F 
ATOM     92  F   UNL A   1      45.208  24.348  32.435  1.00  0.00    -0.200 F 
ATOM     93  C   UNL A   1      45.293  25.769  34.320  1.00  0.00     0.200 A 
ATOM     94  F   UNL A   1      45.364  27.225  36.177  1.00  0.00    -0.200 F 
ATOM     95  F   UNL A   1      45.946  24.828  35.016  1.00  0.00    -0.200 F 
ENDBRANCH  62  85
ENDBRANCH  36  37
ENDBRANCH  28  31
ENDBRANCH  26  27
ENDBRANCH  25  26
ENDBRANCH   1  25
TORSDOF 13
ENDMDL
MODEL 2
REMARK VINA RESULT:     -12.2      3.412      7.961
REMARK SMILES Cc1nc2n(n1)[C@@H](c1ccc([N+](=O)[O-])o1)CC(C(=O)NCCCCNC(=O)c1ccc(-c3c4nc(c(-c5c(F)c(F)c(F)c(F)c5F)c5ccc([nH]5)c(-c5c(F)c(F)c(F)c(F)c5F)c5nc(c(-c6c(F)c(F)c(F)c(F)c6F)c6ccc3[nH]6)C=C5)C=C4)cc1)=N2
REMARK SMILES IDX 22 1 21 2 20 3 18 4 19 5 17 7 1 8 2 9 3 10 6 11 4 12 5 13
REMARK SMILES IDX 91 14 7 15 16 16 8 17 9 18 15 19 10 20 11 21 12 22 13 23
REMARK SMILES IDX 14 24 23 25 24 26 25 27 26 28 27 30 28 31 29 32 90 33 30 34
REMARK SMILES IDX 89 35 31 36 32 37 33 38 83 39 34 40 88 41 82 42 84 43 35 44
REMARK SMILES IDX 87 45 81 46 80 47 36 49 68 50 48 51 67 52 49 53 52 54 66 55
REMARK SMILES IDX 85 56 50 57 51 58 65 60 86 61 53 62 37 63 38 64 46 65 39 66
REMARK SMILES IDX 40 67 44 68 47 69 41 70 42 71 45 72 43 73 69 74 70 75 78 76
REMARK SMILES IDX 71 77 72 78 76 79 79 80 73 81 74 82 77 83 75 84 54 85 55 86
REMARK SMILES IDX 63 87 56 88 57 89 61 90 64 91 58 92 59 93 62 94 60 95
REMARK H PARENT 20 6 25 29 84 48 52 59
REMARK Flexibility Score: inf
ROOT
ATOM      1  C   UNL A   1      31.620  27.741  26.722  1.00  0.00     0.023 C 
ENDROOT
BRANCH   1   2
ATOM      2  C   UNL A   1      32.254  26.424  26.260  1.00  0.00     0.116 C 
BRANCH   2   3
ATOM      3  N   UNL A   1      31.525  25.268  26.763  1.00  0.00    -0.351 N 
ATOM      4  C   UNL A   1      31.663  23.898  26.749  1.00  0.00     0.265 C 
ATOM      5  O   UNL A   1      30.790  23.261  27.321  1.00  0.00    -0.268 OA
ATOM      6  H   UNL A   1      30.711  25.541  27.244  1.00  0.00     0.163 HD
BRANCH   4   7
ATOM      7  C   UNL A   1      32.818  23.112  26.085  1.00  0.00     0.112 C 
ATOM      8  C   UNL A   1      38.428  21.666  25.522  1.00  0.00     0.092 C 
ATOM      9  C   UNL A   1      36.966  21.884  25.512  1.00  0.00     0.149 A 
ATOM     10  N   UNL A   1      36.345  22.771  26.351  1.00  0.00    -0.195 NA
ATOM     11  N   UNL A   1      36.142  21.214  24.696  1.00  0.00    -0.154 NA
ATOM     12  C   UNL A   1      35.066  22.655  26.065  1.00  0.00     0.249 A 
ATOM     13  N   UNL A   1      34.951  21.704  25.091  1.00  0.00    -0.219 N 
ATOM     14  N   UNL A   1      34.000  23.292  26.600  1.00  0.00    -0.211 NA
ATOM     15  C   UNL A   1      33.693  21.284  24.519  1.00  0.00     0.184 C 
ATOM     16  C   UNL A   1      32.555  22.246  24.883  1.00  0.00     0.098 C 
BRANCH  15  17
ATOM     17  C   UNL A   1      33.354  19.868  24.891  1.00  0.00     0.136 A 
ATOM     18  C   UNL A   1      32.664  19.251  25.922  1.00  0.00     0.056 A 
ATOM     19  O   UNL A   1      33.860  18.912  24.047  1.00  0.00    -0.404 OA
ATOM     20  C   UNL A   1      32.731  17.850  25.687  1.00  0.00     0.134 A 
ATOM     21  C   UNL A   1      33.458  17.710  24.531  1.00  0.00     0.433 A 
BRANCH  21  22
ATOM     22  N   UNL A   1      33.842  16.567  23.765  1.00  0.00     0.102 N 
ATOM     23  O   UNL A   1      34.017  16.748  22.554  1.00  0.00    -0.256 OA
ATOM     24  O   UNL A   1      33.987  15.497  24.371  1.00  0.00    -0.256 OA
ENDBRANCH  21  22
ENDBRANCH  15  17
ENDBRANCH   4   7
ENDBRANCH   2   3
ENDBRANCH   1   2
BRANCH   1  25
ATOM     25  C   UNL A   1      32.549  28.659  27.549  1.00  0.00     0.023 C 
BRANCH  25  26
ATOM     26  C   UNL A   1      33.940  28.951  26.944  1.00  0.00     0.116 C 
BRANCH  26  27
ATOM     27  N   UNL A   1      34.231  30.375  26.934  1.00  0.00    -0.352 N 
ATOM     28  C   UNL A   1      35.227  31.131  27.492  1.00  0.00     0.251 C 
ATOM     29  H   UNL A   1      33.578  30.905  26.421  1.00  0.00     0.163 HD
ATOM     30  O   UNL A   1      35.089  32.355  27.474  1.00  0.00    -0.269 OA
BRANCH  28  31
ATOM     31  C   UNL A   1      36.455  30.577  28.116  1.00  0.00     0.039 A 
ATOM     32  C   UNL A   1      37.224  31.448  28.909  1.00  0.00     0.014 A 
ATOM     33  C   UNL A   1      36.961  29.314  27.819  1.00  0.00     0.014 A 
ATOM     34  C   UNL A   1      38.459  31.054  29.442  1.00  0.00     0.010 A 
ATOM     35  C   UNL A   1      38.206  28.924  28.345  1.00  0.00     0.010 A 
ATOM     36  C   UNL A   1      38.956  29.776  29.184  1.00  0.00    -0.014 A 
BRANCH  36  37
ATOM     37  C   UNL A   1      40.144  29.292  29.941  1.00  0.00     0.031 A 
ATOM     38  C   UNL A   1      41.418  29.935  29.531  1.00  0.00     0.074 A 
ATOM     39  C   UNL A   1      40.145  28.728  31.172  1.00  0.00     0.049 A 
ATOM     40  N   UNL A   1      41.735  31.091  30.022  1.00  0.00    -0.248 NA
ATOM     41  C   UNL A   1      42.277  29.509  28.433  1.00  0.00     0.031 C 
ATOM     42  C   UNL A   1      39.027  28.777  32.117  1.00  0.00     0.029 A 
ATOM     43  N   UNL A   1      41.180  28.172  31.909  1.00  0.00    -0.354 N 
ATOM     44  C   UNL A   1      42.754  31.610  29.256  1.00  0.00     0.074 A 
ATOM     45  C   UNL A   1      43.094  30.573  28.307  1.00  0.00     0.031 C 
ATOM     46  C   UNL A   1      39.468  28.395  33.334  1.00  0.00     0.029 A 
ATOM     47  C   UNL A   1      40.859  27.937  33.243  1.00  0.00     0.049 A 
ATOM     48  H   UNL A   1      42.062  27.964  31.523  1.00  0.00     0.167 HD
ATOM     49  C   UNL A   1      43.226  32.862  29.504  1.00  0.00     0.037 A 
ATOM     50  C   UNL A   1      41.710  27.989  34.305  1.00  0.00     0.037 A 
ATOM     51  C   UNL A   1      42.622  33.569  30.615  1.00  0.00     0.049 A 
ATOM     52  C   UNL A   1      42.221  29.397  34.309  1.00  0.00     0.074 A 
ATOM     53  C   UNL A   1      42.118  34.813  30.928  1.00  0.00     0.029 A 
ATOM     54  N   UNL A   1      42.437  32.812  31.735  1.00  0.00    -0.354 N 
ATOM     55  N   UNL A   1      41.575  30.431  34.775  1.00  0.00    -0.248 NA
ATOM     56  C   UNL A   1      43.464  29.719  33.592  1.00  0.00     0.031 C 
ATOM     57  C   UNL A   1      41.639  34.754  32.287  1.00  0.00     0.029 A 
ATOM     58  C   UNL A   1      41.897  33.488  32.788  1.00  0.00     0.049 A 
ATOM     59  H   UNL A   1      42.675  31.859  31.779  1.00  0.00     0.167 HD
ATOM     60  C   UNL A   1      42.206  31.526  34.204  1.00  0.00     0.074 A 
ATOM     61  C   UNL A   1      43.453  31.047  33.649  1.00  0.00     0.031 C 
ATOM     62  C   UNL A   1      41.558  32.700  33.947  1.00  0.00     0.037 A 
BRANCH  49  63
ATOM     63  C   UNL A   1      44.455  33.403  28.898  1.00  0.00     0.064 A 
ATOM     64  C   UNL A   1      45.664  33.195  29.586  1.00  0.00     0.173 A 
ATOM     65  C   UNL A   1      44.462  34.242  27.785  1.00  0.00     0.173 A 
ATOM     66  F   UNL A   1      45.698  32.379  30.652  1.00  0.00    -0.203 F 
ATOM     67  C   UNL A   1      46.830  33.842  29.201  1.00  0.00     0.198 A 
ATOM     68  C   UNL A   1      45.638  34.884  27.394  1.00  0.00     0.198 A 
ATOM     69  F   UNL A   1      43.331  34.468  27.100  1.00  0.00    -0.203 F 
ATOM     70  F   UNL A   1      47.958  33.654  29.899  1.00  0.00    -0.200 F 
ATOM     71  C   UNL A   1      46.815  34.695  28.111  1.00  0.00     0.200 A 
ATOM     72  F   UNL A   1      45.631  35.708  26.338  1.00  0.00    -0.200 F 
ATOM     73  F   UNL A   1      47.934  35.341  27.752  1.00  0.00    -0.200 F 
ENDBRANCH  49  63
BRANCH  50  74
ATOM     74  C   UNL A   1      42.593  26.821  34.629  1.00  0.00     0.064 A 
ATOM     75  C   UNL A   1      42.657  26.321  35.946  1.00  0.00     0.173 A 
ATOM     76  C   UNL A   1      43.463  26.208  33.708  1.00  0.00     0.173 A 
ATOM     77  F   UNL A   1      41.973  26.923  36.931  1.00  0.00    -0.203 F 
ATOM     78  C   UNL A   1      43.443  25.213  36.282  1.00  0.00     0.198 A 
ATOM     79  C   UNL A   1      44.217  25.077  34.031  1.00  0.00     0.198 A 
ATOM     80  F   UNL A   1      43.616  26.694  32.470  1.00  0.00    -0.203 F 
ATOM     81  F   UNL A   1      43.467  24.769  37.546  1.00  0.00    -0.200 F 
ATOM     82  C   UNL A   1      44.196  24.570  35.316  1.00  0.00     0.200 A 
ATOM     83  F   UNL A   1      44.957  24.481  33.087  1.00  0.00    -0.200 F 
ATOM     84  F   UNL A   1      44.912  23.481  35.622  1.00  0.00    -0.200 F 
ENDBRANCH  50  74
BRANCH  62  85
ATOM     85  C   UNL A   1      40.333  32.924  34.752  1.00  0.00     0.064 A 
ATOM     86  C   UNL A   1      39.085  32.549  34.228  1.00  0.00     0.173 A 
ATOM     87  C   UNL A   1      40.362  33.558  35.999  1.00  0.00     0.173 A 
ATOM     88  F   UNL A   1      39.009  31.914  33.046  1.00  0.00    -0.203 F 
ATOM     89  C   UNL A   1      37.908  32.827  34.909  1.00  0.00     0.198 A 
ATOM     90  C   UNL A   1      39.180  33.813  36.691  1.00  0.00     0.198 A 
ATOM     91  F   UNL A   1      41.524  33.951  36.544  1.00  0.00    -0.203 F 
ATOM     92  F   UNL A   1      36.729  32.483  34.374  1.00  0.00    -0.200 F 
ATOM     93  C   UNL A   1      37.957  33.457  36.142  1.00  0.00     0.200 A 
ATOM     94  F   UNL A   1      39.223  34.413  37.889  1.00  0.00    -0.200 F 
ATOM     95  F   UNL A   1      36.821  33.717  36.804  1.00  0.00    -0.200 F 
ENDBRANCH  62  85
ENDBRANCH  36  37
ENDBRANCH  28  31
ENDBRANCH  26  27
ENDBRANCH  25  26
ENDBRANCH   1  25
TORSDOF 13
ENDMDL
MODEL 3
REMARK VINA RESULT:     -12.2      3.112      4.912
REMARK SMILES Cc1nc2n(n1)[C@@H](c1ccc([N+](=O)[O-])o1)CC(C(=O)NCCCCNC(=O)c1ccc(-c3c4nc(c(-c5c(F)c(F)c(F)c(F)c5F)c5ccc([nH]5)c(-c5c(F)c(F)c(F)c(F)c5F)c5nc(c(-c6c(F)c(F)c(F)c(F)c6F)c6ccc3[nH]6)C=C5)C=C4)cc1)=N2
REMARK SMILES IDX 22 1 21 2 20 3 18 4 19 5 17 7 1 8 2 9 3 10 6 11 4 12 5 13
REMARK SMILES IDX 91 14 7 15 16 16 8 17 9 18 15 19 10 20 11 21 12 22 13 23
REMARK SMILES IDX 14 24 23 25 24 26 25 27 26 28 27 30 28 31 29 32 90 33 30 34
REMARK SMILES IDX 89 35 31 36 32 37 33 38 83 39 34 40 88 41 82 42 84 43 35 44
REMARK SMILES IDX 87 45 81 46 80 47 36 49 68 50 48 51 67 52 49 53 52 54 66 55
REMARK SMILES IDX 85 56 50 57 51 58 65 60 86 61 53 62 37 63 38 64 46 65 39 66
REMARK SMILES IDX 40 67 44 68 47 69 41 70 42 71 45 72 43 73 69 74 70 75 78 76
REMARK SMILES IDX 71 77 72 78 76 79 79 80 73 81 74 82 77 83 75 84 54 85 55 86
REMARK SMILES IDX 63 87 56 88 57 89 61 90 64 91 58 92 59 93 62 94 60 95
REMARK H PARENT 20 6 25 29 84 48 52 59
REMARK Flexibility Score: inf
ROOT
ATOM      1  C   UNL A   1      35.474  22.473  26.015  1.00  0.00     0.023 C 
ENDROOT
BRANCH   1   2
ATOM      2  C   UNL A   1      34.176  21.691  26.239  1.00  0.00     0.116 C 
BRANCH   2   3
ATOM      3  N   UNL A   1      33.128  22.532  26.800  1.00  0.00    -0.351 N 
ATOM      4  C   UNL A   1      32.490  23.707  26.475  1.00  0.00     0.265 C 
ATOM      5  O   UNL A   1      31.622  24.083  27.250  1.00  0.00    -0.268 OA
ATOM      6  H   UNL A   1      32.784  22.158  27.643  1.00  0.00     0.163 HD
BRANCH   4   7
ATOM      7  C   UNL A   1      32.770  24.574  25.225  1.00  0.00     0.112 C 
ATOM      8  C   UNL A   1      32.596  25.582  19.494  1.00  0.00     0.092 C 
ATOM      9  C   UNL A   1      32.725  25.526  20.965  1.00  0.00     0.149 A 
ATOM     10  N   UNL A   1      32.310  24.448  21.703  1.00  0.00    -0.195 NA
ATOM     11  N   UNL A   1      33.237  26.532  21.686  1.00  0.00    -0.154 NA
ATOM     12  C   UNL A   1      32.558  24.787  22.950  1.00  0.00     0.249 A 
ATOM     13  N   UNL A   1      33.091  26.045  22.932  1.00  0.00    -0.219 N 
ATOM     14  N   UNL A   1      32.337  24.098  24.092  1.00  0.00    -0.211 NA
ATOM     15  C   UNL A   1      33.485  26.770  24.117  1.00  0.00     0.184 C 
ATOM     16  C   UNL A   1      33.548  25.855  25.347  1.00  0.00     0.098 C 
BRANCH  15  17
ATOM     17  C   UNL A   1      32.601  27.961  24.364  1.00  0.00     0.136 A 
ATOM     18  C   UNL A   1      32.541  28.972  25.310  1.00  0.00     0.056 A 
ATOM     19  O   UNL A   1      31.565  28.105  23.479  1.00  0.00    -0.404 OA
ATOM     20  C   UNL A   1      31.426  29.789  24.975  1.00  0.00     0.134 A 
ATOM     21  C   UNL A   1      30.883  29.218  23.850  1.00  0.00     0.433 A 
BRANCH  21  22
ATOM     22  N   UNL A   1      29.778  29.582  23.021  1.00  0.00     0.102 N 
ATOM     23  O   UNL A   1      29.086  30.531  23.409  1.00  0.00    -0.256 OA
ATOM     24  O   UNL A   1      29.612  28.936  21.977  1.00  0.00    -0.256 OA
ENDBRANCH  21  22
ENDBRANCH  15  17
ENDBRANCH   4   7
ENDBRANCH   2   3
ENDBRANCH   1   2
BRANCH   1  25
ATOM     25  C   UNL A   1      36.696  21.614  25.618  1.00  0.00     0.023 C 
BRANCH  25  26
ATOM     26  C   UNL A   1      38.068  22.321  25.640  1.00  0.00     0.116 C 
BRANCH  26  27
ATOM     27  N   UNL A   1      38.968  21.713  26.606  1.00  0.00    -0.352 N 
ATOM     28  C   UNL A   1      40.029  22.192  27.328  1.00  0.00     0.251 C 
ATOM     29  H   UNL A   1      38.776  20.762  26.776  1.00  0.00     0.163 HD
ATOM     30  O   UNL A   1      40.728  21.370  27.922  1.00  0.00    -0.269 OA
BRANCH  28  31
ATOM     31  C   UNL A   1      40.391  23.627  27.442  1.00  0.00     0.039 A 
ATOM     32  C   UNL A   1      41.680  24.002  27.021  1.00  0.00     0.014 A 
ATOM     33  C   UNL A   1      39.595  24.568  28.090  1.00  0.00     0.014 A 
ATOM     34  C   UNL A   1      42.156  25.308  27.198  1.00  0.00     0.010 A 
ATOM     35  C   UNL A   1      40.078  25.875  28.278  1.00  0.00     0.010 A 
ATOM     36  C   UNL A   1      41.351  26.269  27.810  1.00  0.00    -0.014 A 
BRANCH  36  37
ATOM     37  C   UNL A   1      41.773  27.697  27.781  1.00  0.00     0.031 A 
ATOM     38  C   UNL A   1      40.653  28.649  27.573  1.00  0.00     0.074 A 
ATOM     39  C   UNL A   1      42.889  28.223  28.342  1.00  0.00     0.049 A 
ATOM     40  N   UNL A   1      39.931  29.014  28.584  1.00  0.00    -0.248 NA
ATOM     41  C   UNL A   1      40.109  29.061  26.285  1.00  0.00     0.031 C 
ATOM     42  C   UNL A   1      43.720  27.551  29.342  1.00  0.00     0.029 A 
ATOM     43  N   UNL A   1      43.403  29.510  28.290  1.00  0.00    -0.354 N 
ATOM     44  C   UNL A   1      38.790  29.608  28.095  1.00  0.00     0.074 A 
ATOM     45  C   UNL A   1      38.962  29.660  26.661  1.00  0.00     0.031 C 
ATOM     46  C   UNL A   1      44.550  28.459  29.900  1.00  0.00     0.029 A 
ATOM     47  C   UNL A   1      44.421  29.747  29.210  1.00  0.00     0.049 A 
ATOM     48  H   UNL A   1      43.076  30.194  27.661  1.00  0.00     0.167 HD
ATOM     49  C   UNL A   1      37.811  30.014  28.950  1.00  0.00     0.037 A 
ATOM     50  C   UNL A   1      44.702  30.929  29.826  1.00  0.00     0.037 A 
ATOM     51  C   UNL A   1      38.064  29.813  30.362  1.00  0.00     0.049 A 
ATOM     52  C   UNL A   1      43.455  31.263  30.587  1.00  0.00     0.074 A 
ATOM     53  C   UNL A   1      37.432  29.347  31.494  1.00  0.00     0.029 A 
ATOM     54  N   UNL A   1      39.325  30.144  30.763  1.00  0.00    -0.354 N 
ATOM     55  N   UNL A   1      43.113  30.744  31.735  1.00  0.00    -0.248 NA
ATOM     56  C   UNL A   1      42.423  32.100  29.956  1.00  0.00     0.031 C 
ATOM     57  C   UNL A   1      38.377  29.431  32.581  1.00  0.00     0.029 A 
ATOM     58  C   UNL A   1      39.552  29.983  32.097  1.00  0.00     0.049 A 
ATOM     59  H   UNL A   1      40.014  30.473  30.141  1.00  0.00     0.167 HD
ATOM     60  C   UNL A   1      41.755  30.999  31.845  1.00  0.00     0.074 A 
ATOM     61  C   UNL A   1      41.431  31.981  30.832  1.00  0.00     0.031 C 
ATOM     62  C   UNL A   1      40.907  30.192  32.545  1.00  0.00     0.037 A 
BRANCH  49  63
ATOM     63  C   UNL A   1      36.675  30.859  28.542  1.00  0.00     0.064 A 
ATOM     64  C   UNL A   1      36.835  32.252  28.641  1.00  0.00     0.173 A 
ATOM     65  C   UNL A   1      35.412  30.358  28.231  1.00  0.00     0.173 A 
ATOM     66  F   UNL A   1      38.041  32.771  28.922  1.00  0.00    -0.203 F 
ATOM     67  C   UNL A   1      35.757  33.113  28.479  1.00  0.00     0.198 A 
ATOM     68  C   UNL A   1      34.332  31.226  28.060  1.00  0.00     0.198 A 
ATOM     69  F   UNL A   1      35.214  29.035  28.127  1.00  0.00    -0.203 F 
ATOM     70  F   UNL A   1      35.933  34.434  28.617  1.00  0.00    -0.200 F 
ATOM     71  C   UNL A   1      34.503  32.599  28.199  1.00  0.00     0.200 A 
ATOM     72  F   UNL A   1      33.117  30.734  27.784  1.00  0.00    -0.200 F 
ATOM     73  F   UNL A   1      33.456  33.425  28.068  1.00  0.00    -0.200 F 
ENDBRANCH  49  63
BRANCH  50  74
ATOM     74  C   UNL A   1      45.509  31.979  29.122  1.00  0.00     0.064 A 
ATOM     75  C   UNL A   1      45.076  32.501  27.887  1.00  0.00     0.173 A 
ATOM     76  C   UNL A   1      46.759  32.447  29.570  1.00  0.00     0.173 A 
ATOM     77  F   UNL A   1      43.967  32.021  27.303  1.00  0.00    -0.203 F 
ATOM     78  C   UNL A   1      45.783  33.505  27.216  1.00  0.00     0.198 A 
ATOM     79  C   UNL A   1      47.446  33.477  28.923  1.00  0.00     0.198 A 
ATOM     80  F   UNL A   1      47.356  31.913  30.642  1.00  0.00    -0.203 F 
ATOM     81  F   UNL A   1      45.328  33.976  26.046  1.00  0.00    -0.200 F 
ATOM     82  C   UNL A   1      46.950  34.017  27.752  1.00  0.00     0.200 A 
ATOM     83  F   UNL A   1      48.586  33.946  29.447  1.00  0.00    -0.200 F 
ATOM     84  F   UNL A   1      47.605  35.010  27.138  1.00  0.00    -0.200 F 
ENDBRANCH  50  74
BRANCH  62  85
ATOM     85  C   UNL A   1      41.559  29.351  33.578  1.00  0.00     0.064 A 
ATOM     86  C   UNL A   1      41.886  28.018  33.277  1.00  0.00     0.173 A 
ATOM     87  C   UNL A   1      41.808  29.814  34.874  1.00  0.00     0.173 A 
ATOM     88  F   UNL A   1      41.690  27.535  32.038  1.00  0.00    -0.203 F 
ATOM     89  C   UNL A   1      42.411  27.172  34.244  1.00  0.00     0.198 A 
ATOM     90  C   UNL A   1      42.357  28.969  35.836  1.00  0.00     0.198 A 
ATOM     91  F   UNL A   1      41.503  31.075  35.224  1.00  0.00    -0.203 F 
ATOM     92  F   UNL A   1      42.689  25.898  33.938  1.00  0.00    -0.200 F 
ATOM     93  C   UNL A   1      42.648  27.649  35.522  1.00  0.00     0.200 A 
ATOM     94  F   UNL A   1      42.599  29.430  37.071  1.00  0.00    -0.200 F 
ATOM     95  F   UNL A   1      43.164  26.835  36.455  1.00  0.00    -0.200 F 
ENDBRANCH  62  85
ENDBRANCH  36  37
ENDBRANCH  28  31
ENDBRANCH  26  27
ENDBRANCH  25  26
ENDBRANCH   1  25
TORSDOF 13
ENDMDL
