MODEL 1
REMARK VINA RESULT:     -12.2      0.000      0.000
REMARK SMILES C[NH+](C)[C@H](CC(=O)Nc1cccc(Cl)c1)C(=O)NCCCCNC(=O)c1ccc(-c2c3nc(c(-c4c(F)c(F)c(F)c(F)c4F)c4ccc([nH]4)c(-c4c(F)c(F)c(F)c(F)c4F)c4nc(c(-c5c(F)c(F)c(F)c(F)c5F)c5ccc2[nH]5)C=C4)C=C3)cc1
REMARK SMILES IDX 20 1 19 2 18 3 16 4 17 5 4 7 2 8 1 9 3 10 5 12 6 13 7 14
REMARK SMILES IDX 8 15 9 17 10 18 15 19 11 20 13 21 12 22 14 23 21 24 22 25
REMARK SMILES IDX 23 26 24 27 25 29 26 30 27 31 88 32 28 33 87 34 29 35 30 36
REMARK SMILES IDX 31 37 81 38 32 39 86 40 80 41 82 42 33 43 85 44 79 45 78 46
REMARK SMILES IDX 34 48 66 49 46 50 65 51 47 52 50 53 64 54 83 55 48 56 49 57
REMARK SMILES IDX 63 59 84 60 51 61 35 62 36 63 44 64 37 65 38 66 42 67 45 68
REMARK SMILES IDX 39 69 40 70 43 71 41 72 67 73 68 74 76 75 69 76 70 77 74 78
REMARK SMILES IDX 77 79 71 80 72 81 75 82 73 83 52 84 53 85 61 86 54 87 55 88
REMARK SMILES IDX 59 89 62 90 56 91 57 92 60 93 58 94
REMARK H PARENT 18 6 2 11 8 16 23 28 82 47 50 58
REMARK Flexibility Score: inf
ROOT
ATOM      1  C   UNL A   1      37.302  21.797  24.514  1.00  0.00     0.023 C 
ENDROOT
BRANCH   1   2
ATOM      2  C   UNL A   1      37.317  22.980  25.472  1.00  0.00     0.116 C 
BRANCH   2   3
ATOM      3  N   UNL A   1      36.305  22.978  26.516  1.00  0.00    -0.351 N 
ATOM      4  C   UNL A   1      35.026  22.478  26.352  1.00  0.00     0.278 C 
ATOM      5  O   UNL A   1      34.704  21.549  27.098  1.00  0.00    -0.268 OA
ATOM      6  H   UNL A   1      36.544  23.356  27.393  1.00  0.00     0.163 HD
BRANCH   4   7
ATOM      7  C   UNL A   1      33.996  23.208  25.421  1.00  0.00     0.283 C 
BRANCH   7   8
ATOM      8  N   UNL A   1      33.667  24.602  25.852  1.00  0.00    -0.329 N 
ATOM      9  C   UNL A   1      32.277  24.911  26.144  1.00  0.00     0.333 C 
ATOM     10  C   UNL A   1      34.220  25.612  24.949  1.00  0.00     0.333 C 
ATOM     11  H   UNL A   1      34.128  24.639  26.761  1.00  0.00     0.348 HD
ENDBRANCH   7   8
BRANCH   7  12
ATOM     12  C   UNL A   1      32.950  22.363  24.695  1.00  0.00     0.175 C 
BRANCH  12  13
ATOM     13  C   UNL A   1      32.012  21.350  25.330  1.00  0.00     0.230 C 
ATOM     14  O   UNL A   1      30.976  21.799  25.852  1.00  0.00    -0.274 OA
ATOM     15  N   UNL A   1      32.032  19.997  25.239  1.00  0.00    -0.326 N 
ATOM     16  H   UNL A   1      31.130  19.636  25.400  1.00  0.00     0.169 HD
BRANCH  15  17
ATOM     17  C   UNL A   1      32.932  18.948  24.987  1.00  0.00     0.042 A 
ATOM     18  C   UNL A   1      34.255  19.097  24.595  1.00  0.00     0.026 A 
ATOM     19  C   UNL A   1      32.473  17.646  25.229  1.00  0.00     0.046 A 
ATOM     20  C   UNL A   1      35.112  18.003  24.433  1.00  0.00     0.004 A 
ATOM     21  C   UNL A   1      33.322  16.545  25.068  1.00  0.00     0.043 A 
ATOM     22  C   UNL A   1      34.644  16.719  24.672  1.00  0.00     0.020 A 
ATOM     23  Cl  UNL A   1      32.739  14.957  25.374  1.00  0.00    -0.084 Cl
ENDBRANCH  15  17
ENDBRANCH  12  13
ENDBRANCH   7  12
ENDBRANCH   4   7
ENDBRANCH   2   3
ENDBRANCH   1   2
BRANCH   1  24
ATOM     24  C   UNL A   1      37.906  20.506  25.082  1.00  0.00     0.023 C 
BRANCH  24  25
ATOM     25  C   UNL A   1      39.263  20.586  25.790  1.00  0.00     0.116 C 
BRANCH  25  26
ATOM     26  N   UNL A   1      40.048  19.366  25.782  1.00  0.00    -0.352 N 
ATOM     27  C   UNL A   1      41.386  19.217  26.099  1.00  0.00     0.251 C 
ATOM     28  H   UNL A   1      39.573  18.544  25.518  1.00  0.00     0.163 HD
ATOM     29  O   UNL A   1      41.924  18.117  25.997  1.00  0.00    -0.269 OA
BRANCH  27  30
ATOM     30  C   UNL A   1      42.190  20.404  26.488  1.00  0.00     0.039 A 
ATOM     31  C   UNL A   1      42.905  21.081  25.495  1.00  0.00     0.014 A 
ATOM     32  C   UNL A   1      42.178  20.899  27.795  1.00  0.00     0.014 A 
ATOM     33  C   UNL A   1      43.496  22.317  25.782  1.00  0.00     0.010 A 
ATOM     34  C   UNL A   1      42.720  22.158  28.068  1.00  0.00     0.010 A 
ATOM     35  C   UNL A   1      43.346  22.898  27.052  1.00  0.00    -0.014 A 
BRANCH  35  36
ATOM     36  C   UNL A   1      43.728  24.317  27.294  1.00  0.00     0.031 A 
ATOM     37  C   UNL A   1      42.723  25.331  27.757  1.00  0.00     0.074 A 
ATOM     38  C   UNL A   1      44.986  24.709  27.009  1.00  0.00     0.049 A 
ATOM     39  N   UNL A   1      42.884  26.613  27.975  1.00  0.00    -0.248 NA
ATOM     40  C   UNL A   1      41.354  24.849  27.985  1.00  0.00     0.031 C 
ATOM     41  C   UNL A   1      46.045  23.839  26.493  1.00  0.00     0.029 A 
ATOM     42  N   UNL A   1      45.589  25.941  27.100  1.00  0.00    -0.354 N 
ATOM     43  C   UNL A   1      41.640  27.092  28.364  1.00  0.00     0.074 A 
ATOM     44  C   UNL A   1      40.724  25.971  28.307  1.00  0.00     0.031 C 
ATOM     45  C   UNL A   1      47.166  24.557  26.329  1.00  0.00     0.029 A 
ATOM     46  C   UNL A   1      46.903  25.944  26.699  1.00  0.00     0.049 A 
ATOM     47  H   UNL A   1      45.122  26.746  27.421  1.00  0.00     0.167 HD
ATOM     48  C   UNL A   1      41.300  28.345  28.750  1.00  0.00     0.037 A 
ATOM     49  C   UNL A   1      47.797  26.948  26.632  1.00  0.00     0.037 A 
ATOM     50  C   UNL A   1      42.212  29.459  28.815  1.00  0.00     0.049 A 
ATOM     51  C   UNL A   1      47.391  28.330  27.064  1.00  0.00     0.074 A 
ATOM     52  C   UNL A   1      41.968  30.750  29.255  1.00  0.00     0.029 A 
ATOM     53  N   UNL A   1      43.541  29.418  28.422  1.00  0.00    -0.354 N 
ATOM     54  N   UNL A   1      46.234  28.750  27.512  1.00  0.00    -0.248 NA
ATOM     55  C   UNL A   1      48.420  29.378  26.988  1.00  0.00     0.031 C 
ATOM     56  C   UNL A   1      43.137  31.501  29.088  1.00  0.00     0.029 A 
ATOM     57  C   UNL A   1      44.123  30.667  28.586  1.00  0.00     0.049 A 
ATOM     58  H   UNL A   1      44.003  28.622  28.076  1.00  0.00     0.167 HD
ATOM     59  C   UNL A   1      46.401  30.098  27.797  1.00  0.00     0.074 A 
ATOM     60  C   UNL A   1      47.776  30.425  27.483  1.00  0.00     0.031 C 
ATOM     61  C   UNL A   1      45.493  30.983  28.277  1.00  0.00     0.037 A 
BRANCH  48  62
ATOM     62  C   UNL A   1      39.871  28.585  29.144  1.00  0.00     0.064 A 
ATOM     63  C   UNL A   1      39.426  28.361  30.455  1.00  0.00     0.173 A 
ATOM     64  C   UNL A   1      38.949  29.091  28.215  1.00  0.00     0.173 A 
ATOM     65  F   UNL A   1      40.267  27.871  31.379  1.00  0.00    -0.203 F 
ATOM     66  C   UNL A   1      38.105  28.610  30.816  1.00  0.00     0.198 A 
ATOM     67  C   UNL A   1      37.635  29.365  28.587  1.00  0.00     0.198 A 
ATOM     68  F   UNL A   1      39.325  29.332  26.950  1.00  0.00    -0.203 F 
ATOM     69  F   UNL A   1      37.692  28.349  32.064  1.00  0.00    -0.200 F 
ATOM     70  C   UNL A   1      37.212  29.118  29.884  1.00  0.00     0.200 A 
ATOM     71  F   UNL A   1      36.777  29.867  27.688  1.00  0.00    -0.200 F 
ATOM     72  F   UNL A   1      35.942  29.364  30.234  1.00  0.00    -0.200 F 
ENDBRANCH  48  62
BRANCH  49  73
ATOM     73  C   UNL A   1      49.181  26.677  26.163  1.00  0.00     0.064 A 
ATOM     74  C   UNL A   1      49.544  26.904  24.829  1.00  0.00     0.173 A 
ATOM     75  C   UNL A   1      50.164  26.187  27.034  1.00  0.00     0.173 A 
ATOM     76  F   UNL A   1      48.632  27.353  23.954  1.00  0.00    -0.203 F 
ATOM     77  C   UNL A   1      50.834  26.632  24.378  1.00  0.00     0.198 A 
ATOM     78  C   UNL A   1      51.461  25.940  26.588  1.00  0.00     0.198 A 
ATOM     79  F   UNL A   1      49.867  25.957  28.322  1.00  0.00    -0.203 F 
ATOM     80  F   UNL A   1      51.143  26.818  23.088  1.00  0.00    -0.200 F 
ATOM     81  C   UNL A   1      51.793  26.157  25.259  1.00  0.00     0.200 A 
ATOM     82  F   UNL A   1      52.388  25.492  27.446  1.00  0.00    -0.200 F 
ATOM     83  F   UNL A   1      53.035  25.899  24.827  1.00  0.00    -0.200 F 
ENDBRANCH  49  73
BRANCH  61  84
ATOM     84  C   UNL A   1      45.966  32.386  28.521  1.00  0.00     0.064 A 
ATOM     85  C   UNL A   1      46.537  32.768  29.744  1.00  0.00     0.173 A 
ATOM     86  C   UNL A   1      45.878  33.352  27.506  1.00  0.00     0.173 A 
ATOM     87  F   UNL A   1      46.628  31.886  30.751  1.00  0.00    -0.203 F 
ATOM     88  C   UNL A   1      46.982  34.071  29.950  1.00  0.00     0.198 A 
ATOM     89  C   UNL A   1      46.347  34.648  27.708  1.00  0.00     0.198 A 
ATOM     90  F   UNL A   1      45.343  33.037  26.318  1.00  0.00    -0.203 F 
ATOM     91  F   UNL A   1      47.483  34.425  31.141  1.00  0.00    -0.200 F 
ATOM     92  C   UNL A   1      46.893  35.008  28.931  1.00  0.00     0.200 A 
ATOM     93  F   UNL A   1      46.271  35.547  26.717  1.00  0.00    -0.200 F 
ATOM     94  F   UNL A   1      47.328  36.260  29.129  1.00  0.00    -0.200 F 
ENDBRANCH  61  84
ENDBRANCH  35  36
ENDBRANCH  27  30
ENDBRANCH  25  26
ENDBRANCH  24  25
ENDBRANCH   1  24
TORSDOF 15
ENDMDL
MODEL 2
REMARK VINA RESULT:     -11.9      2.035      3.622
REMARK SMILES C[NH+](C)[C@H](CC(=O)Nc1cccc(Cl)c1)C(=O)NCCCCNC(=O)c1ccc(-c2c3nc(c(-c4c(F)c(F)c(F)c(F)c4F)c4ccc([nH]4)c(-c4c(F)c(F)c(F)c(F)c4F)c4nc(c(-c5c(F)c(F)c(F)c(F)c5F)c5ccc2[nH]5)C=C4)C=C3)cc1
REMARK SMILES IDX 20 1 19 2 18 3 16 4 17 5 4 7 2 8 1 9 3 10 5 12 6 13 7 14
REMARK SMILES IDX 8 15 9 17 10 18 15 19 11 20 13 21 12 22 14 23 21 24 22 25
REMARK SMILES IDX 23 26 24 27 25 29 26 30 27 31 88 32 28 33 87 34 29 35 30 36
REMARK SMILES IDX 31 37 81 38 32 39 86 40 80 41 82 42 33 43 85 44 79 45 78 46
REMARK SMILES IDX 34 48 66 49 46 50 65 51 47 52 50 53 64 54 83 55 48 56 49 57
REMARK SMILES IDX 63 59 84 60 51 61 35 62 36 63 44 64 37 65 38 66 42 67 45 68
REMARK SMILES IDX 39 69 40 70 43 71 41 72 67 73 68 74 76 75 69 76 70 77 74 78
REMARK SMILES IDX 77 79 71 80 72 81 75 82 73 83 52 84 53 85 61 86 54 87 55 88
REMARK SMILES IDX 59 89 62 90 56 91 57 92 60 93 58 94
REMARK H PARENT 18 6 2 11 8 16 23 28 82 47 50 58
REMARK Flexibility Score: inf
ROOT
ATOM      1  C   UNL A   1      37.348  22.026  24.624  1.00  0.00     0.023 C 
ENDROOT
BRANCH   1   2
ATOM      2  C   UNL A   1      36.772  22.842  25.774  1.00  0.00     0.116 C 
BRANCH   2   3
ATOM      3  N   UNL A   1      35.636  22.261  26.472  1.00  0.00    -0.351 N 
ATOM      4  C   UNL A   1      34.454  21.893  25.854  1.00  0.00     0.278 C 
ATOM      5  O   UNL A   1      34.142  20.702  25.941  1.00  0.00    -0.268 OA
ATOM      6  H   UNL A   1      35.712  22.121  27.443  1.00  0.00     0.163 HD
BRANCH   4   7
ATOM      7  C   UNL A   1      33.483  22.980  25.276  1.00  0.00     0.283 C 
BRANCH   7   8
ATOM      8  N   UNL A   1      33.550  23.129  23.790  1.00  0.00    -0.329 N 
ATOM      9  C   UNL A   1      34.083  24.372  23.255  1.00  0.00     0.333 C 
ATOM     10  C   UNL A   1      32.277  22.815  23.138  1.00  0.00     0.333 C 
ATOM     11  H   UNL A   1      34.257  22.431  23.555  1.00  0.00     0.348 HD
ENDBRANCH   7   8
BRANCH   7  12
ATOM     12  C   UNL A   1      33.140  24.185  26.152  1.00  0.00     0.175 C 
BRANCH  12  13
ATOM     13  C   UNL A   1      31.759  24.564  26.662  1.00  0.00     0.230 C 
ATOM     14  O   UNL A   1      31.063  23.643  27.125  1.00  0.00    -0.274 OA
ATOM     15  N   UNL A   1      31.240  25.798  26.877  1.00  0.00    -0.326 N 
ATOM     16  H   UNL A   1      30.523  25.749  27.551  1.00  0.00     0.169 HD
BRANCH  15  17
ATOM     17  C   UNL A   1      31.400  27.125  26.442  1.00  0.00     0.042 A 
ATOM     18  C   UNL A   1      31.897  28.170  27.209  1.00  0.00     0.026 A 
ATOM     19  C   UNL A   1      31.106  27.393  25.099  1.00  0.00     0.046 A 
ATOM     20  C   UNL A   1      32.094  29.452  26.682  1.00  0.00     0.004 A 
ATOM     21  C   UNL A   1      31.299  28.671  24.563  1.00  0.00     0.043 A 
ATOM     22  C   UNL A   1      31.795  29.704  25.351  1.00  0.00     0.020 A 
ATOM     23  Cl  UNL A   1      30.936  28.976  22.911  1.00  0.00    -0.084 Cl
ENDBRANCH  15  17
ENDBRANCH  12  13
ENDBRANCH   7  12
ENDBRANCH   4   7
ENDBRANCH   2   3
ENDBRANCH   1   2
BRANCH   1  24
ATOM     24  C   UNL A   1      37.923  20.664  25.033  1.00  0.00     0.023 C 
BRANCH  24  25
ATOM     25  C   UNL A   1      39.195  20.636  25.886  1.00  0.00     0.116 C 
BRANCH  25  26
ATOM     26  N   UNL A   1      39.997  19.431  25.779  1.00  0.00    -0.352 N 
ATOM     27  C   UNL A   1      41.355  19.294  26.001  1.00  0.00     0.251 C 
ATOM     28  H   UNL A   1      39.517  18.611  25.517  1.00  0.00     0.163 HD
ATOM     29  O   UNL A   1      41.902  18.208  25.822  1.00  0.00    -0.269 OA
BRANCH  27  30
ATOM     30  C   UNL A   1      42.165  20.480  26.380  1.00  0.00     0.039 A 
ATOM     31  C   UNL A   1      42.847  21.172  25.375  1.00  0.00     0.014 A 
ATOM     32  C   UNL A   1      42.191  20.959  27.693  1.00  0.00     0.014 A 
ATOM     33  C   UNL A   1      43.441  22.408  25.659  1.00  0.00     0.010 A 
ATOM     34  C   UNL A   1      42.735  22.217  27.965  1.00  0.00     0.010 A 
ATOM     35  C   UNL A   1      43.328  22.972  26.941  1.00  0.00    -0.014 A 
BRANCH  35  36
ATOM     36  C   UNL A   1      43.711  24.389  27.189  1.00  0.00     0.031 A 
ATOM     37  C   UNL A   1      42.708  25.401  27.665  1.00  0.00     0.074 A 
ATOM     38  C   UNL A   1      44.967  24.784  26.898  1.00  0.00     0.049 A 
ATOM     39  N   UNL A   1      42.870  26.682  27.889  1.00  0.00    -0.248 NA
ATOM     40  C   UNL A   1      41.341  24.917  27.898  1.00  0.00     0.031 C 
ATOM     41  C   UNL A   1      46.022  23.918  26.369  1.00  0.00     0.029 A 
ATOM     42  N   UNL A   1      45.569  26.016  26.992  1.00  0.00    -0.354 N 
ATOM     43  C   UNL A   1      41.629  27.157  28.289  1.00  0.00     0.074 A 
ATOM     44  C   UNL A   1      40.713  26.037  28.231  1.00  0.00     0.031 C 
ATOM     45  C   UNL A   1      47.142  24.637  26.203  1.00  0.00     0.029 A 
ATOM     46  C   UNL A   1      46.881  26.022  26.583  1.00  0.00     0.049 A 
ATOM     47  H   UNL A   1      45.104  26.819  27.321  1.00  0.00     0.167 HD
ATOM     48  C   UNL A   1      41.290  28.408  28.685  1.00  0.00     0.037 A 
ATOM     49  C   UNL A   1      47.774  27.027  26.516  1.00  0.00     0.037 A 
ATOM     50  C   UNL A   1      42.202  29.522  28.751  1.00  0.00     0.049 A 
ATOM     51  C   UNL A   1      47.370  28.406  26.958  1.00  0.00     0.074 A 
ATOM     52  C   UNL A   1      41.961  30.811  29.200  1.00  0.00     0.029 A 
ATOM     53  N   UNL A   1      43.529  29.484  28.348  1.00  0.00    -0.354 N 
ATOM     54  N   UNL A   1      46.216  28.822  27.416  1.00  0.00    -0.248 NA
ATOM     55  C   UNL A   1      48.399  29.455  26.882  1.00  0.00     0.031 C 
ATOM     56  C   UNL A   1      43.129  31.563  29.029  1.00  0.00     0.029 A 
ATOM     57  C   UNL A   1      44.112  30.732  28.516  1.00  0.00     0.049 A 
ATOM     58  H   UNL A   1      43.989  28.690  27.995  1.00  0.00     0.167 HD
ATOM     59  C   UNL A   1      46.385  30.169  27.709  1.00  0.00     0.074 A 
ATOM     60  C   UNL A   1      47.757  30.498  27.388  1.00  0.00     0.031 C 
ATOM     61  C   UNL A   1      45.480  31.051  28.200  1.00  0.00     0.037 A 
BRANCH  48  62
ATOM     62  C   UNL A   1      39.864  28.645  29.089  1.00  0.00     0.064 A 
ATOM     63  C   UNL A   1      39.436  28.450  30.411  1.00  0.00     0.173 A 
ATOM     64  C   UNL A   1      38.927  29.120  28.159  1.00  0.00     0.173 A 
ATOM     65  F   UNL A   1      40.292  27.990  31.336  1.00  0.00    -0.203 F 
ATOM     66  C   UNL A   1      38.117  28.695  30.781  1.00  0.00     0.198 A 
ATOM     67  C   UNL A   1      37.614  29.391  28.539  1.00  0.00     0.198 A 
ATOM     68  F   UNL A   1      39.286  29.333  26.885  1.00  0.00    -0.203 F 
ATOM     69  F   UNL A   1      37.721  28.462  32.040  1.00  0.00    -0.200 F 
ATOM     70  C   UNL A   1      37.209  29.172  29.847  1.00  0.00     0.200 A 
ATOM     71  F   UNL A   1      36.742  29.864  27.639  1.00  0.00    -0.200 F 
ATOM     72  F   UNL A   1      35.941  29.416  30.206  1.00  0.00    -0.200 F 
ENDBRANCH  48  62
BRANCH  49  73
ATOM     73  C   UNL A   1      49.155  26.759  26.037  1.00  0.00     0.064 A 
ATOM     74  C   UNL A   1      49.503  26.974  24.696  1.00  0.00     0.173 A 
ATOM     75  C   UNL A   1      50.149  26.284  26.903  1.00  0.00     0.173 A 
ATOM     76  F   UNL A   1      48.580  27.408  23.826  1.00  0.00    -0.203 F 
ATOM     77  C   UNL A   1      50.791  26.705  24.235  1.00  0.00     0.198 A 
ATOM     78  C   UNL A   1      51.443  26.041  26.447  1.00  0.00     0.198 A 
ATOM     79  F   UNL A   1      49.866  26.066  28.196  1.00  0.00    -0.203 F 
ATOM     80  F   UNL A   1      51.086  26.879  22.941  1.00  0.00    -0.200 F 
ATOM     81  C   UNL A   1      51.762  26.245  25.112  1.00  0.00     0.200 A 
ATOM     82  F   UNL A   1      52.382  25.608  27.300  1.00  0.00    -0.200 F 
ATOM     83  F   UNL A   1      53.000  25.990  24.670  1.00  0.00    -0.200 F 
ENDBRANCH  49  73
BRANCH  61  84
ATOM     84  C   UNL A   1      45.953  32.452  28.450  1.00  0.00     0.064 A 
ATOM     85  C   UNL A   1      45.846  33.451  27.472  1.00  0.00     0.173 A 
ATOM     86  C   UNL A   1      46.490  32.808  29.698  1.00  0.00     0.173 A 
ATOM     87  F   UNL A   1      45.357  33.157  26.258  1.00  0.00    -0.203 F 
ATOM     88  C   UNL A   1      46.280  34.750  27.725  1.00  0.00     0.198 A 
ATOM     89  C   UNL A   1      46.898  34.114  29.956  1.00  0.00     0.198 A 
ATOM     90  F   UNL A   1      46.610  31.891  30.669  1.00  0.00    -0.203 F 
ATOM     91  F   UNL A   1      46.209  35.678  26.760  1.00  0.00    -0.200 F 
ATOM     92  C   UNL A   1      46.798  35.082  28.968  1.00  0.00     0.200 A 
ATOM     93  F   UNL A   1      47.388  34.435  31.161  1.00  0.00    -0.200 F 
ATOM     94  F   UNL A   1      47.209  36.335  29.211  1.00  0.00    -0.200 F 
ENDBRANCH  61  84
ENDBRANCH  35  36
ENDBRANCH  27  30
ENDBRANCH  25  26
ENDBRANCH  24  25
ENDBRANCH   1  24
TORSDOF 15
ENDMDL
MODEL 3
REMARK VINA RESULT:     -11.9      5.155     10.426
REMARK SMILES C[NH+](C)[C@H](CC(=O)Nc1cccc(Cl)c1)C(=O)NCCCCNC(=O)c1ccc(-c2c3nc(c(-c4c(F)c(F)c(F)c(F)c4F)c4ccc([nH]4)c(-c4c(F)c(F)c(F)c(F)c4F)c4nc(c(-c5c(F)c(F)c(F)c(F)c5F)c5ccc2[nH]5)C=C4)C=C3)cc1
REMARK SMILES IDX 20 1 19 2 18 3 16 4 17 5 4 7 2 8 1 9 3 10 5 12 6 13 7 14
REMARK SMILES IDX 8 15 9 17 10 18 15 19 11 20 13 21 12 22 14 23 21 24 22 25
REMARK SMILES IDX 23 26 24 27 25 29 26 30 27 31 88 32 28 33 87 34 29 35 30 36
REMARK SMILES IDX 31 37 81 38 32 39 86 40 80 41 82 42 33 43 85 44 79 45 78 46
REMARK SMILES IDX 34 48 66 49 46 50 65 51 47 52 50 53 64 54 83 55 48 56 49 57
REMARK SMILES IDX 63 59 84 60 51 61 35 62 36 63 44 64 37 65 38 66 42 67 45 68
REMARK SMILES IDX 39 69 40 70 43 71 41 72 67 73 68 74 76 75 69 76 70 77 74 78
REMARK SMILES IDX 77 79 71 80 72 81 75 82 73 83 52 84 53 85 61 86 54 87 55 88
REMARK SMILES IDX 59 89 62 90 56 91 57 92 60 93 58 94
REMARK H PARENT 18 6 2 11 8 16 23 28 82 47 50 58
REMARK Flexibility Score: inf
ROOT
ATOM      1  C   UNL A   1      31.789  27.788  27.027  1.00  0.00     0.023 C 
ENDROOT
BRANCH   1   2
ATOM      2  C   UNL A   1      32.324  26.464  26.498  1.00  0.00     0.116 C 
BRANCH   2   3
ATOM      3  N   UNL A   1      31.411  25.333  26.545  1.00  0.00    -0.351 N 
ATOM      4  C   UNL A   1      31.815  24.016  26.662  1.00  0.00     0.278 C 
ATOM      5  O   UNL A   1      31.408  23.408  27.656  1.00  0.00    -0.268 OA
ATOM      6  H   UNL A   1      30.445  25.517  26.491  1.00  0.00     0.163 HD
BRANCH   4   7
ATOM      7  C   UNL A   1      32.562  23.302  25.483  1.00  0.00     0.283 C 
BRANCH   7   8
ATOM      8  N   UNL A   1      32.771  21.836  25.693  1.00  0.00    -0.329 N 
ATOM      9  C   UNL A   1      34.099  21.389  26.084  1.00  0.00     0.333 C 
ATOM     10  C   UNL A   1      32.290  21.035  24.567  1.00  0.00     0.333 C 
ATOM     11  H   UNL A   1      32.199  21.674  26.522  1.00  0.00     0.348 HD
ENDBRANCH   7   8
BRANCH   7  12
ATOM     12  C   UNL A   1      33.571  24.110  24.668  1.00  0.00     0.175 C 
BRANCH  12  13
ATOM     13  C   UNL A   1      33.443  24.496  23.203  1.00  0.00     0.230 C 
ATOM     14  O   UNL A   1      34.335  24.087  22.438  1.00  0.00    -0.274 OA
ATOM     15  N   UNL A   1      32.388  25.053  22.558  1.00  0.00    -0.326 N 
ATOM     16  H   UNL A   1      32.425  24.831  21.599  1.00  0.00     0.169 HD
BRANCH  15  17
ATOM     17  C   UNL A   1      31.260  25.847  22.825  1.00  0.00     0.042 A 
ATOM     18  C   UNL A   1      30.163  25.461  23.584  1.00  0.00     0.026 A 
ATOM     19  C   UNL A   1      31.283  27.164  22.348  1.00  0.00     0.046 A 
ATOM     20  C   UNL A   1      29.107  26.335  23.865  1.00  0.00     0.004 A 
ATOM     21  C   UNL A   1      30.231  28.045  22.623  1.00  0.00     0.043 A 
ATOM     22  C   UNL A   1      29.141  27.635  23.384  1.00  0.00     0.020 A 
ATOM     23  Cl  UNL A   1      30.282  29.658  22.031  1.00  0.00    -0.084 Cl
ENDBRANCH  15  17
ENDBRANCH  12  13
ENDBRANCH   7  12
ENDBRANCH   4   7
ENDBRANCH   2   3
ENDBRANCH   1   2
BRANCH   1  24
ATOM     24  C   UNL A   1      31.647  28.888  25.967  1.00  0.00     0.023 C 
BRANCH  24  25
ATOM     25  C   UNL A   1      32.745  29.952  25.869  1.00  0.00     0.116 C 
BRANCH  25  26
ATOM     26  N   UNL A   1      32.452  31.220  26.511  1.00  0.00    -0.352 N 
ATOM     27  C   UNL A   1      33.266  31.949  27.357  1.00  0.00     0.251 C 
ATOM     28  H   UNL A   1      31.567  31.608  26.322  1.00  0.00     0.163 HD
ATOM     29  O   UNL A   1      32.854  32.990  27.863  1.00  0.00    -0.269 OA
BRANCH  27  30
ATOM     30  C   UNL A   1      34.612  31.432  27.716  1.00  0.00     0.039 A 
ATOM     31  C   UNL A   1      35.659  32.346  27.871  1.00  0.00     0.014 A 
ATOM     32  C   UNL A   1      34.828  30.077  27.979  1.00  0.00     0.014 A 
ATOM     33  C   UNL A   1      36.879  31.923  28.413  1.00  0.00     0.010 A 
ATOM     34  C   UNL A   1      36.026  29.664  28.571  1.00  0.00     0.010 A 
ATOM     35  C   UNL A   1      37.046  30.592  28.832  1.00  0.00    -0.014 A 
BRANCH  35  36
ATOM     36  C   UNL A   1      38.223  30.191  29.651  1.00  0.00     0.031 A 
ATOM     37  C   UNL A   1      39.227  29.196  29.144  1.00  0.00     0.074 A 
ATOM     38  C   UNL A   1      38.339  30.673  30.904  1.00  0.00     0.049 A 
ATOM     39  N   UNL A   1      40.285  28.710  29.748  1.00  0.00    -0.248 NA
ATOM     40  C   UNL A   1      39.005  28.660  27.795  1.00  0.00     0.031 C 
ATOM     41  C   UNL A   1      37.400  31.598  31.542  1.00  0.00     0.029 A 
ATOM     42  N   UNL A   1      39.286  30.445  31.875  1.00  0.00    -0.354 N 
ATOM     43  C   UNL A   1      40.852  27.812  28.854  1.00  0.00     0.074 A 
ATOM     44  C   UNL A   1      39.997  27.786  27.686  1.00  0.00     0.031 C 
ATOM     45  C   UNL A   1      37.825  31.871  32.785  1.00  0.00     0.029 A 
ATOM     46  C   UNL A   1      39.048  31.120  33.047  1.00  0.00     0.049 A 
ATOM     47  H   UNL A   1      40.061  29.854  31.742  1.00  0.00     0.167 HD
ATOM     48  C   UNL A   1      41.992  27.091  28.989  1.00  0.00     0.037 A 
ATOM     49  C   UNL A   1      39.734  31.134  34.205  1.00  0.00     0.037 A 
ATOM     50  C   UNL A   1      42.850  27.123  30.147  1.00  0.00     0.049 A 
ATOM     51  C   UNL A   1      40.993  30.322  34.329  1.00  0.00     0.074 A 
ATOM     52  C   UNL A   1      44.057  26.474  30.346  1.00  0.00     0.029 A 
ATOM     53  N   UNL A   1      42.587  27.836  31.308  1.00  0.00    -0.354 N 
ATOM     54  N   UNL A   1      41.565  29.544  33.444  1.00  0.00    -0.248 NA
ATOM     55  C   UNL A   1      41.708  30.397  35.613  1.00  0.00     0.031 C 
ATOM     56  C   UNL A   1      44.504  26.758  31.641  1.00  0.00     0.029 A 
ATOM     57  C   UNL A   1      43.597  27.622  32.235  1.00  0.00     0.049 A 
ATOM     58  H   UNL A   1      41.800  28.407  31.453  1.00  0.00     0.167 HD
ATOM     59  C   UNL A   1      42.717  29.060  34.049  1.00  0.00     0.074 A 
ATOM     60  C   UNL A   1      42.770  29.641  35.374  1.00  0.00     0.031 C 
ATOM     61  C   UNL A   1      43.646  28.209  33.548  1.00  0.00     0.037 A 
BRANCH  48  62
ATOM     62  C   UNL A   1      42.390  26.203  27.846  1.00  0.00     0.064 A 
ATOM     63  C   UNL A   1      41.818  24.933  27.673  1.00  0.00     0.173 A 
ATOM     64  C   UNL A   1      43.314  26.643  26.888  1.00  0.00     0.173 A 
ATOM     65  F   UNL A   1      40.935  24.464  28.567  1.00  0.00    -0.203 F 
ATOM     66  C   UNL A   1      42.176  24.127  26.597  1.00  0.00     0.198 A 
ATOM     67  C   UNL A   1      43.650  25.844  25.796  1.00  0.00     0.198 A 
ATOM     68  F   UNL A   1      43.883  27.852  27.001  1.00  0.00    -0.203 F 
ATOM     69  F   UNL A   1      41.648  22.902  26.474  1.00  0.00    -0.200 F 
ATOM     70  C   UNL A   1      43.086  24.585  25.655  1.00  0.00     0.200 A 
ATOM     71  F   UNL A   1      44.519  26.294  24.881  1.00  0.00    -0.200 F 
ATOM     72  F   UNL A   1      43.424  23.811  24.615  1.00  0.00    -0.200 F 
ENDBRANCH  48  62
BRANCH  49  73
ATOM     73  C   UNL A   1      39.259  31.972  35.338  1.00  0.00     0.064 A 
ATOM     74  C   UNL A   1      39.601  33.328  35.419  1.00  0.00     0.173 A 
ATOM     75  C   UNL A   1      38.460  31.436  36.357  1.00  0.00     0.173 A 
ATOM     76  F   UNL A   1      40.381  33.880  34.478  1.00  0.00    -0.203 F 
ATOM     77  C   UNL A   1      39.176  34.114  36.489  1.00  0.00     0.198 A 
ATOM     78  C   UNL A   1      38.014  32.229  37.413  1.00  0.00     0.198 A 
ATOM     79  F   UNL A   1      38.103  30.143  36.323  1.00  0.00    -0.203 F 
ATOM     80  F   UNL A   1      39.552  35.398  36.564  1.00  0.00    -0.200 F 
ATOM     81  C   UNL A   1      38.378  33.566  37.481  1.00  0.00     0.200 A 
ATOM     82  F   UNL A   1      37.233  31.698  38.363  1.00  0.00    -0.200 F 
ATOM     83  F   UNL A   1      37.967  34.322  38.508  1.00  0.00    -0.200 F 
ENDBRANCH  49  73
BRANCH  61  84
ATOM     84  C   UNL A   1      44.818  27.879  34.425  1.00  0.00     0.064 A 
ATOM     85  C   UNL A   1      45.967  28.682  34.453  1.00  0.00     0.173 A 
ATOM     86  C   UNL A   1      44.776  26.762  35.276  1.00  0.00     0.173 A 
ATOM     87  F   UNL A   1      46.062  29.751  33.646  1.00  0.00    -0.203 F 
ATOM     88  C   UNL A   1      47.040  28.368  35.282  1.00  0.00     0.198 A 
ATOM     89  C   UNL A   1      45.841  26.466  36.122  1.00  0.00     0.198 A 
ATOM     90  F   UNL A   1      43.699  25.964  35.290  1.00  0.00    -0.203 F 
ATOM     91  F   UNL A   1      48.146  29.125  35.258  1.00  0.00    -0.200 F 
ATOM     92  C   UNL A   1      46.975  27.265  36.120  1.00  0.00     0.200 A 
ATOM     93  F   UNL A   1      45.770  25.406  36.940  1.00  0.00    -0.200 F 
ATOM     94  F   UNL A   1      48.007  26.968  36.922  1.00  0.00    -0.200 F 
ENDBRANCH  61  84
ENDBRANCH  35  36
ENDBRANCH  27  30
ENDBRANCH  25  26
ENDBRANCH  24  25
ENDBRANCH   1  24
TORSDOF 15
ENDMDL
