MODEL 1
REMARK VINA RESULT:     -13.2      0.000      0.000
REMARK SMILES C[C@H]1CN(c2ccc([N+](=O)[O-])c(C(=O)NCCCCNC(=O)c3ccc(-c4c5nc(c(-c6c(F)c(F)c(F)c(F)c6F)c6ccc([nH]6)c(-c6c(F)c(F)c(F)c(F)c6F)c6nc(c(-c7c(F)c(F)c(F)c(F)c7F)c7ccc4[nH]7)C=C6)C=C5)cc3)c2)C[C@H](C)O1
REMARK SMILES IDX 18 1 17 2 16 3 15 4 13 5 14 6 12 8 5 9 6 10 86 11 7 12 8 13
REMARK SMILES IDX 4 14 1 15 2 16 3 17 90 18 88 19 87 20 89 21 9 22 10 23 11 24
REMARK SMILES IDX 19 25 20 26 21 27 22 29 23 30 24 31 85 32 25 33 84 34 26 35
REMARK SMILES IDX 27 36 28 37 78 38 29 39 83 40 77 41 79 42 30 43 82 44 76 45
REMARK SMILES IDX 75 46 31 48 63 49 43 50 62 51 44 52 47 53 61 54 80 55 45 56
REMARK SMILES IDX 46 57 60 59 81 60 48 61 32 62 33 63 41 64 34 65 35 66 39 67
REMARK SMILES IDX 42 68 36 69 37 70 40 71 38 72 64 73 65 74 73 75 66 76 67 77
REMARK SMILES IDX 71 78 74 79 68 80 69 81 72 82 70 83 49 84 50 85 58 86 51 87
REMARK SMILES IDX 52 88 56 89 59 90 53 91 54 92 57 93 55 94
REMARK H PARENT 15 7 20 28 79 47 47 58
REMARK Flexibility Score: inf
ROOT
ATOM      1  C   UNL A   1      31.429  32.137  26.571  1.00  0.00     0.023 C 
ENDROOT
BRANCH   1   2
ATOM      2  C   UNL A   1      31.544  30.630  26.397  1.00  0.00     0.023 C 
BRANCH   2   3
ATOM      3  C   UNL A   1      32.947  30.072  26.203  1.00  0.00     0.116 C 
BRANCH   3   4
ATOM      4  N   UNL A   1      33.350  29.884  24.817  1.00  0.00    -0.352 N 
ATOM      5  C   UNL A   1      32.871  29.056  23.820  1.00  0.00     0.258 C 
ATOM      6  O   UNL A   1      33.419  29.114  22.723  1.00  0.00    -0.269 OA
ATOM      7  H   UNL A   1      34.104  30.452  24.537  1.00  0.00     0.163 HD
BRANCH   5   8
ATOM      8  C   UNL A   1      31.793  28.059  24.065  1.00  0.00     0.119 A 
ATOM      9  C   UNL A   1      31.241  25.764  24.702  1.00  0.00     0.038 A 
ATOM     10  C   UNL A   1      30.030  25.887  24.006  1.00  0.00     0.033 A 
ATOM     11  C   UNL A   1      32.051  26.899  24.805  1.00  0.00     0.047 A 
ATOM     12  C   UNL A   1      29.642  27.099  23.440  1.00  0.00     0.088 A 
ATOM     13  C   UNL A   1      30.534  28.175  23.473  1.00  0.00     0.282 A 
BRANCH   9  14
ATOM     14  N   UNL A   1      31.622  24.549  25.225  1.00  0.00    -0.366 N 
ATOM     15  C   UNL A   1      34.176  22.840  27.469  1.00  0.00     0.040 C 
ATOM     16  C   UNL A   1      32.810  23.249  26.932  1.00  0.00     0.135 C 
ATOM     17  C   UNL A   1      32.949  24.294  25.801  1.00  0.00     0.148 C 
ATOM     18  O   UNL A   1      32.135  22.056  26.483  1.00  0.00    -0.372 OA
ATOM     19  C   UNL A   1      30.843  22.320  25.899  1.00  0.00     0.135 C 
ATOM     20  C   UNL A   1      30.954  23.326  24.742  1.00  0.00     0.148 C 
ATOM     21  C   UNL A   1      29.817  22.777  26.938  1.00  0.00     0.040 C 
ENDBRANCH   9  14
BRANCH  13  22
ATOM     22  N   UNL A   1      30.056  29.429  22.932  1.00  0.00     0.063 N 
ATOM     23  O   UNL A   1      30.067  29.544  21.699  1.00  0.00    -0.258 OA
ATOM     24  O   UNL A   1      29.538  30.218  23.733  1.00  0.00    -0.258 OA
ENDBRANCH  13  22
ENDBRANCH   5   8
ENDBRANCH   3   4
ENDBRANCH   2   3
ENDBRANCH   1   2
BRANCH   1  25
ATOM     25  C   UNL A   1      32.606  32.823  27.250  1.00  0.00     0.116 C 
BRANCH  25  26
ATOM     26  N   UNL A   1      32.340  34.198  27.649  1.00  0.00    -0.352 N 
ATOM     27  C   UNL A   1      32.977  34.983  28.584  1.00  0.00     0.251 C 
ATOM     28  H   UNL A   1      31.590  34.631  27.181  1.00  0.00     0.163 HD
ATOM     29  O   UNL A   1      32.557  36.104  28.836  1.00  0.00    -0.269 OA
BRANCH  27  30
ATOM     30  C   UNL A   1      34.147  34.450  29.316  1.00  0.00     0.039 A 
ATOM     31  C   UNL A   1      33.936  33.779  30.524  1.00  0.00     0.014 A 
ATOM     32  C   UNL A   1      35.437  34.574  28.798  1.00  0.00     0.014 A 
ATOM     33  C   UNL A   1      35.007  33.150  31.161  1.00  0.00     0.010 A 
ATOM     34  C   UNL A   1      36.486  33.876  29.387  1.00  0.00     0.010 A 
ATOM     35  C   UNL A   1      36.281  33.151  30.572  1.00  0.00    -0.014 A 
BRANCH  35  36
ATOM     36  C   UNL A   1      37.412  32.396  31.169  1.00  0.00     0.031 A 
ATOM     37  C   UNL A   1      37.914  32.753  32.540  1.00  0.00     0.074 A 
ATOM     38  C   UNL A   1      38.038  31.447  30.447  1.00  0.00     0.049 A 
ATOM     39  N   UNL A   1      38.937  32.272  33.200  1.00  0.00    -0.248 NA
ATOM     40  C   UNL A   1      37.186  33.816  33.252  1.00  0.00     0.031 C 
ATOM     41  C   UNL A   1      37.680  31.044  29.087  1.00  0.00     0.029 A 
ATOM     42  N   UNL A   1      39.116  30.654  30.754  1.00  0.00    -0.354 N 
ATOM     43  C   UNL A   1      38.987  32.985  34.390  1.00  0.00     0.074 A 
ATOM     44  C   UNL A   1      37.927  33.970  34.337  1.00  0.00     0.031 C 
ATOM     45  C   UNL A   1      38.502  30.059  28.689  1.00  0.00     0.029 A 
ATOM     46  C   UNL A   1      39.469  29.789  29.748  1.00  0.00     0.049 A 
ATOM     47  H   UNL A   1      39.592  30.702  31.615  1.00  0.00     0.167 HD
ATOM     48  C   UNL A   1      39.824  32.819  35.443  1.00  0.00     0.037 A 
ATOM     49  C   UNL A   1      40.461  28.881  29.688  1.00  0.00     0.037 A 
ATOM     50  C   UNL A   1      40.856  31.818  35.503  1.00  0.00     0.049 A 
ATOM     51  C   UNL A   1      41.382  28.720  30.866  1.00  0.00     0.074 A 
ATOM     52  C   UNL A   1      41.710  31.522  36.550  1.00  0.00     0.029 A 
ATOM     53  N   UNL A   1      41.175  30.951  34.468  1.00  0.00    -0.354 N 
ATOM     54  N   UNL A   1      41.373  29.350  32.016  1.00  0.00    -0.248 NA
ATOM     55  C   UNL A   1      42.451  27.719  30.738  1.00  0.00     0.031 C 
ATOM     56  C   UNL A   1      42.575  30.504  36.135  1.00  0.00     0.029 A 
ATOM     57  C   UNL A   1      42.229  30.134  34.845  1.00  0.00     0.049 A 
ATOM     58  H   UNL A   1      40.720  30.921  33.596  1.00  0.00     0.167 HD
ATOM     59  C   UNL A   1      42.410  28.801  32.760  1.00  0.00     0.074 A 
ATOM     60  C   UNL A   1      43.020  27.780  31.934  1.00  0.00     0.031 C 
ATOM     61  C   UNL A   1      42.817  29.114  34.014  1.00  0.00     0.037 A 
BRANCH  48  62
ATOM     62  C   UNL A   1      39.649  33.742  36.613  1.00  0.00     0.064 A 
ATOM     63  C   UNL A   1      40.274  34.998  36.659  1.00  0.00     0.173 A 
ATOM     64  C   UNL A   1      38.837  33.374  37.696  1.00  0.00     0.173 A 
ATOM     65  F   UNL A   1      41.071  35.393  35.655  1.00  0.00    -0.203 F 
ATOM     66  C   UNL A   1      40.126  35.833  37.764  1.00  0.00     0.198 A 
ATOM     67  C   UNL A   1      38.664  34.226  38.785  1.00  0.00     0.198 A 
ATOM     68  F   UNL A   1      38.210  32.189  37.701  1.00  0.00    -0.203 F 
ATOM     69  F   UNL A   1      40.781  37.001  37.812  1.00  0.00    -0.200 F 
ATOM     70  C   UNL A   1      39.317  35.449  38.822  1.00  0.00     0.200 A 
ATOM     71  F   UNL A   1      37.873  33.859  39.802  1.00  0.00    -0.200 F 
ATOM     72  F   UNL A   1      39.175  36.254  39.885  1.00  0.00    -0.200 F 
ENDBRANCH  48  62
BRANCH  49  73
ATOM     73  C   UNL A   1      40.613  28.024  28.484  1.00  0.00     0.064 A 
ATOM     74  C   UNL A   1      39.978  26.776  28.414  1.00  0.00     0.173 A 
ATOM     75  C   UNL A   1      41.390  28.423  27.388  1.00  0.00     0.173 A 
ATOM     76  F   UNL A   1      39.241  26.342  29.448  1.00  0.00    -0.203 F 
ATOM     77  C   UNL A   1      40.127  25.952  27.300  1.00  0.00     0.198 A 
ATOM     78  C   UNL A   1      41.519  27.610  26.263  1.00  0.00     0.198 A 
ATOM     79  F   UNL A   1      42.015  29.609  27.404  1.00  0.00    -0.203 F 
ATOM     80  F   UNL A   1      39.544  24.746  27.279  1.00  0.00    -0.200 F 
ATOM     81  C   UNL A   1      40.893  26.372  26.224  1.00  0.00     0.200 A 
ATOM     82  F   UNL A   1      42.248  28.024  25.219  1.00  0.00    -0.200 F 
ATOM     83  F   UNL A   1      41.034  25.581  25.151  1.00  0.00    -0.200 F 
ENDBRANCH  49  73
BRANCH  61  84
ATOM     84  C   UNL A   1      43.950  28.314  34.588  1.00  0.00     0.064 A 
ATOM     85  C   UNL A   1      45.278  28.760  34.510  1.00  0.00     0.173 A 
ATOM     86  C   UNL A   1      43.698  27.107  35.256  1.00  0.00     0.173 A 
ATOM     87  F   UNL A   1      45.571  29.900  33.867  1.00  0.00    -0.203 F 
ATOM     88  C   UNL A   1      46.315  28.012  35.061  1.00  0.00     0.198 A 
ATOM     89  C   UNL A   1      44.735  26.377  35.831  1.00  0.00     0.198 A 
ATOM     90  F   UNL A   1      42.445  26.641  35.362  1.00  0.00    -0.203 F 
ATOM     91  F   UNL A   1      47.581  28.433  34.936  1.00  0.00    -0.200 F 
ATOM     92  C   UNL A   1      46.042  26.826  35.727  1.00  0.00     0.200 A 
ATOM     93  F   UNL A   1      44.468  25.237  36.484  1.00  0.00    -0.200 F 
ATOM     94  F   UNL A   1      47.041  26.112  36.263  1.00  0.00    -0.200 F 
ENDBRANCH  61  84
ENDBRANCH  35  36
ENDBRANCH  27  30
ENDBRANCH  25  26
ENDBRANCH   1  25
TORSDOF 13
ENDMDL
MODEL 2
REMARK VINA RESULT:     -13.2      0.546      7.287
REMARK SMILES C[C@H]1CN(c2ccc([N+](=O)[O-])c(C(=O)NCCCCNC(=O)c3ccc(-c4c5nc(c(-c6c(F)c(F)c(F)c(F)c6F)c6ccc([nH]6)c(-c6c(F)c(F)c(F)c(F)c6F)c6nc(c(-c7c(F)c(F)c(F)c(F)c7F)c7ccc4[nH]7)C=C6)C=C5)cc3)c2)C[C@H](C)O1
REMARK SMILES IDX 18 1 17 2 16 3 15 4 13 5 14 6 12 8 5 9 6 10 86 11 7 12 8 13
REMARK SMILES IDX 4 14 1 15 2 16 3 17 90 18 88 19 87 20 89 21 9 22 10 23 11 24
REMARK SMILES IDX 19 25 20 26 21 27 22 29 23 30 24 31 85 32 25 33 84 34 26 35
REMARK SMILES IDX 27 36 28 37 78 38 29 39 83 40 77 41 79 42 30 43 82 44 76 45
REMARK SMILES IDX 75 46 31 48 63 49 43 50 62 51 44 52 47 53 61 54 80 55 45 56
REMARK SMILES IDX 46 57 60 59 81 60 48 61 32 62 33 63 41 64 34 65 35 66 39 67
REMARK SMILES IDX 42 68 36 69 37 70 40 71 38 72 64 73 65 74 73 75 66 76 67 77
REMARK SMILES IDX 71 78 74 79 68 80 69 81 72 82 70 83 49 84 50 85 58 86 51 87
REMARK SMILES IDX 52 88 56 89 59 90 53 91 54 92 57 93 55 94
REMARK H PARENT 15 7 20 28 79 47 47 58
REMARK Flexibility Score: inf
ROOT
ATOM      1  C   UNL A   1      31.710  31.954  26.590  1.00  0.00     0.023 C 
ENDROOT
BRANCH   1   2
ATOM      2  C   UNL A   1      31.827  30.438  26.634  1.00  0.00     0.023 C 
BRANCH   2   3
ATOM      3  C   UNL A   1      33.182  29.848  26.267  1.00  0.00     0.116 C 
BRANCH   3   4
ATOM      4  N   UNL A   1      33.458  29.781  24.839  1.00  0.00    -0.352 N 
ATOM      5  C   UNL A   1      32.876  29.056  23.819  1.00  0.00     0.258 C 
ATOM      6  O   UNL A   1      33.327  29.204  22.687  1.00  0.00    -0.269 OA
ATOM      7  H   UNL A   1      34.199  30.361  24.546  1.00  0.00     0.163 HD
BRANCH   5   8
ATOM      8  C   UNL A   1      31.799  28.058  24.068  1.00  0.00     0.119 A 
ATOM      9  C   UNL A   1      31.252  25.758  24.692  1.00  0.00     0.038 A 
ATOM     10  C   UNL A   1      30.032  25.889  24.012  1.00  0.00     0.033 A 
ATOM     11  C   UNL A   1      32.064  26.890  24.795  1.00  0.00     0.047 A 
ATOM     12  C   UNL A   1      29.639  27.106  23.462  1.00  0.00     0.088 A 
ATOM     13  C   UNL A   1      30.533  28.180  23.493  1.00  0.00     0.282 A 
BRANCH   9  14
ATOM     14  N   UNL A   1      31.638  24.537  25.199  1.00  0.00    -0.366 N 
ATOM     15  C   UNL A   1      34.262  22.793  27.330  1.00  0.00     0.040 C 
ATOM     16  C   UNL A   1      32.881  23.221  26.854  1.00  0.00     0.135 C 
ATOM     17  C   UNL A   1      32.985  24.263  25.716  1.00  0.00     0.148 C 
ATOM     18  O   UNL A   1      32.170  22.038  26.436  1.00  0.00    -0.372 OA
ATOM     19  C   UNL A   1      30.857  22.320  25.908  1.00  0.00     0.135 C 
ATOM     20  C   UNL A   1      30.932  23.323  24.746  1.00  0.00     0.148 C 
ATOM     21  C   UNL A   1      29.884  22.792  26.990  1.00  0.00     0.040 C 
ENDBRANCH   9  14
BRANCH  13  22
ATOM     22  N   UNL A   1      30.050  29.440  22.970  1.00  0.00     0.063 N 
ATOM     23  O   UNL A   1      29.922  29.519  21.741  1.00  0.00    -0.258 OA
ATOM     24  O   UNL A   1      29.663  30.274  23.799  1.00  0.00    -0.258 OA
ENDBRANCH  13  22
ENDBRANCH   5   8
ENDBRANCH   3   4
ENDBRANCH   2   3
ENDBRANCH   1   2
BRANCH   1  25
ATOM     25  C   UNL A   1      32.801  32.731  27.315  1.00  0.00     0.116 C 
BRANCH  25  26
ATOM     26  N   UNL A   1      32.429  34.097  27.651  1.00  0.00    -0.352 N 
ATOM     27  C   UNL A   1      32.977  34.957  28.578  1.00  0.00     0.251 C 
ATOM     28  H   UNL A   1      31.671  34.462  27.141  1.00  0.00     0.163 HD
ATOM     29  O   UNL A   1      32.476  36.055  28.772  1.00  0.00    -0.269 OA
BRANCH  27  30
ATOM     30  C   UNL A   1      34.151  34.530  29.372  1.00  0.00     0.039 A 
ATOM     31  C   UNL A   1      33.940  33.958  30.629  1.00  0.00     0.014 A 
ATOM     32  C   UNL A   1      35.445  34.655  28.864  1.00  0.00     0.014 A 
ATOM     33  C   UNL A   1      35.020  33.423  31.335  1.00  0.00     0.010 A 
ATOM     34  C   UNL A   1      36.506  34.047  29.528  1.00  0.00     0.010 A 
ATOM     35  C   UNL A   1      36.304  33.420  30.767  1.00  0.00    -0.014 A 
BRANCH  35  36
ATOM     36  C   UNL A   1      37.449  32.759  31.445  1.00  0.00     0.031 A 
ATOM     37  C   UNL A   1      38.151  31.608  30.783  1.00  0.00     0.074 A 
ATOM     38  C   UNL A   1      37.803  33.142  32.687  1.00  0.00     0.049 A 
ATOM     39  N   UNL A   1      39.114  30.848  31.242  1.00  0.00    -0.248 NA
ATOM     40  C   UNL A   1      37.689  31.240  29.435  1.00  0.00     0.031 C 
ATOM     41  C   UNL A   1      37.167  34.211  33.457  1.00  0.00     0.029 A 
ATOM     42  N   UNL A   1      38.780  32.666  33.526  1.00  0.00    -0.354 N 
ATOM     43  C   UNL A   1      39.355  29.905  30.253  1.00  0.00     0.074 A 
ATOM     44  C   UNL A   1      38.401  30.152  29.192  1.00  0.00     0.031 C 
ATOM     45  C   UNL A   1      37.789  34.330  34.641  1.00  0.00     0.029 A 
ATOM     46  C   UNL A   1      38.841  33.323  34.730  1.00  0.00     0.049 A 
ATOM     47  H   UNL A   1      39.381  31.923  33.286  1.00  0.00     0.167 HD
ATOM     48  C   UNL A   1      40.302  28.937  30.218  1.00  0.00     0.037 A 
ATOM     49  C   UNL A   1      39.653  33.131  35.787  1.00  0.00     0.037 A 
ATOM     50  C   UNL A   1      41.268  28.714  31.261  1.00  0.00     0.049 A 
ATOM     51  C   UNL A   1      40.691  32.044  35.727  1.00  0.00     0.074 A 
ATOM     52  C   UNL A   1      42.312  27.807  31.291  1.00  0.00     0.029 A 
ATOM     53  N   UNL A   1      41.306  29.408  32.461  1.00  0.00    -0.354 N 
ATOM     54  N   UNL A   1      40.959  31.206  34.755  1.00  0.00    -0.248 NA
ATOM     55  C   UNL A   1      41.543  31.879  36.914  1.00  0.00     0.031 C 
ATOM     56  C   UNL A   1      42.955  27.922  32.528  1.00  0.00     0.029 A 
ATOM     57  C   UNL A   1      42.342  28.934  33.250  1.00  0.00     0.049 A 
ATOM     58  H   UNL A   1      40.689  30.132  32.715  1.00  0.00     0.167 HD
ATOM     59  C   UNL A   1      42.029  30.438  35.197  1.00  0.00     0.074 A 
ATOM     60  C   UNL A   1      42.366  30.916  36.522  1.00  0.00     0.031 C 
ATOM     61  C   UNL A   1      42.672  29.429  34.561  1.00  0.00     0.037 A 
BRANCH  48  62
ATOM     62  C   UNL A   1      40.335  28.049  29.007  1.00  0.00     0.064 A 
ATOM     63  C   UNL A   1      41.082  28.387  27.868  1.00  0.00     0.173 A 
ATOM     64  C   UNL A   1      39.622  26.841  28.990  1.00  0.00     0.173 A 
ATOM     65  F   UNL A   1      41.771  29.537  27.828  1.00  0.00    -0.203 F 
ATOM     66  C   UNL A   1      41.081  27.568  26.741  1.00  0.00     0.198 A 
ATOM     67  C   UNL A   1      39.650  26.009  27.874  1.00  0.00     0.198 A 
ATOM     68  F   UNL A   1      38.898  26.467  30.054  1.00  0.00    -0.203 F 
ATOM     69  F   UNL A   1      41.752  27.942  25.643  1.00  0.00    -0.200 F 
ATOM     70  C   UNL A   1      40.370  26.378  26.747  1.00  0.00     0.200 A 
ATOM     71  F   UNL A   1      38.972  24.853  27.884  1.00  0.00    -0.200 F 
ATOM     72  F   UNL A   1      40.370  25.591  25.662  1.00  0.00    -0.200 F 
ENDBRANCH  48  62
BRANCH  49  73
ATOM     73  C   UNL A   1      39.545  34.014  36.977  1.00  0.00     0.064 A 
ATOM     74  C   UNL A   1      38.782  33.623  38.087  1.00  0.00     0.173 A 
ATOM     75  C   UNL A   1      40.192  35.255  37.034  1.00  0.00     0.173 A 
ATOM     76  F   UNL A   1      38.127  32.453  38.070  1.00  0.00    -0.203 F 
ATOM     77  C   UNL A   1      38.656  34.450  39.202  1.00  0.00     0.198 A 
ATOM     78  C   UNL A   1      40.087  36.071  38.160  1.00  0.00     0.198 A 
ATOM     79  F   UNL A   1      40.937  35.673  36.001  1.00  0.00    -0.203 F 
ATOM     80  F   UNL A   1      37.886  34.070  40.230  1.00  0.00    -0.200 F 
ATOM     81  C   UNL A   1      39.313  35.670  39.240  1.00  0.00     0.200 A 
ATOM     82  F   UNL A   1      40.734  37.243  38.200  1.00  0.00    -0.200 F 
ATOM     83  F   UNL A   1      39.195  36.463  40.313  1.00  0.00    -0.200 F 
ENDBRANCH  49  73
BRANCH  61  84
ATOM     84  C   UNL A   1      43.836  28.801  35.272  1.00  0.00     0.064 A 
ATOM     85  C   UNL A   1      43.671  27.694  36.118  1.00  0.00     0.173 A 
ATOM     86  C   UNL A   1      45.135  29.292  35.074  1.00  0.00     0.173 A 
ATOM     87  F   UNL A   1      42.446  27.200  36.352  1.00  0.00    -0.203 F 
ATOM     88  C   UNL A   1      44.763  27.116  36.757  1.00  0.00     0.198 A 
ATOM     89  C   UNL A   1      46.229  28.692  35.692  1.00  0.00     0.198 A 
ATOM     90  F   UNL A   1      45.345  30.345  34.271  1.00  0.00    -0.203 F 
ATOM     91  F   UNL A   1      44.578  26.087  37.596  1.00  0.00    -0.200 F 
ATOM     92  C   UNL A   1      46.041  27.609  36.538  1.00  0.00     0.200 A 
ATOM     93  F   UNL A   1      47.464  29.163  35.470  1.00  0.00    -0.200 F 
ATOM     94  F   UNL A   1      47.093  27.046  37.149  1.00  0.00    -0.200 F 
ENDBRANCH  61  84
ENDBRANCH  35  36
ENDBRANCH  27  30
ENDBRANCH  25  26
ENDBRANCH   1  25
TORSDOF 13
ENDMDL
MODEL 3
REMARK VINA RESULT:     -13.1      0.083      1.586
REMARK SMILES C[C@H]1CN(c2ccc([N+](=O)[O-])c(C(=O)NCCCCNC(=O)c3ccc(-c4c5nc(c(-c6c(F)c(F)c(F)c(F)c6F)c6ccc([nH]6)c(-c6c(F)c(F)c(F)c(F)c6F)c6nc(c(-c7c(F)c(F)c(F)c(F)c7F)c7ccc4[nH]7)C=C6)C=C5)cc3)c2)C[C@H](C)O1
REMARK SMILES IDX 18 1 17 2 16 3 15 4 13 5 14 6 12 8 5 9 6 10 86 11 7 12 8 13
REMARK SMILES IDX 4 14 1 15 2 16 3 17 90 18 88 19 87 20 89 21 9 22 10 23 11 24
REMARK SMILES IDX 19 25 20 26 21 27 22 29 23 30 24 31 85 32 25 33 84 34 26 35
REMARK SMILES IDX 27 36 28 37 78 38 29 39 83 40 77 41 79 42 30 43 82 44 76 45
REMARK SMILES IDX 75 46 31 48 63 49 43 50 62 51 44 52 47 53 61 54 80 55 45 56
REMARK SMILES IDX 46 57 60 59 81 60 48 61 32 62 33 63 41 64 34 65 35 66 39 67
REMARK SMILES IDX 42 68 36 69 37 70 40 71 38 72 64 73 65 74 73 75 66 76 67 77
REMARK SMILES IDX 71 78 74 79 68 80 69 81 72 82 70 83 49 84 50 85 58 86 51 87
REMARK SMILES IDX 52 88 56 89 59 90 53 91 54 92 57 93 55 94
REMARK H PARENT 15 7 20 28 79 47 47 58
REMARK Flexibility Score: inf
ROOT
ATOM      1  C   UNL A   1      31.436  32.130  26.522  1.00  0.00     0.023 C 
ENDROOT
BRANCH   1   2
ATOM      2  C   UNL A   1      31.552  30.628  26.306  1.00  0.00     0.023 C 
BRANCH   2   3
ATOM      3  C   UNL A   1      32.957  30.075  26.106  1.00  0.00     0.116 C 
BRANCH   3   4
ATOM      4  N   UNL A   1      33.350  29.878  24.718  1.00  0.00    -0.352 N 
ATOM      5  C   UNL A   1      32.865  29.044  23.730  1.00  0.00     0.258 C 
ATOM      6  O   UNL A   1      33.404  29.094  22.630  1.00  0.00    -0.269 OA
ATOM      7  H   UNL A   1      34.102  30.445  24.430  1.00  0.00     0.163 HD
BRANCH   5   8
ATOM      8  C   UNL A   1      31.788  28.049  23.989  1.00  0.00     0.119 A 
ATOM      9  C   UNL A   1      31.240  25.757  24.642  1.00  0.00     0.038 A 
ATOM     10  C   UNL A   1      30.023  25.878  23.956  1.00  0.00     0.033 A 
ATOM     11  C   UNL A   1      32.051  26.892  24.733  1.00  0.00     0.047 A 
ATOM     12  C   UNL A   1      29.631  27.088  23.388  1.00  0.00     0.088 A 
ATOM     13  C   UNL A   1      30.524  28.163  23.408  1.00  0.00     0.282 A 
BRANCH   9  14
ATOM     14  N   UNL A   1      31.625  24.544  25.167  1.00  0.00    -0.366 N 
ATOM     15  C   UNL A   1      34.288  22.815  27.263  1.00  0.00     0.040 C 
ATOM     16  C   UNL A   1      32.899  23.251  26.816  1.00  0.00     0.135 C 
ATOM     17  C   UNL A   1      32.983  24.264  25.651  1.00  0.00     0.148 C 
ATOM     18  O   UNL A   1      32.161  22.068  26.448  1.00  0.00    -0.372 OA
ATOM     19  C   UNL A   1      30.837  22.354  25.952  1.00  0.00     0.135 C 
ATOM     20  C   UNL A   1      30.891  23.329  24.764  1.00  0.00     0.148 C 
ATOM     21  C   UNL A   1      29.902  22.866  27.050  1.00  0.00     0.040 C 
ENDBRANCH   9  14
BRANCH  13  22
ATOM     22  N   UNL A   1      30.042  29.415  22.866  1.00  0.00     0.063 N 
ATOM     23  O   UNL A   1      30.054  29.528  21.633  1.00  0.00    -0.258 OA
ATOM     24  O   UNL A   1      29.520  30.203  23.666  1.00  0.00    -0.258 OA
ENDBRANCH  13  22
ENDBRANCH   5   8
ENDBRANCH   3   4
ENDBRANCH   2   3
ENDBRANCH   1   2
BRANCH   1  25
ATOM     25  C   UNL A   1      32.596  32.791  27.254  1.00  0.00     0.116 C 
BRANCH  25  26
ATOM     26  N   UNL A   1      32.339  34.170  27.645  1.00  0.00    -0.352 N 
ATOM     27  C   UNL A   1      32.981  34.956  28.577  1.00  0.00     0.251 C 
ATOM     28  H   UNL A   1      31.593  34.606  27.174  1.00  0.00     0.163 HD
ATOM     29  O   UNL A   1      32.569  36.081  28.822  1.00  0.00    -0.269 OA
BRANCH  27  30
ATOM     30  C   UNL A   1      34.146  34.419  29.314  1.00  0.00     0.039 A 
ATOM     31  C   UNL A   1      33.924  33.707  30.495  1.00  0.00     0.014 A 
ATOM     32  C   UNL A   1      35.443  34.580  28.823  1.00  0.00     0.014 A 
ATOM     33  C   UNL A   1      34.993  33.074  31.133  1.00  0.00     0.010 A 
ATOM     34  C   UNL A   1      36.492  33.880  29.410  1.00  0.00     0.010 A 
ATOM     35  C   UNL A   1      36.278  33.115  30.568  1.00  0.00    -0.014 A 
BRANCH  35  36
ATOM     36  C   UNL A   1      37.410  32.359  31.162  1.00  0.00     0.031 A 
ATOM     37  C   UNL A   1      37.914  32.715  32.532  1.00  0.00     0.074 A 
ATOM     38  C   UNL A   1      38.034  31.411  30.437  1.00  0.00     0.049 A 
ATOM     39  N   UNL A   1      38.939  32.233  33.190  1.00  0.00    -0.248 NA
ATOM     40  C   UNL A   1      37.188  33.776  33.246  1.00  0.00     0.031 C 
ATOM     41  C   UNL A   1      37.674  31.009  29.077  1.00  0.00     0.029 A 
ATOM     42  N   UNL A   1      39.113  30.618  30.742  1.00  0.00    -0.354 N 
ATOM     43  C   UNL A   1      38.992  32.945  34.380  1.00  0.00     0.074 A 
ATOM     44  C   UNL A   1      37.931  33.930  34.331  1.00  0.00     0.031 C 
ATOM     45  C   UNL A   1      38.495  30.025  28.677  1.00  0.00     0.029 A 
ATOM     46  C   UNL A   1      39.464  29.753  29.734  1.00  0.00     0.049 A 
ATOM     47  H   UNL A   1      39.591  30.664  31.602  1.00  0.00     0.167 HD
ATOM     48  C   UNL A   1      39.830  32.778  35.431  1.00  0.00     0.037 A 
ATOM     49  C   UNL A   1      40.457  28.846  29.670  1.00  0.00     0.037 A 
ATOM     50  C   UNL A   1      40.863  31.777  35.488  1.00  0.00     0.049 A 
ATOM     51  C   UNL A   1      41.380  28.684  30.847  1.00  0.00     0.074 A 
ATOM     52  C   UNL A   1      41.719  31.480  36.534  1.00  0.00     0.029 A 
ATOM     53  N   UNL A   1      41.180  30.911  34.452  1.00  0.00    -0.354 N 
ATOM     54  N   UNL A   1      41.373  29.313  31.998  1.00  0.00    -0.248 NA
ATOM     55  C   UNL A   1      42.448  27.683  30.716  1.00  0.00     0.031 C 
ATOM     56  C   UNL A   1      42.583  30.462  36.115  1.00  0.00     0.029 A 
ATOM     57  C   UNL A   1      42.234  30.093  34.825  1.00  0.00     0.049 A 
ATOM     58  H   UNL A   1      40.723  30.881  33.581  1.00  0.00     0.167 HD
ATOM     59  C   UNL A   1      42.411  28.762  32.739  1.00  0.00     0.074 A 
ATOM     60  C   UNL A   1      43.020  27.742  31.911  1.00  0.00     0.031 C 
ATOM     61  C   UNL A   1      42.820  29.074  33.993  1.00  0.00     0.037 A 
BRANCH  48  62
ATOM     62  C   UNL A   1      39.657  33.700  36.603  1.00  0.00     0.064 A 
ATOM     63  C   UNL A   1      38.856  33.351  37.702  1.00  0.00     0.173 A 
ATOM     64  C   UNL A   1      40.309  34.942  36.634  1.00  0.00     0.173 A 
ATOM     65  F   UNL A   1      38.202  32.180  37.716  1.00  0.00    -0.203 F 
ATOM     66  C   UNL A   1      38.683  34.228  38.769  1.00  0.00     0.198 A 
ATOM     67  C   UNL A   1      40.159  35.802  37.719  1.00  0.00     0.198 A 
ATOM     68  F   UNL A   1      41.091  35.322  35.614  1.00  0.00    -0.203 F 
ATOM     69  F   UNL A   1      37.865  33.898  39.779  1.00  0.00    -0.200 F 
ATOM     70  C   UNL A   1      39.338  35.449  38.780  1.00  0.00     0.200 A 
ATOM     71  F   UNL A   1      40.801  36.978  37.734  1.00  0.00    -0.200 F 
ATOM     72  F   UNL A   1      39.169  36.292  39.809  1.00  0.00    -0.200 F 
ENDBRANCH  48  62
BRANCH  49  73
ATOM     73  C   UNL A   1      40.606  27.990  28.465  1.00  0.00     0.064 A 
ATOM     74  C   UNL A   1      39.992  26.731  28.406  1.00  0.00     0.173 A 
ATOM     75  C   UNL A   1      41.360  28.401  27.358  1.00  0.00     0.173 A 
ATOM     76  F   UNL A   1      39.278  26.285  29.451  1.00  0.00    -0.203 F 
ATOM     77  C   UNL A   1      40.140  25.909  27.291  1.00  0.00     0.198 A 
ATOM     78  C   UNL A   1      41.487  27.589  26.232  1.00  0.00     0.198 A 
ATOM     79  F   UNL A   1      41.964  29.598  27.364  1.00  0.00    -0.203 F 
ATOM     80  F   UNL A   1      39.577  24.693  27.279  1.00  0.00    -0.200 F 
ATOM     81  C   UNL A   1      40.883  26.340  26.203  1.00  0.00     0.200 A 
ATOM     82  F   UNL A   1      42.194  28.014  25.177  1.00  0.00    -0.200 F 
ATOM     83  F   UNL A   1      41.022  25.551  25.129  1.00  0.00    -0.200 F 
ENDBRANCH  49  73
BRANCH  61  84
ATOM     84  C   UNL A   1      43.955  28.274  34.563  1.00  0.00     0.064 A 
ATOM     85  C   UNL A   1      43.737  27.061  35.233  1.00  0.00     0.173 A 
ATOM     86  C   UNL A   1      45.279  28.710  34.404  1.00  0.00     0.173 A 
ATOM     87  F   UNL A   1      42.488  26.612  35.426  1.00  0.00    -0.203 F 
ATOM     88  C   UNL A   1      44.802  26.326  35.743  1.00  0.00     0.198 A 
ATOM     89  C   UNL A   1      46.344  27.956  34.889  1.00  0.00     0.198 A 
ATOM     90  F   UNL A   1      45.540  29.860  33.765  1.00  0.00    -0.203 F 
ATOM     91  F   UNL A   1      44.569  25.193  36.420  1.00  0.00    -0.200 F 
ATOM     92  C   UNL A   1      46.105  26.769  35.564  1.00  0.00     0.200 A 
ATOM     93  F   UNL A   1      47.602  28.380  34.705  1.00  0.00    -0.200 F 
ATOM     94  F   UNL A   1      47.130  26.056  36.049  1.00  0.00    -0.200 F 
ENDBRANCH  61  84
ENDBRANCH  35  36
ENDBRANCH  27  30
ENDBRANCH  25  26
ENDBRANCH   1  25
TORSDOF 13
ENDMDL
