MODEL 1
REMARK VINA RESULT:     -12.4      0.000      0.000
REMARK SMILES CC(=C\c1ccco1)/C=C1/SC(=S)N(CC(=O)NCCCCNC(=O)c2ccc(-c3c4nc(c(-c5c(F)c(F)c(F)c(F)c5F)c5ccc([nH]5)c(-c5c(F)c(F)c(F)c(F)c5F)c5nc(c(-c6c(F)c(F)c(F)c(F)c6F)c6ccc3[nH]6)C=C5)C=C4)cc2)C1=O
REMARK SMILES IDX 20 1 19 2 18 3 16 4 17 5 15 7 14 8 9 9 10 10 11 11 89 12
REMARK SMILES IDX 12 13 90 14 13 15 2 16 1 17 3 18 4 19 5 20 8 21 6 22 7 23
REMARK SMILES IDX 21 24 22 25 23 26 24 27 25 29 26 30 27 31 88 32 28 33 87 34
REMARK SMILES IDX 29 35 30 36 31 37 81 38 32 39 86 40 80 41 82 42 33 43 85 44
REMARK SMILES IDX 79 45 78 46 34 48 66 49 46 50 65 51 47 52 50 53 64 54 83 55
REMARK SMILES IDX 48 56 49 57 63 59 84 60 51 61 35 62 36 63 44 64 37 65 38 66
REMARK SMILES IDX 42 67 45 68 39 69 40 70 43 71 41 72 67 73 68 74 76 75 69 76
REMARK SMILES IDX 70 77 74 78 77 79 71 80 72 81 75 82 73 83 52 84 53 85 61 86
REMARK SMILES IDX 54 87 55 88 59 89 62 90 56 91 57 92 60 93 58 94
REMARK H PARENT 18 6 23 28 82 47 50 58
REMARK Flexibility Score: inf
ROOT
ATOM      1  C   UNL A   1      31.491  30.810  25.966  1.00  0.00     0.023 C 
ENDROOT
BRANCH   1   2
ATOM      2  C   UNL A   1      32.140  29.801  26.909  1.00  0.00     0.116 C 
BRANCH   2   3
ATOM      3  N   UNL A   1      31.495  28.508  26.852  1.00  0.00    -0.355 N 
ATOM      4  C   UNL A   1      32.026  27.283  26.566  1.00  0.00     0.240 C 
ATOM      5  O   UNL A   1      31.337  26.299  26.843  1.00  0.00    -0.273 OA
ATOM      6  H   UNL A   1      30.530  28.512  27.047  1.00  0.00     0.163 HD
BRANCH   4   7
ATOM      7  C   UNL A   1      33.469  27.129  26.054  1.00  0.00     0.227 C 
BRANCH   7   8
ATOM      8  N   UNL A   1      33.524  26.614  24.685  1.00  0.00    -0.283 N 
ATOM      9  C   UNL A   1      33.652  23.615  22.640  1.00  0.00     0.024 C 
ATOM     10  C   UNL A   1      33.697  24.869  23.113  1.00  0.00     0.080 C 
ATOM     11  S   UNL A   1      33.462  26.267  22.133  1.00  0.00    -0.054 SA
ATOM     12  C   UNL A   1      33.886  25.289  24.527  1.00  0.00     0.266 C 
ATOM     13  C   UNL A   1      33.419  27.347  23.526  1.00  0.00     0.148 C 
ATOM     14  O   UNL A   1      34.323  24.571  25.416  1.00  0.00    -0.268 OA
ATOM     15  S   UNL A   1      33.277  29.001  23.351  1.00  0.00    -0.052 S 
BRANCH   9  16
ATOM     16  C   UNL A   1      33.769  22.393  23.430  1.00  0.00    -0.046 C 
ATOM     17  C   UNL A   1      35.154  22.070  23.941  1.00  0.00     0.044 C 
ATOM     18  C   UNL A   1      32.668  21.632  23.587  1.00  0.00     0.050 C 
BRANCH  18  19
ATOM     19  C   UNL A   1      32.646  20.379  24.259  1.00  0.00     0.126 A 
ATOM     20  C   UNL A   1      32.814  20.051  25.601  1.00  0.00     0.050 A 
ATOM     21  O   UNL A   1      32.416  19.203  23.579  1.00  0.00    -0.465 OA
ATOM     22  C   UNL A   1      32.772  18.642  25.716  1.00  0.00     0.042 A 
ATOM     23  C   UNL A   1      32.527  18.173  24.452  1.00  0.00     0.195 A 
ENDBRANCH  18  19
ENDBRANCH   9  16
ENDBRANCH   7   8
ENDBRANCH   4   7
ENDBRANCH   2   3
ENDBRANCH   1   2
BRANCH   1  24
ATOM     24  C   UNL A   1      31.309  32.209  26.563  1.00  0.00     0.023 C 
BRANCH  24  25
ATOM     25  C   UNL A   1      32.558  32.821  27.189  1.00  0.00     0.116 C 
BRANCH  25  26
ATOM     26  N   UNL A   1      32.349  34.174  27.677  1.00  0.00    -0.352 N 
ATOM     27  C   UNL A   1      33.015  34.856  28.665  1.00  0.00     0.251 C 
ATOM     28  H   UNL A   1      31.625  34.674  27.235  1.00  0.00     0.163 HD
ATOM     29  O   UNL A   1      32.607  35.953  29.034  1.00  0.00    -0.269 OA
BRANCH  27  30
ATOM     30  C   UNL A   1      34.204  34.259  29.311  1.00  0.00     0.039 A 
ATOM     31  C   UNL A   1      34.015  33.380  30.380  1.00  0.00     0.014 A 
ATOM     32  C   UNL A   1      35.498  34.566  28.879  1.00  0.00     0.014 A 
ATOM     33  C   UNL A   1      35.118  32.770  30.980  1.00  0.00     0.010 A 
ATOM     34  C   UNL A   1      36.590  33.894  29.423  1.00  0.00     0.010 A 
ATOM     35  C   UNL A   1      36.414  32.997  30.487  1.00  0.00    -0.014 A 
BRANCH  35  36
ATOM     36  C   UNL A   1      37.586  32.308  31.084  1.00  0.00     0.031 A 
ATOM     37  C   UNL A   1      38.081  32.691  32.451  1.00  0.00     0.074 A 
ATOM     38  C   UNL A   1      38.229  31.357  30.377  1.00  0.00     0.049 A 
ATOM     39  N   UNL A   1      39.089  32.208  33.134  1.00  0.00    -0.248 NA
ATOM     40  C   UNL A   1      37.365  33.780  33.134  1.00  0.00     0.031 C 
ATOM     41  C   UNL A   1      37.882  30.933  29.020  1.00  0.00     0.029 A 
ATOM     42  N   UNL A   1      39.308  30.574  30.703  1.00  0.00    -0.354 N 
ATOM     43  C   UNL A   1      39.130  32.935  34.316  1.00  0.00     0.074 A 
ATOM     44  C   UNL A   1      38.089  33.936  34.233  1.00  0.00     0.031 C 
ATOM     45  C   UNL A   1      38.708  29.945  28.642  1.00  0.00     0.029 A 
ATOM     46  C   UNL A   1      39.667  29.691  29.714  1.00  0.00     0.049 A 
ATOM     47  H   UNL A   1      39.781  30.639  31.564  1.00  0.00     0.167 HD
ATOM     48  C   UNL A   1      39.942  32.766  35.387  1.00  0.00     0.037 A 
ATOM     49  C   UNL A   1      40.658  28.780  29.675  1.00  0.00     0.037 A 
ATOM     50  C   UNL A   1      40.968  31.759  35.474  1.00  0.00     0.049 A 
ATOM     51  C   UNL A   1      41.553  28.619  30.875  1.00  0.00     0.074 A 
ATOM     52  C   UNL A   1      41.807  31.470  36.535  1.00  0.00     0.029 A 
ATOM     53  N   UNL A   1      41.299  30.879  34.453  1.00  0.00    -0.354 N 
ATOM     54  N   UNL A   1      41.530  29.260  32.019  1.00  0.00    -0.248 NA
ATOM     55  C   UNL A   1      42.603  27.597  30.780  1.00  0.00     0.031 C 
ATOM     56  C   UNL A   1      42.685  30.456  36.137  1.00  0.00     0.029 A 
ATOM     57  C   UNL A   1      42.348  30.065  34.851  1.00  0.00     0.049 A 
ATOM     58  H   UNL A   1      40.854  30.838  33.576  1.00  0.00     0.167 HD
ATOM     59  C   UNL A   1      42.540  28.699  32.789  1.00  0.00     0.074 A 
ATOM     60  C   UNL A   1      43.140  27.651  31.990  1.00  0.00     0.031 C 
ATOM     61  C   UNL A   1      42.937  29.024  34.045  1.00  0.00     0.037 A 
BRANCH  48  62
ATOM     62  C   UNL A   1      39.755  33.694  36.555  1.00  0.00     0.064 A 
ATOM     63  C   UNL A   1      40.392  34.945  36.613  1.00  0.00     0.173 A 
ATOM     64  C   UNL A   1      38.902  33.347  37.613  1.00  0.00     0.173 A 
ATOM     65  F   UNL A   1      41.228  35.324  35.634  1.00  0.00    -0.203 F 
ATOM     66  C   UNL A   1      40.209  35.795  37.702  1.00  0.00     0.198 A 
ATOM     67  C   UNL A   1      38.693  34.214  38.682  1.00  0.00     0.198 A 
ATOM     68  F   UNL A   1      38.262  32.168  37.608  1.00  0.00    -0.203 F 
ATOM     69  F   UNL A   1      40.872  36.957  37.760  1.00  0.00    -0.200 F 
ATOM     70  C   UNL A   1      39.354  35.433  38.730  1.00  0.00     0.200 A 
ATOM     71  F   UNL A   1      37.854  33.870  39.669  1.00  0.00    -0.200 F 
ATOM     72  F   UNL A   1      39.172  36.255  39.773  1.00  0.00    -0.200 F 
ENDBRANCH  48  62
BRANCH  49  73
ATOM     73  C   UNL A   1      40.842  27.931  28.468  1.00  0.00     0.064 A 
ATOM     74  C   UNL A   1      41.636  28.362  27.394  1.00  0.00     0.173 A 
ATOM     75  C   UNL A   1      40.222  26.678  28.355  1.00  0.00     0.173 A 
ATOM     76  F   UNL A   1      42.235  29.561  27.445  1.00  0.00    -0.203 F 
ATOM     77  C   UNL A   1      41.776  27.588  26.244  1.00  0.00     0.198 A 
ATOM     78  C   UNL A   1      40.391  25.889  27.219  1.00  0.00     0.198 A 
ATOM     79  F   UNL A   1      39.459  26.214  29.355  1.00  0.00    -0.203 F 
ATOM     80  F   UNL A   1      42.493  28.051  25.211  1.00  0.00    -0.200 F 
ATOM     81  C   UNL A   1      41.157  26.350  26.160  1.00  0.00     0.200 A 
ATOM     82  F   UNL A   1      39.806  24.686  27.150  1.00  0.00    -0.200 F 
ATOM     83  F   UNL A   1      41.295  25.604  25.055  1.00  0.00    -0.200 F 
ENDBRANCH  49  73
BRANCH  61  84
ATOM     84  C   UNL A   1      44.049  28.210  34.645  1.00  0.00     0.064 A 
ATOM     85  C   UNL A   1      45.392  28.609  34.554  1.00  0.00     0.173 A 
ATOM     86  C   UNL A   1      43.766  27.020  35.333  1.00  0.00     0.173 A 
ATOM     87  F   UNL A   1      45.719  29.732  33.897  1.00  0.00    -0.203 F 
ATOM     88  C   UNL A   1      46.410  27.826  35.091  1.00  0.00     0.198 A 
ATOM     89  C   UNL A   1      44.784  26.260  35.902  1.00  0.00     0.198 A 
ATOM     90  F   UNL A   1      42.499  26.596  35.459  1.00  0.00    -0.203 F 
ATOM     91  F   UNL A   1      47.689  28.193  34.932  1.00  0.00    -0.200 F 
ATOM     92  C   UNL A   1      46.105  26.655  35.769  1.00  0.00     0.200 A 
ATOM     93  F   UNL A   1      44.485  25.137  36.572  1.00  0.00    -0.200 F 
ATOM     94  F   UNL A   1      47.086  25.904  36.286  1.00  0.00    -0.200 F 
ENDBRANCH  61  84
ENDBRANCH  35  36
ENDBRANCH  27  30
ENDBRANCH  25  26
ENDBRANCH  24  25
ENDBRANCH   1  24
TORSDOF 14
ENDMDL
MODEL 2
REMARK VINA RESULT:     -12.3      5.538     10.002
REMARK SMILES CC(=C\c1ccco1)/C=C1/SC(=S)N(CC(=O)NCCCCNC(=O)c2ccc(-c3c4nc(c(-c5c(F)c(F)c(F)c(F)c5F)c5ccc([nH]5)c(-c5c(F)c(F)c(F)c(F)c5F)c5nc(c(-c6c(F)c(F)c(F)c(F)c6F)c6ccc3[nH]6)C=C5)C=C4)cc2)C1=O
REMARK SMILES IDX 20 1 19 2 18 3 16 4 17 5 15 7 14 8 9 9 10 10 11 11 89 12
REMARK SMILES IDX 12 13 90 14 13 15 2 16 1 17 3 18 4 19 5 20 8 21 6 22 7 23
REMARK SMILES IDX 21 24 22 25 23 26 24 27 25 29 26 30 27 31 88 32 28 33 87 34
REMARK SMILES IDX 29 35 30 36 31 37 81 38 32 39 86 40 80 41 82 42 33 43 85 44
REMARK SMILES IDX 79 45 78 46 34 48 66 49 46 50 65 51 47 52 50 53 64 54 83 55
REMARK SMILES IDX 48 56 49 57 63 59 84 60 51 61 35 62 36 63 44 64 37 65 38 66
REMARK SMILES IDX 42 67 45 68 39 69 40 70 43 71 41 72 67 73 68 74 76 75 69 76
REMARK SMILES IDX 70 77 74 78 77 79 71 80 72 81 75 82 73 83 52 84 53 85 61 86
REMARK SMILES IDX 54 87 55 88 59 89 62 90 56 91 57 92 60 93 58 94
REMARK H PARENT 18 6 23 28 82 47 50 58
REMARK Flexibility Score: inf
ROOT
ATOM      1  C   UNL A   1      37.110  20.525  25.000  1.00  0.00     0.023 C 
ENDROOT
BRANCH   1   2
ATOM      2  C   UNL A   1      37.372  21.943  24.499  1.00  0.00     0.116 C 
BRANCH   2   3
ATOM      3  N   UNL A   1      36.309  22.423  23.643  1.00  0.00    -0.355 N 
ATOM      4  C   UNL A   1      35.439  23.458  23.834  1.00  0.00     0.240 C 
ATOM      5  O   UNL A   1      34.804  23.840  22.849  1.00  0.00    -0.273 OA
ATOM      6  H   UNL A   1      36.196  21.929  22.799  1.00  0.00     0.163 HD
BRANCH   4   7
ATOM      7  C   UNL A   1      35.357  24.204  25.176  1.00  0.00     0.227 C 
BRANCH   7   8
ATOM      8  N   UNL A   1      34.026  24.122  25.781  1.00  0.00    -0.283 N 
ATOM      9  C   UNL A   1      30.746  25.668  25.968  1.00  0.00     0.024 C 
ATOM     10  C   UNL A   1      31.853  24.940  26.171  1.00  0.00     0.080 C 
ATOM     11  S   UNL A   1      31.861  23.422  26.987  1.00  0.00    -0.054 SA
ATOM     12  C   UNL A   1      33.229  25.249  25.699  1.00  0.00     0.266 C 
ATOM     13  C   UNL A   1      33.544  23.103  26.569  1.00  0.00     0.148 C 
ATOM     14  O   UNL A   1      33.607  26.348  25.319  1.00  0.00    -0.268 OA
ATOM     15  S   UNL A   1      34.340  21.740  27.110  1.00  0.00    -0.052 S 
BRANCH   9  16
ATOM     16  C   UNL A   1      30.664  26.922  25.223  1.00  0.00    -0.046 C 
ATOM     17  C   UNL A   1      31.163  28.150  25.946  1.00  0.00     0.044 C 
ATOM     18  C   UNL A   1      30.105  26.894  23.997  1.00  0.00     0.050 C 
BRANCH  18  19
ATOM     19  C   UNL A   1      29.885  28.043  23.189  1.00  0.00     0.126 A 
ATOM     20  C   UNL A   1      30.753  28.800  22.408  1.00  0.00     0.050 A 
ATOM     21  O   UNL A   1      28.631  28.600  23.059  1.00  0.00    -0.465 OA
ATOM     22  C   UNL A   1      30.023  29.885  21.870  1.00  0.00     0.042 A 
ATOM     23  C   UNL A   1      28.733  29.716  22.298  1.00  0.00     0.195 A 
ENDBRANCH  18  19
ENDBRANCH   9  16
ENDBRANCH   7   8
ENDBRANCH   4   7
ENDBRANCH   2   3
ENDBRANCH   1   2
BRANCH   1  24
ATOM     24  C   UNL A   1      38.327  19.598  24.941  1.00  0.00     0.023 C 
BRANCH  24  25
ATOM     25  C   UNL A   1      39.414  19.876  25.975  1.00  0.00     0.116 C 
BRANCH  25  26
ATOM     26  N   UNL A   1      40.505  18.917  25.931  1.00  0.00    -0.352 N 
ATOM     27  C   UNL A   1      41.859  19.133  26.021  1.00  0.00     0.251 C 
ATOM     28  H   UNL A   1      40.236  17.977  25.820  1.00  0.00     0.163 HD
ATOM     29  O   UNL A   1      42.641  18.207  25.826  1.00  0.00    -0.269 OA
BRANCH  27  30
ATOM     30  C   UNL A   1      42.379  20.484  26.321  1.00  0.00     0.039 A 
ATOM     31  C   UNL A   1      42.820  21.281  25.262  1.00  0.00     0.014 A 
ATOM     32  C   UNL A   1      42.445  20.965  27.631  1.00  0.00     0.014 A 
ATOM     33  C   UNL A   1      43.277  22.577  25.511  1.00  0.00     0.010 A 
ATOM     34  C   UNL A   1      42.821  22.285  27.870  1.00  0.00     0.010 A 
ATOM     35  C   UNL A   1      43.252  23.102  26.814  1.00  0.00    -0.014 A 
BRANCH  35  36
ATOM     36  C   UNL A   1      43.684  24.499  27.079  1.00  0.00     0.031 A 
ATOM     37  C   UNL A   1      42.702  25.515  27.591  1.00  0.00     0.074 A 
ATOM     38  C   UNL A   1      44.957  24.860  26.825  1.00  0.00     0.049 A 
ATOM     39  N   UNL A   1      42.891  26.781  27.876  1.00  0.00    -0.248 NA
ATOM     40  C   UNL A   1      41.316  25.061  27.785  1.00  0.00     0.031 C 
ATOM     41  C   UNL A   1      45.991  23.982  26.276  1.00  0.00     0.029 A 
ATOM     42  N   UNL A   1      45.599  26.061  26.995  1.00  0.00    -0.354 N 
ATOM     43  C   UNL A   1      41.653  27.268  28.274  1.00  0.00     0.074 A 
ATOM     44  C   UNL A   1      40.706  26.184  28.133  1.00  0.00     0.031 C 
ATOM     45  C   UNL A   1      47.145  24.662  26.186  1.00  0.00     0.029 A 
ATOM     46  C   UNL A   1      46.925  26.033  26.636  1.00  0.00     0.049 A 
ATOM     47  H   UNL A   1      45.152  26.866  27.342  1.00  0.00     0.167 HD
ATOM     48  C   UNL A   1      41.340  28.500  28.743  1.00  0.00     0.037 A 
ATOM     49  C   UNL A   1      47.857  27.005  26.663  1.00  0.00     0.037 A 
ATOM     50  C   UNL A   1      42.287  29.574  28.896  1.00  0.00     0.049 A 
ATOM     51  C   UNL A   1      47.479  28.368  27.180  1.00  0.00     0.074 A 
ATOM     52  C   UNL A   1      42.081  30.841  29.412  1.00  0.00     0.029 A 
ATOM     53  N   UNL A   1      43.623  29.507  28.525  1.00  0.00    -0.354 N 
ATOM     54  N   UNL A   1      46.323  28.794  27.629  1.00  0.00    -0.248 NA
ATOM     55  C   UNL A   1      48.543  29.381  27.204  1.00  0.00     0.031 C 
ATOM     56  C   UNL A   1      43.276  31.560  29.300  1.00  0.00     0.029 A 
ATOM     57  C   UNL A   1      44.246  30.719  28.777  1.00  0.00     0.049 A 
ATOM     58  H   UNL A   1      44.064  28.714  28.141  1.00  0.00     0.167 HD
ATOM     59  C   UNL A   1      46.527  30.111  28.017  1.00  0.00     0.074 A 
ATOM     60  C   UNL A   1      47.923  30.405  27.772  1.00  0.00     0.031 C 
ATOM     61  C   UNL A   1      45.638  30.999  28.528  1.00  0.00     0.037 A 
BRANCH  48  62
ATOM     62  C   UNL A   1      39.907  28.755  29.123  1.00  0.00     0.064 A 
ATOM     63  C   UNL A   1      38.971  29.235  28.193  1.00  0.00     0.173 A 
ATOM     64  C   UNL A   1      39.455  28.483  30.423  1.00  0.00     0.173 A 
ATOM     65  F   UNL A   1      39.351  29.523  26.938  1.00  0.00    -0.203 F 
ATOM     66  C   UNL A   1      37.647  29.467  28.560  1.00  0.00     0.198 A 
ATOM     67  C   UNL A   1      38.123  28.681  30.777  1.00  0.00     0.198 A 
ATOM     68  F   UNL A   1      40.304  28.017  31.351  1.00  0.00    -0.203 F 
ATOM     69  F   UNL A   1      36.787  29.979  27.670  1.00  0.00    -0.200 F 
ATOM     70  C   UNL A   1      37.223  29.181  29.848  1.00  0.00     0.200 A 
ATOM     71  F   UNL A   1      37.710  28.390  32.018  1.00  0.00    -0.200 F 
ATOM     72  F   UNL A   1      35.946  29.396  30.197  1.00  0.00    -0.200 F 
ENDBRANCH  48  62
BRANCH  49  73
ATOM     73  C   UNL A   1      49.245  26.719  26.213  1.00  0.00     0.064 A 
ATOM     74  C   UNL A   1      49.640  26.960  24.889  1.00  0.00     0.173 A 
ATOM     75  C   UNL A   1      50.202  26.187  27.090  1.00  0.00     0.173 A 
ATOM     76  F   UNL A   1      48.757  27.450  24.007  1.00  0.00    -0.203 F 
ATOM     77  C   UNL A   1      50.928  26.654  24.453  1.00  0.00     0.198 A 
ATOM     78  C   UNL A   1      51.499  25.914  26.662  1.00  0.00     0.198 A 
ATOM     79  F   UNL A   1      49.879  25.945  28.369  1.00  0.00    -0.203 F 
ATOM     80  F   UNL A   1      51.260  26.842  23.169  1.00  0.00    -0.200 F 
ATOM     81  C   UNL A   1      51.857  26.136  25.342  1.00  0.00     0.200 A 
ATOM     82  F   UNL A   1      52.399  25.430  27.529  1.00  0.00    -0.200 F 
ATOM     83  F   UNL A   1      53.097  25.844  24.923  1.00  0.00    -0.200 F 
ENDBRANCH  49  73
BRANCH  61  84
ATOM     84  C   UNL A   1      46.160  32.361  28.891  1.00  0.00     0.064 A 
ATOM     85  C   UNL A   1      46.137  33.431  27.983  1.00  0.00     0.173 A 
ATOM     86  C   UNL A   1      46.680  32.604  30.173  1.00  0.00     0.173 A 
ATOM     87  F   UNL A   1      45.664  33.251  26.740  1.00  0.00    -0.203 F 
ATOM     88  C   UNL A   1      46.654  34.677  28.329  1.00  0.00     0.198 A 
ATOM     89  C   UNL A   1      47.159  33.861  30.528  1.00  0.00     0.198 A 
ATOM     90  F   UNL A   1      46.717  31.620  31.085  1.00  0.00    -0.203 F 
ATOM     91  F   UNL A   1      46.683  35.663  27.422  1.00  0.00    -0.200 F 
ATOM     92  C   UNL A   1      47.158  34.893  29.603  1.00  0.00     0.200 A 
ATOM     93  F   UNL A   1      47.630  34.072  31.766  1.00  0.00    -0.200 F 
ATOM     94  F   UNL A   1      47.653  36.093  29.934  1.00  0.00    -0.200 F 
ENDBRANCH  61  84
ENDBRANCH  35  36
ENDBRANCH  27  30
ENDBRANCH  25  26
ENDBRANCH  24  25
ENDBRANCH   1  24
TORSDOF 14
ENDMDL
MODEL 3
REMARK VINA RESULT:     -12.2      1.393      7.495
REMARK SMILES CC(=C\c1ccco1)/C=C1/SC(=S)N(CC(=O)NCCCCNC(=O)c2ccc(-c3c4nc(c(-c5c(F)c(F)c(F)c(F)c5F)c5ccc([nH]5)c(-c5c(F)c(F)c(F)c(F)c5F)c5nc(c(-c6c(F)c(F)c(F)c(F)c6F)c6ccc3[nH]6)C=C5)C=C4)cc2)C1=O
REMARK SMILES IDX 20 1 19 2 18 3 16 4 17 5 15 7 14 8 9 9 10 10 11 11 89 12
REMARK SMILES IDX 12 13 90 14 13 15 2 16 1 17 3 18 4 19 5 20 8 21 6 22 7 23
REMARK SMILES IDX 21 24 22 25 23 26 24 27 25 29 26 30 27 31 88 32 28 33 87 34
REMARK SMILES IDX 29 35 30 36 31 37 81 38 32 39 86 40 80 41 82 42 33 43 85 44
REMARK SMILES IDX 79 45 78 46 34 48 66 49 46 50 65 51 47 52 50 53 64 54 83 55
REMARK SMILES IDX 48 56 49 57 63 59 84 60 51 61 35 62 36 63 44 64 37 65 38 66
REMARK SMILES IDX 42 67 45 68 39 69 40 70 43 71 41 72 67 73 68 74 76 75 69 76
REMARK SMILES IDX 70 77 74 78 77 79 71 80 72 81 75 82 73 83 52 84 53 85 61 86
REMARK SMILES IDX 54 87 55 88 59 89 62 90 56 91 57 92 60 93 58 94
REMARK H PARENT 18 6 23 28 82 47 50 58
REMARK Flexibility Score: inf
ROOT
ATOM      1  C   UNL A   1      31.631  30.659  26.669  1.00  0.00     0.023 C 
ENDROOT
BRANCH   1   2
ATOM      2  C   UNL A   1      31.468  30.132  25.246  1.00  0.00     0.116 C 
BRANCH   2   3
ATOM      3  N   UNL A   1      32.728  29.711  24.674  1.00  0.00    -0.355 N 
ATOM      4  C   UNL A   1      33.299  28.471  24.645  1.00  0.00     0.240 C 
ATOM      5  O   UNL A   1      34.243  28.311  23.869  1.00  0.00    -0.273 OA
ATOM      6  H   UNL A   1      33.250  30.425  24.241  1.00  0.00     0.163 HD
BRANCH   4   7
ATOM      7  C   UNL A   1      32.707  27.293  25.437  1.00  0.00     0.227 C 
BRANCH   7   8
ATOM      8  N   UNL A   1      32.423  26.135  24.588  1.00  0.00    -0.283 N 
ATOM      9  C   UNL A   1      33.310  22.688  23.867  1.00  0.00     0.024 C 
ATOM     10  C   UNL A   1      32.833  23.941  23.839  1.00  0.00     0.080 C 
ATOM     11  S   UNL A   1      31.428  24.408  22.957  1.00  0.00    -0.054 SA
ATOM     12  C   UNL A   1      33.360  25.118  24.579  1.00  0.00     0.266 C 
ATOM     13  C   UNL A   1      31.407  26.020  23.668  1.00  0.00     0.148 C 
ATOM     14  O   UNL A   1      34.472  25.186  25.083  1.00  0.00    -0.268 OA
ATOM     15  S   UNL A   1      30.281  27.165  23.214  1.00  0.00    -0.052 S 
BRANCH   9  16
ATOM     16  C   UNL A   1      34.449  22.218  24.651  1.00  0.00    -0.046 C 
ATOM     17  C   UNL A   1      34.118  21.627  26.001  1.00  0.00     0.044 C 
ATOM     18  C   UNL A   1      35.685  22.401  24.145  1.00  0.00     0.050 C 
BRANCH  18  19
ATOM     19  C   UNL A   1      36.888  22.070  24.826  1.00  0.00     0.126 A 
ATOM     20  C   UNL A   1      37.755  22.844  25.591  1.00  0.00     0.050 A 
ATOM     21  O   UNL A   1      37.389  20.787  24.817  1.00  0.00    -0.465 OA
ATOM     22  C   UNL A   1      38.846  22.030  25.975  1.00  0.00     0.042 A 
ATOM     23  C   UNL A   1      38.573  20.783  25.477  1.00  0.00     0.195 A 
ENDBRANCH  18  19
ENDBRANCH   9  16
ENDBRANCH   7   8
ENDBRANCH   4   7
ENDBRANCH   2   3
ENDBRANCH   1   2
BRANCH   1  24
ATOM     24  C   UNL A   1      31.450  32.173  26.809  1.00  0.00     0.023 C 
BRANCH  24  25
ATOM     25  C   UNL A   1      32.715  32.956  27.149  1.00  0.00     0.116 C 
BRANCH  25  26
ATOM     26  N   UNL A   1      32.445  34.305  27.617  1.00  0.00    -0.352 N 
ATOM     27  C   UNL A   1      33.021  34.999  28.652  1.00  0.00     0.251 C 
ATOM     28  H   UNL A   1      31.748  34.792  27.121  1.00  0.00     0.163 HD
ATOM     29  O   UNL A   1      32.566  36.088  28.988  1.00  0.00    -0.269 OA
BRANCH  27  30
ATOM     30  C   UNL A   1      34.169  34.424  29.387  1.00  0.00     0.039 A 
ATOM     31  C   UNL A   1      33.920  33.704  30.558  1.00  0.00     0.014 A 
ATOM     32  C   UNL A   1      35.481  34.597  28.939  1.00  0.00     0.014 A 
ATOM     33  C   UNL A   1      34.981  33.114  31.249  1.00  0.00     0.010 A 
ATOM     34  C   UNL A   1      36.528  33.940  29.581  1.00  0.00     0.010 A 
ATOM     35  C   UNL A   1      36.292  33.201  30.749  1.00  0.00    -0.014 A 
BRANCH  35  36
ATOM     36  C   UNL A   1      37.417  32.529  31.449  1.00  0.00     0.031 A 
ATOM     37  C   UNL A   1      38.117  31.358  30.816  1.00  0.00     0.074 A 
ATOM     38  C   UNL A   1      37.787  32.953  32.673  1.00  0.00     0.049 A 
ATOM     39  N   UNL A   1      39.114  30.641  31.274  1.00  0.00    -0.248 NA
ATOM     40  C   UNL A   1      37.615  30.914  29.506  1.00  0.00     0.031 C 
ATOM     41  C   UNL A   1      37.153  34.042  33.417  1.00  0.00     0.029 A 
ATOM     42  N   UNL A   1      38.787  32.521  33.508  1.00  0.00    -0.354 N 
ATOM     43  C   UNL A   1      39.351  29.665  30.315  1.00  0.00     0.074 A 
ATOM     44  C   UNL A   1      38.354  29.837  29.281  1.00  0.00     0.031 C 
ATOM     45  C   UNL A   1      37.799  34.216  34.581  1.00  0.00     0.029 A 
ATOM     46  C   UNL A   1      38.868  33.228  34.683  1.00  0.00     0.049 A 
ATOM     47  H   UNL A   1      39.389  31.775  33.285  1.00  0.00     0.167 HD
ATOM     48  C   UNL A   1      40.329  28.728  30.285  1.00  0.00     0.037 A 
ATOM     49  C   UNL A   1      39.709  33.092  35.726  1.00  0.00     0.037 A 
ATOM     50  C   UNL A   1      41.329  28.568  31.309  1.00  0.00     0.049 A 
ATOM     51  C   UNL A   1      40.780  32.036  35.671  1.00  0.00     0.074 A 
ATOM     52  C   UNL A   1      42.394  27.686  31.346  1.00  0.00     0.029 A 
ATOM     53  N   UNL A   1      41.381  29.306  32.484  1.00  0.00    -0.354 N 
ATOM     54  N   UNL A   1      41.045  31.170  34.722  1.00  0.00    -0.248 NA
ATOM     55  C   UNL A   1      41.679  31.949  36.830  1.00  0.00     0.031 C 
ATOM     56  C   UNL A   1      43.056  27.848  32.568  1.00  0.00     0.029 A 
ATOM     57  C   UNL A   1      42.445  28.879  33.263  1.00  0.00     0.049 A 
ATOM     58  H   UNL A   1      40.756  30.027  32.727  1.00  0.00     0.167 HD
ATOM     59  C   UNL A   1      42.155  30.458  35.154  1.00  0.00     0.074 A 
ATOM     60  C   UNL A   1      42.528  31.009  36.440  1.00  0.00     0.031 C 
ATOM     61  C   UNL A   1      42.807  29.437  34.543  1.00  0.00     0.037 A 
BRANCH  48  62
ATOM     62  C   UNL A   1      40.364  27.798  29.104  1.00  0.00     0.064 A 
ATOM     63  C   UNL A   1      39.634  26.598  29.087  1.00  0.00     0.173 A 
ATOM     64  C   UNL A   1      41.107  28.125  27.961  1.00  0.00     0.173 A 
ATOM     65  F   UNL A   1      38.914  26.230  30.158  1.00  0.00    -0.203 F 
ATOM     66  C   UNL A   1      39.676  25.747  27.986  1.00  0.00     0.198 A 
ATOM     67  C   UNL A   1      41.119  27.289  26.847  1.00  0.00     0.198 A 
ATOM     68  F   UNL A   1      41.819  29.261  27.918  1.00  0.00    -0.203 F 
ATOM     69  F   UNL A   1      39.016  24.581  28.017  1.00  0.00    -0.200 F 
ATOM     70  C   UNL A   1      40.411  26.097  26.864  1.00  0.00     0.200 A 
ATOM     71  F   UNL A   1      41.817  27.636  25.757  1.00  0.00    -0.200 F 
ATOM     72  F   UNL A   1      40.443  25.280  25.801  1.00  0.00    -0.200 F 
ENDBRANCH  48  62
BRANCH  49  73
ATOM     73  C   UNL A   1      39.590  33.996  36.902  1.00  0.00     0.064 A 
ATOM     74  C   UNL A   1      40.257  35.229  36.935  1.00  0.00     0.173 A 
ATOM     75  C   UNL A   1      38.819  33.643  38.019  1.00  0.00     0.173 A 
ATOM     76  F   UNL A   1      41.022  35.604  35.899  1.00  0.00    -0.203 F 
ATOM     77  C   UNL A   1      40.182  36.059  38.052  1.00  0.00     0.198 A 
ATOM     78  C   UNL A   1      38.717  34.489  39.120  1.00  0.00     0.198 A 
ATOM     79  F   UNL A   1      38.154  32.479  38.036  1.00  0.00    -0.203 F 
ATOM     80  F   UNL A   1      40.876  37.205  38.079  1.00  0.00    -0.200 F 
ATOM     81  C   UNL A   1      39.408  35.691  39.141  1.00  0.00     0.200 A 
ATOM     82  F   UNL A   1      37.953  34.138  40.164  1.00  0.00    -0.200 F 
ATOM     83  F   UNL A   1      39.333  36.491  40.214  1.00  0.00    -0.200 F 
ENDBRANCH  49  73
BRANCH  61  84
ATOM     84  C   UNL A   1      44.013  28.877  35.242  1.00  0.00     0.064 A 
ATOM     85  C   UNL A   1      45.303  29.383  35.017  1.00  0.00     0.173 A 
ATOM     86  C   UNL A   1      43.875  27.826  36.163  1.00  0.00     0.173 A 
ATOM     87  F   UNL A   1      45.493  30.378  34.138  1.00  0.00    -0.203 F 
ATOM     88  C   UNL A   1      46.411  28.830  35.653  1.00  0.00     0.198 A 
ATOM     89  C   UNL A   1      44.981  27.302  36.825  1.00  0.00     0.198 A 
ATOM     90  F   UNL A   1      42.665  27.310  36.425  1.00  0.00    -0.203 F 
ATOM     91  F   UNL A   1      47.639  29.285  35.370  1.00  0.00    -0.200 F 
ATOM     92  C   UNL A   1      46.249  27.794  36.561  1.00  0.00     0.200 A 
ATOM     93  F   UNL A   1      44.820  26.312  37.716  1.00  0.00    -0.200 F 
ATOM     94  F   UNL A   1      47.317  27.264  37.172  1.00  0.00    -0.200 F 
ENDBRANCH  61  84
ENDBRANCH  35  36
ENDBRANCH  27  30
ENDBRANCH  25  26
ENDBRANCH  24  25
ENDBRANCH   1  24
TORSDOF 14
ENDMDL
