MODEL 1
REMARK VINA RESULT:     -11.7      0.000      0.000
REMARK SMILES O=C(NCCCCNC(=O)c1ccccc1/C=N\NC(=S)NCc1ccccc1)c1ccc(-c2c3nc(c(-c4c(F)c(F)c(F)c(F)c4F)c4ccc([nH]4)c(-c4c(F)c(F)c(F)c(F)c4F)c4nc(c(-c5c(F)c(F)c(F)c(F)c5F)c5ccc2[nH]5)C=C4)C=C3)cc1
REMARK SMILES IDX 8 1 9 2 10 3 7 5 6 6 5 7 4 8 3 9 1 10 2 11 30 13 31 14 92 15
REMARK SMILES IDX 32 16 91 17 33 18 34 19 35 20 85 21 36 22 90 23 84 24 86 25
REMARK SMILES IDX 37 26 89 27 83 28 82 29 38 31 70 32 50 33 69 34 51 35 54 36
REMARK SMILES IDX 68 37 87 38 52 39 53 40 67 42 88 43 55 44 39 45 40 46 48 47
REMARK SMILES IDX 41 48 42 49 46 50 49 51 43 52 44 53 47 54 45 55 71 56 72 57
REMARK SMILES IDX 80 58 73 59 74 60 78 61 81 62 75 63 76 64 79 65 77 66 56 67
REMARK SMILES IDX 57 68 65 69 58 70 59 71 63 72 66 73 60 74 61 75 64 76 62 77
REMARK SMILES IDX 11 78 12 79 16 80 13 81 15 82 14 83 17 84 18 85 19 86 20 88
REMARK SMILES IDX 21 89 22 90 23 92 24 93 25 94 29 95 26 96 28 97 27 98
REMARK H PARENT 8 4 3 12 86 30 54 41 19 87 22 91
REMARK Flexibility Score: inf
ROOT
ATOM      1  N   UNL A   1      46.440  40.176  25.099  1.00  0.00    -0.352 N 
ATOM      2  C   UNL A   1      45.765  41.378  25.051  1.00  0.00     0.251 C 
ATOM      3  O   UNL A   1      44.757  41.477  24.358  1.00  0.00    -0.269 OA
ATOM      4  H   UNL A   1      46.039  39.472  24.540  1.00  0.00     0.163 HD
ENDROOT
BRANCH   1   5
ATOM      5  C   UNL A   1      47.631  39.749  25.817  1.00  0.00     0.116 C 
BRANCH   5   6
ATOM      6  C   UNL A   1      47.746  38.244  26.060  1.00  0.00     0.023 C 
BRANCH   6   7
ATOM      7  C   UNL A   1      48.876  37.799  26.975  1.00  0.00     0.023 C 
BRANCH   7   8
ATOM      8  C   UNL A   1      48.429  37.306  28.337  1.00  0.00     0.116 C 
BRANCH   8   9
ATOM      9  N   UNL A   1      47.262  37.986  28.889  1.00  0.00    -0.352 N 
ATOM     10  O   UNL A   1      45.103  38.084  29.604  1.00  0.00    -0.269 OA
ATOM     11  C   UNL A   1      46.044  37.415  29.197  1.00  0.00     0.251 C 
ATOM     12  H   UNL A   1      47.352  38.953  29.058  1.00  0.00     0.163 HD
BRANCH  11  13
ATOM     13  C   UNL A   1      45.900  35.967  28.954  1.00  0.00     0.039 A 
ATOM     14  C   UNL A   1      45.261  35.538  27.792  1.00  0.00     0.014 A 
ATOM     15  C   UNL A   1      46.216  35.069  29.974  1.00  0.00     0.014 A 
ATOM     16  C   UNL A   1      44.734  34.259  27.749  1.00  0.00     0.010 A 
ATOM     17  C   UNL A   1      45.799  33.740  29.864  1.00  0.00     0.010 A 
ATOM     18  C   UNL A   1      45.001  33.340  28.781  1.00  0.00    -0.014 A 
BRANCH  18  19
ATOM     19  C   UNL A   1      44.449  31.967  28.670  1.00  0.00     0.031 A 
ATOM     20  C   UNL A   1      43.093  31.615  29.219  1.00  0.00     0.074 A 
ATOM     21  C   UNL A   1      45.172  31.044  28.006  1.00  0.00     0.049 A 
ATOM     22  N   UNL A   1      42.459  30.469  29.176  1.00  0.00    -0.248 NA
ATOM     23  C   UNL A   1      42.352  32.678  29.915  1.00  0.00     0.031 C 
ATOM     24  C   UNL A   1      46.502  31.273  27.433  1.00  0.00     0.029 A 
ATOM     25  N   UNL A   1      44.886  29.747  27.668  1.00  0.00    -0.354 N 
ATOM     26  C   UNL A   1      41.269  30.662  29.868  1.00  0.00     0.074 A 
ATOM     27  C   UNL A   1      41.274  32.031  30.335  1.00  0.00     0.031 C 
ATOM     28  C   UNL A   1      46.883  30.184  26.754  1.00  0.00     0.029 A 
ATOM     29  C   UNL A   1      45.869  29.152  26.916  1.00  0.00     0.049 A 
ATOM     30  H   UNL A   1      44.059  29.288  27.939  1.00  0.00     0.167 HD
ATOM     31  C   UNL A   1      40.268  29.775  30.088  1.00  0.00     0.037 A 
ATOM     32  C   UNL A   1      45.956  27.903  26.426  1.00  0.00     0.037 A 
ATOM     33  C   UNL A   1      40.261  28.421  29.589  1.00  0.00     0.049 A 
ATOM     34  C   UNL A   1      44.835  26.943  26.694  1.00  0.00     0.074 A 
ATOM     35  C   UNL A   1      39.278  27.456  29.723  1.00  0.00     0.029 A 
ATOM     36  N   UNL A   1      41.291  27.841  28.861  1.00  0.00    -0.354 N 
ATOM     37  N   UNL A   1      43.708  27.145  27.332  1.00  0.00    -0.248 NA
ATOM     38  C   UNL A   1      45.002  25.580  26.177  1.00  0.00     0.031 C 
ATOM     39  C   UNL A   1      39.736  26.277  29.123  1.00  0.00     0.029 A 
ATOM     40  C   UNL A   1      40.976  26.524  28.559  1.00  0.00     0.049 A 
ATOM     41  H   UNL A   1      42.123  28.298  28.598  1.00  0.00     0.167 HD
ATOM     42  C   UNL A   1      43.020  25.943  27.275  1.00  0.00     0.074 A 
ATOM     43  C   UNL A   1      43.850  25.024  26.520  1.00  0.00     0.031 C 
ATOM     44  C   UNL A   1      41.811  25.627  27.801  1.00  0.00     0.037 A 
BRANCH  31  45
ATOM     45  C   UNL A   1      39.103  30.221  30.928  1.00  0.00     0.064 A 
ATOM     46  C   UNL A   1      39.085  30.063  32.321  1.00  0.00     0.173 A 
ATOM     47  C   UNL A   1      38.006  30.864  30.330  1.00  0.00     0.173 A 
ATOM     48  F   UNL A   1      40.101  29.447  32.944  1.00  0.00    -0.203 F 
ATOM     49  C   UNL A   1      38.003  30.506  33.080  1.00  0.00     0.198 A 
ATOM     50  C   UNL A   1      36.941  31.332  31.094  1.00  0.00     0.198 A 
ATOM     51  F   UNL A   1      37.973  31.049  29.002  1.00  0.00    -0.203 F 
ATOM     52  F   UNL A   1      37.987  30.302  34.405  1.00  0.00    -0.200 F 
ATOM     53  C   UNL A   1      36.936  31.147  32.469  1.00  0.00     0.200 A 
ATOM     54  F   UNL A   1      35.918  31.964  30.502  1.00  0.00    -0.200 F 
ATOM     55  F   UNL A   1      35.901  31.579  33.202  1.00  0.00    -0.200 F 
ENDBRANCH  31  45
BRANCH  32  56
ATOM     56  C   UNL A   1      47.149  27.501  25.639  1.00  0.00     0.064 A 
ATOM     57  C   UNL A   1      48.264  26.928  26.262  1.00  0.00     0.173 A 
ATOM     58  C   UNL A   1      47.191  27.665  24.246  1.00  0.00     0.173 A 
ATOM     59  F   UNL A   1      48.278  26.765  27.594  1.00  0.00    -0.203 F 
ATOM     60  C   UNL A   1      49.384  26.549  25.525  1.00  0.00     0.198 A 
ATOM     61  C   UNL A   1      48.295  27.252  23.506  1.00  0.00     0.198 A 
ATOM     62  F   UNL A   1      46.144  28.199  23.600  1.00  0.00    -0.203 F 
ATOM     63  F   UNL A   1      50.455  26.043  26.151  1.00  0.00    -0.200 F 
ATOM     64  C   UNL A   1      49.395  26.704  24.146  1.00  0.00     0.200 A 
ATOM     65  F   UNL A   1      48.292  27.383  22.172  1.00  0.00    -0.200 F 
ATOM     66  F   UNL A   1      50.468  26.329  23.437  1.00  0.00    -0.200 F 
ENDBRANCH  32  56
BRANCH  44  67
ATOM     67  C   UNL A   1      41.298  24.242  27.535  1.00  0.00     0.064 A 
ATOM     68  C   UNL A   1      41.876  23.111  28.131  1.00  0.00     0.173 A 
ATOM     69  C   UNL A   1      40.208  24.046  26.673  1.00  0.00     0.173 A 
ATOM     70  F   UNL A   1      42.932  23.244  28.948  1.00  0.00    -0.203 F 
ATOM     71  C   UNL A   1      41.405  21.833  27.845  1.00  0.00     0.198 A 
ATOM     72  C   UNL A   1      39.719  22.770  26.416  1.00  0.00     0.198 A 
ATOM     73  F   UNL A   1      39.617  25.095  26.082  1.00  0.00    -0.203 F 
ATOM     74  F   UNL A   1      42.013  20.762  28.375  1.00  0.00    -0.200 F 
ATOM     75  C   UNL A   1      40.324  21.664  26.992  1.00  0.00     0.200 A 
ATOM     76  F   UNL A   1      38.665  22.609  25.603  1.00  0.00    -0.200 F 
ATOM     77  F   UNL A   1      39.872  20.432  26.717  1.00  0.00    -0.200 F 
ENDBRANCH  44  67
ENDBRANCH  18  19
ENDBRANCH  11  13
ENDBRANCH   8   9
ENDBRANCH   7   8
ENDBRANCH   6   7
ENDBRANCH   5   6
ENDBRANCH   1   5
BRANCH   2  78
ATOM     78  C   UNL A   1      46.110  42.485  25.960  1.00  0.00     0.048 A 
ATOM     79  C   UNL A   1      47.280  43.703  25.311  1.00  0.00     0.014 A 
ATOM     80  C   UNL A   1      45.099  42.906  27.407  1.00  0.00     0.007 A 
ATOM     81  C   UNL A   1      47.436  45.341  26.099  1.00  0.00     0.001 A 
ATOM     82  C   UNL A   1      45.275  44.521  28.232  1.00  0.00     0.010 A 
ATOM     83  C   UNL A   1      46.447  45.732  27.559  1.00  0.00     0.001 A 
BRANCH  80  84
ATOM     84  C   UNL A   1      44.780  41.816  28.287  1.00  0.00     0.142 C 
ATOM     85  N   UNL A   1      43.740  41.111  28.023  1.00  0.00    -0.181 NA
BRANCH  85  86
ATOM     86  N   UNL A   1      42.914  41.551  27.018  1.00  0.00    -0.254 N 
ATOM     87  H   UNL A   1      42.924  42.529  26.898  1.00  0.00     0.193 HD
BRANCH  86  88
ATOM     88  C   UNL A   1      42.084  40.900  26.155  1.00  0.00     0.187 C 
ATOM     89  S   UNL A   1      41.725  39.302  26.576  1.00  0.00    -0.039 S 
BRANCH  88  90
ATOM     90  N   UNL A   1      41.524  41.358  24.943  1.00  0.00    -0.357 N 
ATOM     91  H   UNL A   1      41.012  40.583  24.615  1.00  0.00     0.163 HD
BRANCH  90  92
ATOM     92  C   UNL A   1      41.203  42.813  23.475  1.00  0.00     0.151 C 
BRANCH  92  93
ATOM     93  C   UNL A   1      42.066  43.426  22.167  1.00  0.00    -0.029 A 
ATOM     94  C   UNL A   1      43.434  43.776  22.258  1.00  0.00     0.005 A 
ATOM     95  C   UNL A   1      41.525  43.198  20.883  1.00  0.00     0.005 A 
ATOM     96  C   UNL A   1      44.229  43.863  21.113  1.00  0.00     0.000 A 
ATOM     97  C   UNL A   1      42.333  43.268  19.747  1.00  0.00     0.000 A 
ATOM     98  C   UNL A   1      43.685  43.584  19.863  1.00  0.00     0.000 A 
ENDBRANCH  92  93
ENDBRANCH  90  92
ENDBRANCH  88  90
ENDBRANCH  86  88
ENDBRANCH  85  86
ENDBRANCH  80  84
ENDBRANCH   2  78
TORSDOF 17
ENDMDL
MODEL 2
REMARK VINA RESULT:     -11.5      8.430     14.630
REMARK SMILES O=C(NCCCCNC(=O)c1ccccc1/C=N\NC(=S)NCc1ccccc1)c1ccc(-c2c3nc(c(-c4c(F)c(F)c(F)c(F)c4F)c4ccc([nH]4)c(-c4c(F)c(F)c(F)c(F)c4F)c4nc(c(-c5c(F)c(F)c(F)c(F)c5F)c5ccc2[nH]5)C=C4)C=C3)cc1
REMARK SMILES IDX 8 1 9 2 10 3 7 5 6 6 5 7 4 8 3 9 1 10 2 11 30 13 31 14 92 15
REMARK SMILES IDX 32 16 91 17 33 18 34 19 35 20 85 21 36 22 90 23 84 24 86 25
REMARK SMILES IDX 37 26 89 27 83 28 82 29 38 31 70 32 50 33 69 34 51 35 54 36
REMARK SMILES IDX 68 37 87 38 52 39 53 40 67 42 88 43 55 44 39 45 40 46 48 47
REMARK SMILES IDX 41 48 42 49 46 50 49 51 43 52 44 53 47 54 45 55 71 56 72 57
REMARK SMILES IDX 80 58 73 59 74 60 78 61 81 62 75 63 76 64 79 65 77 66 56 67
REMARK SMILES IDX 57 68 65 69 58 70 59 71 63 72 66 73 60 74 61 75 64 76 62 77
REMARK SMILES IDX 11 78 12 79 16 80 13 81 15 82 14 83 17 84 18 85 19 86 20 88
REMARK SMILES IDX 21 89 22 90 23 92 24 93 25 94 29 95 26 96 28 97 27 98
REMARK H PARENT 8 4 3 12 86 30 54 41 19 87 22 91
REMARK Flexibility Score: inf
ROOT
ATOM      1  N   UNL A   1      50.207  22.004  33.566  1.00  0.00    -0.352 N 
ATOM      2  C   UNL A   1      49.565  21.055  34.333  1.00  0.00     0.251 C 
ATOM      3  O   UNL A   1      49.599  19.877  33.990  1.00  0.00    -0.269 OA
ATOM      4  H   UNL A   1      50.651  21.636  32.767  1.00  0.00     0.163 HD
ENDROOT
BRANCH   1   5
ATOM      5  C   UNL A   1      50.355  23.445  33.709  1.00  0.00     0.116 C 
BRANCH   5   6
ATOM      6  C   UNL A   1      49.081  24.259  33.483  1.00  0.00     0.023 C 
BRANCH   6   7
ATOM      7  C   UNL A   1      48.362  24.738  34.735  1.00  0.00     0.023 C 
BRANCH   7   8
ATOM      8  C   UNL A   1      49.021  25.913  35.430  1.00  0.00     0.116 C 
BRANCH   8   9
ATOM      9  N   UNL A   1      48.539  26.182  36.780  1.00  0.00    -0.352 N 
ATOM     10  O   UNL A   1      47.011  26.931  38.292  1.00  0.00    -0.269 OA
ATOM     11  C   UNL A   1      47.301  26.685  37.129  1.00  0.00     0.251 C 
ATOM     12  H   UNL A   1      49.160  25.986  37.519  1.00  0.00     0.163 HD
BRANCH  11  13
ATOM     13  C   UNL A   1      46.360  26.975  36.031  1.00  0.00     0.039 A 
ATOM     14  C   UNL A   1      46.564  28.112  35.250  1.00  0.00     0.014 A 
ATOM     15  C   UNL A   1      45.184  26.233  35.926  1.00  0.00     0.014 A 
ATOM     16  C   UNL A   1      45.500  28.634  34.536  1.00  0.00     0.010 A 
ATOM     17  C   UNL A   1      44.160  26.693  35.095  1.00  0.00     0.010 A 
ATOM     18  C   UNL A   1      44.286  27.929  34.442  1.00  0.00    -0.014 A 
BRANCH  18  19
ATOM     19  C   UNL A   1      43.188  28.510  33.628  1.00  0.00     0.031 A 
ATOM     20  C   UNL A   1      42.961  28.093  32.201  1.00  0.00     0.074 A 
ATOM     21  C   UNL A   1      42.353  29.385  34.221  1.00  0.00     0.049 A 
ATOM     22  N   UNL A   1      42.029  28.486  31.366  1.00  0.00    -0.248 NA
ATOM     23  C   UNL A   1      43.901  27.120  31.624  1.00  0.00     0.031 C 
ATOM     24  C   UNL A   1      42.480  29.861  35.601  1.00  0.00     0.029 A 
ATOM     25  N   UNL A   1      41.218  30.001  33.762  1.00  0.00    -0.354 N 
ATOM     26  C   UNL A   1      42.292  27.840  30.164  1.00  0.00     0.074 A 
ATOM     27  C   UNL A   1      43.481  27.042  30.369  1.00  0.00     0.031 C 
ATOM     28  C   UNL A   1      41.427  30.633  35.899  1.00  0.00     0.029 A 
ATOM     29  C   UNL A   1      40.600  30.778  34.709  1.00  0.00     0.049 A 
ATOM     30  H   UNL A   1      40.881  29.896  32.843  1.00  0.00     0.167 HD
ATOM     31  C   UNL A   1      41.601  27.910  29.000  1.00  0.00     0.037 A 
ATOM     32  C   UNL A   1      39.497  31.542  34.627  1.00  0.00     0.037 A 
ATOM     33  C   UNL A   1      40.398  28.687  28.818  1.00  0.00     0.049 A 
ATOM     34  C   UNL A   1      38.759  31.604  33.322  1.00  0.00     0.074 A 
ATOM     35  C   UNL A   1      39.602  28.794  27.691  1.00  0.00     0.029 A 
ATOM     36  N   UNL A   1      39.821  29.491  29.791  1.00  0.00    -0.354 N 
ATOM     37  N   UNL A   1      39.007  30.974  32.201  1.00  0.00    -0.248 NA
ATOM     38  C   UNL A   1      37.590  32.490  33.272  1.00  0.00     0.031 C 
ATOM     39  C   UNL A   1      38.573  29.703  27.965  1.00  0.00     0.029 A 
ATOM     40  C   UNL A   1      38.691  30.115  29.282  1.00  0.00     0.049 A 
ATOM     41  H   UNL A   1      40.163  29.602  30.708  1.00  0.00     0.167 HD
ATOM     42  C   UNL A   1      38.014  31.366  31.316  1.00  0.00     0.074 A 
ATOM     43  C   UNL A   1      37.148  32.274  32.042  1.00  0.00     0.031 C 
ATOM     44  C   UNL A   1      37.836  31.010  30.021  1.00  0.00     0.037 A 
BRANCH  31  45
ATOM     45  C   UNL A   1      42.136  27.153  27.817  1.00  0.00     0.064 A 
ATOM     46  C   UNL A   1      43.148  27.671  26.996  1.00  0.00     0.173 A 
ATOM     47  C   UNL A   1      41.659  25.863  27.529  1.00  0.00     0.173 A 
ATOM     48  F   UNL A   1      43.633  28.902  27.217  1.00  0.00    -0.203 F 
ATOM     49  C   UNL A   1      43.644  26.940  25.917  1.00  0.00     0.198 A 
ATOM     50  C   UNL A   1      42.177  25.123  26.469  1.00  0.00     0.198 A 
ATOM     51  F   UNL A   1      40.697  25.314  28.284  1.00  0.00    -0.203 F 
ATOM     52  F   UNL A   1      44.578  27.475  25.119  1.00  0.00    -0.200 F 
ATOM     53  C   UNL A   1      43.164  25.665  25.659  1.00  0.00     0.200 A 
ATOM     54  F   UNL A   1      41.722  23.885  26.231  1.00  0.00    -0.200 F 
ATOM     55  F   UNL A   1      43.648  24.960  24.627  1.00  0.00    -0.200 F 
ENDBRANCH  31  45
BRANCH  32  56
ATOM     56  C   UNL A   1      39.036  32.304  35.815  1.00  0.00     0.064 A 
ATOM     57  C   UNL A   1      38.202  31.711  36.771  1.00  0.00     0.173 A 
ATOM     58  C   UNL A   1      39.437  33.632  36.028  1.00  0.00     0.173 A 
ATOM     59  F   UNL A   1      37.781  30.449  36.604  1.00  0.00    -0.203 F 
ATOM     60  C   UNL A   1      37.770  32.424  37.888  1.00  0.00     0.198 A 
ATOM     61  C   UNL A   1      39.034  34.331  37.162  1.00  0.00     0.198 A 
ATOM     62  F   UNL A   1      40.244  34.240  35.147  1.00  0.00    -0.203 F 
ATOM     63  F   UNL A   1      36.937  31.849  38.765  1.00  0.00    -0.200 F 
ATOM     64  C   UNL A   1      38.193  33.731  38.086  1.00  0.00     0.200 A 
ATOM     65  F   UNL A   1      39.464  35.585  37.361  1.00  0.00    -0.200 F 
ATOM     66  F   UNL A   1      37.786  34.412  39.166  1.00  0.00    -0.200 F 
ENDBRANCH  32  56
BRANCH  44  67
ATOM     67  C   UNL A   1      36.631  31.570  29.324  1.00  0.00     0.064 A 
ATOM     68  C   UNL A   1      35.523  30.772  29.004  1.00  0.00     0.173 A 
ATOM     69  C   UNL A   1      36.586  32.928  28.973  1.00  0.00     0.173 A 
ATOM     70  F   UNL A   1      35.525  29.463  29.301  1.00  0.00    -0.203 F 
ATOM     71  C   UNL A   1      34.429  31.305  28.327  1.00  0.00     0.198 A 
ATOM     72  C   UNL A   1      35.477  33.465  28.327  1.00  0.00     0.198 A 
ATOM     73  F   UNL A   1      37.618  33.735  29.261  1.00  0.00    -0.203 F 
ATOM     74  F   UNL A   1      33.409  30.510  27.975  1.00  0.00    -0.200 F 
ATOM     75  C   UNL A   1      34.405  32.651  27.994  1.00  0.00     0.200 A 
ATOM     76  F   UNL A   1      35.450  34.768  28.019  1.00  0.00    -0.200 F 
ATOM     77  F   UNL A   1      33.352  33.162  27.341  1.00  0.00    -0.200 F 
ENDBRANCH  44  67
ENDBRANCH  18  19
ENDBRANCH  11  13
ENDBRANCH   8   9
ENDBRANCH   7   8
ENDBRANCH   6   7
ENDBRANCH   5   6
ENDBRANCH   1   5
BRANCH   2  78
ATOM     78  C   UNL A   1      49.007  21.391  35.654  1.00  0.00     0.048 A 
ATOM     79  C   UNL A   1      50.188  22.019  36.873  1.00  0.00     0.014 A 
ATOM     80  C   UNL A   1      47.230  21.647  35.923  1.00  0.00     0.007 A 
ATOM     81  C   UNL A   1      49.599  22.907  38.353  1.00  0.00     0.001 A 
ATOM     82  C   UNL A   1      46.625  22.493  37.420  1.00  0.00     0.010 A 
ATOM     83  C   UNL A   1      47.826  23.124  38.623  1.00  0.00     0.001 A 
BRANCH  80  84
ATOM     84  C   UNL A   1      46.366  20.611  35.431  1.00  0.00     0.142 C 
ATOM     85  N   UNL A   1      45.603  20.882  34.435  1.00  0.00    -0.181 NA
BRANCH  85  86
ATOM     86  N   UNL A   1      45.545  22.191  34.020  1.00  0.00    -0.254 N 
ATOM     87  H   UNL A   1      46.406  22.664  34.083  1.00  0.00     0.193 HD
BRANCH  86  88
ATOM     88  C   UNL A   1      44.528  22.961  33.539  1.00  0.00     0.187 C 
ATOM     89  S   UNL A   1      43.265  23.239  34.628  1.00  0.00    -0.039 S 
BRANCH  88  90
ATOM     90  N   UNL A   1      44.365  23.517  32.252  1.00  0.00    -0.357 N 
ATOM     91  H   UNL A   1      44.591  24.467  32.379  1.00  0.00     0.163 HD
BRANCH  90  92
ATOM     92  C   UNL A   1      43.900  23.390  30.217  1.00  0.00     0.151 C 
BRANCH  92  93
ATOM     93  C   UNL A   1      44.629  23.864  28.775  1.00  0.00    -0.029 A 
ATOM     94  C   UNL A   1      45.539  24.944  28.705  1.00  0.00     0.005 A 
ATOM     95  C   UNL A   1      44.640  22.918  27.727  1.00  0.00     0.005 A 
ATOM     96  C   UNL A   1      46.441  25.052  27.644  1.00  0.00     0.000 A 
ATOM     97  C   UNL A   1      45.559  23.025  26.682  1.00  0.00     0.000 A 
ATOM     98  C   UNL A   1      46.468  24.080  26.649  1.00  0.00     0.000 A 
ENDBRANCH  92  93
ENDBRANCH  90  92
ENDBRANCH  88  90
ENDBRANCH  86  88
ENDBRANCH  85  86
ENDBRANCH  80  84
ENDBRANCH   2  78
TORSDOF 17
ENDMDL
MODEL 3
REMARK VINA RESULT:     -11.3      1.974      2.889
REMARK SMILES O=C(NCCCCNC(=O)c1ccccc1/C=N\NC(=S)NCc1ccccc1)c1ccc(-c2c3nc(c(-c4c(F)c(F)c(F)c(F)c4F)c4ccc([nH]4)c(-c4c(F)c(F)c(F)c(F)c4F)c4nc(c(-c5c(F)c(F)c(F)c(F)c5F)c5ccc2[nH]5)C=C4)C=C3)cc1
REMARK SMILES IDX 8 1 9 2 10 3 7 5 6 6 5 7 4 8 3 9 1 10 2 11 30 13 31 14 92 15
REMARK SMILES IDX 32 16 91 17 33 18 34 19 35 20 85 21 36 22 90 23 84 24 86 25
REMARK SMILES IDX 37 26 89 27 83 28 82 29 38 31 70 32 50 33 69 34 51 35 54 36
REMARK SMILES IDX 68 37 87 38 52 39 53 40 67 42 88 43 55 44 39 45 40 46 48 47
REMARK SMILES IDX 41 48 42 49 46 50 49 51 43 52 44 53 47 54 45 55 71 56 72 57
REMARK SMILES IDX 80 58 73 59 74 60 78 61 81 62 75 63 76 64 79 65 77 66 56 67
REMARK SMILES IDX 57 68 65 69 58 70 59 71 63 72 66 73 60 74 61 75 64 76 62 77
REMARK SMILES IDX 11 78 12 79 16 80 13 81 15 82 14 83 17 84 18 85 19 86 20 88
REMARK SMILES IDX 21 89 22 90 23 92 24 93 25 94 29 95 26 96 28 97 27 98
REMARK H PARENT 8 4 3 12 86 30 54 41 19 87 22 91
REMARK Flexibility Score: inf
ROOT
ATOM      1  N   UNL A   1      43.973  39.894  26.738  1.00  0.00    -0.352 N 
ATOM      2  C   UNL A   1      44.851  40.681  26.025  1.00  0.00     0.251 C 
ATOM      3  O   UNL A   1      45.470  40.196  25.082  1.00  0.00    -0.269 OA
ATOM      4  H   UNL A   1      43.923  38.963  26.419  1.00  0.00     0.163 HD
ENDROOT
BRANCH   1   5
ATOM      5  C   UNL A   1      43.105  40.172  27.873  1.00  0.00     0.116 C 
BRANCH   5   6
ATOM      6  C   UNL A   1      43.792  40.168  29.239  1.00  0.00     0.023 C 
BRANCH   6   7
ATOM      7  C   UNL A   1      43.796  38.840  29.980  1.00  0.00     0.023 C 
BRANCH   7   8
ATOM      8  C   UNL A   1      45.094  38.521  30.695  1.00  0.00     0.116 C 
BRANCH   8   9
ATOM      9  N   UNL A   1      46.269  38.431  29.836  1.00  0.00    -0.352 N 
ATOM     10  O   UNL A   1      47.695  37.346  28.432  1.00  0.00    -0.269 OA
ATOM     11  C   UNL A   1      46.656  37.343  29.079  1.00  0.00     0.251 C 
ATOM     12  H   UNL A   1      46.846  39.228  29.791  1.00  0.00     0.163 HD
BRANCH  11  13
ATOM     13  C   UNL A   1      45.796  36.146  29.133  1.00  0.00     0.039 A 
ATOM     14  C   UNL A   1      45.985  35.225  30.162  1.00  0.00     0.014 A 
ATOM     15  C   UNL A   1      44.959  35.858  28.055  1.00  0.00     0.014 A 
ATOM     16  C   UNL A   1      45.522  33.932  29.998  1.00  0.00     0.010 A 
ATOM     17  C   UNL A   1      44.381  34.589  27.963  1.00  0.00     0.010 A 
ATOM     18  C   UNL A   1      44.709  33.597  28.900  1.00  0.00    -0.014 A 
BRANCH  18  19
ATOM     19  C   UNL A   1      44.201  32.206  28.789  1.00  0.00     0.031 A 
ATOM     20  C   UNL A   1      42.843  31.820  29.308  1.00  0.00     0.074 A 
ATOM     21  C   UNL A   1      44.968  31.299  28.153  1.00  0.00     0.049 A 
ATOM     22  N   UNL A   1      42.244  30.654  29.261  1.00  0.00    -0.248 NA
ATOM     23  C   UNL A   1      42.053  32.866  29.974  1.00  0.00     0.031 C 
ATOM     24  C   UNL A   1      46.303  31.563  27.610  1.00  0.00     0.029 A 
ATOM     25  N   UNL A   1      44.729  29.991  27.821  1.00  0.00    -0.354 N 
ATOM     26  C   UNL A   1      41.032  30.818  29.921  1.00  0.00     0.074 A 
ATOM     27  C   UNL A   1      40.984  32.191  30.375  1.00  0.00     0.031 C 
ATOM     28  C   UNL A   1      46.733  30.480  26.952  1.00  0.00     0.029 A 
ATOM     29  C   UNL A   1      45.747  29.419  27.099  1.00  0.00     0.049 A 
ATOM     30  H   UNL A   1      43.908  29.511  28.075  1.00  0.00     0.167 HD
ATOM     31  C   UNL A   1      40.052  29.903  30.125  1.00  0.00     0.037 A 
ATOM     32  C   UNL A   1      45.884  28.169  26.624  1.00  0.00     0.037 A 
ATOM     33  C   UNL A   1      40.099  28.545  29.640  1.00  0.00     0.049 A 
ATOM     34  C   UNL A   1      44.786  27.179  26.874  1.00  0.00     0.074 A 
ATOM     35  C   UNL A   1      39.142  27.552  29.759  1.00  0.00     0.029 A 
ATOM     36  N   UNL A   1      41.163  27.990  28.943  1.00  0.00    -0.354 N 
ATOM     37  N   UNL A   1      43.638  27.352  27.481  1.00  0.00    -0.248 NA
ATOM     38  C   UNL A   1      45.006  25.816  26.375  1.00  0.00     0.031 C 
ATOM     39  C   UNL A   1      39.649  26.382  29.182  1.00  0.00     0.029 A 
ATOM     40  C   UNL A   1      40.895  26.661  28.647  1.00  0.00     0.049 A 
ATOM     41  H   UNL A   1      41.988  28.469  28.696  1.00  0.00     0.167 HD
ATOM     42  C   UNL A   1      42.987  26.130  27.419  1.00  0.00     0.074 A 
ATOM     43  C   UNL A   1      43.862  25.229  26.695  1.00  0.00     0.031 C 
ATOM     44  C   UNL A   1      41.775  25.782  27.918  1.00  0.00     0.037 A 
BRANCH  31  45
ATOM     45  C   UNL A   1      38.854  30.322  30.931  1.00  0.00     0.064 A 
ATOM     46  C   UNL A   1      38.821  30.212  32.329  1.00  0.00     0.173 A 
ATOM     47  C   UNL A   1      37.738  30.891  30.295  1.00  0.00     0.173 A 
ATOM     48  F   UNL A   1      39.854  29.667  32.989  1.00  0.00    -0.203 F 
ATOM     49  C   UNL A   1      37.706  30.629  33.056  1.00  0.00     0.198 A 
ATOM     50  C   UNL A   1      36.639  31.334  31.027  1.00  0.00     0.198 A 
ATOM     51  F   UNL A   1      37.718  31.028  28.961  1.00  0.00    -0.203 F 
ATOM     52  F   UNL A   1      37.679  30.470  34.387  1.00  0.00    -0.200 F 
ATOM     53  C   UNL A   1      36.621  31.196  32.407  1.00  0.00     0.200 A 
ATOM     54  F   UNL A   1      35.598  31.895  30.397  1.00  0.00    -0.200 F 
ATOM     55  F   UNL A   1      35.555  31.603  33.108  1.00  0.00    -0.200 F 
ENDBRANCH  31  45
BRANCH  32  56
ATOM     56  C   UNL A   1      47.108  27.796  25.871  1.00  0.00     0.064 A 
ATOM     57  C   UNL A   1      47.121  27.800  24.471  1.00  0.00     0.173 A 
ATOM     58  C   UNL A   1      48.293  27.448  26.536  1.00  0.00     0.173 A 
ATOM     59  F   UNL A   1      46.007  28.111  23.790  1.00  0.00    -0.203 F 
ATOM     60  C   UNL A   1      48.269  27.451  23.762  1.00  0.00     0.198 A 
ATOM     61  C   UNL A   1      49.450  27.135  25.826  1.00  0.00     0.198 A 
ATOM     62  F   UNL A   1      48.335  27.440  27.876  1.00  0.00    -0.203 F 
ATOM     63  F   UNL A   1      48.243  27.420  22.423  1.00  0.00    -0.200 F 
ATOM     64  C   UNL A   1      49.435  27.127  24.441  1.00  0.00     0.200 A 
ATOM     65  F   UNL A   1      50.579  26.845  26.487  1.00  0.00    -0.200 F 
ATOM     66  F   UNL A   1      50.541  26.803  23.759  1.00  0.00    -0.200 F 
ENDBRANCH  32  56
BRANCH  44  67
ATOM     67  C   UNL A   1      41.310  24.380  27.654  1.00  0.00     0.064 A 
ATOM     68  C   UNL A   1      41.905  23.273  28.277  1.00  0.00     0.173 A 
ATOM     69  C   UNL A   1      40.250  24.143  26.765  1.00  0.00     0.173 A 
ATOM     70  F   UNL A   1      42.935  23.445  29.120  1.00  0.00    -0.203 F 
ATOM     71  C   UNL A   1      41.479  21.978  27.992  1.00  0.00     0.198 A 
ATOM     72  C   UNL A   1      39.805  22.851  26.509  1.00  0.00     0.198 A 
ATOM     73  F   UNL A   1      39.644  25.169  26.148  1.00  0.00    -0.203 F 
ATOM     74  F   UNL A   1      42.105  20.932  28.549  1.00  0.00    -0.200 F 
ATOM     75  C   UNL A   1      40.427  21.769  27.113  1.00  0.00     0.200 A 
ATOM     76  F   UNL A   1      38.779  22.651  25.671  1.00  0.00    -0.200 F 
ATOM     77  F   UNL A   1      40.020  20.522  26.839  1.00  0.00    -0.200 F 
ENDBRANCH  44  67
ENDBRANCH  18  19
ENDBRANCH  11  13
ENDBRANCH   8   9
ENDBRANCH   7   8
ENDBRANCH   6   7
ENDBRANCH   5   6
ENDBRANCH   1   5
BRANCH   2  78
ATOM     78  C   UNL A   1      44.919  42.137  26.239  1.00  0.00     0.048 A 
ATOM     79  C   UNL A   1      45.790  42.676  27.731  1.00  0.00     0.014 A 
ATOM     80  C   UNL A   1      44.616  43.332  24.906  1.00  0.00     0.007 A 
ATOM     81  C   UNL A   1      46.366  44.399  27.890  1.00  0.00     0.001 A 
ATOM     82  C   UNL A   1      45.146  45.068  25.070  1.00  0.00     0.010 A 
ATOM     83  C   UNL A   1      46.027  45.584  26.570  1.00  0.00     0.001 A 
BRANCH  80  84
ATOM     84  C   UNL A   1      43.404  43.144  24.160  1.00  0.00     0.142 C 
ATOM     85  N   UNL A   1      43.500  42.792  22.929  1.00  0.00    -0.181 NA
BRANCH  85  86
ATOM     86  N   UNL A   1      44.754  42.786  22.368  1.00  0.00    -0.254 N 
ATOM     87  H   UNL A   1      45.405  42.234  22.860  1.00  0.00     0.193 HD
BRANCH  86  88
ATOM     88  C   UNL A   1      45.274  43.393  21.265  1.00  0.00     0.187 C 
ATOM     89  S   UNL A   1      46.523  42.546  20.503  1.00  0.00    -0.039 S 
BRANCH  88  90
ATOM     90  N   UNL A   1      44.946  44.645  20.700  1.00  0.00    -0.357 N 
ATOM     91  H   UNL A   1      44.553  45.144  21.453  1.00  0.00     0.163 HD
BRANCH  90  92
ATOM     92  C   UNL A   1      44.854  46.002  19.111  1.00  0.00     0.151 C 
BRANCH  92  93
ATOM     93  C   UNL A   1      43.640  46.841  18.302  1.00  0.00    -0.029 A 
ATOM     94  C   UNL A   1      43.711  48.232  18.061  1.00  0.00     0.005 A 
ATOM     95  C   UNL A   1      42.757  46.076  17.510  1.00  0.00     0.005 A 
ATOM     96  C   UNL A   1      42.952  48.824  17.049  1.00  0.00     0.000 A 
ATOM     97  C   UNL A   1      42.016  46.673  16.488  1.00  0.00     0.000 A 
ATOM     98  C   UNL A   1      42.126  48.041  16.248  1.00  0.00     0.000 A 
ENDBRANCH  92  93
ENDBRANCH  90  92
ENDBRANCH  88  90
ENDBRANCH  86  88
ENDBRANCH  85  86
ENDBRANCH  80  84
ENDBRANCH   2  78
TORSDOF 17
ENDMDL
