MODEL 1
REMARK VINA RESULT:     -12.3      0.000      0.000
REMARK SMILES CC(=O)c1nnn(-c2ccc(C(=O)NCCCCNC(=O)c3ccc(-c4c5nc(c(-c6c(F)c(F)c(F)c(F)c6F)c6ccc([nH]6)c(-c6c(F)c(F)c(F)c(F)c6F)c6nc(c(-c7c(F)c(F)c(F)c(F)c7F)c7ccc4[nH]7)C=C6)C=C5)cc3)cc2)c1C
REMARK SMILES IDX 16 1 15 2 14 3 12 4 13 5 11 7 8 8 9 9 86 10 10 11 85 12 7 13
REMARK SMILES IDX 4 14 5 15 87 16 6 17 88 18 2 19 1 20 3 21 17 22 18 23 19 24
REMARK SMILES IDX 20 25 21 27 22 28 23 29 84 30 24 31 83 32 25 33 26 34 27 35
REMARK SMILES IDX 77 36 28 37 82 38 76 39 78 40 29 41 81 42 75 43 74 44 30 46
REMARK SMILES IDX 62 47 42 48 61 49 43 50 46 51 60 52 79 53 44 54 45 55 59 57
REMARK SMILES IDX 80 58 47 59 31 60 32 61 40 62 33 63 34 64 38 65 41 66 35 67
REMARK SMILES IDX 36 68 39 69 37 70 63 71 64 72 72 73 65 74 66 75 70 76 73 77
REMARK SMILES IDX 67 78 68 79 71 80 69 81 48 82 49 83 57 84 50 85 51 86 55 87
REMARK SMILES IDX 58 88 52 89 53 90 56 91 54 92
REMARK H PARENT 14 6 19 26 78 45 46 56
REMARK Flexibility Score: inf
ROOT
ATOM      1  C   UNL A   1      40.282  21.011  26.750  1.00  0.00     0.023 C 
ENDROOT
BRANCH   1   2
ATOM      2  C   UNL A   1      39.244  21.598  25.786  1.00  0.00     0.116 C 
BRANCH   2   3
ATOM      3  N   UNL A   1      38.212  20.629  25.462  1.00  0.00    -0.352 N 
ATOM      4  C   UNL A   1      36.886  20.739  25.115  1.00  0.00     0.251 C 
ATOM      5  O   UNL A   1      36.286  19.693  24.859  1.00  0.00    -0.269 OA
ATOM      6  H   UNL A   1      38.527  19.697  25.499  1.00  0.00     0.163 HD
BRANCH   4   7
ATOM      7  C   UNL A   1      36.168  22.040  24.963  1.00  0.00     0.039 A 
ATOM      8  C   UNL A   1      34.525  24.290  24.722  1.00  0.00     0.067 A 
ATOM      9  C   UNL A   1      34.584  23.630  25.947  1.00  0.00     0.029 A 
ATOM     10  C   UNL A   1      35.363  23.921  23.668  1.00  0.00     0.029 A 
ATOM     11  C   UNL A   1      35.385  22.485  26.048  1.00  0.00     0.016 A 
ATOM     12  C   UNL A   1      36.219  22.831  23.814  1.00  0.00     0.016 A 
BRANCH   8  13
ATOM     13  N   UNL A   1      33.570  25.297  24.500  1.00  0.00    -0.217 N 
ATOM     14  C   UNL A   1      31.912  26.431  23.663  1.00  0.00     0.151 A 
ATOM     15  N   UNL A   1      32.897  27.297  24.084  1.00  0.00    -0.126 NA
ATOM     16  C   UNL A   1      32.291  25.138  23.991  1.00  0.00     0.073 A 
ATOM     17  N   UNL A   1      33.848  26.597  24.687  1.00  0.00    -0.061 NA
ATOM     18  C   UNL A   1      31.633  23.810  23.909  1.00  0.00     0.069 C 
BRANCH  14  19
ATOM     19  C   UNL A   1      30.706  26.922  23.006  1.00  0.00     0.181 C 
ATOM     20  C   UNL A   1      29.393  26.847  23.740  1.00  0.00     0.095 C 
ATOM     21  O   UNL A   1      30.742  27.389  21.867  1.00  0.00    -0.293 OA
ENDBRANCH  14  19
ENDBRANCH   8  13
ENDBRANCH   4   7
ENDBRANCH   2   3
ENDBRANCH   1   2
BRANCH   1  22
ATOM     22  C   UNL A   1      41.101  19.839  26.186  1.00  0.00     0.023 C 
BRANCH  22  23
ATOM     23  C   UNL A   1      42.496  19.688  26.782  1.00  0.00     0.116 C 
BRANCH  23  24
ATOM     24  N   UNL A   1      43.534  19.510  25.768  1.00  0.00    -0.352 N 
ATOM     25  C   UNL A   1      44.101  20.475  24.955  1.00  0.00     0.251 C 
ATOM     26  H   UNL A   1      43.870  18.593  25.650  1.00  0.00     0.163 HD
ATOM     27  O   UNL A   1      44.628  20.180  23.895  1.00  0.00    -0.269 OA
BRANCH  25  28
ATOM     28  C   UNL A   1      44.077  21.876  25.408  1.00  0.00     0.039 A 
ATOM     29  C   UNL A   1      43.061  22.752  25.012  1.00  0.00     0.014 A 
ATOM     30  C   UNL A   1      45.090  22.296  26.267  1.00  0.00     0.014 A 
ATOM     31  C   UNL A   1      43.027  24.031  25.561  1.00  0.00     0.010 A 
ATOM     32  C   UNL A   1      44.984  23.506  26.904  1.00  0.00     0.010 A 
ATOM     33  C   UNL A   1      43.980  24.395  26.526  1.00  0.00    -0.014 A 
BRANCH  33  34
ATOM     34  C   UNL A   1      43.832  25.629  27.297  1.00  0.00     0.031 A 
ATOM     35  C   UNL A   1      44.825  26.678  26.926  1.00  0.00     0.074 A 
ATOM     36  C   UNL A   1      42.744  25.870  28.067  1.00  0.00     0.049 A 
ATOM     37  N   UNL A   1      45.724  27.217  27.681  1.00  0.00    -0.248 NA
ATOM     38  C   UNL A   1      44.936  27.073  25.508  1.00  0.00     0.031 C 
ATOM     39  C   UNL A   1      41.572  25.003  28.239  1.00  0.00     0.029 A 
ATOM     40  N   UNL A   1      42.381  26.988  28.761  1.00  0.00    -0.354 N 
ATOM     41  C   UNL A   1      46.362  28.175  26.893  1.00  0.00     0.074 A 
ATOM     42  C   UNL A   1      45.982  27.902  25.535  1.00  0.00     0.031 C 
ATOM     43  C   UNL A   1      40.547  25.713  28.758  1.00  0.00     0.029 A 
ATOM     44  C   UNL A   1      41.030  27.035  29.107  1.00  0.00     0.049 A 
ATOM     45  H   UNL A   1      43.018  27.702  28.996  1.00  0.00     0.167 HD
ATOM     46  C   UNL A   1      46.892  29.292  27.465  1.00  0.00     0.037 A 
ATOM     47  C   UNL A   1      40.348  28.095  29.612  1.00  0.00     0.037 A 
ATOM     48  C   UNL A   1      47.031  29.106  28.889  1.00  0.00     0.049 A 
ATOM     49  C   UNL A   1      41.351  29.034  30.159  1.00  0.00     0.074 A 
ATOM     50  C   UNL A   1      47.770  28.296  29.723  1.00  0.00     0.029 A 
ATOM     51  N   UNL A   1      45.990  29.592  29.631  1.00  0.00    -0.354 N 
ATOM     52  N   UNL A   1      42.084  28.785  31.206  1.00  0.00    -0.248 NA
ATOM     53  C   UNL A   1      41.832  30.103  29.298  1.00  0.00     0.031 C 
ATOM     54  C   UNL A   1      46.935  28.054  30.857  1.00  0.00     0.029 A 
ATOM     55  C   UNL A   1      45.754  28.784  30.706  1.00  0.00     0.049 A 
ATOM     56  H   UNL A   1      45.481  30.408  29.420  1.00  0.00     0.167 HD
ATOM     57  C   UNL A   1      43.323  29.315  30.891  1.00  0.00     0.074 A 
ATOM     58  C   UNL A   1      43.063  30.243  29.793  1.00  0.00     0.031 C 
ATOM     59  C   UNL A   1      44.460  28.709  31.347  1.00  0.00     0.037 A 
BRANCH  46  60
ATOM     60  C   UNL A   1      46.794  30.688  26.870  1.00  0.00     0.064 A 
ATOM     61  C   UNL A   1      47.934  31.522  26.909  1.00  0.00     0.173 A 
ATOM     62  C   UNL A   1      45.579  31.349  26.586  1.00  0.00     0.173 A 
ATOM     63  F   UNL A   1      49.142  31.014  27.197  1.00  0.00    -0.203 F 
ATOM     64  C   UNL A   1      47.844  32.912  26.764  1.00  0.00     0.198 A 
ATOM     65  C   UNL A   1      45.502  32.728  26.390  1.00  0.00     0.198 A 
ATOM     66  F   UNL A   1      44.399  30.722  26.604  1.00  0.00    -0.203 F 
ATOM     67  F   UNL A   1      48.932  33.672  26.946  1.00  0.00    -0.200 F 
ATOM     68  C   UNL A   1      46.626  33.513  26.510  1.00  0.00     0.200 A 
ATOM     69  F   UNL A   1      44.305  33.294  26.172  1.00  0.00    -0.200 F 
ATOM     70  F   UNL A   1      46.525  34.847  26.435  1.00  0.00    -0.200 F 
ENDBRANCH  46  60
BRANCH  47  71
ATOM     71  C   UNL A   1      38.931  28.497  29.418  1.00  0.00     0.064 A 
ATOM     72  C   UNL A   1      38.077  28.708  30.516  1.00  0.00     0.173 A 
ATOM     73  C   UNL A   1      38.475  28.975  28.175  1.00  0.00     0.173 A 
ATOM     74  F   UNL A   1      38.450  28.322  31.744  1.00  0.00    -0.203 F 
ATOM     75  C   UNL A   1      36.861  29.389  30.384  1.00  0.00     0.198 A 
ATOM     76  C   UNL A   1      37.259  29.650  28.043  1.00  0.00     0.198 A 
ATOM     77  F   UNL A   1      39.245  28.886  27.080  1.00  0.00    -0.203 F 
ATOM     78  F   UNL A   1      36.109  29.633  31.467  1.00  0.00    -0.200 F 
ATOM     79  C   UNL A   1      36.460  29.871  29.150  1.00  0.00     0.200 A 
ATOM     80  F   UNL A   1      36.899  30.142  26.849  1.00  0.00    -0.200 F 
ATOM     81  F   UNL A   1      35.330  30.584  29.033  1.00  0.00    -0.200 F 
ENDBRANCH  47  71
BRANCH  59  82
ATOM     82  C   UNL A   1      44.315  27.770  32.512  1.00  0.00     0.064 A 
ATOM     83  C   UNL A   1      44.111  26.381  32.413  1.00  0.00     0.173 A 
ATOM     84  C   UNL A   1      44.456  28.307  33.800  1.00  0.00     0.173 A 
ATOM     85  F   UNL A   1      44.065  25.771  31.223  1.00  0.00    -0.203 F 
ATOM     86  C   UNL A   1      43.988  25.587  33.552  1.00  0.00     0.198 A 
ATOM     87  C   UNL A   1      44.378  27.505  34.933  1.00  0.00     0.198 A 
ATOM     88  F   UNL A   1      44.703  29.617  33.957  1.00  0.00    -0.203 F 
ATOM     89  F   UNL A   1      43.755  24.271  33.432  1.00  0.00    -0.200 F 
ATOM     90  C   UNL A   1      44.125  26.149  34.810  1.00  0.00     0.200 A 
ATOM     91  F   UNL A   1      44.562  28.047  36.144  1.00  0.00    -0.200 F 
ATOM     92  F   UNL A   1      44.033  25.382  35.906  1.00  0.00    -0.200 F 
ENDBRANCH  59  82
ENDBRANCH  33  34
ENDBRANCH  25  28
ENDBRANCH  23  24
ENDBRANCH  22  23
ENDBRANCH   1  22
TORSDOF 13
ENDMDL
MODEL 2
REMARK VINA RESULT:     -12.0      4.577     10.939
REMARK SMILES CC(=O)c1nnn(-c2ccc(C(=O)NCCCCNC(=O)c3ccc(-c4c5nc(c(-c6c(F)c(F)c(F)c(F)c6F)c6ccc([nH]6)c(-c6c(F)c(F)c(F)c(F)c6F)c6nc(c(-c7c(F)c(F)c(F)c(F)c7F)c7ccc4[nH]7)C=C6)C=C5)cc3)cc2)c1C
REMARK SMILES IDX 16 1 15 2 14 3 12 4 13 5 11 7 8 8 9 9 86 10 10 11 85 12 7 13
REMARK SMILES IDX 4 14 5 15 87 16 6 17 88 18 2 19 1 20 3 21 17 22 18 23 19 24
REMARK SMILES IDX 20 25 21 27 22 28 23 29 84 30 24 31 83 32 25 33 26 34 27 35
REMARK SMILES IDX 77 36 28 37 82 38 76 39 78 40 29 41 81 42 75 43 74 44 30 46
REMARK SMILES IDX 62 47 42 48 61 49 43 50 46 51 60 52 79 53 44 54 45 55 59 57
REMARK SMILES IDX 80 58 47 59 31 60 32 61 40 62 33 63 34 64 38 65 41 66 35 67
REMARK SMILES IDX 36 68 39 69 37 70 63 71 64 72 72 73 65 74 66 75 70 76 73 77
REMARK SMILES IDX 67 78 68 79 71 80 69 81 48 82 49 83 57 84 50 85 51 86 55 87
REMARK SMILES IDX 58 88 52 89 53 90 56 91 54 92
REMARK H PARENT 14 6 19 26 78 45 46 56
REMARK Flexibility Score: inf
ROOT
ATOM      1  C   UNL A   1      33.600  34.884  29.112  1.00  0.00     0.023 C 
ENDROOT
BRANCH   1   2
ATOM      2  C   UNL A   1      33.184  36.337  29.372  1.00  0.00     0.116 C 
BRANCH   2   3
ATOM      3  N   UNL A   1      32.267  36.434  30.495  1.00  0.00    -0.352 N 
ATOM      4  C   UNL A   1      32.329  36.020  31.804  1.00  0.00     0.251 C 
ATOM      5  O   UNL A   1      31.370  36.301  32.526  1.00  0.00    -0.269 OA
ATOM      6  H   UNL A   1      31.425  36.892  30.272  1.00  0.00     0.163 HD
BRANCH   4   7
ATOM      7  C   UNL A   1      33.506  35.323  32.405  1.00  0.00     0.039 A 
ATOM      8  C   UNL A   1      35.509  33.981  33.821  1.00  0.00     0.067 A 
ATOM      9  C   UNL A   1      34.351  33.289  33.478  1.00  0.00     0.029 A 
ATOM     10  C   UNL A   1      35.730  35.280  33.359  1.00  0.00     0.029 A 
ATOM     11  C   UNL A   1      33.339  33.979  32.798  1.00  0.00     0.016 A 
ATOM     12  C   UNL A   1      34.748  35.924  32.609  1.00  0.00     0.016 A 
BRANCH   8  13
ATOM     13  N   UNL A   1      36.449  33.411  34.696  1.00  0.00    -0.217 N 
ATOM     14  C   UNL A   1      37.857  32.023  35.605  1.00  0.00     0.151 A 
ATOM     15  N   UNL A   1      37.181  32.705  36.592  1.00  0.00    -0.126 NA
ATOM     16  C   UNL A   1      37.456  32.516  34.373  1.00  0.00     0.073 A 
ATOM     17  N   UNL A   1      36.408  33.620  36.022  1.00  0.00    -0.061 NA
ATOM     18  C   UNL A   1      37.884  32.282  32.971  1.00  0.00     0.069 C 
BRANCH  14  19
ATOM     19  C   UNL A   1      38.825  30.982  35.934  1.00  0.00     0.181 C 
ATOM     20  C   UNL A   1      40.252  31.143  35.479  1.00  0.00     0.095 C 
ATOM     21  O   UNL A   1      38.497  29.980  36.569  1.00  0.00    -0.293 OA
ENDBRANCH  14  19
ENDBRANCH   8  13
ENDBRANCH   4   7
ENDBRANCH   2   3
ENDBRANCH   1   2
BRANCH   1  22
ATOM     22  C   UNL A   1      35.113  34.621  29.179  1.00  0.00     0.023 C 
BRANCH  22  23
ATOM     23  C   UNL A   1      35.619  33.548  28.221  1.00  0.00     0.116 C 
BRANCH  23  24
ATOM     24  N   UNL A   1      34.648  32.477  28.000  1.00  0.00    -0.352 N 
ATOM     25  C   UNL A   1      34.900  31.133  27.794  1.00  0.00     0.251 C 
ATOM     26  H   UNL A   1      33.701  32.745  27.999  1.00  0.00     0.163 HD
ATOM     27  O   UNL A   1      34.093  30.417  27.222  1.00  0.00    -0.269 OA
BRANCH  25  28
ATOM     28  C   UNL A   1      36.163  30.569  28.301  1.00  0.00     0.039 A 
ATOM     29  C   UNL A   1      36.421  29.196  28.246  1.00  0.00     0.014 A 
ATOM     30  C   UNL A   1      37.106  31.456  28.815  1.00  0.00     0.014 A 
ATOM     31  C   UNL A   1      37.676  28.733  28.635  1.00  0.00     0.010 A 
ATOM     32  C   UNL A   1      38.379  31.018  29.074  1.00  0.00     0.010 A 
ATOM     33  C   UNL A   1      38.660  29.655  29.027  1.00  0.00    -0.014 A 
BRANCH  33  34
ATOM     34  C   UNL A   1      40.050  29.234  29.204  1.00  0.00     0.031 A 
ATOM     35  C   UNL A   1      40.439  29.075  30.635  1.00  0.00     0.074 A 
ATOM     36  C   UNL A   1      40.805  28.788  28.172  1.00  0.00     0.049 A 
ATOM     37  N   UNL A   1      41.353  29.720  31.282  1.00  0.00    -0.248 NA
ATOM     38  C   UNL A   1      39.617  28.201  31.496  1.00  0.00     0.031 C 
ATOM     39  C   UNL A   1      40.385  28.626  26.774  1.00  0.00     0.029 A 
ATOM     40  N   UNL A   1      42.063  28.258  28.160  1.00  0.00    -0.354 N 
ATOM     41  C   UNL A   1      41.369  29.175  32.567  1.00  0.00     0.074 A 
ATOM     42  C   UNL A   1      40.164  28.404  32.696  1.00  0.00     0.031 C 
ATOM     43  C   UNL A   1      41.253  27.821  26.124  1.00  0.00     0.029 A 
ATOM     44  C   UNL A   1      42.372  27.541  27.002  1.00  0.00     0.049 A 
ATOM     45  H   UNL A   1      42.698  28.371  28.904  1.00  0.00     0.167 HD
ATOM     46  C   UNL A   1      42.524  29.157  33.289  1.00  0.00     0.037 A 
ATOM     47  C   UNL A   1      43.452  26.746  26.793  1.00  0.00     0.037 A 
ATOM     48  C   UNL A   1      43.483  30.072  32.722  1.00  0.00     0.049 A 
ATOM     49  C   UNL A   1      44.467  27.120  27.803  1.00  0.00     0.074 A 
ATOM     50  C   UNL A   1      43.582  31.436  32.549  1.00  0.00     0.029 A 
ATOM     51  N   UNL A   1      44.375  29.499  31.857  1.00  0.00    -0.354 N 
ATOM     52  N   UNL A   1      45.092  28.263  27.815  1.00  0.00    -0.248 NA
ATOM     53  C   UNL A   1      44.502  26.374  29.050  1.00  0.00     0.031 C 
ATOM     54  C   UNL A   1      44.296  31.614  31.325  1.00  0.00     0.029 A 
ATOM     55  C   UNL A   1      44.669  30.359  30.839  1.00  0.00     0.049 A 
ATOM     56  H   UNL A   1      44.751  28.595  31.954  1.00  0.00     0.167 HD
ATOM     57  C   UNL A   1      45.183  28.589  29.156  1.00  0.00     0.074 A 
ATOM     58  C   UNL A   1      44.955  27.331  29.863  1.00  0.00     0.031 C 
ATOM     59  C   UNL A   1      45.123  29.898  29.545  1.00  0.00     0.037 A 
BRANCH  46  60
ATOM     60  C   UNL A   1      42.980  27.985  34.145  1.00  0.00     0.064 A 
ATOM     61  C   UNL A   1      43.295  26.763  33.508  1.00  0.00     0.173 A 
ATOM     62  C   UNL A   1      42.795  27.900  35.542  1.00  0.00     0.173 A 
ATOM     63  F   UNL A   1      43.466  26.711  32.179  1.00  0.00    -0.203 F 
ATOM     64  C   UNL A   1      43.332  25.549  34.204  1.00  0.00     0.198 A 
ATOM     65  C   UNL A   1      42.886  26.696  36.241  1.00  0.00     0.198 A 
ATOM     66  F   UNL A   1      42.403  28.944  36.280  1.00  0.00    -0.203 F 
ATOM     67  F   UNL A   1      43.499  24.402  33.533  1.00  0.00    -0.200 F 
ATOM     68  C   UNL A   1      43.122  25.517  35.570  1.00  0.00     0.200 A 
ATOM     69  F   UNL A   1      42.651  26.683  37.561  1.00  0.00    -0.200 F 
ATOM     70  F   UNL A   1      43.092  24.351  36.229  1.00  0.00    -0.200 F 
ENDBRANCH  46  60
BRANCH  47  71
ATOM     71  C   UNL A   1      43.582  25.509  25.982  1.00  0.00     0.064 A 
ATOM     72  C   UNL A   1      44.733  25.260  25.212  1.00  0.00     0.173 A 
ATOM     73  C   UNL A   1      42.722  24.413  26.184  1.00  0.00     0.173 A 
ATOM     74  F   UNL A   1      45.629  26.235  25.005  1.00  0.00    -0.203 F 
ATOM     75  C   UNL A   1      45.024  23.986  24.709  1.00  0.00     0.198 A 
ATOM     76  C   UNL A   1      43.010  23.143  25.678  1.00  0.00     0.198 A 
ATOM     77  F   UNL A   1      41.635  24.528  26.961  1.00  0.00    -0.203 F 
ATOM     78  F   UNL A   1      46.167  23.774  24.042  1.00  0.00    -0.200 F 
ATOM     79  C   UNL A   1      44.168  22.926  24.955  1.00  0.00     0.200 A 
ATOM     80  F   UNL A   1      42.191  22.118  25.952  1.00  0.00    -0.200 F 
ATOM     81  F   UNL A   1      44.478  21.691  24.534  1.00  0.00    -0.200 F 
ENDBRANCH  47  71
BRANCH  59  82
ATOM     82  C   UNL A   1      45.399  30.938  28.495  1.00  0.00     0.064 A 
ATOM     83  C   UNL A   1      44.452  31.442  27.585  1.00  0.00     0.173 A 
ATOM     84  C   UNL A   1      46.685  31.496  28.458  1.00  0.00     0.173 A 
ATOM     85  F   UNL A   1      43.177  31.037  27.617  1.00  0.00    -0.203 F 
ATOM     86  C   UNL A   1      44.800  32.408  26.642  1.00  0.00     0.198 A 
ATOM     87  C   UNL A   1      47.017  32.493  27.546  1.00  0.00     0.198 A 
ATOM     88  F   UNL A   1      47.618  31.093  29.335  1.00  0.00    -0.203 F 
ATOM     89  F   UNL A   1      43.889  32.846  25.759  1.00  0.00    -0.200 F 
ATOM     90  C   UNL A   1      46.081  32.935  26.627  1.00  0.00     0.200 A 
ATOM     91  F   UNL A   1      48.242  33.033  27.570  1.00  0.00    -0.200 F 
ATOM     92  F   UNL A   1      46.410  33.884  25.738  1.00  0.00    -0.200 F 
ENDBRANCH  59  82
ENDBRANCH  33  34
ENDBRANCH  25  28
ENDBRANCH  23  24
ENDBRANCH  22  23
ENDBRANCH   1  22
TORSDOF 13
ENDMDL
MODEL 3
REMARK VINA RESULT:     -12.0      2.579      3.734
REMARK SMILES CC(=O)c1nnn(-c2ccc(C(=O)NCCCCNC(=O)c3ccc(-c4c5nc(c(-c6c(F)c(F)c(F)c(F)c6F)c6ccc([nH]6)c(-c6c(F)c(F)c(F)c(F)c6F)c6nc(c(-c7c(F)c(F)c(F)c(F)c7F)c7ccc4[nH]7)C=C6)C=C5)cc3)cc2)c1C
REMARK SMILES IDX 16 1 15 2 14 3 12 4 13 5 11 7 8 8 9 9 86 10 10 11 85 12 7 13
REMARK SMILES IDX 4 14 5 15 87 16 6 17 88 18 2 19 1 20 3 21 17 22 18 23 19 24
REMARK SMILES IDX 20 25 21 27 22 28 23 29 84 30 24 31 83 32 25 33 26 34 27 35
REMARK SMILES IDX 77 36 28 37 82 38 76 39 78 40 29 41 81 42 75 43 74 44 30 46
REMARK SMILES IDX 62 47 42 48 61 49 43 50 46 51 60 52 79 53 44 54 45 55 59 57
REMARK SMILES IDX 80 58 47 59 31 60 32 61 40 62 33 63 34 64 38 65 41 66 35 67
REMARK SMILES IDX 36 68 39 69 37 70 63 71 64 72 72 73 65 74 66 75 70 76 73 77
REMARK SMILES IDX 67 78 68 79 71 80 69 81 48 82 49 83 57 84 50 85 51 86 55 87
REMARK SMILES IDX 58 88 52 89 53 90 56 91 54 92
REMARK H PARENT 14 6 19 26 78 45 46 56
REMARK Flexibility Score: inf
ROOT
ATOM      1  C   UNL A   1      36.512  20.917  24.638  1.00  0.00     0.023 C 
ENDROOT
BRANCH   1   2
ATOM      2  C   UNL A   1      35.005  20.804  24.898  1.00  0.00     0.116 C 
BRANCH   2   3
ATOM      3  N   UNL A   1      34.683  21.080  26.287  1.00  0.00    -0.352 N 
ATOM      4  C   UNL A   1      34.063  22.129  26.924  1.00  0.00     0.251 C 
ATOM      5  O   UNL A   1      33.909  22.031  28.143  1.00  0.00    -0.269 OA
ATOM      6  H   UNL A   1      34.970  20.367  26.903  1.00  0.00     0.163 HD
BRANCH   4   7
ATOM      7  C   UNL A   1      33.510  23.325  26.219  1.00  0.00     0.039 A 
ATOM      8  C   UNL A   1      32.372  25.337  24.647  1.00  0.00     0.067 A 
ATOM      9  C   UNL A   1      31.538  24.378  25.216  1.00  0.00     0.029 A 
ATOM     10  C   UNL A   1      33.733  25.377  24.955  1.00  0.00     0.029 A 
ATOM     11  C   UNL A   1      32.121  23.355  25.976  1.00  0.00     0.016 A 
ATOM     12  C   UNL A   1      34.284  24.401  25.783  1.00  0.00     0.016 A 
BRANCH   8  13
ATOM     13  N   UNL A   1      31.872  26.243  23.696  1.00  0.00    -0.217 N 
ATOM     14  C   UNL A   1      30.676  27.786  22.733  1.00  0.00     0.151 A 
ATOM     15  N   UNL A   1      31.028  26.830  21.806  1.00  0.00    -0.126 NA
ATOM     16  C   UNL A   1      31.273  27.469  23.944  1.00  0.00     0.073 A 
ATOM     17  N   UNL A   1      31.844  25.959  22.384  1.00  0.00    -0.061 NA
ATOM     18  C   UNL A   1      31.370  28.142  25.263  1.00  0.00     0.069 C 
BRANCH  14  19
ATOM     19  C   UNL A   1      29.820  28.909  22.370  1.00  0.00     0.181 C 
ATOM     20  C   UNL A   1      28.419  28.965  22.922  1.00  0.00     0.095 C 
ATOM     21  O   UNL A   1      30.217  29.804  21.623  1.00  0.00    -0.293 OA
ENDBRANCH  14  19
ENDBRANCH   8  13
ENDBRANCH   4   7
ENDBRANCH   2   3
ENDBRANCH   1   2
BRANCH   1  22
ATOM     22  C   UNL A   1      37.026  22.349  24.419  1.00  0.00     0.023 C 
BRANCH  22  23
ATOM     23  C   UNL A   1      37.644  23.002  25.651  1.00  0.00     0.116 C 
BRANCH  23  24
ATOM     24  N   UNL A   1      38.546  22.109  26.377  1.00  0.00    -0.352 N 
ATOM     25  C   UNL A   1      39.801  22.399  26.883  1.00  0.00     0.251 C 
ATOM     26  H   UNL A   1      38.221  21.192  26.525  1.00  0.00     0.163 HD
ATOM     27  O   UNL A   1      40.619  21.518  27.090  1.00  0.00    -0.269 OA
BRANCH  25  28
ATOM     28  C   UNL A   1      40.127  23.802  27.190  1.00  0.00     0.039 A 
ATOM     29  C   UNL A   1      39.277  24.846  26.814  1.00  0.00     0.014 A 
ATOM     30  C   UNL A   1      41.304  24.052  27.893  1.00  0.00     0.014 A 
ATOM     31  C   UNL A   1      39.581  26.141  27.231  1.00  0.00     0.010 A 
ATOM     32  C   UNL A   1      41.533  25.301  28.411  1.00  0.00     0.010 A 
ATOM     33  C   UNL A   1      40.700  26.358  28.050  1.00  0.00    -0.014 A 
BRANCH  33  34
ATOM     34  C   UNL A   1      40.910  27.650  28.703  1.00  0.00     0.031 A 
ATOM     35  C   UNL A   1      42.055  28.419  28.134  1.00  0.00     0.074 A 
ATOM     36  C   UNL A   1      39.996  28.188  29.546  1.00  0.00     0.049 A 
ATOM     37  N   UNL A   1      43.130  28.799  28.740  1.00  0.00    -0.248 NA
ATOM     38  C   UNL A   1      42.082  28.667  26.679  1.00  0.00     0.031 C 
ATOM     39  C   UNL A   1      38.694  27.621  29.917  1.00  0.00     0.029 A 
ATOM     40  N   UNL A   1      39.965  29.409  30.154  1.00  0.00    -0.354 N 
ATOM     41  C   UNL A   1      43.862  29.526  27.801  1.00  0.00     0.074 A 
ATOM     42  C   UNL A   1      43.278  29.240  26.521  1.00  0.00     0.031 C 
ATOM     43  C   UNL A   1      37.912  28.581  30.457  1.00  0.00     0.029 A 
ATOM     44  C   UNL A   1      38.704  29.784  30.622  1.00  0.00     0.049 A 
ATOM     45  H   UNL A   1      40.762  29.979  30.253  1.00  0.00     0.167 HD
ATOM     46  C   UNL A   1      44.682  30.537  28.203  1.00  0.00     0.037 A 
ATOM     47  C   UNL A   1      38.328  31.006  31.081  1.00  0.00     0.037 A 
ATOM     48  C   UNL A   1      44.942  30.436  29.618  1.00  0.00     0.049 A 
ATOM     49  C   UNL A   1      39.566  31.736  31.429  1.00  0.00     0.074 A 
ATOM     50  C   UNL A   1      45.582  29.548  30.456  1.00  0.00     0.029 A 
ATOM     51  N   UNL A   1      44.123  31.199  30.404  1.00  0.00    -0.354 N 
ATOM     52  N   UNL A   1      40.345  31.411  32.421  1.00  0.00    -0.248 NA
ATOM     53  C   UNL A   1      40.161  32.600  30.423  1.00  0.00     0.031 C 
ATOM     54  C   UNL A   1      44.853  29.589  31.683  1.00  0.00     0.029 A 
ATOM     55  C   UNL A   1      43.846  30.550  31.573  1.00  0.00     0.049 A 
ATOM     56  H   UNL A   1      43.780  32.089  30.162  1.00  0.00     0.167 HD
ATOM     57  C   UNL A   1      41.623  31.625  31.936  1.00  0.00     0.074 A 
ATOM     58  C   UNL A   1      41.443  32.500  30.780  1.00  0.00     0.031 C 
ATOM     59  C   UNL A   1      42.650  30.817  32.340  1.00  0.00     0.037 A 
BRANCH  46  60
ATOM     60  C   UNL A   1      44.817  31.869  27.481  1.00  0.00     0.064 A 
ATOM     61  C   UNL A   1      46.033  32.163  26.825  1.00  0.00     0.173 A 
ATOM     62  C   UNL A   1      43.967  32.976  27.690  1.00  0.00     0.173 A 
ATOM     63  F   UNL A   1      46.936  31.197  26.596  1.00  0.00    -0.203 F 
ATOM     64  C   UNL A   1      46.399  33.472  26.489  1.00  0.00     0.198 A 
ATOM     65  C   UNL A   1      44.313  34.272  27.305  1.00  0.00     0.198 A 
ATOM     66  F   UNL A   1      42.824  32.886  28.377  1.00  0.00    -0.203 F 
ATOM     67  F   UNL A   1      47.620  33.716  25.994  1.00  0.00    -0.200 F 
ATOM     68  C   UNL A   1      45.540  34.526  26.735  1.00  0.00     0.200 A 
ATOM     69  F   UNL A   1      43.476  35.284  27.579  1.00  0.00    -0.200 F 
ATOM     70  F   UNL A   1      45.913  35.786  26.475  1.00  0.00    -0.200 F 
ENDBRANCH  46  60
BRANCH  47  71
ATOM     71  C   UNL A   1      37.018  31.698  30.983  1.00  0.00     0.064 A 
ATOM     72  C   UNL A   1      36.200  31.872  32.115  1.00  0.00     0.173 A 
ATOM     73  C   UNL A   1      36.683  32.466  29.852  1.00  0.00     0.173 A 
ATOM     74  F   UNL A   1      36.472  31.212  33.250  1.00  0.00    -0.203 F 
ATOM     75  C   UNL A   1      35.139  32.784  32.126  1.00  0.00     0.198 A 
ATOM     76  C   UNL A   1      35.620  33.373  29.862  1.00  0.00     0.198 A 
ATOM     77  F   UNL A   1      37.441  32.426  28.746  1.00  0.00    -0.203 F 
ATOM     78  F   UNL A   1      34.429  32.972  33.247  1.00  0.00    -0.200 F 
ATOM     79  C   UNL A   1      34.859  33.544  31.003  1.00  0.00     0.200 A 
ATOM     80  F   UNL A   1      35.382  34.127  28.779  1.00  0.00    -0.200 F 
ATOM     81  F   UNL A   1      33.888  34.468  31.033  1.00  0.00    -0.200 F 
ENDBRANCH  47  71
BRANCH  59  82
ATOM     82  C   UNL A   1      42.444  30.027  33.603  1.00  0.00     0.064 A 
ATOM     83  C   UNL A   1      42.638  30.520  34.906  1.00  0.00     0.173 A 
ATOM     84  C   UNL A   1      41.962  28.717  33.477  1.00  0.00     0.173 A 
ATOM     85  F   UNL A   1      43.001  31.790  35.121  1.00  0.00    -0.203 F 
ATOM     86  C   UNL A   1      42.423  29.712  36.022  1.00  0.00     0.198 A 
ATOM     87  C   UNL A   1      41.704  27.929  34.593  1.00  0.00     0.198 A 
ATOM     88  F   UNL A   1      41.708  28.209  32.261  1.00  0.00    -0.203 F 
ATOM     89  F   UNL A   1      42.651  30.191  37.254  1.00  0.00    -0.200 F 
ATOM     90  C   UNL A   1      41.952  28.419  35.864  1.00  0.00     0.200 A 
ATOM     91  F   UNL A   1      41.202  26.697  34.434  1.00  0.00    -0.200 F 
ATOM     92  F   UNL A   1      41.719  27.650  36.937  1.00  0.00    -0.200 F 
ENDBRANCH  59  82
ENDBRANCH  33  34
ENDBRANCH  25  28
ENDBRANCH  23  24
ENDBRANCH  22  23
ENDBRANCH   1  22
TORSDOF 13
ENDMDL
