MODEL 1
REMARK VINA RESULT:     -13.5      0.000      0.000
REMARK SMILES CC(=O)Oc1ccc([C@H]2Nc3c(C(=O)NCCCCNC(=O)c4ccc(-c5c6nc(c(-c7c(F)c(F)c(F)c(F)c7F)c7ccc([nH]7)c(-c7c(F)c(F)c(F)c(F)c7F)c7nc(c(-c8c(F)c(F)c(F)c(F)c8F)c8ccc5[nH]8)C=C7)C=C6)cc4)ccc([N+](=O)[O-])c3[C@H]3C=CC[C@@H]32)cc1
REMARK SMILES IDX 17 1 16 2 15 3 13 4 14 5 12 7 9 8 10 9 97 10 11 11 93 13
REMARK SMILES IDX 96 14 92 15 94 16 95 17 86 18 88 19 87 20 8 21 5 22 6 23
REMARK SMILES IDX 99 24 7 25 98 26 4 27 2 28 1 29 3 30 89 31 90 32 91 33 18 34
REMARK SMILES IDX 19 35 20 36 21 37 22 39 23 40 24 41 85 42 25 43 84 44 26 45
REMARK SMILES IDX 27 46 28 47 78 48 29 49 83 50 77 51 79 52 30 53 82 54 76 55
REMARK SMILES IDX 75 56 31 58 63 59 43 60 62 61 44 62 47 63 61 64 80 65 45 66
REMARK SMILES IDX 46 67 60 69 81 70 48 71 32 72 33 73 41 74 34 75 35 76 39 77
REMARK SMILES IDX 42 78 36 79 37 80 40 81 38 82 64 83 65 84 73 85 66 86 67 87
REMARK SMILES IDX 71 88 74 89 68 90 69 91 72 92 70 93 49 94 50 95 58 96 51 97
REMARK SMILES IDX 52 98 56 99 59 100 53 101 54 102 57 103 55 104
REMARK H PARENT 15 6 10 12 20 38 79 57 47 68
REMARK Flexibility Score: inf
ROOT
ATOM      1  C   UNL A   1      32.087  28.814  23.774  1.00  0.00     0.023 C 
ENDROOT
BRANCH   1   2
ATOM      2  C   UNL A   1      33.465  28.196  23.543  1.00  0.00     0.116 C 
BRANCH   2   3
ATOM      3  N   UNL A   1      33.602  27.446  22.288  1.00  0.00    -0.352 N 
ATOM      4  C   UNL A   1      33.280  26.122  21.985  1.00  0.00     0.253 C 
ATOM      5  O   UNL A   1      33.556  25.661  20.886  1.00  0.00    -0.269 OA
ATOM      6  H   UNL A   1      33.981  27.962  21.540  1.00  0.00     0.163 HD
BRANCH   4   7
ATOM      7  C   UNL A   1      32.603  25.279  23.014  1.00  0.00     0.063 A 
ATOM      8  C   UNL A   1      35.221  23.915  25.493  1.00  0.00     0.114 C 
ATOM      9  N   UNL A   1      34.643  24.628  24.317  1.00  0.00    -0.377 N 
ATOM     10  C   UNL A   1      34.121  22.974  26.009  1.00  0.00     0.031 C 
ATOM     11  C   UNL A   1      33.237  24.808  24.192  1.00  0.00     0.058 A 
ATOM     12  H   UNL A   1      35.242  24.979  23.619  1.00  0.00     0.161 HD
ATOM     13  C   UNL A   1      33.062  23.963  26.535  1.00  0.00     0.056 C 
ATOM     14  C   UNL A   1      34.310  21.916  27.092  1.00  0.00     0.034 C 
ATOM     15  C   UNL A   1      32.372  24.416  25.276  1.00  0.00     0.061 A 
ATOM     16  C   UNL A   1      32.413  23.193  27.629  1.00  0.00    -0.022 C 
ATOM     17  C   UNL A   1      33.099  22.093  27.945  1.00  0.00    -0.030 C 
ATOM     18  C   UNL A   1      31.233  25.026  22.798  1.00  0.00     0.023 A 
ATOM     19  C   UNL A   1      30.980  24.411  25.087  1.00  0.00     0.275 A 
ATOM     20  C   UNL A   1      30.410  24.629  23.838  1.00  0.00     0.087 A 
BRANCH   8  21
ATOM     21  C   UNL A   1      36.638  23.347  25.373  1.00  0.00    -0.025 A 
ATOM     22  C   UNL A   1      39.041  21.921  25.869  1.00  0.00     0.130 A 
ATOM     23  C   UNL A   1      38.816  23.148  26.488  1.00  0.00     0.047 A 
ATOM     24  C   UNL A   1      38.111  21.424  24.963  1.00  0.00     0.047 A 
ATOM     25  C   UNL A   1      37.634  23.859  26.231  1.00  0.00     0.010 A 
ATOM     26  C   UNL A   1      36.937  22.152  24.691  1.00  0.00     0.010 A 
BRANCH  22  27
ATOM     27  O   UNL A   1      40.184  21.208  26.306  1.00  0.00    -0.427 OA
BRANCH  27  28
ATOM     28  C   UNL A   1      40.424  19.874  25.972  1.00  0.00     0.308 C 
ATOM     29  C   UNL A   1      41.893  19.587  26.099  1.00  0.00     0.139 C 
ATOM     30  O   UNL A   1      39.591  19.046  25.622  1.00  0.00    -0.252 OA
ENDBRANCH  27  28
ENDBRANCH  22  27
ENDBRANCH   8  21
BRANCH  19  31
ATOM     31  N   UNL A   1      30.057  24.206  26.181  1.00  0.00     0.063 N 
ATOM     32  O   UNL A   1      29.652  25.211  26.776  1.00  0.00    -0.258 OA
ATOM     33  O   UNL A   1      29.791  23.030  26.469  1.00  0.00    -0.258 OA
ENDBRANCH  19  31
ENDBRANCH   4   7
ENDBRANCH   2   3
ENDBRANCH   1   2
BRANCH   1  34
ATOM     34  C   UNL A   1      31.725  29.120  25.225  1.00  0.00     0.023 C 
BRANCH  34  35
ATOM     35  C   UNL A   1      32.847  29.690  26.092  1.00  0.00     0.116 C 
BRANCH  35  36
ATOM     36  N   UNL A   1      32.663  31.090  26.447  1.00  0.00    -0.352 N 
ATOM     37  C   UNL A   1      33.384  31.902  27.293  1.00  0.00     0.251 C 
ATOM     38  H   UNL A   1      31.896  31.527  26.011  1.00  0.00     0.163 HD
ATOM     39  O   UNL A   1      32.981  33.039  27.525  1.00  0.00    -0.269 OA
BRANCH  37  40
ATOM     40  C   UNL A   1      34.623  31.424  27.953  1.00  0.00     0.039 A 
ATOM     41  C   UNL A   1      35.696  32.311  28.090  1.00  0.00     0.014 A 
ATOM     42  C   UNL A   1      34.759  30.109  28.402  1.00  0.00     0.014 A 
ATOM     43  C   UNL A   1      36.871  31.900  28.732  1.00  0.00     0.010 A 
ATOM     44  C   UNL A   1      35.892  29.726  29.120  1.00  0.00     0.010 A 
ATOM     45  C   UNL A   1      36.968  30.613  29.282  1.00  0.00    -0.014 A 
BRANCH  45  46
ATOM     46  C   UNL A   1      38.194  30.172  30.003  1.00  0.00     0.031 A 
ATOM     47  C   UNL A   1      38.460  30.643  31.409  1.00  0.00     0.074 A 
ATOM     48  C   UNL A   1      39.093  29.381  29.384  1.00  0.00     0.049 A 
ATOM     49  N   UNL A   1      39.485  30.400  32.188  1.00  0.00    -0.248 NA
ATOM     50  C   UNL A   1      37.452  31.530  32.010  1.00  0.00     0.031 C 
ATOM     51  C   UNL A   1      38.981  28.888  28.012  1.00  0.00     0.029 A 
ATOM     52  N   UNL A   1      40.283  28.857  29.829  1.00  0.00    -0.354 N 
ATOM     53  C   UNL A   1      39.248  31.109  33.360  1.00  0.00     0.074 A 
ATOM     54  C   UNL A   1      38.018  31.845  33.164  1.00  0.00     0.031 C 
ATOM     55  C   UNL A   1      40.038  28.107  27.737  1.00  0.00     0.029 A 
ATOM     56  C   UNL A   1      40.924  28.078  28.897  1.00  0.00     0.049 A 
ATOM     57  H   UNL A   1      40.641  29.025  30.730  1.00  0.00     0.167 HD
ATOM     58  C   UNL A   1      39.972  31.123  34.505  1.00  0.00     0.037 A 
ATOM     59  C   UNL A   1      42.095  27.414  28.969  1.00  0.00     0.037 A 
ATOM     60  C   UNL A   1      41.189  30.379  34.705  1.00  0.00     0.049 A 
ATOM     61  C   UNL A   1      42.893  27.463  30.246  1.00  0.00     0.074 A 
ATOM     62  C   UNL A   1      41.971  30.292  35.843  1.00  0.00     0.029 A 
ATOM     63  N   UNL A   1      41.802  29.596  33.738  1.00  0.00    -0.354 N 
ATOM     64  N   UNL A   1      42.623  28.082  31.370  1.00  0.00    -0.248 NA
ATOM     65  C   UNL A   1      44.154  26.709  30.266  1.00  0.00     0.031 C 
ATOM     66  C   UNL A   1      43.087  29.503  35.548  1.00  0.00     0.029 A 
ATOM     67  C   UNL A   1      42.967  29.041  34.248  1.00  0.00     0.049 A 
ATOM     68  H   UNL A   1      41.462  29.454  32.826  1.00  0.00     0.167 HD
ATOM     69  C   UNL A   1      43.656  27.761  32.241  1.00  0.00     0.074 A 
ATOM     70  C   UNL A   1      44.552  26.883  31.518  1.00  0.00     0.031 C 
ATOM     71  C   UNL A   1      43.844  28.156  33.524  1.00  0.00     0.037 A 
BRANCH  58  72
ATOM     72  C   UNL A   1      39.463  31.975  35.635  1.00  0.00     0.064 A 
ATOM     73  C   UNL A   1      39.877  33.306  35.802  1.00  0.00     0.173 A 
ATOM     74  C   UNL A   1      38.533  31.462  36.552  1.00  0.00     0.173 A 
ATOM     75  F   UNL A   1      40.772  33.845  34.960  1.00  0.00    -0.203 F 
ATOM     76  C   UNL A   1      39.411  34.077  36.864  1.00  0.00     0.198 A 
ATOM     77  C   UNL A   1      38.041  32.248  37.592  1.00  0.00     0.198 A 
ATOM     78  F   UNL A   1      38.095  30.199  36.439  1.00  0.00    -0.203 F 
ATOM     79  F   UNL A   1      39.871  35.323  37.037  1.00  0.00    -0.200 F 
ATOM     80  C   UNL A   1      38.489  33.550  37.754  1.00  0.00     0.200 A 
ATOM     81  F   UNL A   1      37.136  31.742  38.443  1.00  0.00    -0.200 F 
ATOM     82  F   UNL A   1      38.039  34.294  38.774  1.00  0.00    -0.200 F 
ENDBRANCH  58  72
BRANCH  59  83
ATOM     83  C   UNL A   1      42.571  26.616  27.808  1.00  0.00     0.064 A 
ATOM     84  C   UNL A   1      43.416  27.183  26.843  1.00  0.00     0.173 A 
ATOM     85  C   UNL A   1      42.183  25.280  27.628  1.00  0.00     0.173 A 
ATOM     86  F   UNL A   1      43.799  28.464  26.958  1.00  0.00    -0.203 F 
ATOM     87  C   UNL A   1      43.835  26.454  25.732  1.00  0.00     0.198 A 
ATOM     88  C   UNL A   1      42.628  24.541  26.533  1.00  0.00     0.198 A 
ATOM     89  F   UNL A   1      41.379  24.688  28.523  1.00  0.00    -0.203 F 
ATOM     90  F   UNL A   1      44.599  27.038  24.799  1.00  0.00    -0.200 F 
ATOM     91  C   UNL A   1      43.445  25.132  25.581  1.00  0.00     0.200 A 
ATOM     92  F   UNL A   1      42.261  23.260  26.399  1.00  0.00    -0.200 F 
ATOM     93  F   UNL A   1      43.850  24.430  24.514  1.00  0.00    -0.200 F 
ENDBRANCH  59  83
BRANCH  71  94
ATOM     94  C   UNL A   1      45.033  27.595  34.255  1.00  0.00     0.064 A 
ATOM     95  C   UNL A   1      44.970  26.384  34.960  1.00  0.00     0.173 A 
ATOM     96  C   UNL A   1      46.265  28.268  34.221  1.00  0.00     0.173 A 
ATOM     97  F   UNL A   1      43.814  25.706  35.035  1.00  0.00    -0.203 F 
ATOM     98  C   UNL A   1      46.084  25.887  35.631  1.00  0.00     0.198 A 
ATOM     99  C   UNL A   1      47.386  27.750  34.862  1.00  0.00     0.198 A 
ATOM    100  F   UNL A   1      46.385  29.426  33.554  1.00  0.00    -0.203 F 
ATOM    101  F   UNL A   1      45.983  24.758  36.348  1.00  0.00    -0.200 F 
ATOM    102  C   UNL A   1      47.291  26.565  35.576  1.00  0.00     0.200 A 
ATOM    103  F   UNL A   1      48.556  28.399  34.792  1.00  0.00    -0.200 F 
ATOM    104  F   UNL A   1      48.364  26.082  36.218  1.00  0.00    -0.200 F 
ENDBRANCH  71  94
ENDBRANCH  45  46
ENDBRANCH  37  40
ENDBRANCH  35  36
ENDBRANCH  34  35
ENDBRANCH   1  34
TORSDOF 15
ENDMDL
MODEL 2
REMARK VINA RESULT:     -13.2      3.761      9.877
REMARK SMILES CC(=O)Oc1ccc([C@H]2Nc3c(C(=O)NCCCCNC(=O)c4ccc(-c5c6nc(c(-c7c(F)c(F)c(F)c(F)c7F)c7ccc([nH]7)c(-c7c(F)c(F)c(F)c(F)c7F)c7nc(c(-c8c(F)c(F)c(F)c(F)c8F)c8ccc5[nH]8)C=C7)C=C6)cc4)ccc([N+](=O)[O-])c3[C@H]3C=CC[C@@H]32)cc1
REMARK SMILES IDX 17 1 16 2 15 3 13 4 14 5 12 7 9 8 10 9 97 10 11 11 93 13
REMARK SMILES IDX 96 14 92 15 94 16 95 17 86 18 88 19 87 20 8 21 5 22 6 23
REMARK SMILES IDX 99 24 7 25 98 26 4 27 2 28 1 29 3 30 89 31 90 32 91 33 18 34
REMARK SMILES IDX 19 35 20 36 21 37 22 39 23 40 24 41 85 42 25 43 84 44 26 45
REMARK SMILES IDX 27 46 28 47 78 48 29 49 83 50 77 51 79 52 30 53 82 54 76 55
REMARK SMILES IDX 75 56 31 58 63 59 43 60 62 61 44 62 47 63 61 64 80 65 45 66
REMARK SMILES IDX 46 67 60 69 81 70 48 71 32 72 33 73 41 74 34 75 35 76 39 77
REMARK SMILES IDX 42 78 36 79 37 80 40 81 38 82 64 83 65 84 73 85 66 86 67 87
REMARK SMILES IDX 71 88 74 89 68 90 69 91 72 92 70 93 49 94 50 95 58 96 51 97
REMARK SMILES IDX 52 98 56 99 59 100 53 101 54 102 57 103 55 104
REMARK H PARENT 15 6 10 12 20 38 79 57 47 68
REMARK Flexibility Score: inf
ROOT
ATOM      1  C   UNL A   1      34.775  22.272  25.770  1.00  0.00     0.023 C 
ENDROOT
BRANCH   1   2
ATOM      2  C   UNL A   1      33.519  21.486  26.143  1.00  0.00     0.116 C 
BRANCH   2   3
ATOM      3  N   UNL A   1      32.568  22.212  26.995  1.00  0.00    -0.352 N 
ATOM      4  C   UNL A   1      31.822  23.364  26.740  1.00  0.00     0.253 C 
ATOM      5  O   UNL A   1      31.143  23.863  27.627  1.00  0.00    -0.269 OA
ATOM      6  H   UNL A   1      32.435  21.823  27.890  1.00  0.00     0.163 HD
BRANCH   4   7
ATOM      7  C   UNL A   1      31.867  23.980  25.381  1.00  0.00     0.063 A 
ATOM      8  C   UNL A   1      33.590  27.422  25.575  1.00  0.00     0.114 C 
ATOM      9  N   UNL A   1      33.002  26.123  26.013  1.00  0.00    -0.377 N 
ATOM     10  C   UNL A   1      33.077  27.668  24.148  1.00  0.00     0.031 C 
ATOM     11  C   UNL A   1      32.621  25.137  25.061  1.00  0.00     0.058 A 
ATOM     12  H   UNL A   1      32.875  25.946  26.973  1.00  0.00     0.161 HD
ATOM     13  C   UNL A   1      33.773  26.546  23.351  1.00  0.00     0.056 C 
ATOM     14  C   UNL A   1      33.274  28.957  23.355  1.00  0.00     0.034 C 
ATOM     15  C   UNL A   1      32.930  25.339  23.668  1.00  0.00     0.061 A 
ATOM     16  C   UNL A   1      33.917  27.149  22.000  1.00  0.00    -0.022 C 
ATOM     17  C   UNL A   1      33.667  28.460  22.004  1.00  0.00    -0.030 C 
ATOM     18  C   UNL A   1      31.163  23.292  24.371  1.00  0.00     0.023 A 
ATOM     19  C   UNL A   1      32.393  24.470  22.704  1.00  0.00     0.275 A 
ATOM     20  C   UNL A   1      31.448  23.505  23.033  1.00  0.00     0.087 A 
BRANCH   8  21
ATOM     21  C   UNL A   1      33.554  28.601  26.552  1.00  0.00    -0.025 A 
ATOM     22  C   UNL A   1      33.765  31.196  27.683  1.00  0.00     0.130 A 
ATOM     23  C   UNL A   1      34.889  30.378  27.595  1.00  0.00     0.047 A 
ATOM     24  C   UNL A   1      32.528  30.716  27.268  1.00  0.00     0.047 A 
ATOM     25  C   UNL A   1      34.780  29.090  27.049  1.00  0.00     0.010 A 
ATOM     26  C   UNL A   1      32.420  29.414  26.742  1.00  0.00     0.010 A 
BRANCH  22  27
ATOM     27  O   UNL A   1      34.000  32.527  28.103  1.00  0.00    -0.427 OA
BRANCH  27  28
ATOM     28  C   UNL A   1      33.044  33.539  27.999  1.00  0.00     0.308 C 
ATOM     29  C   UNL A   1      33.377  34.639  28.966  1.00  0.00     0.139 C 
ATOM     30  O   UNL A   1      32.073  33.555  27.251  1.00  0.00    -0.252 OA
ENDBRANCH  27  28
ENDBRANCH  22  27
ENDBRANCH   8  21
BRANCH  19  31
ATOM     31  N   UNL A   1      32.809  24.507  21.319  1.00  0.00     0.063 N 
ATOM     32  O   UNL A   1      32.253  25.331  20.584  1.00  0.00    -0.258 OA
ATOM     33  O   UNL A   1      33.653  23.670  20.971  1.00  0.00    -0.258 OA
ENDBRANCH  19  31
ENDBRANCH   4   7
ENDBRANCH   2   3
ENDBRANCH   1   2
BRANCH   1  34
ATOM     34  C   UNL A   1      35.701  21.609  24.754  1.00  0.00     0.023 C 
BRANCH  34  35
ATOM     35  C   UNL A   1      37.175  22.005  24.831  1.00  0.00     0.116 C 
BRANCH  35  36
ATOM     36  N   UNL A   1      38.028  20.981  25.421  1.00  0.00    -0.352 N 
ATOM     37  C   UNL A   1      39.194  21.094  26.145  1.00  0.00     0.251 C 
ATOM     38  H   UNL A   1      37.721  20.057  25.277  1.00  0.00     0.163 HD
ATOM     39  O   UNL A   1      39.808  20.079  26.459  1.00  0.00    -0.269 OA
BRANCH  37  40
ATOM     40  C   UNL A   1      39.738  22.419  26.530  1.00  0.00     0.039 A 
ATOM     41  C   UNL A   1      40.845  22.468  27.385  1.00  0.00     0.014 A 
ATOM     42  C   UNL A   1      39.155  23.611  26.096  1.00  0.00     0.014 A 
ATOM     43  C   UNL A   1      41.400  23.701  27.747  1.00  0.00     0.010 A 
ATOM     44  C   UNL A   1      39.761  24.834  26.382  1.00  0.00     0.010 A 
ATOM     45  C   UNL A   1      40.883  24.896  27.223  1.00  0.00    -0.014 A 
BRANCH  45  46
ATOM     46  C   UNL A   1      41.486  26.214  27.565  1.00  0.00     0.031 A 
ATOM     47  C   UNL A   1      42.889  26.544  27.127  1.00  0.00     0.074 A 
ATOM     48  C   UNL A   1      40.792  27.101  28.304  1.00  0.00     0.049 A 
ATOM     49  N   UNL A   1      43.600  27.620  27.358  1.00  0.00    -0.248 NA
ATOM     50  C   UNL A   1      43.598  25.516  26.350  1.00  0.00     0.031 C 
ATOM     51  C   UNL A   1      39.443  26.892  28.829  1.00  0.00     0.029 A 
ATOM     52  N   UNL A   1      41.129  28.357  28.748  1.00  0.00    -0.354 N 
ATOM     53  C   UNL A   1      44.836  27.392  26.764  1.00  0.00     0.074 A 
ATOM     54  C   UNL A   1      44.802  26.051  26.224  1.00  0.00     0.031 C 
ATOM     55  C   UNL A   1      39.053  27.992  29.494  1.00  0.00     0.029 A 
ATOM     56  C   UNL A   1      40.140  28.968  29.479  1.00  0.00     0.049 A 
ATOM     57  H   UNL A   1      41.999  28.779  28.559  1.00  0.00     0.167 HD
ATOM     58  C   UNL A   1      45.893  28.233  26.653  1.00  0.00     0.037 A 
ATOM     59  C   UNL A   1      40.111  30.178  30.072  1.00  0.00     0.037 A 
ATOM     60  C   UNL A   1      45.921  29.573  27.178  1.00  0.00     0.049 A 
ATOM     61  C   UNL A   1      41.306  31.086  29.953  1.00  0.00     0.074 A 
ATOM     62  C   UNL A   1      46.928  30.519  27.078  1.00  0.00     0.029 A 
ATOM     63  N   UNL A   1      44.896  30.157  27.907  1.00  0.00    -0.354 N 
ATOM     64  N   UNL A   1      42.443  30.885  29.331  1.00  0.00    -0.248 NA
ATOM     65  C   UNL A   1      41.208  32.397  30.610  1.00  0.00     0.031 C 
ATOM     66  C   UNL A   1      46.535  31.654  27.795  1.00  0.00     0.029 A 
ATOM     67  C   UNL A   1      45.256  31.443  28.284  1.00  0.00     0.049 A 
ATOM     68  H   UNL A   1      44.040  29.724  28.125  1.00  0.00     0.167 HD
ATOM     69  C   UNL A   1      43.177  32.054  29.487  1.00  0.00     0.074 A 
ATOM     70  C   UNL A   1      42.351  32.964  30.253  1.00  0.00     0.031 C 
ATOM     71  C   UNL A   1      44.421  32.347  29.034  1.00  0.00     0.037 A 
BRANCH  58  72
ATOM     72  C   UNL A   1      47.110  27.722  25.932  1.00  0.00     0.064 A 
ATOM     73  C   UNL A   1      48.217  27.207  26.626  1.00  0.00     0.173 A 
ATOM     74  C   UNL A   1      47.165  27.729  24.530  1.00  0.00     0.173 A 
ATOM     75  F   UNL A   1      48.224  27.185  27.967  1.00  0.00    -0.203 F 
ATOM     76  C   UNL A   1      49.345  26.755  25.945  1.00  0.00     0.198 A 
ATOM     77  C   UNL A   1      48.281  27.242  23.852  1.00  0.00     0.198 A 
ATOM     78  F   UNL A   1      46.134  28.203  23.814  1.00  0.00    -0.203 F 
ATOM     79  F   UNL A   1      50.413  26.328  26.633  1.00  0.00    -0.200 F 
ATOM     80  C   UNL A   1      49.374  26.767  24.560  1.00  0.00     0.200 A 
ATOM     81  F   UNL A   1      48.299  27.239  22.511  1.00  0.00    -0.200 F 
ATOM     82  F   UNL A   1      50.459  26.329  23.906  1.00  0.00    -0.200 F 
ENDBRANCH  58  72
BRANCH  59  83
ATOM     83  C   UNL A   1      38.893  30.619  30.805  1.00  0.00     0.064 A 
ATOM     84  C   UNL A   1      37.862  31.301  30.142  1.00  0.00     0.173 A 
ATOM     85  C   UNL A   1      38.740  30.385  32.179  1.00  0.00     0.173 A 
ATOM     86  F   UNL A   1      37.970  31.569  28.832  1.00  0.00    -0.203 F 
ATOM     87  C   UNL A   1      36.737  31.751  30.829  1.00  0.00     0.198 A 
ATOM     88  C   UNL A   1      37.599  30.807  32.859  1.00  0.00     0.198 A 
ATOM     89  F   UNL A   1      39.695  29.734  32.860  1.00  0.00    -0.203 F 
ATOM     90  F   UNL A   1      35.792  32.445  30.181  1.00  0.00    -0.200 F 
ATOM     91  C   UNL A   1      36.604  31.499  32.186  1.00  0.00     0.200 A 
ATOM     92  F   UNL A   1      37.469  30.548  34.167  1.00  0.00    -0.200 F 
ATOM     93  F   UNL A   1      35.521  31.930  32.847  1.00  0.00    -0.200 F 
ENDBRANCH  59  83
BRANCH  71  94
ATOM     94  C   UNL A   1      44.947  33.730  29.301  1.00  0.00     0.064 A 
ATOM     95  C   UNL A   1      44.722  34.795  28.416  1.00  0.00     0.173 A 
ATOM     96  C   UNL A   1      45.661  33.999  30.479  1.00  0.00     0.173 A 
ATOM     97  F   UNL A   1      44.055  34.591  27.270  1.00  0.00    -0.203 F 
ATOM     98  C   UNL A   1      45.222  36.067  28.684  1.00  0.00     0.198 A 
ATOM     99  C   UNL A   1      46.128  35.279  30.761  1.00  0.00     0.198 A 
ATOM    100  F   UNL A   1      45.898  33.020  31.365  1.00  0.00    -0.203 F 
ATOM    101  F   UNL A   1      45.045  37.054  27.794  1.00  0.00    -0.200 F 
ATOM    102  C   UNL A   1      45.918  36.309  29.858  1.00  0.00     0.200 A 
ATOM    103  F   UNL A   1      46.785  35.514  31.905  1.00  0.00    -0.200 F 
ATOM    104  F   UNL A   1      46.394  37.535  30.116  1.00  0.00    -0.200 F 
ENDBRANCH  71  94
ENDBRANCH  45  46
ENDBRANCH  37  40
ENDBRANCH  35  36
ENDBRANCH  34  35
ENDBRANCH   1  34
TORSDOF 15
ENDMDL
MODEL 3
REMARK VINA RESULT:     -13.1      2.018      7.449
REMARK SMILES CC(=O)Oc1ccc([C@H]2Nc3c(C(=O)NCCCCNC(=O)c4ccc(-c5c6nc(c(-c7c(F)c(F)c(F)c(F)c7F)c7ccc([nH]7)c(-c7c(F)c(F)c(F)c(F)c7F)c7nc(c(-c8c(F)c(F)c(F)c(F)c8F)c8ccc5[nH]8)C=C7)C=C6)cc4)ccc([N+](=O)[O-])c3[C@H]3C=CC[C@@H]32)cc1
REMARK SMILES IDX 17 1 16 2 15 3 13 4 14 5 12 7 9 8 10 9 97 10 11 11 93 13
REMARK SMILES IDX 96 14 92 15 94 16 95 17 86 18 88 19 87 20 8 21 5 22 6 23
REMARK SMILES IDX 99 24 7 25 98 26 4 27 2 28 1 29 3 30 89 31 90 32 91 33 18 34
REMARK SMILES IDX 19 35 20 36 21 37 22 39 23 40 24 41 85 42 25 43 84 44 26 45
REMARK SMILES IDX 27 46 28 47 78 48 29 49 83 50 77 51 79 52 30 53 82 54 76 55
REMARK SMILES IDX 75 56 31 58 63 59 43 60 62 61 44 62 47 63 61 64 80 65 45 66
REMARK SMILES IDX 46 67 60 69 81 70 48 71 32 72 33 73 41 74 34 75 35 76 39 77
REMARK SMILES IDX 42 78 36 79 37 80 40 81 38 82 64 83 65 84 73 85 66 86 67 87
REMARK SMILES IDX 71 88 74 89 68 90 69 91 72 92 70 93 49 94 50 95 58 96 51 97
REMARK SMILES IDX 52 98 56 99 59 100 53 101 54 102 57 103 55 104
REMARK H PARENT 15 6 10 12 20 38 79 57 47 68
REMARK Flexibility Score: inf
ROOT
ATOM      1  C   UNL A   1      31.531  30.926  26.252  1.00  0.00     0.023 C 
ENDROOT
BRANCH   1   2
ATOM      2  C   UNL A   1      31.923  29.804  27.212  1.00  0.00     0.116 C 
BRANCH   2   3
ATOM      3  N   UNL A   1      33.368  29.576  27.336  1.00  0.00    -0.352 N 
ATOM      4  C   UNL A   1      34.237  28.823  26.544  1.00  0.00     0.253 C 
ATOM      5  O   UNL A   1      35.408  28.692  26.874  1.00  0.00    -0.269 OA
ATOM      6  H   UNL A   1      33.792  30.027  28.101  1.00  0.00     0.163 HD
BRANCH   4   7
ATOM      7  C   UNL A   1      33.722  28.180  25.300  1.00  0.00     0.063 A 
ATOM      8  C   UNL A   1      34.529  24.411  25.362  1.00  0.00     0.114 C 
ATOM      9  N   UNL A   1      34.488  25.842  25.781  1.00  0.00    -0.377 N 
ATOM     10  C   UNL A   1      34.131  24.385  23.878  1.00  0.00     0.031 C 
ATOM     11  C   UNL A   1      33.656  26.777  25.103  1.00  0.00     0.058 A 
ATOM     12  H   UNL A   1      35.043  26.144  26.536  1.00  0.00     0.161 HD
ATOM     13  C   UNL A   1      32.652  24.817  23.927  1.00  0.00     0.056 C 
ATOM     14  C   UNL A   1      34.201  23.158  22.973  1.00  0.00     0.034 C 
ATOM     15  C   UNL A   1      32.745  26.311  24.089  1.00  0.00     0.061 A 
ATOM     16  C   UNL A   1      32.073  24.126  22.744  1.00  0.00    -0.022 C 
ATOM     17  C   UNL A   1      32.904  23.212  22.238  1.00  0.00    -0.030 C 
ATOM     18  C   UNL A   1      33.211  29.056  24.321  1.00  0.00     0.023 A 
ATOM     19  C   UNL A   1      32.064  27.241  23.286  1.00  0.00     0.275 A 
ATOM     20  C   UNL A   1      32.352  28.600  23.335  1.00  0.00     0.087 A 
BRANCH   8  21
ATOM     21  C   UNL A   1      35.733  23.565  25.786  1.00  0.00    -0.025 A 
ATOM     22  C   UNL A   1      37.981  21.833  25.748  1.00  0.00     0.130 A 
ATOM     23  C   UNL A   1      36.693  21.305  25.781  1.00  0.00     0.047 A 
ATOM     24  C   UNL A   1      38.164  23.210  25.792  1.00  0.00     0.047 A 
ATOM     25  C   UNL A   1      35.583  22.162  25.814  1.00  0.00     0.010 A 
ATOM     26  C   UNL A   1      37.047  24.066  25.848  1.00  0.00     0.010 A 
BRANCH  22  27
ATOM     27  O   UNL A   1      39.028  20.898  25.561  1.00  0.00    -0.427 OA
BRANCH  27  28
ATOM     28  C   UNL A   1      40.084  20.747  26.461  1.00  0.00     0.308 C 
ATOM     29  C   UNL A   1      40.931  19.578  26.041  1.00  0.00     0.139 C 
ATOM     30  O   UNL A   1      40.309  21.437  27.448  1.00  0.00    -0.252 OA
ENDBRANCH  27  28
ENDBRANCH  22  27
ENDBRANCH   8  21
BRANCH  19  31
ATOM     31  N   UNL A   1      31.006  26.847  22.382  1.00  0.00     0.063 N 
ATOM     32  O   UNL A   1      31.305  26.702  21.191  1.00  0.00    -0.258 OA
ATOM     33  O   UNL A   1      29.872  26.739  22.870  1.00  0.00    -0.258 OA
ENDBRANCH  19  31
ENDBRANCH   4   7
ENDBRANCH   2   3
ENDBRANCH   1   2
BRANCH   1  34
ATOM     34  C   UNL A   1      31.363  32.310  26.874  1.00  0.00     0.023 C 
BRANCH  34  35
ATOM     35  C   UNL A   1      32.653  33.047  27.231  1.00  0.00     0.116 C 
BRANCH  35  36
ATOM     36  N   UNL A   1      32.438  34.391  27.748  1.00  0.00    -0.352 N 
ATOM     37  C   UNL A   1      33.057  35.065  28.777  1.00  0.00     0.251 C 
ATOM     38  H   UNL A   1      31.735  34.902  27.285  1.00  0.00     0.163 HD
ATOM     39  O   UNL A   1      32.638  36.170  29.110  1.00  0.00    -0.269 OA
BRANCH  37  40
ATOM     40  C   UNL A   1      34.201  34.472  29.511  1.00  0.00     0.039 A 
ATOM     41  C   UNL A   1      33.957  33.829  30.729  1.00  0.00     0.014 A 
ATOM     42  C   UNL A   1      35.511  34.570  29.039  1.00  0.00     0.014 A 
ATOM     43  C   UNL A   1      35.010  33.235  31.434  1.00  0.00     0.010 A 
ATOM     44  C   UNL A   1      36.545  33.902  29.694  1.00  0.00     0.010 A 
ATOM     45  C   UNL A   1      36.310  33.237  30.907  1.00  0.00    -0.014 A 
BRANCH  45  46
ATOM     46  C   UNL A   1      37.435  32.575  31.623  1.00  0.00     0.031 A 
ATOM     47  C   UNL A   1      38.161  31.416  30.992  1.00  0.00     0.074 A 
ATOM     48  C   UNL A   1      37.782  32.984  32.860  1.00  0.00     0.049 A 
ATOM     49  N   UNL A   1      39.139  30.686  31.470  1.00  0.00    -0.248 NA
ATOM     50  C   UNL A   1      37.708  31.003  29.655  1.00  0.00     0.031 C 
ATOM     51  C   UNL A   1      37.135  34.065  33.605  1.00  0.00     0.029 A 
ATOM     52  N   UNL A   1      38.762  32.535  33.712  1.00  0.00    -0.354 N 
ATOM     53  C   UNL A   1      39.407  29.729  30.499  1.00  0.00     0.074 A 
ATOM     54  C   UNL A   1      38.446  29.925  29.436  1.00  0.00     0.031 C 
ATOM     55  C   UNL A   1      37.755  34.217  34.786  1.00  0.00     0.029 A 
ATOM     56  C   UNL A   1      38.816  33.220  34.901  1.00  0.00     0.049 A 
ATOM     57  H   UNL A   1      39.369  31.791  33.489  1.00  0.00     0.167 HD
ATOM     58  C   UNL A   1      40.384  28.789  30.480  1.00  0.00     0.037 A 
ATOM     59  C   UNL A   1      39.628  33.062  35.965  1.00  0.00     0.037 A 
ATOM     60  C   UNL A   1      41.350  28.603  31.531  1.00  0.00     0.049 A 
ATOM     61  C   UNL A   1      40.691  31.996  35.929  1.00  0.00     0.074 A 
ATOM     62  C   UNL A   1      42.406  27.709  31.586  1.00  0.00     0.029 A 
ATOM     63  N   UNL A   1      41.375  29.322  32.717  1.00  0.00    -0.354 N 
ATOM     64  N   UNL A   1      40.979  31.142  34.977  1.00  0.00    -0.248 NA
ATOM     65  C   UNL A   1      41.553  31.882  37.115  1.00  0.00     0.031 C 
ATOM     66  C   UNL A   1      43.034  27.848  32.827  1.00  0.00     0.029 A 
ATOM     67  C   UNL A   1      42.414  28.875  33.520  1.00  0.00     0.049 A 
ATOM     68  H   UNL A   1      40.748  30.042  32.955  1.00  0.00     0.167 HD
ATOM     69  C   UNL A   1      42.075  30.419  35.429  1.00  0.00     0.074 A 
ATOM     70  C   UNL A   1      42.407  30.943  36.737  1.00  0.00     0.031 C 
ATOM     71  C   UNL A   1      42.746  29.414  34.815  1.00  0.00     0.037 A 
BRANCH  58  72
ATOM     72  C   UNL A   1      40.454  27.889  29.278  1.00  0.00     0.064 A 
ATOM     73  C   UNL A   1      41.274  28.187  28.178  1.00  0.00     0.173 A 
ATOM     74  C   UNL A   1      39.709  26.701  29.232  1.00  0.00     0.173 A 
ATOM     75  F   UNL A   1      42.001  29.315  28.164  1.00  0.00    -0.203 F 
ATOM     76  C   UNL A   1      41.315  27.353  27.063  1.00  0.00     0.198 A 
ATOM     77  C   UNL A   1      39.781  25.850  28.130  1.00  0.00     0.198 A 
ATOM     78  F   UNL A   1      38.914  26.359  30.257  1.00  0.00    -0.203 F 
ATOM     79  F   UNL A   1      42.056  27.694  26.001  1.00  0.00    -0.200 F 
ATOM     80  C   UNL A   1      40.574  26.182  27.043  1.00  0.00     0.200 A 
ATOM     81  F   UNL A   1      39.075  24.710  28.120  1.00  0.00    -0.200 F 
ATOM     82  F   UNL A   1      40.616  25.379  25.971  1.00  0.00    -0.200 F 
ENDBRANCH  58  72
BRANCH  59  83
ATOM     83  C   UNL A   1      39.490  33.957  37.145  1.00  0.00     0.064 A 
ATOM     84  C   UNL A   1      40.125  35.208  37.177  1.00  0.00     0.173 A 
ATOM     85  C   UNL A   1      38.740  33.579  38.268  1.00  0.00     0.173 A 
ATOM     86  F   UNL A   1      40.872  35.606  36.137  1.00  0.00    -0.203 F 
ATOM     87  C   UNL A   1      40.032  36.035  38.295  1.00  0.00     0.198 A 
ATOM     88  C   UNL A   1      38.622  34.421  39.373  1.00  0.00     0.198 A 
ATOM     89  F   UNL A   1      38.110  32.395  38.288  1.00  0.00    -0.203 F 
ATOM     90  F   UNL A   1      40.692  37.201  38.318  1.00  0.00    -0.200 F 
ATOM     91  C   UNL A   1      39.277  35.643  39.389  1.00  0.00     0.200 A 
ATOM     92  F   UNL A   1      37.879  34.045  40.422  1.00  0.00    -0.200 F 
ATOM     93  F   UNL A   1      39.187  36.440  40.463  1.00  0.00    -0.200 F 
ENDBRANCH  59  83
BRANCH  71  94
ATOM     94  C   UNL A   1      43.948  28.850  35.522  1.00  0.00     0.064 A 
ATOM     95  C   UNL A   1      43.850  27.768  36.409  1.00  0.00     0.173 A 
ATOM     96  C   UNL A   1      45.224  29.385  35.281  1.00  0.00     0.173 A 
ATOM     97  F   UNL A   1      42.654  27.226  36.684  1.00  0.00    -0.203 F 
ATOM     98  C   UNL A   1      44.978  27.266  37.054  1.00  0.00     0.198 A 
ATOM     99  C   UNL A   1      46.354  28.858  35.900  1.00  0.00     0.198 A 
ATOM    100  F   UNL A   1      45.377  30.415  34.436  1.00  0.00    -0.203 F 
ATOM    101  F   UNL A   1      44.851  26.270  37.942  1.00  0.00    -0.200 F 
ATOM    102  C   UNL A   1      46.228  27.806  36.794  1.00  0.00     0.200 A 
ATOM    103  F   UNL A   1      47.562  29.370  35.632  1.00  0.00    -0.200 F 
ATOM    104  F   UNL A   1      47.313  27.318  37.411  1.00  0.00    -0.200 F 
ENDBRANCH  71  94
ENDBRANCH  45  46
ENDBRANCH  37  40
ENDBRANCH  35  36
ENDBRANCH  34  35
ENDBRANCH   1  34
TORSDOF 15
ENDMDL
