MODEL 1
REMARK VINA RESULT:     -13.4      0.000      0.000
REMARK SMILES COc1cc(/N=N/c2ccccc2)ccc1NC(=O)[C@H]1CC=CC[C@@H]1C(=O)NCCCCNC(=O)c1ccc(-c2c3nc(c(-c4c(F)c(F)c(F)c(F)c4F)c4ccc([nH]4)c(-c4c(F)c(F)c(F)c(F)c4F)c4nc(c(-c5c(F)c(F)c(F)c(F)c5F)c5ccc2[nH]5)C=C4)C=C3)cc1
REMARK SMILES IDX 29 1 28 2 26 3 27 4 25 6 20 7 21 8 22 9 24 10 23 11 18 12
REMARK SMILES IDX 17 13 19 15 16 16 3 17 4 18 5 19 15 20 14 21 2 22 1 23 6 24
REMARK SMILES IDX 7 25 8 26 9 27 13 28 10 29 12 30 11 31 30 32 31 33 32 34
REMARK SMILES IDX 33 35 34 36 35 38 36 39 37 40 98 41 38 42 97 43 39 44 40 45
REMARK SMILES IDX 41 46 91 47 42 48 96 49 90 50 92 51 43 52 95 53 89 54 88 55
REMARK SMILES IDX 44 57 76 58 56 59 75 60 57 61 60 62 74 63 93 64 58 65 59 66
REMARK SMILES IDX 73 68 94 69 61 70 45 71 46 72 54 73 47 74 48 75 52 76 55 77
REMARK SMILES IDX 49 78 50 79 53 80 51 81 77 82 78 83 86 84 79 85 80 86 84 87
REMARK SMILES IDX 87 88 81 89 82 90 85 91 83 92 62 93 63 94 71 95 64 96 65 97
REMARK SMILES IDX 69 98 72 99 66 100 67 101 70 102 68 103
REMARK H PARENT 28 5 17 14 33 37 92 56 60 67
REMARK Flexibility Score: inf
ROOT
ATOM      1  C   UNL A   1      37.257  22.384  25.786  1.00  0.00     0.116 C 
ENDROOT
BRANCH   1   2
ATOM      2  N   UNL A   1      35.896  22.321  26.272  1.00  0.00    -0.356 N 
ATOM      3  C   UNL A   1      34.711  22.844  25.890  1.00  0.00     0.224 C 
ATOM      4  O   UNL A   1      33.796  22.649  26.706  1.00  0.00    -0.275 OA
ATOM      5  H   UNL A   1      35.814  21.761  27.077  1.00  0.00     0.163 HD
BRANCH   3   6
ATOM      6  C   UNL A   1      34.377  23.578  24.578  1.00  0.00     0.095 C 
ATOM      7  C   UNL A   1      33.336  24.713  24.528  1.00  0.00     0.095 C 
ATOM      8  C   UNL A   1      31.898  24.167  24.318  1.00  0.00     0.041 C 
ATOM      9  C   UNL A   1      31.795  22.934  23.470  1.00  0.00    -0.030 C 
ATOM     10  C   UNL A   1      34.256  22.579  23.413  1.00  0.00     0.041 C 
ATOM     11  C   UNL A   1      32.852  22.230  23.052  1.00  0.00    -0.030 C 
BRANCH   7  12
ATOM     12  C   UNL A   1      33.619  25.774  23.451  1.00  0.00     0.228 C 
ATOM     13  N   UNL A   1      33.559  27.113  23.657  1.00  0.00    -0.323 N 
ATOM     14  H   UNL A   1      33.773  27.623  22.842  1.00  0.00     0.170 HD
ATOM     15  O   UNL A   1      33.914  25.447  22.294  1.00  0.00    -0.274 OA
BRANCH  13  16
ATOM     16  C   UNL A   1      33.266  27.952  24.742  1.00  0.00     0.083 A 
ATOM     17  C   UNL A   1      32.189  28.839  24.571  1.00  0.00     0.144 A 
ATOM     18  C   UNL A   1      32.051  29.960  25.390  1.00  0.00     0.079 A 
ATOM     19  C   UNL A   1      32.929  30.148  26.458  1.00  0.00     0.090 A 
ATOM     20  C   UNL A   1      34.014  28.034  25.911  1.00  0.00     0.032 A 
ATOM     21  C   UNL A   1      33.853  29.137  26.757  1.00  0.00     0.033 A 
BRANCH  17  22
ATOM     22  O   UNL A   1      31.327  28.717  23.506  1.00  0.00    -0.494 OA
ATOM     23  C   UNL A   1      30.171  27.954  23.877  1.00  0.00     0.278 C 
ENDBRANCH  17  22
BRANCH  19  24
ATOM     24  N   UNL A   1      32.877  31.331  27.221  1.00  0.00    -0.150 NA
ATOM     25  N   UNL A   1      33.980  31.506  27.786  1.00  0.00    -0.151 NA
BRANCH  25  26
ATOM     26  C   UNL A   1      34.036  32.636  28.630  1.00  0.00     0.086 A 
ATOM     27  C   UNL A   1      34.731  32.498  29.841  1.00  0.00     0.030 A 
ATOM     28  C   UNL A   1      33.444  33.875  28.348  1.00  0.00     0.030 A 
ATOM     29  C   UNL A   1      34.833  33.560  30.744  1.00  0.00     0.002 A 
ATOM     30  C   UNL A   1      33.543  34.942  29.249  1.00  0.00     0.002 A 
ATOM     31  C   UNL A   1      34.238  34.784  30.446  1.00  0.00     0.000 A 
ENDBRANCH  25  26
ENDBRANCH  19  24
ENDBRANCH  13  16
ENDBRANCH   7  12
ENDBRANCH   3   6
ENDBRANCH   1   2
BRANCH   1  32
ATOM     32  C   UNL A   1      37.489  21.402  24.638  1.00  0.00     0.023 C 
BRANCH  32  33
ATOM     33  C   UNL A   1      38.213  20.118  25.029  1.00  0.00     0.023 C 
BRANCH  33  34
ATOM     34  C   UNL A   1      39.499  20.319  25.824  1.00  0.00     0.116 C 
BRANCH  34  35
ATOM     35  N   UNL A   1      40.374  19.155  25.848  1.00  0.00    -0.352 N 
ATOM     36  C   UNL A   1      41.725  19.116  26.098  1.00  0.00     0.251 C 
ATOM     37  H   UNL A   1      39.944  18.289  25.662  1.00  0.00     0.163 HD
ATOM     38  O   UNL A   1      42.352  18.064  26.019  1.00  0.00    -0.269 OA
BRANCH  36  39
ATOM     39  C   UNL A   1      42.420  20.376  26.417  1.00  0.00     0.039 A 
ATOM     40  C   UNL A   1      43.045  21.082  25.387  1.00  0.00     0.014 A 
ATOM     41  C   UNL A   1      42.368  20.898  27.712  1.00  0.00     0.014 A 
ATOM     42  C   UNL A   1      43.549  22.357  25.640  1.00  0.00     0.010 A 
ATOM     43  C   UNL A   1      42.797  22.198  27.942  1.00  0.00     0.010 A 
ATOM     44  C   UNL A   1      43.388  22.941  26.908  1.00  0.00    -0.014 A 
BRANCH  44  45
ATOM     45  C   UNL A   1      43.824  24.333  27.178  1.00  0.00     0.031 A 
ATOM     46  C   UNL A   1      42.824  25.347  27.655  1.00  0.00     0.074 A 
ATOM     47  C   UNL A   1      45.091  24.701  26.904  1.00  0.00     0.049 A 
ATOM     48  N   UNL A   1      42.978  26.632  27.854  1.00  0.00    -0.248 NA
ATOM     49  C   UNL A   1      41.457  24.863  27.904  1.00  0.00     0.031 C 
ATOM     50  C   UNL A   1      46.133  23.822  26.368  1.00  0.00     0.029 A 
ATOM     51  N   UNL A   1      45.714  25.918  27.022  1.00  0.00    -0.354 N 
ATOM     52  C   UNL A   1      41.727  27.108  28.219  1.00  0.00     0.074 A 
ATOM     53  C   UNL A   1      40.814  25.989  28.170  1.00  0.00     0.031 C 
ATOM     54  C   UNL A   1      47.268  24.525  26.219  1.00  0.00     0.029 A 
ATOM     55  C   UNL A   1      47.028  25.907  26.619  1.00  0.00     0.049 A 
ATOM     56  H   UNL A   1      45.263  26.723  27.363  1.00  0.00     0.167 HD
ATOM     57  C   UNL A   1      41.378  28.364  28.584  1.00  0.00     0.037 A 
ATOM     58  C   UNL A   1      47.932  26.904  26.573  1.00  0.00     0.037 A 
ATOM     59  C   UNL A   1      42.304  29.460  28.687  1.00  0.00     0.049 A 
ATOM     60  C   UNL A   1      47.528  28.279  27.034  1.00  0.00     0.074 A 
ATOM     61  C   UNL A   1      42.072  30.743  29.148  1.00  0.00     0.029 A 
ATOM     62  N   UNL A   1      43.641  29.397  28.326  1.00  0.00    -0.354 N 
ATOM     63  N   UNL A   1      46.364  28.697  27.469  1.00  0.00    -0.248 NA
ATOM     64  C   UNL A   1      48.566  29.319  27.007  1.00  0.00     0.031 C 
ATOM     65  C   UNL A   1      43.261  31.470  29.030  1.00  0.00     0.029 A 
ATOM     66  C   UNL A   1      44.244  30.626  28.536  1.00  0.00     0.049 A 
ATOM     67  H   UNL A   1      44.095  28.597  27.973  1.00  0.00     0.167 HD
ATOM     68  C   UNL A   1      46.536  30.035  27.793  1.00  0.00     0.074 A 
ATOM     69  C   UNL A   1      47.920  30.356  27.519  1.00  0.00     0.031 C 
ATOM     70  C   UNL A   1      45.628  30.920  28.271  1.00  0.00     0.037 A 
BRANCH  57  71
ATOM     71  C   UNL A   1      39.937  28.620  28.912  1.00  0.00     0.064 A 
ATOM     72  C   UNL A   1      39.421  28.389  30.195  1.00  0.00     0.173 A 
ATOM     73  C   UNL A   1      39.072  29.146  27.941  1.00  0.00     0.173 A 
ATOM     74  F   UNL A   1      40.205  27.874  31.155  1.00  0.00    -0.203 F 
ATOM     75  C   UNL A   1      38.087  28.650  30.489  1.00  0.00     0.198 A 
ATOM     76  C   UNL A   1      37.744  29.433  28.246  1.00  0.00     0.198 A 
ATOM     77  F   UNL A   1      39.516  29.389  26.699  1.00  0.00    -0.203 F 
ATOM     78  F   UNL A   1      37.605  28.379  31.710  1.00  0.00    -0.200 F 
ATOM     79  C   UNL A   1      37.251  29.179  29.517  1.00  0.00     0.200 A 
ATOM     80  F   UNL A   1      36.941  29.955  27.308  1.00  0.00    -0.200 F 
ATOM     81  F   UNL A   1      35.967  29.439  29.803  1.00  0.00    -0.200 F 
ENDBRANCH  57  71
BRANCH  58  82
ATOM     82  C   UNL A   1      49.315  26.639  26.099  1.00  0.00     0.064 A 
ATOM     83  C   UNL A   1      49.688  26.920  24.776  1.00  0.00     0.173 A 
ATOM     84  C   UNL A   1      50.285  26.085  26.946  1.00  0.00     0.173 A 
ATOM     85  F   UNL A   1      48.790  27.433  23.923  1.00  0.00    -0.203 F 
ATOM     86  C   UNL A   1      50.969  26.629  24.312  1.00  0.00     0.198 A 
ATOM     87  C   UNL A   1      51.574  25.820  26.488  1.00  0.00     0.198 A 
ATOM     88  F   UNL A   1      49.981  25.803  28.221  1.00  0.00    -0.203 F 
ATOM     89  F   UNL A   1      51.283  26.859  23.030  1.00  0.00    -0.200 F 
ATOM     90  C   UNL A   1      51.913  26.083  25.169  1.00  0.00     0.200 A 
ATOM     91  F   UNL A   1      52.486  25.303  27.323  1.00  0.00    -0.200 F 
ATOM     92  F   UNL A   1      53.144  25.801  24.722  1.00  0.00    -0.200 F 
ENDBRANCH  58  82
BRANCH  70  93
ATOM     93  C   UNL A   1      46.111  32.309  28.564  1.00  0.00     0.064 A 
ATOM     94  C   UNL A   1      46.652  32.650  29.812  1.00  0.00     0.173 A 
ATOM     95  C   UNL A   1      46.075  33.297  27.568  1.00  0.00     0.173 A 
ATOM     96  F   UNL A   1      46.694  31.743  30.799  1.00  0.00    -0.203 F 
ATOM     97  C   UNL A   1      47.120  33.937  30.059  1.00  0.00     0.198 A 
ATOM     98  C   UNL A   1      46.568  34.575  27.810  1.00  0.00     0.198 A 
ATOM     99  F   UNL A   1      45.572  33.017  26.356  1.00  0.00    -0.203 F 
ATOM    100  F   UNL A   1      47.594  34.255  31.272  1.00  0.00    -0.200 F 
ATOM    101  C   UNL A   1      47.085  34.896  29.056  1.00  0.00     0.200 A 
ATOM    102  F   UNL A   1      46.546  35.495  26.837  1.00  0.00    -0.200 F 
ATOM    103  F   UNL A   1      47.545  36.132  29.294  1.00  0.00    -0.200 F 
ENDBRANCH  70  93
ENDBRANCH  44  45
ENDBRANCH  36  39
ENDBRANCH  34  35
ENDBRANCH  33  34
ENDBRANCH  32  33
ENDBRANCH   1  32
TORSDOF 16
ENDMDL
MODEL 2
REMARK VINA RESULT:     -13.3      0.577      6.987
REMARK SMILES COc1cc(/N=N/c2ccccc2)ccc1NC(=O)[C@H]1CC=CC[C@@H]1C(=O)NCCCCNC(=O)c1ccc(-c2c3nc(c(-c4c(F)c(F)c(F)c(F)c4F)c4ccc([nH]4)c(-c4c(F)c(F)c(F)c(F)c4F)c4nc(c(-c5c(F)c(F)c(F)c(F)c5F)c5ccc2[nH]5)C=C4)C=C3)cc1
REMARK SMILES IDX 29 1 28 2 26 3 27 4 25 6 20 7 21 8 22 9 24 10 23 11 18 12
REMARK SMILES IDX 17 13 19 15 16 16 3 17 4 18 5 19 15 20 14 21 2 22 1 23 6 24
REMARK SMILES IDX 7 25 8 26 9 27 13 28 10 29 12 30 11 31 30 32 31 33 32 34
REMARK SMILES IDX 33 35 34 36 35 38 36 39 37 40 98 41 38 42 97 43 39 44 40 45
REMARK SMILES IDX 41 46 91 47 42 48 96 49 90 50 92 51 43 52 95 53 89 54 88 55
REMARK SMILES IDX 44 57 76 58 56 59 75 60 57 61 60 62 74 63 93 64 58 65 59 66
REMARK SMILES IDX 73 68 94 69 61 70 45 71 46 72 54 73 47 74 48 75 52 76 55 77
REMARK SMILES IDX 49 78 50 79 53 80 51 81 77 82 78 83 86 84 79 85 80 86 84 87
REMARK SMILES IDX 87 88 81 89 82 90 85 91 83 92 62 93 63 94 71 95 64 96 65 97
REMARK SMILES IDX 69 98 72 99 66 100 67 101 70 102 68 103
REMARK H PARENT 28 5 17 14 33 37 92 56 60 67
REMARK Flexibility Score: inf
ROOT
ATOM      1  C   UNL A   1      37.474  22.058  25.642  1.00  0.00     0.116 C 
ENDROOT
BRANCH   1   2
ATOM      2  N   UNL A   1      36.202  22.190  26.318  1.00  0.00    -0.356 N 
ATOM      3  C   UNL A   1      35.038  22.827  26.067  1.00  0.00     0.224 C 
ATOM      4  O   UNL A   1      34.239  22.795  27.017  1.00  0.00    -0.275 OA
ATOM      5  H   UNL A   1      36.180  21.696  27.169  1.00  0.00     0.163 HD
BRANCH   3   6
ATOM      6  C   UNL A   1      34.595  23.513  24.762  1.00  0.00     0.095 C 
ATOM      7  C   UNL A   1      33.526  24.623  24.752  1.00  0.00     0.095 C 
ATOM      8  C   UNL A   1      32.091  24.039  24.661  1.00  0.00     0.041 C 
ATOM      9  C   UNL A   1      31.958  22.779  23.859  1.00  0.00    -0.030 C 
ATOM     10  C   UNL A   1      34.416  22.477  23.638  1.00  0.00     0.041 C 
ATOM     11  C   UNL A   1      33.000  22.086  23.387  1.00  0.00    -0.030 C 
BRANCH   7  12
ATOM     12  C   UNL A   1      33.707  25.657  23.628  1.00  0.00     0.228 C 
ATOM     13  N   UNL A   1      33.533  26.993  23.777  1.00  0.00    -0.323 N 
ATOM     14  H   UNL A   1      33.695  27.483  22.939  1.00  0.00     0.170 HD
ATOM     15  O   UNL A   1      34.020  25.306  22.482  1.00  0.00    -0.274 OA
BRANCH  13  16
ATOM     16  C   UNL A   1      33.177  27.850  24.829  1.00  0.00     0.083 A 
ATOM     17  C   UNL A   1      32.221  28.838  24.531  1.00  0.00     0.144 A 
ATOM     18  C   UNL A   1      32.081  29.961  25.346  1.00  0.00     0.079 A 
ATOM     19  C   UNL A   1      32.820  30.059  26.525  1.00  0.00     0.090 A 
ATOM     20  C   UNL A   1      33.765  27.853  26.088  1.00  0.00     0.032 A 
ATOM     21  C   UNL A   1      33.596  28.961  26.926  1.00  0.00     0.033 A 
BRANCH  17  22
ATOM     22  O   UNL A   1      31.503  28.806  23.359  1.00  0.00    -0.494 OA
ATOM     23  C   UNL A   1      30.198  28.253  23.581  1.00  0.00     0.278 C 
ENDBRANCH  17  22
BRANCH  19  24
ATOM     24  N   UNL A   1      32.778  31.236  27.296  1.00  0.00    -0.150 NA
ATOM     25  N   UNL A   1      33.936  31.524  27.674  1.00  0.00    -0.151 NA
BRANCH  25  26
ATOM     26  C   UNL A   1      34.018  32.660  28.507  1.00  0.00     0.086 A 
ATOM     27  C   UNL A   1      34.701  32.515  29.724  1.00  0.00     0.030 A 
ATOM     28  C   UNL A   1      33.464  33.913  28.208  1.00  0.00     0.030 A 
ATOM     29  C   UNL A   1      34.827  33.583  30.618  1.00  0.00     0.002 A 
ATOM     30  C   UNL A   1      33.587  34.985  29.099  1.00  0.00     0.002 A 
ATOM     31  C   UNL A   1      34.269  34.820  30.303  1.00  0.00     0.000 A 
ENDBRANCH  25  26
ENDBRANCH  19  24
ENDBRANCH  13  16
ENDBRANCH   7  12
ENDBRANCH   3   6
ENDBRANCH   1   2
BRANCH   1  32
ATOM     32  C   UNL A   1      37.457  20.909  24.635  1.00  0.00     0.023 C 
BRANCH  32  33
ATOM     33  C   UNL A   1      38.318  19.709  25.017  1.00  0.00     0.023 C 
BRANCH  33  34
ATOM     34  C   UNL A   1      39.564  20.042  25.829  1.00  0.00     0.116 C 
BRANCH  34  35
ATOM     35  N   UNL A   1      40.549  18.969  25.878  1.00  0.00    -0.352 N 
ATOM     36  C   UNL A   1      41.899  19.069  26.118  1.00  0.00     0.251 C 
ATOM     37  H   UNL A   1      40.205  18.061  25.719  1.00  0.00     0.163 HD
ATOM     38  O   UNL A   1      42.625  18.082  26.062  1.00  0.00    -0.269 OA
BRANCH  36  39
ATOM     39  C   UNL A   1      42.470  20.399  26.397  1.00  0.00     0.039 A 
ATOM     40  C   UNL A   1      42.954  21.163  25.333  1.00  0.00     0.014 A 
ATOM     41  C   UNL A   1      42.435  20.920  27.692  1.00  0.00     0.014 A 
ATOM     42  C   UNL A   1      43.329  22.487  25.557  1.00  0.00     0.010 A 
ATOM     43  C   UNL A   1      42.732  22.260  27.898  1.00  0.00     0.010 A 
ATOM     44  C   UNL A   1      43.178  23.058  26.832  1.00  0.00    -0.014 A 
BRANCH  44  45
ATOM     45  C   UNL A   1      43.476  24.490  27.077  1.00  0.00     0.031 A 
ATOM     46  C   UNL A   1      44.863  25.013  26.836  1.00  0.00     0.074 A 
ATOM     47  C   UNL A   1      42.527  25.289  27.602  1.00  0.00     0.049 A 
ATOM     48  N   UNL A   1      45.354  26.202  27.079  1.00  0.00    -0.248 NA
ATOM     49  C   UNL A   1      45.842  24.063  26.285  1.00  0.00     0.031 C 
ATOM     50  C   UNL A   1      41.165  24.876  27.947  1.00  0.00     0.029 A 
ATOM     51  N   UNL A   1      42.570  26.615  27.955  1.00  0.00    -0.354 N 
ATOM     52  C   UNL A   1      46.698  26.131  26.741  1.00  0.00     0.074 A 
ATOM     53  C   UNL A   1      46.960  24.773  26.320  1.00  0.00     0.031 C 
ATOM     54  C   UNL A   1      40.498  25.931  28.446  1.00  0.00     0.029 A 
ATOM     55  C   UNL A   1      41.392  27.083  28.486  1.00  0.00     0.049 A 
ATOM     56  H   UNL A   1      43.369  27.177  27.840  1.00  0.00     0.167 HD
ATOM     57  C   UNL A   1      47.624  27.117  26.760  1.00  0.00     0.037 A 
ATOM     58  C   UNL A   1      41.074  28.304  28.955  1.00  0.00     0.037 A 
ATOM     59  C   UNL A   1      47.343  28.480  27.124  1.00  0.00     0.049 A 
ATOM     60  C   UNL A   1      42.111  29.395  28.915  1.00  0.00     0.074 A 
ATOM     61  C   UNL A   1      48.184  29.577  27.075  1.00  0.00     0.029 A 
ATOM     62  N   UNL A   1      46.121  28.931  27.601  1.00  0.00    -0.354 N 
ATOM     63  N   UNL A   1      43.354  29.340  28.504  1.00  0.00    -0.248 NA
ATOM     64  C   UNL A   1      41.697  30.721  29.397  1.00  0.00     0.031 C 
ATOM     65  C   UNL A   1      47.484  30.686  27.560  1.00  0.00     0.029 A 
ATOM     66  C   UNL A   1      46.192  30.288  27.869  1.00  0.00     0.049 A 
ATOM     67  H   UNL A   1      45.322  28.370  27.729  1.00  0.00     0.167 HD
ATOM     68  C   UNL A   1      43.861  30.624  28.649  1.00  0.00     0.074 A 
ATOM     69  C   UNL A   1      42.787  31.440  29.173  1.00  0.00     0.031 C 
ATOM     70  C   UNL A   1      45.106  31.085  28.376  1.00  0.00     0.037 A 
BRANCH  57  71
ATOM     71  C   UNL A   1      49.027  26.764  26.364  1.00  0.00     0.064 A 
ATOM     72  C   UNL A   1      49.945  26.245  27.288  1.00  0.00     0.173 A 
ATOM     73  C   UNL A   1      49.443  26.906  25.032  1.00  0.00     0.173 A 
ATOM     74  F   UNL A   1      49.599  26.103  28.576  1.00  0.00    -0.203 F 
ATOM     75  C   UNL A   1      51.237  25.905  26.899  1.00  0.00     0.198 A 
ATOM     76  C   UNL A   1      50.728  26.538  24.640  1.00  0.00     0.198 A 
ATOM     77  F   UNL A   1      48.602  27.395  24.108  1.00  0.00    -0.203 F 
ATOM     78  F   UNL A   1      52.112  25.453  27.809  1.00  0.00    -0.200 F 
ATOM     79  C   UNL A   1      51.626  26.043  25.575  1.00  0.00     0.200 A 
ATOM     80  F   UNL A   1      51.097  26.663  23.358  1.00  0.00    -0.200 F 
ATOM     81  F   UNL A   1      52.868  25.707  25.200  1.00  0.00    -0.200 F 
ENDBRANCH  57  71
BRANCH  58  82
ATOM     82  C   UNL A   1      39.710  28.574  29.479  1.00  0.00     0.064 A 
ATOM     83  C   UNL A   1      38.701  29.064  28.638  1.00  0.00     0.173 A 
ATOM     84  C   UNL A   1      39.390  28.366  30.828  1.00  0.00     0.173 A 
ATOM     85  F   UNL A   1      38.963  29.298  27.344  1.00  0.00    -0.203 F 
ATOM     86  C   UNL A   1      37.433  29.365  29.133  1.00  0.00     0.198 A 
ATOM     87  C   UNL A   1      38.114  28.640  31.316  1.00  0.00     0.198 A 
ATOM     88  F   UNL A   1      40.318  27.892  31.673  1.00  0.00    -0.203 F 
ATOM     89  F   UNL A   1      36.504  29.882  28.318  1.00  0.00    -0.200 F 
ATOM     90  C   UNL A   1      37.139  29.149  30.471  1.00  0.00     0.200 A 
ATOM     91  F   UNL A   1      37.831  28.419  32.608  1.00  0.00    -0.200 F 
ATOM     92  F   UNL A   1      35.921  29.440  30.947  1.00  0.00    -0.200 F 
ENDBRANCH  58  82
BRANCH  70  93
ATOM     93  C   UNL A   1      45.363  32.544  28.603  1.00  0.00     0.064 A 
ATOM     94  C   UNL A   1      45.091  33.500  27.614  1.00  0.00     0.173 A 
ATOM     95  C   UNL A   1      45.843  32.995  29.843  1.00  0.00     0.173 A 
ATOM     96  F   UNL A   1      44.644  33.116  26.409  1.00  0.00    -0.203 F 
ATOM     97  C   UNL A   1      45.311  34.854  27.851  1.00  0.00     0.198 A 
ATOM     98  C   UNL A   1      46.036  34.351  30.084  1.00  0.00     0.198 A 
ATOM     99  F   UNL A   1      46.113  32.119  30.823  1.00  0.00    -0.203 F 
ATOM    100  F   UNL A   1      45.084  35.748  26.878  1.00  0.00    -0.200 F 
ATOM    101  C   UNL A   1      45.775  35.279  29.087  1.00  0.00     0.200 A 
ATOM    102  F   UNL A   1      46.472  34.761  31.283  1.00  0.00    -0.200 F 
ATOM    103  F   UNL A   1      45.977  36.584  29.316  1.00  0.00    -0.200 F 
ENDBRANCH  70  93
ENDBRANCH  44  45
ENDBRANCH  36  39
ENDBRANCH  34  35
ENDBRANCH  33  34
ENDBRANCH  32  33
ENDBRANCH   1  32
TORSDOF 16
ENDMDL
MODEL 3
REMARK VINA RESULT:     -12.6      1.049      2.024
REMARK SMILES COc1cc(/N=N/c2ccccc2)ccc1NC(=O)[C@H]1CC=CC[C@@H]1C(=O)NCCCCNC(=O)c1ccc(-c2c3nc(c(-c4c(F)c(F)c(F)c(F)c4F)c4ccc([nH]4)c(-c4c(F)c(F)c(F)c(F)c4F)c4nc(c(-c5c(F)c(F)c(F)c(F)c5F)c5ccc2[nH]5)C=C4)C=C3)cc1
REMARK SMILES IDX 29 1 28 2 26 3 27 4 25 6 20 7 21 8 22 9 24 10 23 11 18 12
REMARK SMILES IDX 17 13 19 15 16 16 3 17 4 18 5 19 15 20 14 21 2 22 1 23 6 24
REMARK SMILES IDX 7 25 8 26 9 27 13 28 10 29 12 30 11 31 30 32 31 33 32 34
REMARK SMILES IDX 33 35 34 36 35 38 36 39 37 40 98 41 38 42 97 43 39 44 40 45
REMARK SMILES IDX 41 46 91 47 42 48 96 49 90 50 92 51 43 52 95 53 89 54 88 55
REMARK SMILES IDX 44 57 76 58 56 59 75 60 57 61 60 62 74 63 93 64 58 65 59 66
REMARK SMILES IDX 73 68 94 69 61 70 45 71 46 72 54 73 47 74 48 75 52 76 55 77
REMARK SMILES IDX 49 78 50 79 53 80 51 81 77 82 78 83 86 84 79 85 80 86 84 87
REMARK SMILES IDX 87 88 81 89 82 90 85 91 83 92 62 93 63 94 71 95 64 96 65 97
REMARK SMILES IDX 69 98 72 99 66 100 67 101 70 102 68 103
REMARK H PARENT 28 5 17 14 33 37 92 56 60 67
REMARK Flexibility Score: inf
ROOT
ATOM      1  C   UNL A   1      36.435  22.668  25.628  1.00  0.00     0.116 C 
ENDROOT
BRANCH   1   2
ATOM      2  N   UNL A   1      36.074  23.055  24.282  1.00  0.00    -0.356 N 
ATOM      3  C   UNL A   1      34.925  23.141  23.578  1.00  0.00     0.224 C 
ATOM      4  O   UNL A   1      35.097  23.380  22.373  1.00  0.00    -0.275 OA
ATOM      5  H   UNL A   1      36.857  23.321  23.748  1.00  0.00     0.163 HD
BRANCH   3   6
ATOM      6  C   UNL A   1      33.481  23.032  24.104  1.00  0.00     0.095 C 
ATOM      7  C   UNL A   1      32.878  24.097  25.040  1.00  0.00     0.095 C 
ATOM      8  C   UNL A   1      33.197  23.801  26.530  1.00  0.00     0.041 C 
ATOM      9  C   UNL A   1      33.273  22.349  26.897  1.00  0.00    -0.030 C 
ATOM     10  C   UNL A   1      33.167  21.587  24.532  1.00  0.00     0.041 C 
ATOM     11  C   UNL A   1      33.244  21.355  26.002  1.00  0.00    -0.030 C 
BRANCH   7  12
ATOM     12  C   UNL A   1      31.357  24.273  24.890  1.00  0.00     0.228 C 
ATOM     13  N   UNL A   1      30.688  25.425  25.143  1.00  0.00    -0.323 N 
ATOM     14  H   UNL A   1      29.721  25.332  24.988  1.00  0.00     0.170 HD
ATOM     15  O   UNL A   1      30.638  23.331  24.531  1.00  0.00    -0.274 OA
BRANCH  13  16
ATOM     16  C   UNL A   1      31.033  26.715  25.571  1.00  0.00     0.083 A 
ATOM     17  C   UNL A   1      31.086  27.708  24.577  1.00  0.00     0.144 A 
ATOM     18  C   UNL A   1      31.777  28.899  24.796  1.00  0.00     0.079 A 
ATOM     19  C   UNL A   1      32.334  29.157  26.049  1.00  0.00     0.090 A 
ATOM     20  C   UNL A   1      31.415  27.050  26.864  1.00  0.00     0.032 A 
ATOM     21  C   UNL A   1      32.075  28.262  27.097  1.00  0.00     0.033 A 
BRANCH  17  22
ATOM     22  O   UNL A   1      30.590  27.481  23.314  1.00  0.00    -0.494 OA
ATOM     23  C   UNL A   1      29.521  28.390  23.020  1.00  0.00     0.278 C 
ENDBRANCH  17  22
BRANCH  19  24
ATOM     24  N   UNL A   1      33.134  30.298  26.251  1.00  0.00    -0.150 NA
ATOM     25  N   UNL A   1      32.814  30.839  27.334  1.00  0.00    -0.151 NA
BRANCH  25  26
ATOM     26  C   UNL A   1      33.510  32.033  27.623  1.00  0.00     0.086 A 
ATOM     27  C   UNL A   1      34.904  31.946  27.757  1.00  0.00     0.030 A 
ATOM     28  C   UNL A   1      32.909  33.288  27.791  1.00  0.00     0.030 A 
ATOM     29  C   UNL A   1      35.676  33.074  28.049  1.00  0.00     0.002 A 
ATOM     30  C   UNL A   1      33.678  34.420  28.084  1.00  0.00     0.002 A 
ATOM     31  C   UNL A   1      35.061  34.312  28.213  1.00  0.00     0.000 A 
ENDBRANCH  25  26
ENDBRANCH  19  24
ENDBRANCH  13  16
ENDBRANCH   7  12
ENDBRANCH   3   6
ENDBRANCH   1   2
BRANCH   1  32
ATOM     32  C   UNL A   1      36.657  21.160  25.737  1.00  0.00     0.023 C 
BRANCH  32  33
ATOM     33  C   UNL A   1      37.928  20.649  25.066  1.00  0.00     0.023 C 
BRANCH  33  34
ATOM     34  C   UNL A   1      39.194  20.768  25.906  1.00  0.00     0.116 C 
BRANCH  34  35
ATOM     35  N   UNL A   1      40.022  19.570  25.912  1.00  0.00    -0.352 N 
ATOM     36  C   UNL A   1      41.377  19.477  26.126  1.00  0.00     0.251 C 
ATOM     37  H   UNL A   1      39.553  18.721  25.742  1.00  0.00     0.163 HD
ATOM     38  O   UNL A   1      41.958  18.401  26.035  1.00  0.00    -0.269 OA
BRANCH  36  39
ATOM     39  C   UNL A   1      42.131  20.709  26.420  1.00  0.00     0.039 A 
ATOM     40  C   UNL A   1      42.579  21.497  25.358  1.00  0.00     0.014 A 
ATOM     41  C   UNL A   1      42.306  21.125  27.742  1.00  0.00     0.014 A 
ATOM     42  C   UNL A   1      43.132  22.749  25.622  1.00  0.00     0.010 A 
ATOM     43  C   UNL A   1      42.783  22.404  27.998  1.00  0.00     0.010 A 
ATOM     44  C   UNL A   1      43.197  23.229  26.941  1.00  0.00    -0.014 A 
BRANCH  44  45
ATOM     45  C   UNL A   1      43.689  24.596  27.241  1.00  0.00     0.031 A 
ATOM     46  C   UNL A   1      42.728  25.643  27.728  1.00  0.00     0.074 A 
ATOM     47  C   UNL A   1      44.973  24.915  26.987  1.00  0.00     0.049 A 
ATOM     48  N   UNL A   1      42.933  26.915  27.953  1.00  0.00    -0.248 NA
ATOM     49  C   UNL A   1      41.339  25.212  27.955  1.00  0.00     0.031 C 
ATOM     50  C   UNL A   1      45.982  24.002  26.444  1.00  0.00     0.029 A 
ATOM     51  N   UNL A   1      45.645  26.102  27.133  1.00  0.00    -0.354 N 
ATOM     52  C   UNL A   1      41.700  27.438  28.315  1.00  0.00     0.074 A 
ATOM     53  C   UNL A   1      40.741  26.359  28.236  1.00  0.00     0.031 C 
ATOM     54  C   UNL A   1      47.147  24.659  26.320  1.00  0.00     0.029 A 
ATOM     55  C   UNL A   1      46.961  26.043  26.743  1.00  0.00     0.049 A 
ATOM     56  H   UNL A   1      45.225  26.919  27.485  1.00  0.00     0.167 HD
ATOM     57  C   UNL A   1      41.400  28.700  28.700  1.00  0.00     0.037 A 
ATOM     58  C   UNL A   1      47.907  27.001  26.725  1.00  0.00     0.037 A 
ATOM     59  C   UNL A   1      42.370  29.753  28.833  1.00  0.00     0.049 A 
ATOM     60  C   UNL A   1      47.557  28.383  27.209  1.00  0.00     0.074 A 
ATOM     61  C   UNL A   1      42.188  31.037  29.317  1.00  0.00     0.029 A 
ATOM     62  N   UNL A   1      43.708  29.641  28.484  1.00  0.00    -0.354 N 
ATOM     63  N   UNL A   1      46.407  28.842  27.640  1.00  0.00    -0.248 NA
ATOM     64  C   UNL A   1      48.638  29.379  27.211  1.00  0.00     0.031 C 
ATOM     65  C   UNL A   1      43.408  31.714  29.224  1.00  0.00     0.029 A 
ATOM     66  C   UNL A   1      44.359  30.839  28.724  1.00  0.00     0.049 A 
ATOM     67  H   UNL A   1      44.131  28.829  28.121  1.00  0.00     0.167 HD
ATOM     68  C   UNL A   1      46.632  30.165  27.991  1.00  0.00     0.074 A 
ATOM     69  C   UNL A   1      48.031  30.433  27.736  1.00  0.00     0.031 C 
ATOM     70  C   UNL A   1      45.757  31.079  28.478  1.00  0.00     0.037 A 
BRANCH  57  71
ATOM     71  C   UNL A   1      39.968  29.011  29.019  1.00  0.00     0.064 A 
ATOM     72  C   UNL A   1      39.032  29.287  28.012  1.00  0.00     0.173 A 
ATOM     73  C   UNL A   1      39.517  28.988  30.348  1.00  0.00     0.173 A 
ATOM     74  F   UNL A   1      39.416  29.333  26.727  1.00  0.00    -0.203 F 
ATOM     75  C   UNL A   1      37.703  29.554  28.324  1.00  0.00     0.198 A 
ATOM     76  C   UNL A   1      38.180  29.228  30.654  1.00  0.00     0.198 A 
ATOM     77  F   UNL A   1      40.372  28.725  31.348  1.00  0.00    -0.203 F 
ATOM     78  F   UNL A   1      36.835  29.859  27.349  1.00  0.00    -0.200 F 
ATOM     79  C   UNL A   1      37.275  29.516  29.643  1.00  0.00     0.200 A 
ATOM     80  F   UNL A   1      37.768  29.180  31.928  1.00  0.00    -0.200 F 
ATOM     81  F   UNL A   1      35.992  29.765  29.941  1.00  0.00    -0.200 F 
ENDBRANCH  57  71
BRANCH  58  82
ATOM     82  C   UNL A   1      49.283  26.687  26.259  1.00  0.00     0.064 A 
ATOM     83  C   UNL A   1      50.258  26.227  27.157  1.00  0.00     0.173 A 
ATOM     84  C   UNL A   1      49.658  26.855  24.919  1.00  0.00     0.173 A 
ATOM     85  F   UNL A   1      49.953  26.069  28.452  1.00  0.00    -0.203 F 
ATOM     86  C   UNL A   1      51.563  25.977  26.736  1.00  0.00     0.198 A 
ATOM     87  C   UNL A   1      50.955  26.578  24.494  1.00  0.00     0.198 A 
ATOM     88  F   UNL A   1      48.761  27.287  24.020  1.00  0.00    -0.203 F 
ATOM     89  F   UNL A   1      52.488  25.589  27.625  1.00  0.00    -0.200 F 
ATOM     90  C   UNL A   1      51.910  26.148  25.404  1.00  0.00     0.200 A 
ATOM     91  F   UNL A   1      51.284  26.734  23.204  1.00  0.00    -0.200 F 
ATOM     92  F   UNL A   1      53.165  25.910  25.000  1.00  0.00    -0.200 F 
ENDBRANCH  58  82
BRANCH  70  93
ATOM     93  C   UNL A   1      46.295  32.440  28.802  1.00  0.00     0.064 A 
ATOM     94  C   UNL A   1      46.846  32.732  30.058  1.00  0.00     0.173 A 
ATOM     95  C   UNL A   1      46.302  33.450  27.827  1.00  0.00     0.173 A 
ATOM     96  F   UNL A   1      46.848  31.803  31.025  1.00  0.00    -0.203 F 
ATOM     97  C   UNL A   1      47.365  33.994  30.334  1.00  0.00     0.198 A 
ATOM     98  C   UNL A   1      46.847  34.701  28.098  1.00  0.00     0.198 A 
ATOM     99  F   UNL A   1      45.792  33.217  26.608  1.00  0.00    -0.203 F 
ATOM    100  F   UNL A   1      47.849  34.265  31.554  1.00  0.00    -0.200 F 
ATOM    101  C   UNL A   1      47.372  34.974  29.352  1.00  0.00     0.200 A 
ATOM    102  F   UNL A   1      46.865  35.643  27.145  1.00  0.00    -0.200 F 
ATOM    103  F   UNL A   1      47.881  36.185  29.617  1.00  0.00    -0.200 F 
ENDBRANCH  70  93
ENDBRANCH  44  45
ENDBRANCH  36  39
ENDBRANCH  34  35
ENDBRANCH  33  34
ENDBRANCH  32  33
ENDBRANCH   1  32
TORSDOF 16
ENDMDL
