MODEL 1
REMARK VINA RESULT:     -12.6      0.000      0.000
REMARK SMILES CC1=CC2=[NH+]C(=O)[C@@](C)(CC(=O)NCCCCNC(=O)c3ccc(-c4c5nc(c(-c6c(F)c(F)c(F)c(F)c6F)c6ccc([nH]6)c(-c6c(F)c(F)c(F)c(F)c6F)c6nc(c(-c7c(F)c(F)c(F)c(F)c7F)c7ccc4[nH]7)C=C6)C=C5)cc3)N2C=C1
REMARK SMILES IDX 16 1 15 2 14 3 13 4 11 5 12 6 10 8 8 9 1 10 2 11 3 12 86 13
REMARK SMILES IDX 4 14 85 15 5 16 84 17 6 18 7 20 9 21 17 22 18 23 19 24 20 26
REMARK SMILES IDX 21 27 22 28 83 29 23 30 82 31 24 32 25 33 26 34 76 35 27 36
REMARK SMILES IDX 81 37 75 38 77 39 28 40 80 41 74 42 73 43 29 45 61 46 41 47
REMARK SMILES IDX 60 48 42 49 45 50 59 51 78 52 43 53 44 54 58 56 79 57 46 58
REMARK SMILES IDX 30 59 31 60 39 61 32 62 33 63 37 64 40 65 34 66 35 67 38 68
REMARK SMILES IDX 36 69 62 70 63 71 71 72 64 73 65 74 69 75 72 76 66 77 67 78
REMARK SMILES IDX 70 79 68 80 47 81 48 82 56 83 49 84 50 85 54 86 57 87 51 88
REMARK SMILES IDX 52 89 55 90 53 91
REMARK H PARENT 13 7 5 19 18 25 77 44 45 55
REMARK Flexibility Score: inf
ROOT
ATOM      1  C   UNL A   1      31.443  32.168  26.552  1.00  0.00     0.023 C 
ENDROOT
BRANCH   1   2
ATOM      2  C   UNL A   1      31.641  30.692  26.197  1.00  0.00     0.023 C 
BRANCH   2   3
ATOM      3  C   UNL A   1      33.042  30.157  26.462  1.00  0.00     0.116 C 
BRANCH   3   4
ATOM      4  N   UNL A   1      33.664  29.662  25.251  1.00  0.00    -0.356 N 
ATOM      5  C   UNL A   1      33.716  28.396  24.764  1.00  0.00     0.225 C 
ATOM      6  O   UNL A   1      34.275  28.211  23.681  1.00  0.00    -0.275 OA
ATOM      7  H   UNL A   1      34.114  30.343  24.701  1.00  0.00     0.163 HD
BRANCH   5   8
ATOM      8  C   UNL A   1      33.063  27.269  25.508  1.00  0.00     0.166 C 
BRANCH   8   9
ATOM      9  C   UNL A   1      31.992  26.422  24.825  1.00  0.00     0.217 C 
ATOM     10  C   UNL A   1      32.029  21.342  22.204  1.00  0.00     0.045 C 
ATOM     11  C   UNL A   1      32.010  22.577  23.051  1.00  0.00    -0.039 C 
ATOM     12  C   UNL A   1      30.871  23.178  23.456  1.00  0.00     0.102 C 
ATOM     13  C   UNL A   1      33.310  23.133  23.430  1.00  0.00     0.047 C 
ATOM     14  C   UNL A   1      31.072  24.395  24.281  1.00  0.00     0.283 C 
ATOM     15  C   UNL A   1      33.396  24.388  23.908  1.00  0.00     0.202 C 
ATOM     16  N   UNL A   1      30.225  24.832  25.172  1.00  0.00    -0.206 N 
ATOM     17  N   UNL A   1      32.261  25.121  24.190  1.00  0.00    -0.217 N 
ATOM     18  C   UNL A   1      30.878  25.903  25.782  1.00  0.00     0.356 C 
ATOM     19  H   UNL A   1      29.325  24.484  25.370  1.00  0.00     0.315 HD
ATOM     20  O   UNL A   1      30.640  26.338  26.898  1.00  0.00    -0.242 OA
ATOM     21  C   UNL A   1      31.193  27.350  23.863  1.00  0.00     0.076 C 
ENDBRANCH   8   9
ENDBRANCH   5   8
ENDBRANCH   3   4
ENDBRANCH   2   3
ENDBRANCH   1   2
BRANCH   1  22
ATOM     22  C   UNL A   1      32.605  32.831  27.286  1.00  0.00     0.116 C 
BRANCH  22  23
ATOM     23  N   UNL A   1      32.332  34.208  27.657  1.00  0.00    -0.352 N 
ATOM     24  C   UNL A   1      32.955  34.994  28.595  1.00  0.00     0.251 C 
ATOM     25  H   UNL A   1      31.596  34.641  27.166  1.00  0.00     0.163 HD
ATOM     26  O   UNL A   1      32.514  36.106  28.864  1.00  0.00    -0.269 OA
BRANCH  24  27
ATOM     27  C   UNL A   1      34.146  34.485  29.307  1.00  0.00     0.039 A 
ATOM     28  C   UNL A   1      33.973  33.862  30.546  1.00  0.00     0.014 A 
ATOM     29  C   UNL A   1      35.424  34.622  28.758  1.00  0.00     0.014 A 
ATOM     30  C   UNL A   1      35.077  33.321  31.209  1.00  0.00     0.010 A 
ATOM     31  C   UNL A   1      36.513  34.029  29.390  1.00  0.00     0.010 A 
ATOM     32  C   UNL A   1      36.349  33.375  30.622  1.00  0.00    -0.014 A 
BRANCH  32  33
ATOM     33  C   UNL A   1      37.533  32.766  31.276  1.00  0.00     0.031 A 
ATOM     34  C   UNL A   1      38.253  31.631  30.606  1.00  0.00     0.074 A 
ATOM     35  C   UNL A   1      37.899  33.167  32.507  1.00  0.00     0.049 A 
ATOM     36  N   UNL A   1      39.214  30.871  31.066  1.00  0.00    -0.248 NA
ATOM     37  C   UNL A   1      37.811  31.286  29.246  1.00  0.00     0.031 C 
ATOM     38  C   UNL A   1      37.256  34.233  33.276  1.00  0.00     0.029 A 
ATOM     39  N   UNL A   1      38.891  32.708  33.339  1.00  0.00    -0.354 N 
ATOM     40  C   UNL A   1      39.468  29.940  30.068  1.00  0.00     0.074 A 
ATOM     41  C   UNL A   1      38.538  30.207  28.993  1.00  0.00     0.031 C 
ATOM     42  C   UNL A   1      37.870  34.350  34.464  1.00  0.00     0.029 A 
ATOM     43  C   UNL A   1      38.923  33.343  34.556  1.00  0.00     0.049 A 
ATOM     44  H   UNL A   1      39.517  31.992  33.087  1.00  0.00     0.167 HD
ATOM     45  C   UNL A   1      40.405  28.962  30.045  1.00  0.00     0.037 A 
ATOM     46  C   UNL A   1      39.705  33.125  35.631  1.00  0.00     0.037 A 
ATOM     47  C   UNL A   1      41.353  28.726  31.101  1.00  0.00     0.049 A 
ATOM     48  C   UNL A   1      40.747  32.042  35.578  1.00  0.00     0.074 A 
ATOM     49  C   UNL A   1      42.387  27.807  31.143  1.00  0.00     0.029 A 
ATOM     50  N   UNL A   1      41.383  29.417  32.303  1.00  0.00    -0.354 N 
ATOM     51  N   UNL A   1      41.017  31.204  34.607  1.00  0.00    -0.248 NA
ATOM     52  C   UNL A   1      41.595  31.878  36.766  1.00  0.00     0.031 C 
ATOM     53  C   UNL A   1      43.018  27.917  32.387  1.00  0.00     0.029 A 
ATOM     54  C   UNL A   1      42.406  28.934  33.102  1.00  0.00     0.049 A 
ATOM     55  H   UNL A   1      40.767  30.146  32.551  1.00  0.00     0.167 HD
ATOM     56  C   UNL A   1      42.082  30.433  35.053  1.00  0.00     0.074 A 
ATOM     57  C   UNL A   1      42.412  30.906  36.382  1.00  0.00     0.031 C 
ATOM     58  C   UNL A   1      42.729  29.427  34.416  1.00  0.00     0.037 A 
BRANCH  45  59
ATOM     59  C   UNL A   1      40.444  28.071  28.839  1.00  0.00     0.064 A 
ATOM     60  C   UNL A   1      39.734  26.861  28.792  1.00  0.00     0.173 A 
ATOM     61  C   UNL A   1      41.186  28.439  27.706  1.00  0.00     0.173 A 
ATOM     62  F   UNL A   1      39.019  26.458  29.853  1.00  0.00    -0.203 F 
ATOM     63  C   UNL A   1      39.794  26.038  27.671  1.00  0.00     0.198 A 
ATOM     64  C   UNL A   1      41.220  27.628  26.576  1.00  0.00     0.198 A 
ATOM     65  F   UNL A   1      41.879  29.589  27.695  1.00  0.00    -0.203 F 
ATOM     66  F   UNL A   1      39.153  24.861  27.671  1.00  0.00    -0.200 F 
ATOM     67  C   UNL A   1      40.532  26.424  26.563  1.00  0.00     0.200 A 
ATOM     68  F   UNL A   1      41.924  28.007  25.501  1.00  0.00    -0.200 F 
ATOM     69  F   UNL A   1      40.589  25.630  25.484  1.00  0.00    -0.200 F 
ENDBRANCH  45  59
BRANCH  46  70
ATOM     70  C   UNL A   1      39.541  33.971  36.840  1.00  0.00     0.064 A 
ATOM     71  C   UNL A   1      38.766  33.532  37.922  1.00  0.00     0.173 A 
ATOM     72  C   UNL A   1      40.170  35.220  36.950  1.00  0.00     0.173 A 
ATOM     73  F   UNL A   1      38.130  32.354  37.854  1.00  0.00    -0.203 F 
ATOM     74  C   UNL A   1      38.617  34.315  39.064  1.00  0.00     0.198 A 
ATOM     75  C   UNL A   1      40.040  35.991  38.103  1.00  0.00     0.198 A 
ATOM     76  F   UNL A   1      40.928  35.681  35.944  1.00  0.00    -0.203 F 
ATOM     77  F   UNL A   1      37.845  33.887  40.072  1.00  0.00    -0.200 F 
ATOM     78  C   UNL A   1      39.260  35.541  39.157  1.00  0.00     0.200 A 
ATOM     79  F   UNL A   1      40.674  37.168  38.195  1.00  0.00    -0.200 F 
ATOM     80  F   UNL A   1      39.125  36.288  40.260  1.00  0.00    -0.200 F 
ENDBRANCH  46  70
BRANCH  58  81
ATOM     81  C   UNL A   1      43.887  28.791  35.127  1.00  0.00     0.064 A 
ATOM     82  C   UNL A   1      43.720  27.665  35.944  1.00  0.00     0.173 A 
ATOM     83  C   UNL A   1      45.188  29.280  34.934  1.00  0.00     0.173 A 
ATOM     84  F   UNL A   1      42.493  27.170  36.171  1.00  0.00    -0.203 F 
ATOM     85  C   UNL A   1      44.814  27.057  36.555  1.00  0.00     0.198 A 
ATOM     86  C   UNL A   1      46.281  28.655  35.525  1.00  0.00     0.198 A 
ATOM     87  F   UNL A   1      45.399  30.352  34.156  1.00  0.00    -0.203 F 
ATOM     88  F   UNL A   1      44.629  26.002  37.358  1.00  0.00    -0.200 F 
ATOM     89  C   UNL A   1      46.094  27.548  36.338  1.00  0.00     0.200 A 
ATOM     90  F   UNL A   1      47.519  29.122  35.305  1.00  0.00    -0.200 F 
ATOM     91  F   UNL A   1      47.147  26.953  36.915  1.00  0.00    -0.200 F 
ENDBRANCH  58  81
ENDBRANCH  32  33
ENDBRANCH  24  27
ENDBRANCH  22  23
ENDBRANCH   1  22
TORSDOF 12
ENDMDL
MODEL 2
REMARK VINA RESULT:     -12.6      0.086      1.622
REMARK SMILES CC1=CC2=[NH+]C(=O)[C@@](C)(CC(=O)NCCCCNC(=O)c3ccc(-c4c5nc(c(-c6c(F)c(F)c(F)c(F)c6F)c6ccc([nH]6)c(-c6c(F)c(F)c(F)c(F)c6F)c6nc(c(-c7c(F)c(F)c(F)c(F)c7F)c7ccc4[nH]7)C=C6)C=C5)cc3)N2C=C1
REMARK SMILES IDX 16 1 15 2 14 3 13 4 11 5 12 6 10 8 8 9 1 10 2 11 3 12 86 13
REMARK SMILES IDX 4 14 85 15 5 16 84 17 6 18 7 20 9 21 17 22 18 23 19 24 20 26
REMARK SMILES IDX 21 27 22 28 83 29 23 30 82 31 24 32 25 33 26 34 76 35 27 36
REMARK SMILES IDX 81 37 75 38 77 39 28 40 80 41 74 42 73 43 29 45 61 46 41 47
REMARK SMILES IDX 60 48 42 49 45 50 59 51 78 52 43 53 44 54 58 56 79 57 46 58
REMARK SMILES IDX 30 59 31 60 39 61 32 62 33 63 37 64 40 65 34 66 35 67 38 68
REMARK SMILES IDX 36 69 62 70 63 71 71 72 64 73 65 74 69 75 72 76 66 77 67 78
REMARK SMILES IDX 70 79 68 80 47 81 48 82 56 83 49 84 50 85 54 86 57 87 51 88
REMARK SMILES IDX 52 89 55 90 53 91
REMARK H PARENT 13 7 5 19 18 25 77 44 45 55
REMARK Flexibility Score: inf
ROOT
ATOM      1  C   UNL A   1      31.409  32.061  26.848  1.00  0.00     0.023 C 
ENDROOT
BRANCH   1   2
ATOM      2  C   UNL A   1      31.656  30.662  26.278  1.00  0.00     0.023 C 
BRANCH   2   3
ATOM      3  C   UNL A   1      33.052  30.108  26.537  1.00  0.00     0.116 C 
BRANCH   3   4
ATOM      4  N   UNL A   1      33.679  29.646  25.315  1.00  0.00    -0.356 N 
ATOM      5  C   UNL A   1      33.745  28.391  24.802  1.00  0.00     0.225 C 
ATOM      6  O   UNL A   1      34.306  28.236  23.715  1.00  0.00    -0.275 OA
ATOM      7  H   UNL A   1      34.120  30.343  24.780  1.00  0.00     0.163 HD
BRANCH   5   8
ATOM      8  C   UNL A   1      33.106  27.241  25.521  1.00  0.00     0.166 C 
BRANCH   8   9
ATOM      9  C   UNL A   1      32.030  26.410  24.828  1.00  0.00     0.217 C 
ATOM     10  C   UNL A   1      32.017  21.319  22.227  1.00  0.00     0.045 C 
ATOM     11  C   UNL A   1      32.006  22.558  23.069  1.00  0.00    -0.039 C 
ATOM     12  C   UNL A   1      30.873  23.179  23.457  1.00  0.00     0.102 C 
ATOM     13  C   UNL A   1      33.311  23.094  23.463  1.00  0.00     0.047 C 
ATOM     14  C   UNL A   1      31.084  24.395  24.280  1.00  0.00     0.283 C 
ATOM     15  C   UNL A   1      33.412  24.349  23.937  1.00  0.00     0.202 C 
ATOM     16  N   UNL A   1      30.232  24.850  25.159  1.00  0.00    -0.206 N 
ATOM     17  N   UNL A   1      32.285  25.101  24.202  1.00  0.00    -0.217 N 
ATOM     18  C   UNL A   1      30.896  25.913  25.773  1.00  0.00     0.356 C 
ATOM     19  H   UNL A   1      29.325  24.518  25.346  1.00  0.00     0.315 HD
ATOM     20  O   UNL A   1      30.650  26.356  26.884  1.00  0.00    -0.242 OA
ATOM     21  C   UNL A   1      31.258  27.346  23.852  1.00  0.00     0.076 C 
ENDBRANCH   8   9
ENDBRANCH   5   8
ENDBRANCH   3   4
ENDBRANCH   2   3
ENDBRANCH   1   2
BRANCH   1  22
ATOM     22  C   UNL A   1      32.660  32.853  27.218  1.00  0.00     0.116 C 
BRANCH  22  23
ATOM     23  N   UNL A   1      32.371  34.219  27.618  1.00  0.00    -0.352 N 
ATOM     24  C   UNL A   1      32.978  34.988  28.580  1.00  0.00     0.251 C 
ATOM     25  H   UNL A   1      31.636  34.657  27.130  1.00  0.00     0.163 HD
ATOM     26  O   UNL A   1      32.525  36.090  28.870  1.00  0.00    -0.269 OA
BRANCH  24  27
ATOM     27  C   UNL A   1      34.166  34.473  29.291  1.00  0.00     0.039 A 
ATOM     28  C   UNL A   1      33.987  33.821  30.515  1.00  0.00     0.014 A 
ATOM     29  C   UNL A   1      35.448  34.632  28.758  1.00  0.00     0.014 A 
ATOM     30  C   UNL A   1      35.089  33.274  31.176  1.00  0.00     0.010 A 
ATOM     31  C   UNL A   1      36.536  34.035  29.387  1.00  0.00     0.010 A 
ATOM     32  C   UNL A   1      36.367  33.352  30.603  1.00  0.00    -0.014 A 
BRANCH  32  33
ATOM     33  C   UNL A   1      37.549  32.738  31.254  1.00  0.00     0.031 A 
ATOM     34  C   UNL A   1      38.267  31.604  30.580  1.00  0.00     0.074 A 
ATOM     35  C   UNL A   1      37.917  33.133  32.487  1.00  0.00     0.049 A 
ATOM     36  N   UNL A   1      39.227  30.840  31.037  1.00  0.00    -0.248 NA
ATOM     37  C   UNL A   1      37.825  31.265  29.219  1.00  0.00     0.031 C 
ATOM     38  C   UNL A   1      37.276  34.198  33.259  1.00  0.00     0.029 A 
ATOM     39  N   UNL A   1      38.907  32.669  33.317  1.00  0.00    -0.354 N 
ATOM     40  C   UNL A   1      39.479  29.913  30.035  1.00  0.00     0.074 A 
ATOM     41  C   UNL A   1      38.549  30.186  28.961  1.00  0.00     0.031 C 
ATOM     42  C   UNL A   1      37.890  34.309  34.448  1.00  0.00     0.029 A 
ATOM     43  C   UNL A   1      38.941  33.299  34.536  1.00  0.00     0.049 A 
ATOM     44  H   UNL A   1      39.532  31.953  33.062  1.00  0.00     0.167 HD
ATOM     45  C   UNL A   1      40.414  28.934  30.008  1.00  0.00     0.037 A 
ATOM     46  C   UNL A   1      39.723  33.076  35.611  1.00  0.00     0.037 A 
ATOM     47  C   UNL A   1      41.362  28.691  31.063  1.00  0.00     0.049 A 
ATOM     48  C   UNL A   1      40.762  31.991  35.553  1.00  0.00     0.074 A 
ATOM     49  C   UNL A   1      42.394  27.770  31.102  1.00  0.00     0.029 A 
ATOM     50  N   UNL A   1      41.392  29.378  32.268  1.00  0.00    -0.354 N 
ATOM     51  N   UNL A   1      41.031  31.157  34.579  1.00  0.00    -0.248 NA
ATOM     52  C   UNL A   1      41.610  31.820  36.741  1.00  0.00     0.031 C 
ATOM     53  C   UNL A   1      43.024  27.874  32.347  1.00  0.00     0.029 A 
ATOM     54  C   UNL A   1      42.415  28.890  33.065  1.00  0.00     0.049 A 
ATOM     55  H   UNL A   1      40.778  30.106  32.519  1.00  0.00     0.167 HD
ATOM     56  C   UNL A   1      42.094  30.382  35.022  1.00  0.00     0.074 A 
ATOM     57  C   UNL A   1      42.425  30.849  36.352  1.00  0.00     0.031 C 
ATOM     58  C   UNL A   1      42.739  29.376  34.381  1.00  0.00     0.037 A 
BRANCH  45  59
ATOM     59  C   UNL A   1      40.451  28.046  28.798  1.00  0.00     0.064 A 
ATOM     60  C   UNL A   1      39.738  26.839  28.748  1.00  0.00     0.173 A 
ATOM     61  C   UNL A   1      41.194  28.417  27.668  1.00  0.00     0.173 A 
ATOM     62  F   UNL A   1      39.022  26.433  29.806  1.00  0.00    -0.203 F 
ATOM     63  C   UNL A   1      39.797  26.020  27.623  1.00  0.00     0.198 A 
ATOM     64  C   UNL A   1      41.226  27.610  26.534  1.00  0.00     0.198 A 
ATOM     65  F   UNL A   1      41.889  29.565  27.661  1.00  0.00    -0.203 F 
ATOM     66  F   UNL A   1      39.152  24.845  27.618  1.00  0.00    -0.200 F 
ATOM     67  C   UNL A   1      40.536  26.408  26.516  1.00  0.00     0.200 A 
ATOM     68  F   UNL A   1      41.932  27.992  25.461  1.00  0.00    -0.200 F 
ATOM     69  F   UNL A   1      40.590  25.619  25.435  1.00  0.00    -0.200 F 
ENDBRANCH  45  59
BRANCH  46  70
ATOM     70  C   UNL A   1      39.560  33.917  36.823  1.00  0.00     0.064 A 
ATOM     71  C   UNL A   1      40.183  35.169  36.917  1.00  0.00     0.173 A 
ATOM     72  C   UNL A   1      38.764  33.500  37.900  1.00  0.00     0.173 A 
ATOM     73  F   UNL A   1      40.969  35.600  35.921  1.00  0.00    -0.203 F 
ATOM     74  C   UNL A   1      40.025  35.968  38.047  1.00  0.00     0.198 A 
ATOM     75  C   UNL A   1      38.587  34.311  39.019  1.00  0.00     0.198 A 
ATOM     76  F   UNL A   1      38.142  32.313  37.855  1.00  0.00    -0.203 F 
ATOM     77  F   UNL A   1      40.657  37.147  38.125  1.00  0.00    -0.200 F 
ATOM     78  C   UNL A   1      39.221  35.542  39.094  1.00  0.00     0.200 A 
ATOM     79  F   UNL A   1      37.798  33.903  40.023  1.00  0.00    -0.200 F 
ATOM     80  F   UNL A   1      39.061  36.316  40.175  1.00  0.00    -0.200 F 
ENDBRANCH  46  70
BRANCH  58  81
ATOM     81  C   UNL A   1      43.895  28.736  35.089  1.00  0.00     0.064 A 
ATOM     82  C   UNL A   1      45.198  29.241  34.978  1.00  0.00     0.173 A 
ATOM     83  C   UNL A   1      43.683  27.640  35.940  1.00  0.00     0.173 A 
ATOM     84  F   UNL A   1      45.454  30.277  34.165  1.00  0.00    -0.203 F 
ATOM     85  C   UNL A   1      46.250  28.664  35.684  1.00  0.00     0.198 A 
ATOM     86  C   UNL A   1      44.732  27.082  36.663  1.00  0.00     0.198 A 
ATOM     87  F   UNL A   1      42.453  27.125  36.083  1.00  0.00    -0.203 F 
ATOM     88  F   UNL A   1      47.493  29.142  35.539  1.00  0.00    -0.200 F 
ATOM     89  C   UNL A   1      46.015  27.591  36.533  1.00  0.00     0.200 A 
ATOM     90  F   UNL A   1      44.502  26.053  37.492  1.00  0.00    -0.200 F 
ATOM     91  F   UNL A   1      47.027  27.046  37.221  1.00  0.00    -0.200 F 
ENDBRANCH  58  81
ENDBRANCH  32  33
ENDBRANCH  24  27
ENDBRANCH  22  23
ENDBRANCH   1  22
TORSDOF 12
ENDMDL
MODEL 3
REMARK VINA RESULT:     -12.5      3.883      8.087
REMARK SMILES CC1=CC2=[NH+]C(=O)[C@@](C)(CC(=O)NCCCCNC(=O)c3ccc(-c4c5nc(c(-c6c(F)c(F)c(F)c(F)c6F)c6ccc([nH]6)c(-c6c(F)c(F)c(F)c(F)c6F)c6nc(c(-c7c(F)c(F)c(F)c(F)c7F)c7ccc4[nH]7)C=C6)C=C5)cc3)N2C=C1
REMARK SMILES IDX 16 1 15 2 14 3 13 4 11 5 12 6 10 8 8 9 1 10 2 11 3 12 86 13
REMARK SMILES IDX 4 14 85 15 5 16 84 17 6 18 7 20 9 21 17 22 18 23 19 24 20 26
REMARK SMILES IDX 21 27 22 28 83 29 23 30 82 31 24 32 25 33 26 34 76 35 27 36
REMARK SMILES IDX 81 37 75 38 77 39 28 40 80 41 74 42 73 43 29 45 61 46 41 47
REMARK SMILES IDX 60 48 42 49 45 50 59 51 78 52 43 53 44 54 58 56 79 57 46 58
REMARK SMILES IDX 30 59 31 60 39 61 32 62 33 63 37 64 40 65 34 66 35 67 38 68
REMARK SMILES IDX 36 69 62 70 63 71 71 72 64 73 65 74 69 75 72 76 66 77 67 78
REMARK SMILES IDX 70 79 68 80 47 81 48 82 56 83 49 84 50 85 54 86 57 87 51 88
REMARK SMILES IDX 52 89 55 90 53 91
REMARK H PARENT 13 7 5 19 18 25 77 44 45 55
REMARK Flexibility Score: inf
ROOT
ATOM      1  C   UNL A   1      36.462  23.314  23.671  1.00  0.00     0.023 C 
ENDROOT
BRANCH   1   2
ATOM      2  C   UNL A   1      34.967  22.987  23.672  1.00  0.00     0.023 C 
BRANCH   2   3
ATOM      3  C   UNL A   1      34.056  24.177  23.947  1.00  0.00     0.116 C 
BRANCH   3   4
ATOM      4  N   UNL A   1      34.103  25.147  22.872  1.00  0.00    -0.356 N 
ATOM      5  C   UNL A   1      33.129  25.973  22.414  1.00  0.00     0.225 C 
ATOM      6  O   UNL A   1      33.408  26.753  21.501  1.00  0.00    -0.275 OA
ATOM      7  H   UNL A   1      34.968  25.219  22.409  1.00  0.00     0.163 HD
BRANCH   5   8
ATOM      8  C   UNL A   1      31.766  25.963  23.042  1.00  0.00     0.166 C 
BRANCH   8   9
ATOM      9  C   UNL A   1      31.317  27.136  23.909  1.00  0.00     0.217 C 
ATOM     10  C   UNL A   1      34.007  30.653  27.525  1.00  0.00     0.045 C 
ATOM     11  C   UNL A   1      33.366  29.842  26.440  1.00  0.00    -0.039 C 
ATOM     12  C   UNL A   1      32.139  30.108  25.945  1.00  0.00     0.102 C 
ATOM     13  C   UNL A   1      34.138  28.708  25.926  1.00  0.00     0.047 C 
ATOM     14  C   UNL A   1      31.686  29.178  24.882  1.00  0.00     0.283 C 
ATOM     15  C   UNL A   1      33.532  27.753  25.196  1.00  0.00     0.202 C 
ATOM     16  N   UNL A   1      30.840  29.490  23.938  1.00  0.00    -0.206 N 
ATOM     17  N   UNL A   1      32.220  27.892  24.793  1.00  0.00    -0.217 N 
ATOM     18  C   UNL A   1      30.814  28.372  23.104  1.00  0.00     0.356 C 
ATOM     19  H   UNL A   1      30.333  30.328  23.836  1.00  0.00     0.315 HD
ATOM     20  O   UNL A   1      30.486  28.370  21.929  1.00  0.00    -0.242 OA
ATOM     21  C   UNL A   1      30.034  26.698  24.675  1.00  0.00     0.076 C 
ENDBRANCH   8   9
ENDBRANCH   5   8
ENDBRANCH   3   4
ENDBRANCH   2   3
ENDBRANCH   1   2
BRANCH   1  22
ATOM     22  C   UNL A   1      37.063  23.658  25.031  1.00  0.00     0.116 C 
BRANCH  22  23
ATOM     23  N   UNL A   1      38.005  22.660  25.505  1.00  0.00    -0.352 N 
ATOM     24  C   UNL A   1      39.134  22.827  26.269  1.00  0.00     0.251 C 
ATOM     25  H   UNL A   1      37.807  21.732  25.243  1.00  0.00     0.163 HD
ATOM     26  O   UNL A   1      39.885  21.881  26.480  1.00  0.00    -0.269 OA
BRANCH  24  27
ATOM     27  C   UNL A   1      39.462  24.160  26.816  1.00  0.00     0.039 A 
ATOM     28  C   UNL A   1      39.102  24.452  28.134  1.00  0.00     0.014 A 
ATOM     29  C   UNL A   1      40.118  25.115  26.035  1.00  0.00     0.014 A 
ATOM     30  C   UNL A   1      39.453  25.684  28.692  1.00  0.00     0.010 A 
ATOM     31  C   UNL A   1      40.520  26.317  26.610  1.00  0.00     0.010 A 
ATOM     32  C   UNL A   1      40.191  26.613  27.943  1.00  0.00    -0.014 A 
BRANCH  32  33
ATOM     33  C   UNL A   1      40.623  27.908  28.521  1.00  0.00     0.031 A 
ATOM     34  C   UNL A   1      42.046  28.087  28.968  1.00  0.00     0.074 A 
ATOM     35  C   UNL A   1      39.720  28.884  28.730  1.00  0.00     0.049 A 
ATOM     36  N   UNL A   1      42.591  29.080  29.623  1.00  0.00    -0.248 NA
ATOM     37  C   UNL A   1      42.972  26.986  28.664  1.00  0.00     0.031 C 
ATOM     38  C   UNL A   1      38.303  28.815  28.373  1.00  0.00     0.029 A 
ATOM     39  N   UNL A   1      39.857  30.118  29.317  1.00  0.00    -0.354 N 
ATOM     40  C   UNL A   1      43.912  28.710  29.836  1.00  0.00     0.074 A 
ATOM     41  C   UNL A   1      44.077  27.387  29.274  1.00  0.00     0.031 C 
ATOM     42  C   UNL A   1      37.701  29.958  28.744  1.00  0.00     0.029 A 
ATOM     43  C   UNL A   1      38.680  30.821  29.398  1.00  0.00     0.049 A 
ATOM     44  H   UNL A   1      40.716  30.465  29.647  1.00  0.00     0.167 HD
ATOM     45  C   UNL A   1      44.901  29.417  30.432  1.00  0.00     0.037 A 
ATOM     46  C   UNL A   1      38.418  32.021  29.952  1.00  0.00     0.037 A 
ATOM     47  C   UNL A   1      44.740  30.748  30.956  1.00  0.00     0.049 A 
ATOM     48  C   UNL A   1      39.535  32.793  30.597  1.00  0.00     0.074 A 
ATOM     49  C   UNL A   1      45.697  31.577  31.515  1.00  0.00     0.029 A 
ATOM     50  N   UNL A   1      43.541  31.445  30.983  1.00  0.00    -0.354 N 
ATOM     51  N   UNL A   1      40.794  32.459  30.743  1.00  0.00    -0.248 NA
ATOM     52  C   UNL A   1      39.196  34.112  31.150  1.00  0.00     0.031 C 
ATOM     53  C   UNL A   1      45.068  32.761  31.915  1.00  0.00     0.029 A 
ATOM     54  C   UNL A   1      43.729  32.688  31.565  1.00  0.00     0.049 A 
ATOM     55  H   UNL A   1      42.683  31.106  30.638  1.00  0.00     0.167 HD
ATOM     56  C   UNL A   1      41.404  33.533  31.377  1.00  0.00     0.074 A 
ATOM     57  C   UNL A   1      40.377  34.533  31.584  1.00  0.00     0.031 C 
ATOM     58  C   UNL A   1      42.699  33.677  31.750  1.00  0.00     0.037 A 
BRANCH  45  59
ATOM     59  C   UNL A   1      46.244  28.760  30.555  1.00  0.00     0.064 A 
ATOM     60  C   UNL A   1      47.216  28.875  29.550  1.00  0.00     0.173 A 
ATOM     61  C   UNL A   1      46.570  28.020  31.702  1.00  0.00     0.173 A 
ATOM     62  F   UNL A   1      46.950  29.561  28.429  1.00  0.00    -0.203 F 
ATOM     63  C   UNL A   1      48.452  28.245  29.673  1.00  0.00     0.198 A 
ATOM     64  C   UNL A   1      47.818  27.416  31.835  1.00  0.00     0.198 A 
ATOM     65  F   UNL A   1      45.679  27.883  32.696  1.00  0.00    -0.203 F 
ATOM     66  F   UNL A   1      49.344  28.323  28.677  1.00  0.00    -0.200 F 
ATOM     67  C   UNL A   1      48.753  27.521  30.817  1.00  0.00     0.200 A 
ATOM     68  F   UNL A   1      48.112  26.726  32.945  1.00  0.00    -0.200 F 
ATOM     69  F   UNL A   1      49.943  26.916  30.934  1.00  0.00    -0.200 F 
ENDBRANCH  45  59
BRANCH  46  70
ATOM     70  C   UNL A   1      37.040  32.568  29.897  1.00  0.00     0.064 A 
ATOM     71  C   UNL A   1      36.161  32.409  30.977  1.00  0.00     0.173 A 
ATOM     72  C   UNL A   1      36.579  33.278  28.778  1.00  0.00     0.173 A 
ATOM     73  F   UNL A   1      36.551  31.720  32.059  1.00  0.00    -0.203 F 
ATOM     74  C   UNL A   1      34.870  32.930  30.937  1.00  0.00     0.198 A 
ATOM     75  C   UNL A   1      35.296  33.821  28.749  1.00  0.00     0.198 A 
ATOM     76  F   UNL A   1      37.385  33.463  27.722  1.00  0.00    -0.203 F 
ATOM     77  F   UNL A   1      34.040  32.737  31.970  1.00  0.00    -0.200 F 
ATOM     78  C   UNL A   1      34.441  33.642  29.826  1.00  0.00     0.200 A 
ATOM     79  F   UNL A   1      34.890  34.520  27.680  1.00  0.00    -0.200 F 
ATOM     80  F   UNL A   1      33.203  34.152  29.793  1.00  0.00    -0.200 F 
ENDBRANCH  46  70
BRANCH  58  81
ATOM     81  C   UNL A   1      43.094  34.976  32.385  1.00  0.00     0.064 A 
ATOM     82  C   UNL A   1      43.559  36.057  31.622  1.00  0.00     0.173 A 
ATOM     83  C   UNL A   1      42.944  35.161  33.768  1.00  0.00     0.173 A 
ATOM     84  F   UNL A   1      43.734  35.924  30.299  1.00  0.00    -0.203 F 
ATOM     85  C   UNL A   1      43.873  37.273  32.224  1.00  0.00     0.198 A 
ATOM     86  C   UNL A   1      43.235  36.385  34.362  1.00  0.00     0.198 A 
ATOM     87  F   UNL A   1      42.498  34.158  34.539  1.00  0.00    -0.203 F 
ATOM     88  F   UNL A   1      44.346  38.282  31.482  1.00  0.00    -0.200 F 
ATOM     89  C   UNL A   1      43.701  37.439  33.591  1.00  0.00     0.200 A 
ATOM     90  F   UNL A   1      43.058  36.548  35.681  1.00  0.00    -0.200 F 
ATOM     91  F   UNL A   1      43.991  38.614  34.166  1.00  0.00    -0.200 F 
ENDBRANCH  58  81
ENDBRANCH  32  33
ENDBRANCH  24  27
ENDBRANCH  22  23
ENDBRANCH   1  22
TORSDOF 12
ENDMDL
