MODEL 1
REMARK VINA RESULT:     -12.7      0.000      0.000
REMARK SMILES Cc1nn(CC(F)F)c2c1c(C(F)(F)F)cc(=O)n2CC(=O)NCCCCNC(=O)c1ccc(-c2c3nc(c(-c4c(F)c(F)c(F)c(F)c4F)c4ccc([nH]4)c(-c4c(F)c(F)c(F)c(F)c4F)c4nc(c(-c5c(F)c(F)c(F)c(F)c5F)c5ccc2[nH]5)C=C4)C=C3)cc1
REMARK SMILES IDX 25 1 24 2 23 3 21 4 22 5 20 7 19 8 1 9 2 10 3 11 10 12 4 13
REMARK SMILES IDX 9 14 11 15 16 16 17 17 18 18 5 19 6 20 7 21 8 22 12 23 13 24
REMARK SMILES IDX 14 25 15 26 26 27 27 28 28 29 29 30 30 32 31 33 32 34 93 35
REMARK SMILES IDX 33 36 92 37 34 38 35 39 36 40 86 41 37 42 91 43 85 44 87 45
REMARK SMILES IDX 38 46 90 47 84 48 83 49 39 51 71 52 51 53 70 54 52 55 55 56
REMARK SMILES IDX 69 57 88 58 53 59 54 60 68 62 89 63 56 64 40 65 41 66 49 67
REMARK SMILES IDX 42 68 43 69 47 70 50 71 44 72 45 73 48 74 46 75 72 76 73 77
REMARK SMILES IDX 81 78 74 79 75 80 79 81 82 82 76 83 77 84 80 85 78 86 57 87
REMARK SMILES IDX 58 88 66 89 59 90 60 91 64 92 67 93 61 94 62 95 65 96 63 97
REMARK H PARENT 23 6 28 31 87 50 55 61
REMARK Flexibility Score: inf
ROOT
ATOM      1  C   UNL A   1      32.528  30.025  27.253  1.00  0.00     0.023 C 
ENDROOT
BRANCH   1   2
ATOM      2  C   UNL A   1      32.034  30.078  25.813  1.00  0.00     0.116 C 
BRANCH   2   3
ATOM      3  N   UNL A   1      33.050  29.670  24.871  1.00  0.00    -0.355 N 
ATOM      4  C   UNL A   1      33.020  28.640  23.985  1.00  0.00     0.240 C 
ATOM      5  O   UNL A   1      33.846  28.669  23.067  1.00  0.00    -0.273 OA
ATOM      6  H   UNL A   1      33.874  30.209  24.872  1.00  0.00     0.163 HD
BRANCH   4   7
ATOM      7  C   UNL A   1      31.944  27.552  24.037  1.00  0.00     0.227 C 
BRANCH   7   8
ATOM      8  N   UNL A   1      32.306  26.290  24.692  1.00  0.00    -0.283 N 
ATOM      9  C   UNL A   1      35.018  22.071  24.196  1.00  0.00     0.069 C 
ATOM     10  C   UNL A   1      34.311  23.368  24.022  1.00  0.00     0.069 A 
ATOM     11  N   UNL A   1      34.394  23.956  22.825  1.00  0.00    -0.175 NA
ATOM     12  C   UNL A   1      33.504  24.134  24.893  1.00  0.00     0.053 A 
ATOM     13  N   UNL A   1      33.673  25.091  22.926  1.00  0.00    -0.243 N 
ATOM     14  C   UNL A   1      33.120  25.261  24.176  1.00  0.00     0.142 A 
ATOM     15  C   UNL A   1      33.042  23.985  26.235  1.00  0.00     0.074 A 
ATOM     16  C   UNL A   1      32.190  24.888  26.742  1.00  0.00     0.085 A 
ATOM     17  C   UNL A   1      31.739  26.070  25.961  1.00  0.00     0.253 A 
ATOM     18  O   UNL A   1      30.933  26.819  26.498  1.00  0.00    -0.269 OA
BRANCH  13  19
ATOM     19  C   UNL A   1      33.605  25.888  21.725  1.00  0.00     0.219 C 
BRANCH  19  20
ATOM     20  C   UNL A   1      32.467  25.495  20.818  1.00  0.00     0.363 C 
ATOM     21  F   UNL A   1      31.406  26.326  20.964  1.00  0.00    -0.208 F 
ATOM     22  F   UNL A   1      32.868  25.625  19.525  1.00  0.00    -0.208 F 
ENDBRANCH  19  20
ENDBRANCH  13  19
BRANCH  15  23
ATOM     23  C   UNL A   1      33.526  22.831  27.049  1.00  0.00     0.417 C 
ATOM     24  F   UNL A   1      33.201  21.633  26.501  1.00  0.00    -0.166 F 
ATOM     25  F   UNL A   1      34.874  22.852  27.215  1.00  0.00    -0.166 F 
ATOM     26  F   UNL A   1      32.997  22.827  28.304  1.00  0.00    -0.166 F 
ENDBRANCH  15  23
ENDBRANCH   7   8
ENDBRANCH   4   7
ENDBRANCH   2   3
ENDBRANCH   1   2
BRANCH   1  27
ATOM     27  C   UNL A   1      34.057  30.047  27.400  1.00  0.00     0.023 C 
BRANCH  27  28
ATOM     28  C   UNL A   1      34.656  31.438  27.628  1.00  0.00     0.116 C 
BRANCH  28  29
ATOM     29  N   UNL A   1      34.480  31.925  28.981  1.00  0.00    -0.352 N 
ATOM     30  C   UNL A   1      35.248  31.942  30.109  1.00  0.00     0.251 C 
ATOM     31  H   UNL A   1      33.598  32.343  29.119  1.00  0.00     0.163 HD
ATOM     32  O   UNL A   1      34.797  32.580  31.063  1.00  0.00    -0.269 OA
BRANCH  30  33
ATOM     33  C   UNL A   1      36.526  31.206  30.286  1.00  0.00     0.039 A 
ATOM     34  C   UNL A   1      37.799  31.768  30.215  1.00  0.00     0.014 A 
ATOM     35  C   UNL A   1      36.415  29.811  30.452  1.00  0.00     0.014 A 
ATOM     36  C   UNL A   1      38.923  30.955  30.191  1.00  0.00     0.010 A 
ATOM     37  C   UNL A   1      37.536  28.992  30.446  1.00  0.00     0.010 A 
ATOM     38  C   UNL A   1      38.786  29.566  30.253  1.00  0.00    -0.014 A 
BRANCH  38  39
ATOM     39  C   UNL A   1      40.007  28.775  30.168  1.00  0.00     0.031 A 
ATOM     40  C   UNL A   1      40.730  28.604  31.461  1.00  0.00     0.074 A 
ATOM     41  C   UNL A   1      40.441  28.206  29.027  1.00  0.00     0.049 A 
ATOM     42  N   UNL A   1      41.921  29.003  31.771  1.00  0.00    -0.248 NA
ATOM     43  C   UNL A   1      39.985  28.013  32.583  1.00  0.00     0.031 C 
ATOM     44  C   UNL A   1      39.741  28.061  27.749  1.00  0.00     0.029 A 
ATOM     45  N   UNL A   1      41.617  27.555  28.805  1.00  0.00    -0.354 N 
ATOM     46  C   UNL A   1      42.140  28.585  33.083  1.00  0.00     0.074 A 
ATOM     47  C   UNL A   1      40.880  28.087  33.569  1.00  0.00     0.031 C 
ATOM     48  C   UNL A   1      40.409  27.175  26.972  1.00  0.00     0.029 A 
ATOM     49  C   UNL A   1      41.648  26.809  27.635  1.00  0.00     0.049 A 
ATOM     50  H   UNL A   1      42.381  27.609  29.422  1.00  0.00     0.167 HD
ATOM     51  C   UNL A   1      43.392  28.513  33.614  1.00  0.00     0.037 A 
ATOM     52  C   UNL A   1      42.598  25.908  27.285  1.00  0.00     0.037 A 
ATOM     53  C   UNL A   1      44.322  29.336  32.891  1.00  0.00     0.049 A 
ATOM     54  C   UNL A   1      43.816  26.217  28.078  1.00  0.00     0.074 A 
ATOM     55  C   UNL A   1      44.439  30.694  32.662  1.00  0.00     0.029 A 
ATOM     56  N   UNL A   1      45.155  28.738  31.979  1.00  0.00    -0.354 N 
ATOM     57  N   UNL A   1      44.538  27.290  27.915  1.00  0.00    -0.248 NA
ATOM     58  C   UNL A   1      43.973  25.541  29.356  1.00  0.00     0.031 C 
ATOM     59  C   UNL A   1      44.923  30.801  31.326  1.00  0.00     0.029 A 
ATOM     60  C   UNL A   1      45.118  29.507  30.844  1.00  0.00     0.049 A 
ATOM     61  H   UNL A   1      45.679  27.916  32.114  1.00  0.00     0.167 HD
ATOM     62  C   UNL A   1      44.909  27.661  29.199  1.00  0.00     0.074 A 
ATOM     63  C   UNL A   1      44.595  26.507  30.037  1.00  0.00     0.031 C 
ATOM     64  C   UNL A   1      45.175  28.962  29.510  1.00  0.00     0.037 A 
BRANCH  51  65
ATOM     65  C   UNL A   1      43.839  27.447  34.582  1.00  0.00     0.064 A 
ATOM     66  C   UNL A   1      43.858  26.099  34.173  1.00  0.00     0.173 A 
ATOM     67  C   UNL A   1      43.956  27.663  35.972  1.00  0.00     0.173 A 
ATOM     68  F   UNL A   1      43.733  25.774  32.877  1.00  0.00    -0.203 F 
ATOM     69  C   UNL A   1      43.910  25.048  35.093  1.00  0.00     0.198 A 
ATOM     70  C   UNL A   1      44.060  26.614  36.884  1.00  0.00     0.198 A 
ATOM     71  F   UNL A   1      43.859  28.884  36.512  1.00  0.00    -0.203 F 
ATOM     72  F   UNL A   1      43.799  23.782  34.667  1.00  0.00    -0.200 F 
ATOM     73  C   UNL A   1      44.004  25.307  36.449  1.00  0.00     0.200 A 
ATOM     74  F   UNL A   1      44.130  26.886  38.195  1.00  0.00    -0.200 F 
ATOM     75  F   UNL A   1      43.990  24.305  37.337  1.00  0.00    -0.200 F 
ENDBRANCH  51  65
BRANCH  52  76
ATOM     76  C   UNL A   1      42.403  24.591  26.628  1.00  0.00     0.064 A 
ATOM     77  C   UNL A   1      43.188  24.212  25.526  1.00  0.00     0.173 A 
ATOM     78  C   UNL A   1      41.661  23.567  27.248  1.00  0.00     0.173 A 
ATOM     79  F   UNL A   1      43.960  25.117  24.906  1.00  0.00    -0.203 F 
ATOM     80  C   UNL A   1      43.255  22.883  25.094  1.00  0.00     0.198 A 
ATOM     81  C   UNL A   1      41.724  22.241  26.812  1.00  0.00     0.198 A 
ATOM     82  F   UNL A   1      40.941  23.807  28.353  1.00  0.00    -0.203 F 
ATOM     83  F   UNL A   1      44.071  22.548  24.085  1.00  0.00    -0.200 F 
ATOM     84  C   UNL A   1      42.533  21.897  25.747  1.00  0.00     0.200 A 
ATOM     85  F   UNL A   1      41.049  21.292  27.475  1.00  0.00    -0.200 F 
ATOM     86  F   UNL A   1      42.650  20.614  25.378  1.00  0.00    -0.200 F 
ENDBRANCH  52  76
BRANCH  64  87
ATOM     87  C   UNL A   1      45.285  29.949  28.383  1.00  0.00     0.064 A 
ATOM     88  C   UNL A   1      44.185  30.621  27.822  1.00  0.00     0.173 A 
ATOM     89  C   UNL A   1      46.564  30.355  27.978  1.00  0.00     0.173 A 
ATOM     90  F   UNL A   1      42.937  30.361  28.228  1.00  0.00    -0.203 F 
ATOM     91  C   UNL A   1      44.360  31.631  26.875  1.00  0.00     0.198 A 
ATOM     92  C   UNL A   1      46.736  31.388  27.060  1.00  0.00     0.198 A 
ATOM     93  F   UNL A   1      47.653  29.789  28.521  1.00  0.00    -0.203 F 
ATOM     94  F   UNL A   1      43.295  32.257  26.354  1.00  0.00    -0.200 F 
ATOM     95  C   UNL A   1      45.636  32.019  26.503  1.00  0.00     0.200 A 
ATOM     96  F   UNL A   1      47.973  31.796  26.743  1.00  0.00    -0.200 F 
ATOM     97  F   UNL A   1      45.807  33.026  25.634  1.00  0.00    -0.200 F 
ENDBRANCH  64  87
ENDBRANCH  38  39
ENDBRANCH  30  33
ENDBRANCH  28  29
ENDBRANCH  27  28
ENDBRANCH   1  27
TORSDOF 15
ENDMDL
MODEL 2
REMARK VINA RESULT:     -12.7      3.385      8.853
REMARK SMILES Cc1nn(CC(F)F)c2c1c(C(F)(F)F)cc(=O)n2CC(=O)NCCCCNC(=O)c1ccc(-c2c3nc(c(-c4c(F)c(F)c(F)c(F)c4F)c4ccc([nH]4)c(-c4c(F)c(F)c(F)c(F)c4F)c4nc(c(-c5c(F)c(F)c(F)c(F)c5F)c5ccc2[nH]5)C=C4)C=C3)cc1
REMARK SMILES IDX 25 1 24 2 23 3 21 4 22 5 20 7 19 8 1 9 2 10 3 11 10 12 4 13
REMARK SMILES IDX 9 14 11 15 16 16 17 17 18 18 5 19 6 20 7 21 8 22 12 23 13 24
REMARK SMILES IDX 14 25 15 26 26 27 27 28 28 29 29 30 30 32 31 33 32 34 93 35
REMARK SMILES IDX 33 36 92 37 34 38 35 39 36 40 86 41 37 42 91 43 85 44 87 45
REMARK SMILES IDX 38 46 90 47 84 48 83 49 39 51 71 52 51 53 70 54 52 55 55 56
REMARK SMILES IDX 69 57 88 58 53 59 54 60 68 62 89 63 56 64 40 65 41 66 49 67
REMARK SMILES IDX 42 68 43 69 47 70 50 71 44 72 45 73 48 74 46 75 72 76 73 77
REMARK SMILES IDX 81 78 74 79 75 80 79 81 82 82 76 83 77 84 80 85 78 86 57 87
REMARK SMILES IDX 58 88 66 89 59 90 60 91 64 92 67 93 61 94 62 95 65 96 63 97
REMARK H PARENT 23 6 28 31 87 50 55 61
REMARK Flexibility Score: inf
ROOT
ATOM      1  C   UNL A   1      38.074  22.680  25.756  1.00  0.00     0.023 C 
ENDROOT
BRANCH   1   2
ATOM      2  C   UNL A   1      36.650  22.480  25.252  1.00  0.00     0.116 C 
BRANCH   2   3
ATOM      3  N   UNL A   1      35.732  22.168  26.322  1.00  0.00    -0.355 N 
ATOM      4  C   UNL A   1      34.387  21.980  26.258  1.00  0.00     0.240 C 
ATOM      5  O   UNL A   1      33.856  21.410  27.216  1.00  0.00    -0.273 OA
ATOM      6  H   UNL A   1      36.132  22.080  27.217  1.00  0.00     0.163 HD
BRANCH   4   7
ATOM      7  C   UNL A   1      33.574  22.341  25.011  1.00  0.00     0.227 C 
BRANCH   7   8
ATOM      8  N   UNL A   1      33.457  23.766  24.684  1.00  0.00    -0.283 N 
ATOM      9  C   UNL A   1      31.555  28.165  26.243  1.00  0.00     0.069 C 
ATOM     10  C   UNL A   1      31.937  26.742  26.041  1.00  0.00     0.069 A 
ATOM     11  N   UNL A   1      31.407  25.840  26.874  1.00  0.00    -0.175 NA
ATOM     12  C   UNL A   1      32.762  26.107  25.086  1.00  0.00     0.053 A 
ATOM     13  N   UNL A   1      31.898  24.648  26.478  1.00  0.00    -0.243 N 
ATOM     14  C   UNL A   1      32.748  24.753  25.399  1.00  0.00     0.142 A 
ATOM     15  C   UNL A   1      33.528  26.543  23.963  1.00  0.00     0.074 A 
ATOM     16  C   UNL A   1      34.144  25.633  23.194  1.00  0.00     0.085 A 
ATOM     17  C   UNL A   1      34.091  24.179  23.498  1.00  0.00     0.253 A 
ATOM     18  O   UNL A   1      34.658  23.426  22.717  1.00  0.00    -0.269 OA
BRANCH  13  19
ATOM     19  C   UNL A   1      31.437  23.509  27.234  1.00  0.00     0.219 C 
BRANCH  19  20
ATOM     20  C   UNL A   1      30.129  22.955  26.730  1.00  0.00     0.363 C 
ATOM     21  F   UNL A   1      30.315  21.835  25.989  1.00  0.00    -0.208 F 
ATOM     22  F   UNL A   1      29.369  22.577  27.793  1.00  0.00    -0.208 F 
ENDBRANCH  19  20
ENDBRANCH  13  19
BRANCH  15  23
ATOM     23  C   UNL A   1      33.632  28.004  23.674  1.00  0.00     0.417 C 
ATOM     24  F   UNL A   1      34.246  28.690  24.671  1.00  0.00    -0.166 F 
ATOM     25  F   UNL A   1      34.317  28.251  22.528  1.00  0.00    -0.166 F 
ATOM     26  F   UNL A   1      32.412  28.586  23.512  1.00  0.00    -0.166 F 
ENDBRANCH  15  23
ENDBRANCH   7   8
ENDBRANCH   4   7
ENDBRANCH   2   3
ENDBRANCH   1   2
BRANCH   1  27
ATOM     27  C   UNL A   1      38.932  21.407  25.755  1.00  0.00     0.023 C 
BRANCH  27  28
ATOM     28  C   UNL A   1      40.228  21.509  26.565  1.00  0.00     0.116 C 
BRANCH  28  29
ATOM     29  N   UNL A   1      41.343  22.035  25.803  1.00  0.00    -0.352 N 
ATOM     30  C   UNL A   1      42.038  23.210  25.795  1.00  0.00     0.251 C 
ATOM     31  H   UNL A   1      41.678  21.393  25.135  1.00  0.00     0.163 HD
ATOM     32  O   UNL A   1      43.038  23.243  25.073  1.00  0.00    -0.269 OA
BRANCH  30  33
ATOM     33  C   UNL A   1      41.643  24.443  26.521  1.00  0.00     0.039 A 
ATOM     34  C   UNL A   1      40.771  25.419  26.043  1.00  0.00     0.014 A 
ATOM     35  C   UNL A   1      42.286  24.662  27.756  1.00  0.00     0.014 A 
ATOM     36  C   UNL A   1      40.634  26.625  26.715  1.00  0.00     0.010 A 
ATOM     37  C   UNL A   1      42.141  25.861  28.443  1.00  0.00     0.010 A 
ATOM     38  C   UNL A   1      41.360  26.864  27.885  1.00  0.00    -0.014 A 
BRANCH  38  39
ATOM     39  C   UNL A   1      41.206  28.174  28.504  1.00  0.00     0.031 A 
ATOM     40  C   UNL A   1      42.314  29.131  28.222  1.00  0.00     0.074 A 
ATOM     41  C   UNL A   1      40.135  28.520  29.244  1.00  0.00     0.049 A 
ATOM     42  N   UNL A   1      43.131  29.679  29.062  1.00  0.00    -0.248 NA
ATOM     43  C   UNL A   1      42.618  29.423  26.813  1.00  0.00     0.031 C 
ATOM     44  C   UNL A   1      38.865  27.810  29.411  1.00  0.00     0.029 A 
ATOM     45  N   UNL A   1      39.942  29.660  29.965  1.00  0.00    -0.354 N 
ATOM     46  C   UNL A   1      43.964  30.504  28.308  1.00  0.00     0.074 A 
ATOM     47  C   UNL A   1      43.680  30.220  26.926  1.00  0.00     0.031 C 
ATOM     48  C   UNL A   1      37.962  28.639  29.988  1.00  0.00     0.029 A 
ATOM     49  C   UNL A   1      38.630  29.874  30.361  1.00  0.00     0.049 A 
ATOM     50  H   UNL A   1      40.672  30.281  30.186  1.00  0.00     0.167 HD
ATOM     51  C   UNL A   1      44.701  31.496  28.880  1.00  0.00     0.037 A 
ATOM     52  C   UNL A   1      38.129  31.016  30.893  1.00  0.00     0.037 A 
ATOM     53  C   UNL A   1      44.890  31.271  30.287  1.00  0.00     0.049 A 
ATOM     54  C   UNL A   1      39.273  31.788  31.441  1.00  0.00     0.074 A 
ATOM     55  C   UNL A   1      45.523  30.296  31.035  1.00  0.00     0.029 A 
ATOM     56  N   UNL A   1      44.097  31.955  31.173  1.00  0.00    -0.354 N 
ATOM     57  N   UNL A   1      39.974  31.417  32.477  1.00  0.00    -0.248 NA
ATOM     58  C   UNL A   1      39.916  32.751  30.560  1.00  0.00     0.031 C 
ATOM     59  C   UNL A   1      44.702  30.126  32.188  1.00  0.00     0.029 A 
ATOM     60  C   UNL A   1      43.654  31.042  32.096  1.00  0.00     0.049 A 
ATOM     61  H   UNL A   1      43.888  32.916  31.152  1.00  0.00     0.167 HD
ATOM     62  C   UNL A   1      41.279  31.759  32.157  1.00  0.00     0.074 A 
ATOM     63  C   UNL A   1      41.172  32.644  31.001  1.00  0.00     0.031 C 
ATOM     64  C   UNL A   1      42.337  31.078  32.683  1.00  0.00     0.037 A 
BRANCH  51  65
ATOM     65  C   UNL A   1      44.969  32.832  28.233  1.00  0.00     0.064 A 
ATOM     66  C   UNL A   1      43.913  33.749  28.069  1.00  0.00     0.173 A 
ATOM     67  C   UNL A   1      46.143  33.116  27.503  1.00  0.00     0.173 A 
ATOM     68  F   UNL A   1      42.743  33.568  28.699  1.00  0.00    -0.203 F 
ATOM     69  C   UNL A   1      44.001  34.825  27.180  1.00  0.00     0.198 A 
ATOM     70  C   UNL A   1      46.245  34.218  26.655  1.00  0.00     0.198 A 
ATOM     71  F   UNL A   1      47.190  32.283  27.487  1.00  0.00    -0.203 F 
ATOM     72  F   UNL A   1      42.928  35.599  26.962  1.00  0.00    -0.200 F 
ATOM     73  C   UNL A   1      45.165  35.054  26.469  1.00  0.00     0.200 A 
ATOM     74  F   UNL A   1      47.375  34.412  25.960  1.00  0.00    -0.200 F 
ATOM     75  F   UNL A   1      45.231  36.044  25.570  1.00  0.00    -0.200 F 
ENDBRANCH  51  65
BRANCH  52  76
ATOM     76  C   UNL A   1      36.817  31.652  30.609  1.00  0.00     0.064 A 
ATOM     77  C   UNL A   1      35.905  31.913  31.645  1.00  0.00     0.173 A 
ATOM     78  C   UNL A   1      36.562  32.284  29.377  1.00  0.00     0.173 A 
ATOM     79  F   UNL A   1      36.100  31.387  32.864  1.00  0.00    -0.203 F 
ATOM     80  C   UNL A   1      34.824  32.784  31.469  1.00  0.00     0.198 A 
ATOM     81  C   UNL A   1      35.479  33.147  29.200  1.00  0.00     0.198 A 
ATOM     82  F   UNL A   1      37.412  32.161  28.348  1.00  0.00    -0.203 F 
ATOM     83  F   UNL A   1      34.017  33.065  32.502  1.00  0.00    -0.200 F 
ATOM     84  C   UNL A   1      34.620  33.410  30.251  1.00  0.00     0.200 A 
ATOM     85  F   UNL A   1      35.315  33.775  28.028  1.00  0.00    -0.200 F 
ATOM     86  F   UNL A   1      33.626  34.296  30.101  1.00  0.00    -0.200 F 
ENDBRANCH  52  76
BRANCH  64  87
ATOM     87  C   UNL A   1      42.068  30.101  33.793  1.00  0.00     0.064 A 
ATOM     88  C   UNL A   1      41.659  28.772  33.583  1.00  0.00     0.173 A 
ATOM     89  C   UNL A   1      42.402  30.474  35.102  1.00  0.00     0.173 A 
ATOM     90  F   UNL A   1      41.417  28.312  32.350  1.00  0.00    -0.203 F 
ATOM     91  C   UNL A   1      41.560  27.870  34.642  1.00  0.00     0.198 A 
ATOM     92  C   UNL A   1      42.338  29.561  36.151  1.00  0.00     0.198 A 
ATOM     93  F   UNL A   1      42.852  31.713  35.354  1.00  0.00    -0.203 F 
ATOM     94  F   UNL A   1      41.168  26.608  34.416  1.00  0.00    -0.200 F 
ATOM     95  C   UNL A   1      41.909  28.263  35.923  1.00  0.00     0.200 A 
ATOM     96  F   UNL A   1      42.727  29.931  37.379  1.00  0.00    -0.200 F 
ATOM     97  F   UNL A   1      41.867  27.382  36.932  1.00  0.00    -0.200 F 
ENDBRANCH  64  87
ENDBRANCH  38  39
ENDBRANCH  30  33
ENDBRANCH  28  29
ENDBRANCH  27  28
ENDBRANCH   1  27
TORSDOF 15
ENDMDL
MODEL 3
REMARK VINA RESULT:     -12.7      3.448      8.874
REMARK SMILES Cc1nn(CC(F)F)c2c1c(C(F)(F)F)cc(=O)n2CC(=O)NCCCCNC(=O)c1ccc(-c2c3nc(c(-c4c(F)c(F)c(F)c(F)c4F)c4ccc([nH]4)c(-c4c(F)c(F)c(F)c(F)c4F)c4nc(c(-c5c(F)c(F)c(F)c(F)c5F)c5ccc2[nH]5)C=C4)C=C3)cc1
REMARK SMILES IDX 25 1 24 2 23 3 21 4 22 5 20 7 19 8 1 9 2 10 3 11 10 12 4 13
REMARK SMILES IDX 9 14 11 15 16 16 17 17 18 18 5 19 6 20 7 21 8 22 12 23 13 24
REMARK SMILES IDX 14 25 15 26 26 27 27 28 28 29 29 30 30 32 31 33 32 34 93 35
REMARK SMILES IDX 33 36 92 37 34 38 35 39 36 40 86 41 37 42 91 43 85 44 87 45
REMARK SMILES IDX 38 46 90 47 84 48 83 49 39 51 71 52 51 53 70 54 52 55 55 56
REMARK SMILES IDX 69 57 88 58 53 59 54 60 68 62 89 63 56 64 40 65 41 66 49 67
REMARK SMILES IDX 42 68 43 69 47 70 50 71 44 72 45 73 48 74 46 75 72 76 73 77
REMARK SMILES IDX 81 78 74 79 75 80 79 81 82 82 76 83 77 84 80 85 78 86 57 87
REMARK SMILES IDX 58 88 66 89 59 90 60 91 64 92 67 93 61 94 62 95 65 96 63 97
REMARK H PARENT 23 6 28 31 87 50 55 61
REMARK Flexibility Score: inf
ROOT
ATOM      1  C   UNL A   1      37.898  22.451  25.198  1.00  0.00     0.023 C 
ENDROOT
BRANCH   1   2
ATOM      2  C   UNL A   1      36.472  22.146  24.757  1.00  0.00     0.116 C 
BRANCH   2   3
ATOM      3  N   UNL A   1      35.595  21.901  25.878  1.00  0.00    -0.355 N 
ATOM      4  C   UNL A   1      34.237  21.854  25.898  1.00  0.00     0.240 C 
ATOM      5  O   UNL A   1      33.711  21.317  26.878  1.00  0.00    -0.273 OA
ATOM      6  H   UNL A   1      36.040  21.750  26.743  1.00  0.00     0.163 HD
BRANCH   4   7
ATOM      7  C   UNL A   1      33.389  22.328  24.714  1.00  0.00     0.227 C 
BRANCH   7   8
ATOM      8  N   UNL A   1      33.328  23.775  24.478  1.00  0.00    -0.283 N 
ATOM      9  C   UNL A   1      31.773  28.160  26.414  1.00  0.00     0.069 C 
ATOM     10  C   UNL A   1      32.064  26.735  26.105  1.00  0.00     0.069 A 
ATOM     11  N   UNL A   1      31.541  25.812  26.918  1.00  0.00    -0.175 NA
ATOM     12  C   UNL A   1      32.789  26.119  25.060  1.00  0.00     0.053 A 
ATOM     13  N   UNL A   1      31.940  24.623  26.422  1.00  0.00    -0.243 N 
ATOM     14  C   UNL A   1      32.722  24.751  25.295  1.00  0.00     0.142 A 
ATOM     15  C   UNL A   1      33.502  26.583  23.915  1.00  0.00     0.074 A 
ATOM     16  C   UNL A   1      34.017  25.693  23.055  1.00  0.00     0.085 A 
ATOM     17  C   UNL A   1      33.905  24.227  23.277  1.00  0.00     0.253 A 
ATOM     18  O   UNL A   1      34.378  23.496  22.418  1.00  0.00    -0.269 OA
BRANCH  13  19
ATOM     19  C   UNL A   1      31.468  23.465  27.141  1.00  0.00     0.219 C 
BRANCH  19  20
ATOM     20  C   UNL A   1      30.167  22.925  26.604  1.00  0.00     0.363 C 
ATOM     21  F   UNL A   1      30.356  21.778  25.905  1.00  0.00    -0.208 F 
ATOM     22  F   UNL A   1      29.359  22.597  27.648  1.00  0.00    -0.208 F 
ENDBRANCH  19  20
ENDBRANCH  13  19
BRANCH  15  23
ATOM     23  C   UNL A   1      33.666  28.053  23.704  1.00  0.00     0.417 C 
ATOM     24  F   UNL A   1      34.431  28.342  22.622  1.00  0.00    -0.166 F 
ATOM     25  F   UNL A   1      32.474  28.682  23.542  1.00  0.00    -0.166 F 
ATOM     26  F   UNL A   1      34.267  28.661  24.764  1.00  0.00    -0.166 F 
ENDBRANCH  15  23
ENDBRANCH   7   8
ENDBRANCH   4   7
ENDBRANCH   2   3
ENDBRANCH   1   2
BRANCH   1  27
ATOM     27  C   UNL A   1      38.694  21.224  25.665  1.00  0.00     0.023 C 
BRANCH  27  28
ATOM     28  C   UNL A   1      39.833  21.535  26.641  1.00  0.00     0.116 C 
BRANCH  28  29
ATOM     29  N   UNL A   1      41.054  21.957  25.985  1.00  0.00    -0.352 N 
ATOM     30  C   UNL A   1      41.829  23.080  26.018  1.00  0.00     0.251 C 
ATOM     31  H   UNL A   1      41.407  21.273  25.371  1.00  0.00     0.163 HD
ATOM     32  O   UNL A   1      42.896  23.020  25.403  1.00  0.00    -0.269 OA
BRANCH  30  33
ATOM     33  C   UNL A   1      41.454  24.361  26.670  1.00  0.00     0.039 A 
ATOM     34  C   UNL A   1      40.614  25.329  26.124  1.00  0.00     0.014 A 
ATOM     35  C   UNL A   1      42.083  24.632  27.901  1.00  0.00     0.014 A 
ATOM     36  C   UNL A   1      40.496  26.574  26.726  1.00  0.00     0.010 A 
ATOM     37  C   UNL A   1      41.956  25.870  28.519  1.00  0.00     0.010 A 
ATOM     38  C   UNL A   1      41.208  26.859  27.894  1.00  0.00    -0.014 A 
BRANCH  38  39
ATOM     39  C   UNL A   1      41.077  28.204  28.438  1.00  0.00     0.031 A 
ATOM     40  C   UNL A   1      42.136  29.159  28.002  1.00  0.00     0.074 A 
ATOM     41  C   UNL A   1      40.064  28.581  29.242  1.00  0.00     0.049 A 
ATOM     42  N   UNL A   1      43.008  29.776  28.733  1.00  0.00    -0.248 NA
ATOM     43  C   UNL A   1      42.315  29.362  26.556  1.00  0.00     0.031 C 
ATOM     44  C   UNL A   1      38.829  27.862  29.561  1.00  0.00     0.029 A 
ATOM     45  N   UNL A   1      39.906  29.762  29.901  1.00  0.00    -0.354 N 
ATOM     46  C   UNL A   1      43.757  30.563  27.860  1.00  0.00     0.074 A 
ATOM     47  C   UNL A   1      43.365  30.183  26.528  1.00  0.00     0.031 C 
ATOM     48  C   UNL A   1      37.959  28.711  30.157  1.00  0.00     0.029 A 
ATOM     49  C   UNL A   1      38.627  29.979  30.392  1.00  0.00     0.049 A 
ATOM     50  H   UNL A   1      40.638  30.409  30.019  1.00  0.00     0.167 HD
ATOM     51  C   UNL A   1      44.516  31.603  28.303  1.00  0.00     0.037 A 
ATOM     52  C   UNL A   1      38.146  31.146  30.890  1.00  0.00     0.037 A 
ATOM     53  C   UNL A   1      44.827  31.474  29.700  1.00  0.00     0.049 A 
ATOM     54  C   UNL A   1      39.315  31.972  31.288  1.00  0.00     0.074 A 
ATOM     55  C   UNL A   1      45.541  30.562  30.454  1.00  0.00     0.029 A 
ATOM     56  N   UNL A   1      44.095  32.202  30.604  1.00  0.00    -0.354 N 
ATOM     57  N   UNL A   1      40.107  31.682  32.283  1.00  0.00    -0.248 NA
ATOM     58  C   UNL A   1      39.860  32.885  30.296  1.00  0.00     0.031 C 
ATOM     59  C   UNL A   1      44.823  30.456  31.680  1.00  0.00     0.029 A 
ATOM     60  C   UNL A   1      43.750  31.345  31.617  1.00  0.00     0.049 A 
ATOM     61  H   UNL A   1      43.863  33.156  30.538  1.00  0.00     0.167 HD
ATOM     62  C   UNL A   1      41.373  32.025  31.833  1.00  0.00     0.074 A 
ATOM     63  C   UNL A   1      41.151  32.829  30.635  1.00  0.00     0.031 C 
ATOM     64  C   UNL A   1      42.486  31.397  32.311  1.00  0.00     0.037 A 
BRANCH  51  65
ATOM     65  C   UNL A   1      44.699  32.897  27.551  1.00  0.00     0.064 A 
ATOM     66  C   UNL A   1      45.885  33.116  26.821  1.00  0.00     0.173 A 
ATOM     67  C   UNL A   1      43.899  34.039  27.767  1.00  0.00     0.173 A 
ATOM     68  F   UNL A   1      46.733  32.106  26.573  1.00  0.00    -0.203 F 
ATOM     69  C   UNL A   1      46.274  34.394  26.410  1.00  0.00     0.198 A 
ATOM     70  C   UNL A   1      44.264  35.304  27.312  1.00  0.00     0.198 A 
ATOM     71  F   UNL A   1      42.795  34.000  28.523  1.00  0.00    -0.203 F 
ATOM     72  F   UNL A   1      47.469  34.573  25.830  1.00  0.00    -0.200 F 
ATOM     73  C   UNL A   1      45.466  35.488  26.662  1.00  0.00     0.200 A 
ATOM     74  F   UNL A   1      43.477  36.355  27.584  1.00  0.00    -0.200 F 
ATOM     75  F   UNL A   1      45.865  36.722  26.327  1.00  0.00    -0.200 F 
ENDBRANCH  51  65
BRANCH  52  76
ATOM     76  C   UNL A   1      36.802  31.739  30.677  1.00  0.00     0.064 A 
ATOM     77  C   UNL A   1      35.955  32.010  31.765  1.00  0.00     0.173 A 
ATOM     78  C   UNL A   1      36.447  32.325  29.447  1.00  0.00     0.173 A 
ATOM     79  F   UNL A   1      36.246  31.529  32.982  1.00  0.00    -0.203 F 
ATOM     80  C   UNL A   1      34.841  32.847  31.636  1.00  0.00     0.198 A 
ATOM     81  C   UNL A   1      35.331  33.154  29.318  1.00  0.00     0.198 A 
ATOM     82  F   UNL A   1      37.229  32.191  28.366  1.00  0.00    -0.203 F 
ATOM     83  F   UNL A   1      34.098  33.141  32.713  1.00  0.00    -0.200 F 
ATOM     84  C   UNL A   1      34.538  33.429  30.417  1.00  0.00     0.200 A 
ATOM     85  F   UNL A   1      35.071  33.740  28.141  1.00  0.00    -0.200 F 
ATOM     86  F   UNL A   1      33.513  34.284  30.309  1.00  0.00    -0.200 F 
ENDBRANCH  52  76
BRANCH  64  87
ATOM     87  C   UNL A   1      42.332  30.492  33.500  1.00  0.00     0.064 A 
ATOM     88  C   UNL A   1      42.392  30.936  34.833  1.00  0.00     0.173 A 
ATOM     89  C   UNL A   1      41.938  29.166  33.279  1.00  0.00     0.173 A 
ATOM     90  F   UNL A   1      42.664  32.214  35.123  1.00  0.00    -0.203 F 
ATOM     91  C   UNL A   1      42.102  30.079  35.894  1.00  0.00     0.198 A 
ATOM     92  C   UNL A   1      41.613  28.323  34.338  1.00  0.00     0.198 A 
ATOM     93  F   UNL A   1      41.808  28.703  32.026  1.00  0.00    -0.203 F 
ATOM     94  F   UNL A   1      42.167  30.525  37.157  1.00  0.00    -0.200 F 
ATOM     95  C   UNL A   1      41.703  28.776  35.645  1.00  0.00     0.200 A 
ATOM     96  F   UNL A   1      41.177  27.080  34.090  1.00  0.00    -0.200 F 
ATOM     97  F   UNL A   1      41.371  27.968  36.662  1.00  0.00    -0.200 F 
ENDBRANCH  64  87
ENDBRANCH  38  39
ENDBRANCH  30  33
ENDBRANCH  28  29
ENDBRANCH  27  28
ENDBRANCH   1  27
TORSDOF 15
ENDMDL
