MODEL 1
REMARK VINA RESULT:     -12.9      0.000      0.000
REMARK SMILES CCOc1cc2c(cc1/C=C1/C(=O)N(c3cccc(C(=O)NCCCCNC(=O)c4ccc(-c5c6nc(c(-c7c(F)c(F)c(F)c(F)c7F)c7ccc([nH]7)c(-c7c(F)c(F)c(F)c(F)c7F)c7nc(c(-c8c(F)c(F)c(F)c(F)c8F)c8ccc5[nH]8)C=C7)C=C6)cc4)c3)C(=S)N=C1O)OCO2
REMARK SMILES IDX 23 1 22 2 20 3 21 4 19 6 15 7 16 8 93 9 17 10 18 11 14 12
REMARK SMILES IDX 10 13 11 14 12 15 97 16 13 17 96 18 94 19 95 20 9 21 4 22
REMARK SMILES IDX 5 23 6 24 8 25 7 26 101 27 99 28 100 29 3 30 2 31 1 32 98 33
REMARK SMILES IDX 24 35 25 36 26 37 27 38 28 39 29 41 30 42 31 43 92 44 32 45
REMARK SMILES IDX 91 46 33 47 34 48 35 49 85 50 36 51 90 52 84 53 86 54 37 55
REMARK SMILES IDX 89 56 83 57 82 58 38 60 70 61 50 62 69 63 51 64 54 65 68 66
REMARK SMILES IDX 87 67 52 68 53 69 67 71 88 72 55 73 39 74 40 75 48 76 41 77
REMARK SMILES IDX 42 78 46 79 49 80 43 81 44 82 47 83 45 84 71 85 72 86 80 87
REMARK SMILES IDX 73 88 74 89 78 90 81 91 75 92 76 93 79 94 77 95 56 96 57 97
REMARK SMILES IDX 65 98 58 99 59 100 63 101 66 102 60 103 61 104 64 105 62 106
REMARK H PARENT 22 5 98 34 27 40 86 59 54 70
REMARK Flexibility Score: inf
ROOT
ATOM      1  C   UNL A   1      37.003  22.210  25.599  1.00  0.00     0.116 C 
ENDROOT
BRANCH   1   2
ATOM      2  N   UNL A   1      36.033  21.800  26.602  1.00  0.00    -0.352 N 
ATOM      3  C   UNL A   1      34.703  21.446  26.479  1.00  0.00     0.251 C 
ATOM      4  O   UNL A   1      34.081  21.125  27.490  1.00  0.00    -0.269 OA
ATOM      5  H   UNL A   1      36.381  21.769  27.522  1.00  0.00     0.163 HD
BRANCH   3   6
ATOM      6  C   UNL A   1      33.987  21.524  25.176  1.00  0.00     0.041 A 
ATOM      7  C   UNL A   1      33.015  22.881  23.417  1.00  0.00     0.052 A 
ATOM      8  C   UNL A   1      32.255  21.773  23.010  1.00  0.00     0.027 A 
ATOM      9  C   UNL A   1      33.990  22.684  24.398  1.00  0.00     0.040 A 
ATOM     10  C   UNL A   1      32.378  20.543  23.662  1.00  0.00     0.003 A 
ATOM     11  C   UNL A   1      33.208  20.432  24.776  1.00  0.00     0.014 A 
BRANCH   7  12
ATOM     12  N   UNL A   1      32.696  24.222  22.971  1.00  0.00    -0.251 N 
ATOM     13  C   UNL A   1      30.482  27.039  23.759  1.00  0.00     0.031 C 
ATOM     14  C   UNL A   1      31.521  26.365  23.208  1.00  0.00     0.103 C 
ATOM     15  C   UNL A   1      31.870  25.024  23.781  1.00  0.00     0.270 C 
ATOM     16  C   UNL A   1      32.401  26.767  22.116  1.00  0.00     0.226 C 
ATOM     17  O   UNL A   1      31.426  24.694  24.881  1.00  0.00    -0.268 OA
ATOM     18  N   UNL A   1      33.133  25.991  21.415  1.00  0.00    -0.184 NA
ATOM     19  C   UNL A   1      33.072  24.644  21.672  1.00  0.00     0.210 C 
ATOM     20  S   UNL A   1      33.374  23.602  20.358  1.00  0.00    -0.038 S 
BRANCH  13  21
ATOM     21  C   UNL A   1      29.944  28.391  23.467  1.00  0.00     0.021 A 
ATOM     22  C   UNL A   1      30.364  29.513  24.234  1.00  0.00     0.130 A 
ATOM     23  C   UNL A   1      30.082  30.824  23.832  1.00  0.00     0.097 A 
ATOM     24  C   UNL A   1      29.277  30.993  22.734  1.00  0.00     0.169 A 
ATOM     25  C   UNL A   1      29.021  28.617  22.433  1.00  0.00     0.062 A 
ATOM     26  C   UNL A   1      28.737  29.920  22.072  1.00  0.00     0.166 A 
ATOM     27  O   UNL A   1      28.917  32.183  22.188  1.00  0.00    -0.453 OA
ATOM     28  O   UNL A   1      27.959  30.303  21.023  1.00  0.00    -0.454 OA
ATOM     29  C   UNL A   1      28.152  31.735  21.052  1.00  0.00     0.468 C 
BRANCH  22  30
ATOM     30  O   UNL A   1      31.120  29.350  25.372  1.00  0.00    -0.493 OA
BRANCH  30  31
ATOM     31  C   UNL A   1      32.469  29.816  25.173  1.00  0.00     0.226 C 
ATOM     32  C   UNL A   1      33.400  29.415  26.310  1.00  0.00     0.049 C 
ENDBRANCH  30  31
ENDBRANCH  22  30
ENDBRANCH  13  21
BRANCH  16  33
ATOM     33  O   UNL A   1      32.500  28.065  21.843  1.00  0.00    -0.493 OA
ATOM     34  H   UNL A   1      31.726  28.583  21.740  1.00  0.00     0.295 HD
ENDBRANCH  16  33
ENDBRANCH   7  12
ENDBRANCH   3   6
ENDBRANCH   1   2
BRANCH   1  35
ATOM     35  C   UNL A   1      38.375  22.592  26.135  1.00  0.00     0.023 C 
BRANCH  35  36
ATOM     36  C   UNL A   1      39.326  21.446  26.442  1.00  0.00     0.023 C 
BRANCH  36  37
ATOM     37  C   UNL A   1      39.500  20.407  25.343  1.00  0.00     0.116 C 
BRANCH  37  38
ATOM     38  N   UNL A   1      40.331  19.273  25.724  1.00  0.00    -0.352 N 
ATOM     39  C   UNL A   1      41.603  19.249  26.255  1.00  0.00     0.251 C 
ATOM     40  H   UNL A   1      39.922  18.389  25.580  1.00  0.00     0.163 HD
ATOM     41  O   UNL A   1      42.170  18.184  26.446  1.00  0.00    -0.269 OA
BRANCH  39  42
ATOM     42  C   UNL A   1      42.301  20.521  26.547  1.00  0.00     0.039 A 
ATOM     43  C   UNL A   1      42.791  21.279  25.480  1.00  0.00     0.014 A 
ATOM     44  C   UNL A   1      42.434  20.985  27.857  1.00  0.00     0.014 A 
ATOM     45  C   UNL A   1      43.322  22.549  25.721  1.00  0.00     0.010 A 
ATOM     46  C   UNL A   1      42.883  22.283  28.086  1.00  0.00     0.010 A 
ATOM     47  C   UNL A   1      43.321  23.083  27.020  1.00  0.00    -0.014 A 
BRANCH  47  48
ATOM     48  C   UNL A   1      43.749  24.481  27.283  1.00  0.00     0.031 A 
ATOM     49  C   UNL A   1      42.756  25.500  27.764  1.00  0.00     0.074 A 
ATOM     50  C   UNL A   1      45.015  24.854  27.006  1.00  0.00     0.049 A 
ATOM     51  N   UNL A   1      42.919  26.783  27.971  1.00  0.00    -0.248 NA
ATOM     52  C   UNL A   1      41.388  25.022  28.017  1.00  0.00     0.031 C 
ATOM     53  C   UNL A   1      46.059  23.974  26.477  1.00  0.00     0.029 A 
ATOM     54  N   UNL A   1      45.636  26.073  27.118  1.00  0.00    -0.354 N 
ATOM     55  C   UNL A   1      41.675  27.264  28.360  1.00  0.00     0.074 A 
ATOM     56  C   UNL A   1      40.755  26.148  28.306  1.00  0.00     0.031 C 
ATOM     57  C   UNL A   1      47.194  24.676  26.331  1.00  0.00     0.029 A 
ATOM     58  C   UNL A   1      46.950  26.062  26.719  1.00  0.00     0.049 A 
ATOM     59  H   UNL A   1      45.181  26.880  27.452  1.00  0.00     0.167 HD
ATOM     60  C   UNL A   1      41.336  28.516  28.748  1.00  0.00     0.037 A 
ATOM     61  C   UNL A   1      47.855  27.057  26.664  1.00  0.00     0.037 A 
ATOM     62  C   UNL A   1      42.259  29.618  28.826  1.00  0.00     0.049 A 
ATOM     63  C   UNL A   1      47.455  28.439  27.105  1.00  0.00     0.074 A 
ATOM     64  C   UNL A   1      42.031  30.906  29.277  1.00  0.00     0.029 A 
ATOM     65  N   UNL A   1      43.590  29.562  28.436  1.00  0.00    -0.354 N 
ATOM     66  N   UNL A   1      46.296  28.863  27.547  1.00  0.00    -0.248 NA
ATOM     67  C   UNL A   1      48.491  29.479  27.045  1.00  0.00     0.031 C 
ATOM     68  C   UNL A   1      43.209  31.642  29.116  1.00  0.00     0.029 A 
ATOM     69  C   UNL A   1      44.187  30.799  28.614  1.00  0.00     0.049 A 
ATOM     70  H   UNL A   1      44.042  28.761  28.086  1.00  0.00     0.167 HD
ATOM     71  C   UNL A   1      46.469  30.209  27.841  1.00  0.00     0.074 A 
ATOM     72  C   UNL A   1      47.850  30.528  27.543  1.00  0.00     0.031 C 
ATOM     73  C   UNL A   1      45.564  31.101  28.315  1.00  0.00     0.037 A 
BRANCH  60  74
ATOM     74  C   UNL A   1      39.903  28.760  29.126  1.00  0.00     0.064 A 
ATOM     75  C   UNL A   1      39.445  28.573  30.439  1.00  0.00     0.173 A 
ATOM     76  C   UNL A   1      38.982  29.213  28.170  1.00  0.00     0.173 A 
ATOM     77  F   UNL A   1      40.283  28.130  31.389  1.00  0.00    -0.203 F 
ATOM     78  C   UNL A   1      38.113  28.798  30.773  1.00  0.00     0.198 A 
ATOM     79  C   UNL A   1      37.657  29.468  28.515  1.00  0.00     0.198 A 
ATOM     80  F   UNL A   1      39.367  29.415  26.900  1.00  0.00    -0.203 F 
ATOM     81  F   UNL A   1      37.688  28.560  32.022  1.00  0.00    -0.200 F 
ATOM     82  C   UNL A   1      37.221  29.253  29.813  1.00  0.00     0.200 A 
ATOM     83  F   UNL A   1      36.800  29.921  27.589  1.00  0.00    -0.200 F 
ATOM     84  F   UNL A   1      35.940  29.474  30.138  1.00  0.00    -0.200 F 
ENDBRANCH  60  74
BRANCH  61  85
ATOM     85  C   UNL A   1      49.239  26.777  26.199  1.00  0.00     0.064 A 
ATOM     86  C   UNL A   1      50.206  26.274  27.081  1.00  0.00     0.173 A 
ATOM     87  C   UNL A   1      49.623  27.004  24.870  1.00  0.00     0.173 A 
ATOM     88  F   UNL A   1      49.891  26.061  28.367  1.00  0.00    -0.203 F 
ATOM     89  C   UNL A   1      51.509  26.025  26.655  1.00  0.00     0.198 A 
ATOM     90  C   UNL A   1      50.919  26.728  24.438  1.00  0.00     0.198 A 
ATOM     91  F   UNL A   1      48.735  27.479  23.985  1.00  0.00    -0.203 F 
ATOM     92  F   UNL A   1      52.424  25.585  27.529  1.00  0.00    -0.200 F 
ATOM     93  C   UNL A   1      51.863  26.246  25.333  1.00  0.00     0.200 A 
ATOM     94  F   UNL A   1      51.254  26.929  23.156  1.00  0.00    -0.200 F 
ATOM     95  F   UNL A   1      53.115  26.000  24.922  1.00  0.00    -0.200 F 
ENDBRANCH  61  85
BRANCH  73  96
ATOM     96  C   UNL A   1      46.045  32.500  28.569  1.00  0.00     0.064 A 
ATOM     97  C   UNL A   1      46.607  32.873  29.799  1.00  0.00     0.173 A 
ATOM     98  C   UNL A   1      45.980  33.468  27.555  1.00  0.00     0.173 A 
ATOM     99  F   UNL A   1      46.678  31.989  30.805  1.00  0.00    -0.203 F 
ATOM    100  C   UNL A   1      47.063  34.171  30.012  1.00  0.00     0.198 A 
ATOM    101  C   UNL A   1      46.465  34.756  27.762  1.00  0.00     0.198 A 
ATOM    102  F   UNL A   1      45.458  33.160  26.359  1.00  0.00    -0.203 F 
ATOM    103  F   UNL A   1      47.551  34.519  31.211  1.00  0.00    -0.200 F 
ATOM    104  C   UNL A   1      46.998  35.109  28.993  1.00  0.00     0.200 A 
ATOM    105  F   UNL A   1      46.414  35.657  26.771  1.00  0.00    -0.200 F 
ATOM    106  F   UNL A   1      47.444  36.356  29.197  1.00  0.00    -0.200 F 
ENDBRANCH  73  96
ENDBRANCH  47  48
ENDBRANCH  39  42
ENDBRANCH  37  38
ENDBRANCH  36  37
ENDBRANCH  35  36
ENDBRANCH   1  35
TORSDOF 16
ENDMDL
MODEL 2
REMARK VINA RESULT:     -12.8      0.489      7.038
REMARK SMILES CCOc1cc2c(cc1/C=C1/C(=O)N(c3cccc(C(=O)NCCCCNC(=O)c4ccc(-c5c6nc(c(-c7c(F)c(F)c(F)c(F)c7F)c7ccc([nH]7)c(-c7c(F)c(F)c(F)c(F)c7F)c7nc(c(-c8c(F)c(F)c(F)c(F)c8F)c8ccc5[nH]8)C=C7)C=C6)cc4)c3)C(=S)N=C1O)OCO2
REMARK SMILES IDX 23 1 22 2 20 3 21 4 19 6 15 7 16 8 93 9 17 10 18 11 14 12
REMARK SMILES IDX 10 13 11 14 12 15 97 16 13 17 96 18 94 19 95 20 9 21 4 22
REMARK SMILES IDX 5 23 6 24 8 25 7 26 101 27 99 28 100 29 3 30 2 31 1 32 98 33
REMARK SMILES IDX 24 35 25 36 26 37 27 38 28 39 29 41 30 42 31 43 92 44 32 45
REMARK SMILES IDX 91 46 33 47 34 48 35 49 85 50 36 51 90 52 84 53 86 54 37 55
REMARK SMILES IDX 89 56 83 57 82 58 38 60 70 61 50 62 69 63 51 64 54 65 68 66
REMARK SMILES IDX 87 67 52 68 53 69 67 71 88 72 55 73 39 74 40 75 48 76 41 77
REMARK SMILES IDX 42 78 46 79 49 80 43 81 44 82 47 83 45 84 71 85 72 86 80 87
REMARK SMILES IDX 73 88 74 89 78 90 81 91 75 92 76 93 79 94 77 95 56 96 57 97
REMARK SMILES IDX 65 98 58 99 59 100 63 101 66 102 60 103 61 104 64 105 62 106
REMARK H PARENT 22 5 98 34 27 40 86 59 54 70
REMARK Flexibility Score: inf
ROOT
ATOM      1  C   UNL A   1      37.107  22.075  25.487  1.00  0.00     0.116 C 
ENDROOT
BRANCH   1   2
ATOM      2  N   UNL A   1      36.136  21.765  26.524  1.00  0.00    -0.352 N 
ATOM      3  C   UNL A   1      34.783  21.500  26.442  1.00  0.00     0.251 C 
ATOM      4  O   UNL A   1      34.164  21.254  27.476  1.00  0.00    -0.269 OA
ATOM      5  H   UNL A   1      36.503  21.741  27.437  1.00  0.00     0.163 HD
BRANCH   3   6
ATOM      6  C   UNL A   1      34.042  21.584  25.152  1.00  0.00     0.041 A 
ATOM      7  C   UNL A   1      33.037  22.949  23.419  1.00  0.00     0.052 A 
ATOM      8  C   UNL A   1      32.271  21.841  23.020  1.00  0.00     0.027 A 
ATOM      9  C   UNL A   1      34.030  22.747  24.381  1.00  0.00     0.040 A 
ATOM     10  C   UNL A   1      32.407  20.608  23.663  1.00  0.00     0.003 A 
ATOM     11  C   UNL A   1      33.258  20.492  24.761  1.00  0.00     0.014 A 
BRANCH   7  12
ATOM     12  N   UNL A   1      32.709  24.291  22.986  1.00  0.00    -0.251 N 
ATOM     13  C   UNL A   1      30.491  27.093  23.815  1.00  0.00     0.031 C 
ATOM     14  C   UNL A   1      31.527  26.428  23.249  1.00  0.00     0.103 C 
ATOM     15  C   UNL A   1      31.887  25.083  23.810  1.00  0.00     0.270 C 
ATOM     16  C   UNL A   1      32.396  26.841  22.153  1.00  0.00     0.226 C 
ATOM     17  O   UNL A   1      31.454  24.743  24.911  1.00  0.00    -0.268 OA
ATOM     18  N   UNL A   1      33.125  26.074  21.439  1.00  0.00    -0.184 NA
ATOM     19  C   UNL A   1      33.071  24.724  21.687  1.00  0.00     0.210 C 
ATOM     20  S   UNL A   1      33.366  23.694  20.363  1.00  0.00    -0.038 S 
BRANCH  13  21
ATOM     21  C   UNL A   1      29.944  28.445  23.538  1.00  0.00     0.021 A 
ATOM     22  C   UNL A   1      30.356  29.560  24.318  1.00  0.00     0.130 A 
ATOM     23  C   UNL A   1      30.066  30.874  23.932  1.00  0.00     0.097 A 
ATOM     24  C   UNL A   1      29.262  31.051  22.835  1.00  0.00     0.169 A 
ATOM     25  C   UNL A   1      29.022  28.677  22.504  1.00  0.00     0.062 A 
ATOM     26  C   UNL A   1      28.730  29.983  22.159  1.00  0.00     0.166 A 
ATOM     27  O   UNL A   1      28.895  32.245  22.302  1.00  0.00    -0.453 OA
ATOM     28  O   UNL A   1      27.952  30.373  21.113  1.00  0.00    -0.454 OA
ATOM     29  C   UNL A   1      28.135  31.805  21.160  1.00  0.00     0.468 C 
BRANCH  22  30
ATOM     30  O   UNL A   1      31.111  29.389  25.456  1.00  0.00    -0.493 OA
BRANCH  30  31
ATOM     31  C   UNL A   1      31.729  30.626  25.863  1.00  0.00     0.226 C 
ATOM     32  C   UNL A   1      32.697  30.440  27.025  1.00  0.00     0.049 C 
ENDBRANCH  30  31
ENDBRANCH  22  30
ENDBRANCH  13  21
BRANCH  16  33
ATOM     33  O   UNL A   1      32.487  28.142  21.888  1.00  0.00    -0.493 OA
ATOM     34  H   UNL A   1      32.980  28.436  21.148  1.00  0.00     0.295 HD
ENDBRANCH  16  33
ENDBRANCH   7  12
ENDBRANCH   3   6
ENDBRANCH   1   2
BRANCH   1  35
ATOM     35  C   UNL A   1      38.492  22.460  25.984  1.00  0.00     0.023 C 
BRANCH  35  36
ATOM     36  C   UNL A   1      39.404  21.318  26.404  1.00  0.00     0.023 C 
BRANCH  36  37
ATOM     37  C   UNL A   1      39.589  20.200  25.387  1.00  0.00     0.116 C 
BRANCH  37  38
ATOM     38  N   UNL A   1      40.497  19.147  25.821  1.00  0.00    -0.352 N 
ATOM     39  C   UNL A   1      41.761  19.239  26.364  1.00  0.00     0.251 C 
ATOM     40  H   UNL A   1      40.157  18.231  25.708  1.00  0.00     0.163 HD
ATOM     41  O   UNL A   1      42.403  18.228  26.603  1.00  0.00    -0.269 OA
BRANCH  39  42
ATOM     42  C   UNL A   1      42.359  20.571  26.612  1.00  0.00     0.039 A 
ATOM     43  C   UNL A   1      42.735  21.352  25.516  1.00  0.00     0.014 A 
ATOM     44  C   UNL A   1      42.509  21.062  27.910  1.00  0.00     0.014 A 
ATOM     45  C   UNL A   1      43.166  22.666  25.720  1.00  0.00     0.010 A 
ATOM     46  C   UNL A   1      42.853  22.397  28.105  1.00  0.00     0.010 A 
ATOM     47  C   UNL A   1      43.175  23.216  27.012  1.00  0.00    -0.014 A 
BRANCH  47  48
ATOM     48  C   UNL A   1      43.492  24.650  27.240  1.00  0.00     0.031 A 
ATOM     49  C   UNL A   1      44.883  25.166  27.008  1.00  0.00     0.074 A 
ATOM     50  C   UNL A   1      42.545  25.469  27.740  1.00  0.00     0.049 A 
ATOM     51  N   UNL A   1      45.372  26.361  27.227  1.00  0.00    -0.248 NA
ATOM     52  C   UNL A   1      45.866  24.203  26.487  1.00  0.00     0.031 C 
ATOM     53  C   UNL A   1      41.173  25.077  28.067  1.00  0.00     0.029 A 
ATOM     54  N   UNL A   1      42.596  26.800  28.075  1.00  0.00    -0.354 N 
ATOM     55  C   UNL A   1      46.717  26.286  26.890  1.00  0.00     0.074 A 
ATOM     56  C   UNL A   1      46.981  24.917  26.504  1.00  0.00     0.031 C 
ATOM     57  C   UNL A   1      40.508  26.146  28.533  1.00  0.00     0.029 A 
ATOM     58  C   UNL A   1      41.414  27.290  28.575  1.00  0.00     0.049 A 
ATOM     59  H   UNL A   1      43.405  27.352  27.966  1.00  0.00     0.167 HD
ATOM     60  C   UNL A   1      47.643  27.275  26.880  1.00  0.00     0.037 A 
ATOM     61  C   UNL A   1      41.098  28.519  29.024  1.00  0.00     0.037 A 
ATOM     62  C   UNL A   1      47.371  28.642  27.240  1.00  0.00     0.049 A 
ATOM     63  C   UNL A   1      42.143  29.601  28.999  1.00  0.00     0.074 A 
ATOM     64  C   UNL A   1      48.221  29.733  27.192  1.00  0.00     0.029 A 
ATOM     65  N   UNL A   1      46.153  29.106  27.719  1.00  0.00    -0.354 N 
ATOM     66  N   UNL A   1      43.390  29.538  28.602  1.00  0.00    -0.248 NA
ATOM     67  C   UNL A   1      41.733  30.928  29.480  1.00  0.00     0.031 C 
ATOM     68  C   UNL A   1      47.534  30.845  27.688  1.00  0.00     0.029 A 
ATOM     69  C   UNL A   1      46.239  30.461  27.994  1.00  0.00     0.049 A 
ATOM     70  H   UNL A   1      45.349  28.553  27.844  1.00  0.00     0.167 HD
ATOM     71  C   UNL A   1      43.907  30.817  28.761  1.00  0.00     0.074 A 
ATOM     72  C   UNL A   1      42.832  31.641  29.275  1.00  0.00     0.031 C 
ATOM     73  C   UNL A   1      45.159  31.268  28.504  1.00  0.00     0.037 A 
BRANCH  60  74
ATOM     74  C   UNL A   1      49.039  26.913  26.461  1.00  0.00     0.064 A 
ATOM     75  C   UNL A   1      49.456  27.012  25.125  1.00  0.00     0.173 A 
ATOM     76  C   UNL A   1      49.980  26.489  27.411  1.00  0.00     0.173 A 
ATOM     77  F   UNL A   1      48.591  27.402  24.175  1.00  0.00    -0.203 F 
ATOM     78  C   UNL A   1      50.751  26.669  24.751  1.00  0.00     0.198 A 
ATOM     79  C   UNL A   1      51.284  26.176  27.038  1.00  0.00     0.198 A 
ATOM     80  F   UNL A   1      49.636  26.382  28.704  1.00  0.00    -0.203 F 
ATOM     81  F   UNL A   1      51.110  26.719  23.460  1.00  0.00    -0.200 F 
ATOM     82  C   UNL A   1      51.667  26.258  25.708  1.00  0.00     0.200 A 
ATOM     83  F   UNL A   1      52.172  25.793  27.966  1.00  0.00    -0.200 F 
ATOM     84  F   UNL A   1      52.916  25.932  25.346  1.00  0.00    -0.200 F 
ENDBRANCH  60  74
BRANCH  61  85
ATOM     85  C   UNL A   1      39.722  28.799  29.510  1.00  0.00     0.064 A 
ATOM     86  C   UNL A   1      38.740  29.296  28.641  1.00  0.00     0.173 A 
ATOM     87  C   UNL A   1      39.358  28.578  30.846  1.00  0.00     0.173 A 
ATOM     88  F   UNL A   1      39.045  29.543  27.359  1.00  0.00    -0.203 F 
ATOM     89  C   UNL A   1      37.452  29.577  29.093  1.00  0.00     0.198 A 
ATOM     90  C   UNL A   1      38.063  28.833  31.292  1.00  0.00     0.198 A 
ATOM     91  F   UNL A   1      40.259  28.099  31.717  1.00  0.00    -0.203 F 
ATOM     92  F   UNL A   1      36.546  30.091  28.251  1.00  0.00    -0.200 F 
ATOM     93  C   UNL A   1      37.113  29.339  30.417  1.00  0.00     0.200 A 
ATOM     94  F   UNL A   1      37.734  28.588  32.568  1.00  0.00    -0.200 F 
ATOM     95  F   UNL A   1      35.873  29.604  30.850  1.00  0.00    -0.200 F 
ENDBRANCH  61  85
BRANCH  73  96
ATOM     96  C   UNL A   1      45.429  32.725  28.746  1.00  0.00     0.064 A 
ATOM     97  C   UNL A   1      45.168  33.695  27.767  1.00  0.00     0.173 A 
ATOM     98  C   UNL A   1      45.917  33.159  29.988  1.00  0.00     0.173 A 
ATOM     99  F   UNL A   1      44.716  33.329  26.558  1.00  0.00    -0.203 F 
ATOM    100  C   UNL A   1      45.410  35.043  28.014  1.00  0.00     0.198 A 
ATOM    101  C   UNL A   1      46.127  34.512  30.242  1.00  0.00     0.198 A 
ATOM    102  F   UNL A   1      46.175  32.273  30.960  1.00  0.00    -0.203 F 
ATOM    103  F   UNL A   1      45.199  35.948  27.047  1.00  0.00    -0.200 F 
ATOM    104  C   UNL A   1      45.881  35.452  29.253  1.00  0.00     0.200 A 
ATOM    105  F   UNL A   1      46.571  34.905  31.444  1.00  0.00    -0.200 F 
ATOM    106  F   UNL A   1      46.106  36.750  29.491  1.00  0.00    -0.200 F 
ENDBRANCH  73  96
ENDBRANCH  47  48
ENDBRANCH  39  42
ENDBRANCH  37  38
ENDBRANCH  36  37
ENDBRANCH  35  36
ENDBRANCH   1  35
TORSDOF 16
ENDMDL
MODEL 3
REMARK VINA RESULT:     -12.6      9.462     16.802
REMARK SMILES CCOc1cc2c(cc1/C=C1/C(=O)N(c3cccc(C(=O)NCCCCNC(=O)c4ccc(-c5c6nc(c(-c7c(F)c(F)c(F)c(F)c7F)c7ccc([nH]7)c(-c7c(F)c(F)c(F)c(F)c7F)c7nc(c(-c8c(F)c(F)c(F)c(F)c8F)c8ccc5[nH]8)C=C7)C=C6)cc4)c3)C(=S)N=C1O)OCO2
REMARK SMILES IDX 23 1 22 2 20 3 21 4 19 6 15 7 16 8 93 9 17 10 18 11 14 12
REMARK SMILES IDX 10 13 11 14 12 15 97 16 13 17 96 18 94 19 95 20 9 21 4 22
REMARK SMILES IDX 5 23 6 24 8 25 7 26 101 27 99 28 100 29 3 30 2 31 1 32 98 33
REMARK SMILES IDX 24 35 25 36 26 37 27 38 28 39 29 41 30 42 31 43 92 44 32 45
REMARK SMILES IDX 91 46 33 47 34 48 35 49 85 50 36 51 90 52 84 53 86 54 37 55
REMARK SMILES IDX 89 56 83 57 82 58 38 60 70 61 50 62 69 63 51 64 54 65 68 66
REMARK SMILES IDX 87 67 52 68 53 69 67 71 88 72 55 73 39 74 40 75 48 76 41 77
REMARK SMILES IDX 42 78 46 79 49 80 43 81 44 82 47 83 45 84 71 85 72 86 80 87
REMARK SMILES IDX 73 88 74 89 78 90 81 91 75 92 76 93 79 94 77 95 56 96 57 97
REMARK SMILES IDX 65 98 58 99 59 100 63 101 66 102 60 103 61 104 64 105 62 106
REMARK H PARENT 22 5 98 34 27 40 86 59 54 70
REMARK Flexibility Score: inf
ROOT
ATOM      1  C   UNL A   1      48.721  21.172  34.631  1.00  0.00     0.116 C 
ENDROOT
BRANCH   1   2
ATOM      2  N   UNL A   1      49.758  20.152  34.607  1.00  0.00    -0.352 N 
ATOM      3  C   UNL A   1      50.522  19.620  35.627  1.00  0.00     0.251 C 
ATOM      4  O   UNL A   1      51.345  18.747  35.356  1.00  0.00    -0.269 OA
ATOM      5  H   UNL A   1      49.947  19.779  33.716  1.00  0.00     0.163 HD
BRANCH   3   6
ATOM      6  C   UNL A   1      50.435  20.130  37.024  1.00  0.00     0.041 A 
ATOM      7  C   UNL A   1      49.187  20.312  39.094  1.00  0.00     0.052 A 
ATOM      8  C   UNL A   1      49.973  21.422  39.446  1.00  0.00     0.027 A 
ATOM      9  C   UNL A   1      49.546  19.589  37.955  1.00  0.00     0.040 A 
ATOM     10  C   UNL A   1      50.998  21.866  38.607  1.00  0.00     0.003 A 
ATOM     11  C   UNL A   1      51.197  21.250  37.374  1.00  0.00     0.014 A 
BRANCH   7  12
ATOM     12  N   UNL A   1      47.944  20.018  39.779  1.00  0.00    -0.251 N 
ATOM     13  C   UNL A   1      46.264  17.313  41.600  1.00  0.00     0.031 C 
ATOM     14  C   UNL A   1      46.514  18.566  41.149  1.00  0.00     0.103 C 
ATOM     15  C   UNL A   1      47.859  18.838  40.541  1.00  0.00     0.270 C 
ATOM     16  C   UNL A   1      45.654  19.744  41.183  1.00  0.00     0.226 C 
ATOM     17  O   UNL A   1      48.782  18.043  40.718  1.00  0.00    -0.268 OA
ATOM     18  N   UNL A   1      45.784  20.792  40.466  1.00  0.00    -0.184 NA
ATOM     19  C   UNL A   1      46.799  20.818  39.543  1.00  0.00     0.210 C 
ATOM     20  S   UNL A   1      46.536  21.755  38.145  1.00  0.00    -0.038 S 
BRANCH  13  21
ATOM     21  C   UNL A   1      45.079  16.757  42.300  1.00  0.00     0.021 A 
ATOM     22  C   UNL A   1      43.831  16.649  41.627  1.00  0.00     0.130 A 
ATOM     23  C   UNL A   1      42.772  15.905  42.158  1.00  0.00     0.097 A 
ATOM     24  C   UNL A   1      42.932  15.379  43.416  1.00  0.00     0.169 A 
ATOM     25  C   UNL A   1      45.143  16.311  43.630  1.00  0.00     0.062 A 
ATOM     26  C   UNL A   1      44.074  15.602  44.143  1.00  0.00     0.166 A 
ATOM     27  O   UNL A   1      42.027  14.615  44.079  1.00  0.00    -0.453 OA
ATOM     28  O   UNL A   1      44.026  15.008  45.366  1.00  0.00    -0.454 OA
ATOM     29  C   UNL A   1      42.763  14.312  45.279  1.00  0.00     0.468 C 
BRANCH  22  30
ATOM     30  O   UNL A   1      43.641  17.226  40.392  1.00  0.00    -0.493 OA
BRANCH  30  31
ATOM     31  C   UNL A   1      43.160  16.262  39.435  1.00  0.00     0.226 C 
ATOM     32  C   UNL A   1      43.989  16.244  38.157  1.00  0.00     0.049 C 
ENDBRANCH  30  31
ENDBRANCH  22  30
ENDBRANCH  13  21
BRANCH  16  33
ATOM     33  O   UNL A   1      44.666  19.766  42.074  1.00  0.00    -0.493 OA
ATOM     34  H   UNL A   1      44.511  20.537  42.583  1.00  0.00     0.295 HD
ENDBRANCH  16  33
ENDBRANCH   7  12
ENDBRANCH   3   6
ENDBRANCH   1   2
BRANCH   1  35
ATOM     35  C   UNL A   1      49.211  22.604  34.478  1.00  0.00     0.023 C 
BRANCH  35  36
ATOM     36  C   UNL A   1      48.205  23.702  34.787  1.00  0.00     0.023 C 
BRANCH  36  37
ATOM     37  C   UNL A   1      48.786  25.046  35.202  1.00  0.00     0.116 C 
BRANCH  37  38
ATOM     38  N   UNL A   1      48.418  25.462  36.549  1.00  0.00    -0.352 N 
ATOM     39  C   UNL A   1      47.325  26.181  36.983  1.00  0.00     0.251 C 
ATOM     40  H   UNL A   1      49.045  25.187  37.256  1.00  0.00     0.163 HD
ATOM     41  O   UNL A   1      47.223  26.496  38.159  1.00  0.00    -0.269 OA
BRANCH  39  42
ATOM     42  C   UNL A   1      46.298  26.615  36.010  1.00  0.00     0.039 A 
ATOM     43  C   UNL A   1      45.134  25.853  35.877  1.00  0.00     0.014 A 
ATOM     44  C   UNL A   1      46.460  27.784  35.264  1.00  0.00     0.014 A 
ATOM     45  C   UNL A   1      44.090  26.320  35.073  1.00  0.00     0.010 A 
ATOM     46  C   UNL A   1      45.388  28.290  34.535  1.00  0.00     0.010 A 
ATOM     47  C   UNL A   1      44.187  27.569  34.440  1.00  0.00    -0.014 A 
BRANCH  47  48
ATOM     48  C   UNL A   1      43.040  28.152  33.697  1.00  0.00     0.031 A 
ATOM     49  C   UNL A   1      42.848  27.848  32.239  1.00  0.00     0.074 A 
ATOM     50  C   UNL A   1      42.221  29.025  34.316  1.00  0.00     0.049 A 
ATOM     51  N   UNL A   1      41.959  28.322  31.403  1.00  0.00    -0.248 NA
ATOM     52  C   UNL A   1      43.801  26.907  31.629  1.00  0.00     0.031 C 
ATOM     53  C   UNL A   1      42.337  29.450  35.712  1.00  0.00     0.029 A 
ATOM     54  N   UNL A   1      41.134  29.722  33.848  1.00  0.00    -0.354 N 
ATOM     55  C   UNL A   1      42.257  27.754  30.171  1.00  0.00     0.074 A 
ATOM     56  C   UNL A   1      43.441  26.943  30.355  1.00  0.00     0.031 C 
ATOM     57  C   UNL A   1      41.350  30.317  35.992  1.00  0.00     0.029 A 
ATOM     58  C   UNL A   1      40.555  30.539  34.788  1.00  0.00     0.049 A 
ATOM     59  H   UNL A   1      40.803  29.645  32.924  1.00  0.00     0.167 HD
ATOM     60  C   UNL A   1      41.590  27.878  28.999  1.00  0.00     0.037 A 
ATOM     61  C   UNL A   1      39.506  31.376  34.690  1.00  0.00     0.037 A 
ATOM     62  C   UNL A   1      40.397  28.665  28.825  1.00  0.00     0.049 A 
ATOM     63  C   UNL A   1      38.779  31.494  33.378  1.00  0.00     0.074 A 
ATOM     64  C   UNL A   1      39.606  28.796  27.698  1.00  0.00     0.029 A 
ATOM     65  N   UNL A   1      39.825  29.460  29.809  1.00  0.00    -0.354 N 
ATOM     66  N   UNL A   1      39.022  30.889  32.241  1.00  0.00    -0.248 NA
ATOM     67  C   UNL A   1      37.628  32.406  33.338  1.00  0.00     0.031 C 
ATOM     68  C   UNL A   1      38.584  29.708  27.983  1.00  0.00     0.029 A 
ATOM     69  C   UNL A   1      38.706  30.103  29.305  1.00  0.00     0.049 A 
ATOM     70  H   UNL A   1      40.164  29.552  30.728  1.00  0.00     0.167 HD
ATOM     71  C   UNL A   1      38.043  31.326  31.359  1.00  0.00     0.074 A 
ATOM     72  C   UNL A   1      37.191  32.235  32.097  1.00  0.00     0.031 C 
ATOM     73  C   UNL A   1      37.866  31.004  30.054  1.00  0.00     0.037 A 
BRANCH  60  74
ATOM     74  C   UNL A   1      42.135  27.140  27.810  1.00  0.00     0.064 A 
ATOM     75  C   UNL A   1      43.081  27.721  26.952  1.00  0.00     0.173 A 
ATOM     76  C   UNL A   1      41.728  25.824  27.542  1.00  0.00     0.173 A 
ATOM     77  F   UNL A   1      43.495  28.981  27.157  1.00  0.00    -0.203 F 
ATOM     78  C   UNL A   1      43.573  27.026  25.851  1.00  0.00     0.198 A 
ATOM     79  C   UNL A   1      42.247  25.120  26.458  1.00  0.00     0.198 A 
ATOM     80  F   UNL A   1      40.831  25.217  28.335  1.00  0.00    -0.203 F 
ATOM     81  F   UNL A   1      44.434  27.622  25.015  1.00  0.00    -0.200 F 
ATOM     82  C   UNL A   1      43.161  25.724  25.609  1.00  0.00     0.200 A 
ATOM     83  F   UNL A   1      41.859  23.857  26.233  1.00  0.00    -0.200 F 
ATOM     84  F   UNL A   1      43.641  25.054  24.551  1.00  0.00    -0.200 F 
ENDBRANCH  60  74
BRANCH  61  85
ATOM     85  C   UNL A   1      39.061  32.151  35.879  1.00  0.00     0.064 A 
ATOM     86  C   UNL A   1      39.478  33.476  36.070  1.00  0.00     0.173 A 
ATOM     87  C   UNL A   1      38.215  31.587  36.844  1.00  0.00     0.173 A 
ATOM     88  F   UNL A   1      40.304  34.051  35.185  1.00  0.00    -0.203 F 
ATOM     89  C   UNL A   1      39.078  34.202  37.190  1.00  0.00     0.198 A 
ATOM     90  C   UNL A   1      37.793  32.323  37.950  1.00  0.00     0.198 A 
ATOM     91  F   UNL A   1      37.784  30.325  36.705  1.00  0.00    -0.203 F 
ATOM     92  F   UNL A   1      39.526  35.452  37.370  1.00  0.00    -0.200 F 
ATOM     93  C   UNL A   1      38.231  33.627  38.126  1.00  0.00     0.200 A 
ATOM     94  F   UNL A   1      36.963  31.769  38.844  1.00  0.00    -0.200 F 
ATOM     95  F   UNL A   1      37.842  34.328  39.200  1.00  0.00    -0.200 F 
ENDBRANCH  61  85
BRANCH  73  96
ATOM     96  C   UNL A   1      36.691  31.615  29.348  1.00  0.00     0.064 A 
ATOM     97  C   UNL A   1      36.673  32.970  28.985  1.00  0.00     0.173 A 
ATOM     98  C   UNL A   1      35.586  30.825  28.994  1.00  0.00     0.173 A 
ATOM     99  F   UNL A   1      37.698  33.770  29.314  1.00  0.00    -0.203 F 
ATOM    100  C   UNL A   1      35.582  33.517  28.316  1.00  0.00     0.198 A 
ATOM    101  C   UNL A   1      34.510  31.369  28.298  1.00  0.00     0.198 A 
ATOM    102  F   UNL A   1      35.557  29.523  29.312  1.00  0.00    -0.203 F 
ATOM    103  F   UNL A   1      35.565  34.825  28.022  1.00  0.00    -0.200 F 
ATOM    104  C   UNL A   1      34.505  32.715  27.966  1.00  0.00     0.200 A 
ATOM    105  F   UNL A   1      33.477  30.589  27.949  1.00  0.00    -0.200 F 
ATOM    106  F   UNL A   1      33.459  33.242  27.316  1.00  0.00    -0.200 F 
ENDBRANCH  73  96
ENDBRANCH  47  48
ENDBRANCH  39  42
ENDBRANCH  37  38
ENDBRANCH  36  37
ENDBRANCH  35  36
ENDBRANCH   1  35
TORSDOF 16
ENDMDL
