MODEL 1
REMARK VINA RESULT:     -13.3      0.000      0.000
REMARK SMILES C[C@@H](Sc1nnc(Cc2cccc3ccccc23)n1-c1ccccc1)C(=O)NCCCCNC(=O)c1ccc(-c2c3nc(c(-c4c(F)c(F)c(F)c(F)c4F)c4ccc([nH]4)c(-c4c(F)c(F)c(F)c(F)c4F)c4nc(c(-c5c(F)c(F)c(F)c(F)c5F)c5ccc2[nH]5)C=C4)C=C3)cc1
REMARK SMILES IDX 29 1 28 2 26 3 27 4 2 6 1 7 3 8 4 9 5 10 19 11 6 12 7 13
REMARK SMILES IDX 20 14 21 15 25 16 22 17 24 18 23 19 8 20 9 21 10 22 18 23
REMARK SMILES IDX 11 24 13 25 17 26 12 27 14 28 16 29 15 30 30 31 31 32 32 33
REMARK SMILES IDX 33 34 34 35 35 37 36 38 37 39 98 40 38 41 97 42 39 43 40 44
REMARK SMILES IDX 41 45 91 46 42 47 96 48 90 49 92 50 43 51 95 52 89 53 88 54
REMARK SMILES IDX 44 56 76 57 56 58 75 59 57 60 60 61 74 62 93 63 58 64 59 65
REMARK SMILES IDX 73 67 94 68 61 69 45 70 46 71 54 72 47 73 48 74 52 75 55 76
REMARK SMILES IDX 49 77 50 78 53 79 51 80 77 81 78 82 86 83 79 84 80 85 84 86
REMARK SMILES IDX 87 87 81 88 82 89 85 90 83 91 62 92 63 93 71 94 64 95 65 96
REMARK SMILES IDX 69 97 72 98 66 99 67 100 70 101 68 102
REMARK H PARENT 28 5 33 36 92 55 60 66
REMARK Flexibility Score: inf
ROOT
ATOM      1  C   UNL A   1      40.162  21.942  26.315  1.00  0.00     0.116 C 
ENDROOT
BRANCH   1   2
ATOM      2  N   UNL A   1      39.041  21.202  25.760  1.00  0.00    -0.355 N 
ATOM      3  C   UNL A   1      37.755  21.585  25.492  1.00  0.00     0.233 C 
ATOM      4  O   UNL A   1      37.015  20.735  24.989  1.00  0.00    -0.274 OA
ATOM      5  H   UNL A   1      39.242  20.263  25.538  1.00  0.00     0.163 HD
BRANCH   3   6
ATOM      6  C   UNL A   1      37.229  22.992  25.813  1.00  0.00     0.141 C 
ATOM      7  C   UNL A   1      38.375  23.967  26.073  1.00  0.00     0.030 C 
BRANCH   6   8
ATOM      8  S   UNL A   1      36.016  23.460  24.522  1.00  0.00    -0.073 SA
BRANCH   8   9
ATOM      9  C   UNL A   1      34.564  23.735  25.417  1.00  0.00     0.196 A 
ATOM     10  N   UNL A   1      34.261  23.156  26.556  1.00  0.00    -0.123 NA
ATOM     11  N   UNL A   1      33.603  24.675  25.092  1.00  0.00    -0.274 N 
ATOM     12  N   UNL A   1      33.049  23.655  26.967  1.00  0.00    -0.134 NA
ATOM     13  C   UNL A   1      32.629  24.529  26.070  1.00  0.00     0.142 A 
BRANCH  11  14
ATOM     14  C   UNL A   1      33.625  25.633  24.054  1.00  0.00     0.049 A 
ATOM     15  C   UNL A   1      34.118  26.918  24.319  1.00  0.00     0.027 A 
ATOM     16  C   UNL A   1      33.129  25.312  22.787  1.00  0.00     0.027 A 
ATOM     17  C   UNL A   1      34.074  27.894  23.325  1.00  0.00     0.002 A 
ATOM     18  C   UNL A   1      33.084  26.299  21.801  1.00  0.00     0.002 A 
ATOM     19  C   UNL A   1      33.547  27.588  22.072  1.00  0.00     0.000 A 
ENDBRANCH  11  14
BRANCH  13  20
ATOM     20  C   UNL A   1      31.287  25.200  26.074  1.00  0.00     0.114 C 
BRANCH  20  21
ATOM     21  C   UNL A   1      31.349  26.721  26.066  1.00  0.00    -0.033 A 
ATOM     22  C   UNL A   1      32.018  27.331  27.146  1.00  0.00     0.005 A 
ATOM     23  C   UNL A   1      30.824  27.536  25.014  1.00  0.00    -0.015 A 
ATOM     24  C   UNL A   1      32.196  28.708  27.197  1.00  0.00     0.001 A 
ATOM     25  C   UNL A   1      31.027  28.942  25.082  1.00  0.00    -0.018 A 
ATOM     26  C   UNL A   1      30.119  27.049  23.885  1.00  0.00     0.009 A 
ATOM     27  C   UNL A   1      31.708  29.505  26.168  1.00  0.00     0.009 A 
ATOM     28  C   UNL A   1      30.554  29.783  24.060  1.00  0.00     0.009 A 
ATOM     29  C   UNL A   1      29.653  27.900  22.876  1.00  0.00     0.001 A 
ATOM     30  C   UNL A   1      29.874  29.266  22.961  1.00  0.00     0.001 A 
ENDBRANCH  20  21
ENDBRANCH  13  20
ENDBRANCH   8   9
ENDBRANCH   6   8
ENDBRANCH   3   6
ENDBRANCH   1   2
BRANCH   1  31
ATOM     31  C   UNL A   1      40.779  21.254  27.536  1.00  0.00     0.023 C 
BRANCH  31  32
ATOM     32  C   UNL A   1      41.829  20.169  27.254  1.00  0.00     0.023 C 
BRANCH  32  33
ATOM     33  C   UNL A   1      42.081  19.890  25.780  1.00  0.00     0.116 C 
BRANCH  33  34
ATOM     34  N   UNL A   1      43.494  19.647  25.445  1.00  0.00    -0.352 N 
ATOM     35  C   UNL A   1      44.447  20.575  25.044  1.00  0.00     0.251 C 
ATOM     36  H   UNL A   1      43.800  18.714  25.512  1.00  0.00     0.163 HD
ATOM     37  O   UNL A   1      45.469  20.236  24.446  1.00  0.00    -0.269 OA
BRANCH  35  38
ATOM     38  C   UNL A   1      44.221  21.986  25.387  1.00  0.00     0.039 A 
ATOM     39  C   UNL A   1      43.407  22.860  24.662  1.00  0.00     0.014 A 
ATOM     40  C   UNL A   1      44.811  22.390  26.572  1.00  0.00     0.014 A 
ATOM     41  C   UNL A   1      43.164  24.125  25.197  1.00  0.00     0.010 A 
ATOM     42  C   UNL A   1      44.280  23.446  27.237  1.00  0.00     0.010 A 
ATOM     43  C   UNL A   1      43.611  24.399  26.499  1.00  0.00    -0.014 A 
BRANCH  43  44
ATOM     44  C   UNL A   1      43.412  25.661  27.183  1.00  0.00     0.031 A 
ATOM     45  C   UNL A   1      44.360  26.728  26.806  1.00  0.00     0.074 A 
ATOM     46  C   UNL A   1      42.309  25.908  27.926  1.00  0.00     0.049 A 
ATOM     47  N   UNL A   1      45.323  27.195  27.526  1.00  0.00    -0.248 NA
ATOM     48  C   UNL A   1      44.334  27.238  25.430  1.00  0.00     0.031 C 
ATOM     49  C   UNL A   1      41.118  25.073  28.155  1.00  0.00     0.029 A 
ATOM     50  N   UNL A   1      42.001  27.042  28.605  1.00  0.00    -0.354 N 
ATOM     51  C   UNL A   1      45.913  28.198  26.771  1.00  0.00     0.074 A 
ATOM     52  C   UNL A   1      45.388  28.058  25.436  1.00  0.00     0.031 C 
ATOM     53  C   UNL A   1      40.147  25.807  28.746  1.00  0.00     0.029 A 
ATOM     54  C   UNL A   1      40.704  27.098  29.097  1.00  0.00     0.049 A 
ATOM     55  H   UNL A   1      42.649  27.772  28.739  1.00  0.00     0.167 HD
ATOM     56  C   UNL A   1      46.609  29.200  27.376  1.00  0.00     0.037 A 
ATOM     57  C   UNL A   1      40.140  28.140  29.755  1.00  0.00     0.037 A 
ATOM     58  C   UNL A   1      46.901  28.866  28.752  1.00  0.00     0.049 A 
ATOM     59  C   UNL A   1      41.260  28.945  30.312  1.00  0.00     0.074 A 
ATOM     60  C   UNL A   1      47.623  27.865  29.372  1.00  0.00     0.029 A 
ATOM     61  N   UNL A   1      46.074  29.377  29.724  1.00  0.00    -0.354 N 
ATOM     62  N   UNL A   1      42.062  28.501  31.242  1.00  0.00    -0.248 NA
ATOM     63  C   UNL A   1      41.794  30.016  29.484  1.00  0.00     0.031 C 
ATOM     64  C   UNL A   1      46.841  27.497  30.509  1.00  0.00     0.029 A 
ATOM     65  C   UNL A   1      45.731  28.342  30.559  1.00  0.00     0.049 A 
ATOM     66  H   UNL A   1      45.782  30.314  29.808  1.00  0.00     0.167 HD
ATOM     67  C   UNL A   1      43.326  28.925  30.855  1.00  0.00     0.074 A 
ATOM     68  C   UNL A   1      43.089  29.911  29.800  1.00  0.00     0.031 C 
ATOM     69  C   UNL A   1      44.447  28.231  31.211  1.00  0.00     0.037 A 
BRANCH  56  70
ATOM     70  C   UNL A   1      46.710  30.612  26.863  1.00  0.00     0.064 A 
ATOM     71  C   UNL A   1      47.966  31.251  26.871  1.00  0.00     0.173 A 
ATOM     72  C   UNL A   1      45.597  31.455  26.655  1.00  0.00     0.173 A 
ATOM     73  F   UNL A   1      49.090  30.545  27.065  1.00  0.00    -0.203 F 
ATOM     74  C   UNL A   1      48.087  32.638  26.774  1.00  0.00     0.198 A 
ATOM     75  C   UNL A   1      45.728  32.835  26.504  1.00  0.00     0.198 A 
ATOM     76  F   UNL A   1      44.339  31.004  26.702  1.00  0.00    -0.203 F 
ATOM     77  F   UNL A   1      49.289  33.213  26.921  1.00  0.00    -0.200 F 
ATOM     78  C   UNL A   1      46.967  33.430  26.601  1.00  0.00     0.200 A 
ATOM     79  F   UNL A   1      44.628  33.586  26.352  1.00  0.00    -0.200 F 
ATOM     80  F   UNL A   1      47.073  34.765  26.578  1.00  0.00    -0.200 F 
ENDBRANCH  56  70
BRANCH  57  81
ATOM     81  C   UNL A   1      38.756  28.653  29.625  1.00  0.00     0.064 A 
ATOM     82  C   UNL A   1      37.961  28.913  30.752  1.00  0.00     0.173 A 
ATOM     83  C   UNL A   1      38.287  29.166  28.398  1.00  0.00     0.173 A 
ATOM     84  F   UNL A   1      38.359  28.501  31.965  1.00  0.00    -0.203 F 
ATOM     85  C   UNL A   1      36.781  29.661  30.662  1.00  0.00     0.198 A 
ATOM     86  C   UNL A   1      37.109  29.910  28.309  1.00  0.00     0.198 A 
ATOM     87  F   UNL A   1      39.013  29.035  27.278  1.00  0.00    -0.203 F 
ATOM     88  F   UNL A   1      36.077  29.938  31.769  1.00  0.00    -0.200 F 
ATOM     89  C   UNL A   1      36.362  30.169  29.442  1.00  0.00     0.200 A 
ATOM     90  F   UNL A   1      36.740  30.431  27.130  1.00  0.00    -0.200 F 
ATOM     91  F   UNL A   1      35.268  30.938  29.366  1.00  0.00    -0.200 F 
ENDBRANCH  57  81
BRANCH  69  92
ATOM     92  C   UNL A   1      44.284  27.110  32.203  1.00  0.00     0.064 A 
ATOM     93  C   UNL A   1      44.187  25.753  31.842  1.00  0.00     0.173 A 
ATOM     94  C   UNL A   1      44.378  27.399  33.569  1.00  0.00     0.173 A 
ATOM     95  F   UNL A   1      44.197  25.380  30.560  1.00  0.00    -0.203 F 
ATOM     96  C   UNL A   1      44.142  24.742  32.802  1.00  0.00     0.198 A 
ATOM     97  C   UNL A   1      44.365  26.387  34.526  1.00  0.00     0.198 A 
ATOM     98  F   UNL A   1      44.534  28.669  33.974  1.00  0.00    -0.203 F 
ATOM     99  F   UNL A   1      44.045  23.458  32.424  1.00  0.00    -0.200 F 
ATOM    100  C   UNL A   1      44.236  25.061  34.144  1.00  0.00     0.200 A 
ATOM    101  F   UNL A   1      44.506  26.696  35.823  1.00  0.00    -0.200 F 
ATOM    102  F   UNL A   1      44.233  24.090  35.069  1.00  0.00    -0.200 F 
ENDBRANCH  69  92
ENDBRANCH  43  44
ENDBRANCH  35  38
ENDBRANCH  33  34
ENDBRANCH  32  33
ENDBRANCH  31  32
ENDBRANCH   1  31
TORSDOF 16
ENDMDL
MODEL 2
REMARK VINA RESULT:     -12.9      2.517      3.932
REMARK SMILES C[C@@H](Sc1nnc(Cc2cccc3ccccc23)n1-c1ccccc1)C(=O)NCCCCNC(=O)c1ccc(-c2c3nc(c(-c4c(F)c(F)c(F)c(F)c4F)c4ccc([nH]4)c(-c4c(F)c(F)c(F)c(F)c4F)c4nc(c(-c5c(F)c(F)c(F)c(F)c5F)c5ccc2[nH]5)C=C4)C=C3)cc1
REMARK SMILES IDX 29 1 28 2 26 3 27 4 2 6 1 7 3 8 4 9 5 10 19 11 6 12 7 13
REMARK SMILES IDX 20 14 21 15 25 16 22 17 24 18 23 19 8 20 9 21 10 22 18 23
REMARK SMILES IDX 11 24 13 25 17 26 12 27 14 28 16 29 15 30 30 31 31 32 32 33
REMARK SMILES IDX 33 34 34 35 35 37 36 38 37 39 98 40 38 41 97 42 39 43 40 44
REMARK SMILES IDX 41 45 91 46 42 47 96 48 90 49 92 50 43 51 95 52 89 53 88 54
REMARK SMILES IDX 44 56 76 57 56 58 75 59 57 60 60 61 74 62 93 63 58 64 59 65
REMARK SMILES IDX 73 67 94 68 61 69 45 70 46 71 54 72 47 73 48 74 52 75 55 76
REMARK SMILES IDX 49 77 50 78 53 79 51 80 77 81 78 82 86 83 79 84 80 85 84 86
REMARK SMILES IDX 87 87 81 88 82 89 85 90 83 91 62 92 63 93 71 94 64 95 65 96
REMARK SMILES IDX 69 97 72 98 66 99 67 100 70 101 68 102
REMARK H PARENT 28 5 33 36 92 55 60 66
REMARK Flexibility Score: inf
ROOT
ATOM      1  C   UNL A   1      35.935  23.056  24.878  1.00  0.00     0.116 C 
ENDROOT
BRANCH   1   2
ATOM      2  N   UNL A   1      35.007  22.659  25.925  1.00  0.00    -0.355 N 
ATOM      3  C   UNL A   1      33.957  21.782  25.909  1.00  0.00     0.233 C 
ATOM      4  O   UNL A   1      33.351  21.621  26.972  1.00  0.00    -0.274 OA
ATOM      5  H   UNL A   1      35.161  23.095  26.794  1.00  0.00     0.163 HD
BRANCH   3   6
ATOM      6  C   UNL A   1      33.521  21.038  24.637  1.00  0.00     0.141 C 
ATOM      7  C   UNL A   1      33.461  19.531  24.869  1.00  0.00     0.030 C 
BRANCH   6   8
ATOM      8  S   UNL A   1      32.006  21.841  23.993  1.00  0.00    -0.073 SA
BRANCH   8   9
ATOM      9  C   UNL A   1      32.618  23.155  23.051  1.00  0.00     0.196 A 
ATOM     10  N   UNL A   1      33.087  23.051  21.830  1.00  0.00    -0.123 NA
ATOM     11  N   UNL A   1      32.585  24.482  23.437  1.00  0.00    -0.274 N 
ATOM     12  N   UNL A   1      33.444  24.310  21.412  1.00  0.00    -0.134 NA
ATOM     13  C   UNL A   1      33.190  25.164  22.389  1.00  0.00     0.142 A 
BRANCH  11  14
ATOM     14  C   UNL A   1      32.000  25.050  24.591  1.00  0.00     0.049 A 
ATOM     15  C   UNL A   1      30.623  25.304  24.606  1.00  0.00     0.027 A 
ATOM     16  C   UNL A   1      32.795  25.385  25.691  1.00  0.00     0.027 A 
ATOM     17  C   UNL A   1      30.048  25.934  25.709  1.00  0.00     0.002 A 
ATOM     18  C   UNL A   1      32.210  26.021  26.788  1.00  0.00     0.002 A 
ATOM     19  C   UNL A   1      30.842  26.302  26.793  1.00  0.00     0.000 A 
ENDBRANCH  11  14
BRANCH  13  20
ATOM     20  C   UNL A   1      33.559  26.617  22.389  1.00  0.00     0.114 C 
BRANCH  20  21
ATOM     21  C   UNL A   1      32.431  27.549  22.808  1.00  0.00    -0.033 A 
ATOM     22  C   UNL A   1      31.243  27.482  22.052  1.00  0.00     0.005 A 
ATOM     23  C   UNL A   1      32.495  28.424  23.938  1.00  0.00    -0.015 A 
ATOM     24  C   UNL A   1      30.127  28.236  22.396  1.00  0.00     0.001 A 
ATOM     25  C   UNL A   1      31.338  29.178  24.278  1.00  0.00    -0.018 A 
ATOM     26  C   UNL A   1      33.632  28.595  24.768  1.00  0.00     0.009 A 
ATOM     27  C   UNL A   1      30.175  29.072  23.504  1.00  0.00     0.009 A 
ATOM     28  C   UNL A   1      31.342  30.031  25.395  1.00  0.00     0.009 A 
ATOM     29  C   UNL A   1      33.620  29.450  25.876  1.00  0.00     0.001 A 
ATOM     30  C   UNL A   1      32.475  30.165  26.191  1.00  0.00     0.001 A 
ENDBRANCH  20  21
ENDBRANCH  13  20
ENDBRANCH   8   9
ENDBRANCH   6   8
ENDBRANCH   3   6
ENDBRANCH   1   2
BRANCH   1  31
ATOM     31  C   UNL A   1      36.700  21.868  24.284  1.00  0.00     0.023 C 
BRANCH  31  32
ATOM     32  C   UNL A   1      37.838  21.291  25.137  1.00  0.00     0.023 C 
BRANCH  32  33
ATOM     33  C   UNL A   1      38.691  22.327  25.853  1.00  0.00     0.116 C 
BRANCH  33  34
ATOM     34  N   UNL A   1      39.665  21.758  26.799  1.00  0.00    -0.352 N 
ATOM     35  C   UNL A   1      40.682  22.419  27.477  1.00  0.00     0.251 C 
ATOM     36  H   UNL A   1      39.587  20.792  26.973  1.00  0.00     0.163 HD
ATOM     37  O   UNL A   1      41.648  21.814  27.944  1.00  0.00    -0.269 OA
BRANCH  35  38
ATOM     38  C   UNL A   1      40.558  23.872  27.656  1.00  0.00     0.039 A 
ATOM     39  C   UNL A   1      39.376  24.596  27.482  1.00  0.00     0.014 A 
ATOM     40  C   UNL A   1      41.706  24.494  28.117  1.00  0.00     0.014 A 
ATOM     41  C   UNL A   1      39.375  25.945  27.839  1.00  0.00     0.010 A 
ATOM     42  C   UNL A   1      41.586  25.666  28.789  1.00  0.00     0.010 A 
ATOM     43  C   UNL A   1      40.499  26.463  28.501  1.00  0.00    -0.014 A 
BRANCH  43  44
ATOM     44  C   UNL A   1      40.624  27.838  28.945  1.00  0.00     0.031 A 
ATOM     45  C   UNL A   1      41.740  28.588  28.335  1.00  0.00     0.074 A 
ATOM     46  C   UNL A   1      39.663  28.446  29.676  1.00  0.00     0.049 A 
ATOM     47  N   UNL A   1      42.834  28.949  28.912  1.00  0.00    -0.248 NA
ATOM     48  C   UNL A   1      41.706  28.845  26.890  1.00  0.00     0.031 C 
ATOM     49  C   UNL A   1      38.347  27.945  30.108  1.00  0.00     0.029 A 
ATOM     50  N   UNL A   1      39.654  29.720  30.144  1.00  0.00    -0.354 N 
ATOM     51  C   UNL A   1      43.556  29.652  27.958  1.00  0.00     0.074 A 
ATOM     52  C   UNL A   1      42.905  29.402  26.697  1.00  0.00     0.031 C 
ATOM     53  C   UNL A   1      37.602  28.966  30.592  1.00  0.00     0.029 A 
ATOM     54  C   UNL A   1      38.443  30.144  30.672  1.00  0.00     0.049 A 
ATOM     55  H   UNL A   1      40.449  30.301  30.111  1.00  0.00     0.167 HD
ATOM     56  C   UNL A   1      44.493  30.565  28.335  1.00  0.00     0.037 A 
ATOM     57  C   UNL A   1      38.164  31.382  31.147  1.00  0.00     0.037 A 
ATOM     58  C   UNL A   1      44.822  30.419  29.734  1.00  0.00     0.049 A 
ATOM     59  C   UNL A   1      39.469  32.005  31.495  1.00  0.00     0.074 A 
ATOM     60  C   UNL A   1      45.368  29.406  30.498  1.00  0.00     0.029 A 
ATOM     61  N   UNL A   1      44.203  31.260  30.629  1.00  0.00    -0.354 N 
ATOM     62  N   UNL A   1      40.236  31.563  32.456  1.00  0.00    -0.248 NA
ATOM     63  C   UNL A   1      40.144  32.772  30.459  1.00  0.00     0.031 C 
ATOM     64  C   UNL A   1      44.623  29.423  31.718  1.00  0.00     0.029 A 
ATOM     65  C   UNL A   1      43.722  30.486  31.656  1.00  0.00     0.049 A 
ATOM     66  H   UNL A   1      44.119  32.238  30.548  1.00  0.00     0.167 HD
ATOM     67  C   UNL A   1      41.524  31.625  31.942  1.00  0.00     0.074 A 
ATOM     68  C   UNL A   1      41.411  32.442  30.733  1.00  0.00     0.031 C 
ATOM     69  C   UNL A   1      42.501  30.775  32.373  1.00  0.00     0.037 A 
BRANCH  56  70
ATOM     70  C   UNL A   1      44.843  31.810  27.563  1.00  0.00     0.064 A 
ATOM     71  C   UNL A   1      46.107  31.896  26.947  1.00  0.00     0.173 A 
ATOM     72  C   UNL A   1      44.126  33.022  27.656  1.00  0.00     0.173 A 
ATOM     73  F   UNL A   1      46.876  30.805  26.810  1.00  0.00    -0.203 F 
ATOM     74  C   UNL A   1      46.649  33.118  26.545  1.00  0.00     0.198 A 
ATOM     75  C   UNL A   1      44.649  34.232  27.204  1.00  0.00     0.198 A 
ATOM     76  F   UNL A   1      42.949  33.110  28.286  1.00  0.00    -0.203 F 
ATOM     77  F   UNL A   1      47.908  33.169  26.088  1.00  0.00    -0.200 F 
ATOM     78  C   UNL A   1      45.924  34.287  26.683  1.00  0.00     0.200 A 
ATOM     79  F   UNL A   1      43.935  35.356  27.361  1.00  0.00    -0.200 F 
ATOM     80  F   UNL A   1      46.467  35.468  26.363  1.00  0.00    -0.200 F 
ENDBRANCH  56  70
BRANCH  57  81
ATOM     81  C   UNL A   1      36.911  32.156  30.984  1.00  0.00     0.064 A 
ATOM     82  C   UNL A   1      36.062  32.414  32.070  1.00  0.00     0.173 A 
ATOM     83  C   UNL A   1      36.668  32.898  29.809  1.00  0.00     0.173 A 
ATOM     84  F   UNL A   1      36.254  31.785  33.239  1.00  0.00    -0.203 F 
ATOM     85  C   UNL A   1      35.045  33.374  31.996  1.00  0.00     0.198 A 
ATOM     86  C   UNL A   1      35.653  33.854  29.736  1.00  0.00     0.198 A 
ATOM     87  F   UNL A   1      37.473  32.777  28.744  1.00  0.00    -0.203 F 
ATOM     88  F   UNL A   1      34.290  33.636  33.072  1.00  0.00    -0.200 F 
ATOM     89  C   UNL A   1      34.849  34.102  30.833  1.00  0.00     0.200 A 
ATOM     90  F   UNL A   1      35.504  34.579  28.618  1.00  0.00    -0.200 F 
ATOM     91  F   UNL A   1      33.919  35.065  30.782  1.00  0.00    -0.200 F 
ENDBRANCH  57  81
BRANCH  69  92
ATOM     92  C   UNL A   1      42.190  29.905  33.563  1.00  0.00     0.064 A 
ATOM     93  C   UNL A   1      41.739  28.576  33.466  1.00  0.00     0.173 A 
ATOM     94  C   UNL A   1      42.500  30.379  34.843  1.00  0.00     0.173 A 
ATOM     95  F   UNL A   1      41.521  28.010  32.277  1.00  0.00    -0.203 F 
ATOM     96  C   UNL A   1      41.566  27.778  34.596  1.00  0.00     0.198 A 
ATOM     97  C   UNL A   1      42.356  29.572  35.969  1.00  0.00     0.198 A 
ATOM     98  F   UNL A   1      42.992  31.619  34.996  1.00  0.00    -0.203 F 
ATOM     99  F   UNL A   1      41.130  26.515  34.468  1.00  0.00    -0.200 F 
ATOM    100  C   UNL A   1      41.879  28.276  35.847  1.00  0.00     0.200 A 
ATOM    101  F   UNL A   1      42.708  30.042  37.173  1.00  0.00    -0.200 F 
ATOM    102  F   UNL A   1      41.752  27.500  36.933  1.00  0.00    -0.200 F 
ENDBRANCH  69  92
ENDBRANCH  43  44
ENDBRANCH  35  38
ENDBRANCH  33  34
ENDBRANCH  32  33
ENDBRANCH  31  32
ENDBRANCH   1  31
TORSDOF 16
ENDMDL
MODEL 3
REMARK VINA RESULT:     -12.8      2.476      3.599
REMARK SMILES C[C@@H](Sc1nnc(Cc2cccc3ccccc23)n1-c1ccccc1)C(=O)NCCCCNC(=O)c1ccc(-c2c3nc(c(-c4c(F)c(F)c(F)c(F)c4F)c4ccc([nH]4)c(-c4c(F)c(F)c(F)c(F)c4F)c4nc(c(-c5c(F)c(F)c(F)c(F)c5F)c5ccc2[nH]5)C=C4)C=C3)cc1
REMARK SMILES IDX 29 1 28 2 26 3 27 4 2 6 1 7 3 8 4 9 5 10 19 11 6 12 7 13
REMARK SMILES IDX 20 14 21 15 25 16 22 17 24 18 23 19 8 20 9 21 10 22 18 23
REMARK SMILES IDX 11 24 13 25 17 26 12 27 14 28 16 29 15 30 30 31 31 32 32 33
REMARK SMILES IDX 33 34 34 35 35 37 36 38 37 39 98 40 38 41 97 42 39 43 40 44
REMARK SMILES IDX 41 45 91 46 42 47 96 48 90 49 92 50 43 51 95 52 89 53 88 54
REMARK SMILES IDX 44 56 76 57 56 58 75 59 57 60 60 61 74 62 93 63 58 64 59 65
REMARK SMILES IDX 73 67 94 68 61 69 45 70 46 71 54 72 47 73 48 74 52 75 55 76
REMARK SMILES IDX 49 77 50 78 53 79 51 80 77 81 78 82 86 83 79 84 80 85 84 86
REMARK SMILES IDX 87 87 81 88 82 89 85 90 83 91 62 92 63 93 71 94 64 95 65 96
REMARK SMILES IDX 69 97 72 98 66 99 67 100 70 101 68 102
REMARK H PARENT 28 5 33 36 92 55 60 66
REMARK Flexibility Score: inf
ROOT
ATOM      1  C   UNL A   1      36.784  21.065  24.567  1.00  0.00     0.116 C 
ENDROOT
BRANCH   1   2
ATOM      2  N   UNL A   1      35.815  20.041  24.922  1.00  0.00    -0.355 N 
ATOM      3  C   UNL A   1      34.449  20.079  24.979  1.00  0.00     0.233 C 
ATOM      4  O   UNL A   1      33.876  19.031  25.294  1.00  0.00    -0.274 OA
ATOM      5  H   UNL A   1      36.210  19.172  25.164  1.00  0.00     0.163 HD
BRANCH   3   6
ATOM      6  C   UNL A   1      33.645  21.355  24.689  1.00  0.00     0.141 C 
ATOM      7  C   UNL A   1      32.166  21.044  24.478  1.00  0.00     0.030 C 
BRANCH   6   8
ATOM      8  S   UNL A   1      34.058  22.598  25.970  1.00  0.00    -0.073 SA
BRANCH   8   9
ATOM      9  C   UNL A   1      32.549  23.386  26.265  1.00  0.00     0.196 A 
ATOM     10  N   UNL A   1      31.825  23.243  27.351  1.00  0.00    -0.123 NA
ATOM     11  N   UNL A   1      31.983  24.340  25.439  1.00  0.00    -0.274 N 
ATOM     12  N   UNL A   1      30.722  24.052  27.225  1.00  0.00    -0.134 NA
ATOM     13  C   UNL A   1      30.788  24.674  26.061  1.00  0.00     0.142 A 
BRANCH  11  14
ATOM     14  C   UNL A   1      32.519  24.920  24.267  1.00  0.00     0.049 A 
ATOM     15  C   UNL A   1      33.446  25.963  24.382  1.00  0.00     0.027 A 
ATOM     16  C   UNL A   1      32.101  24.478  23.008  1.00  0.00     0.027 A 
ATOM     17  C   UNL A   1      33.924  26.593  23.234  1.00  0.00     0.002 A 
ATOM     18  C   UNL A   1      32.581  25.120  21.865  1.00  0.00     0.002 A 
ATOM     19  C   UNL A   1      33.483  26.180  21.979  1.00  0.00     0.000 A 
ENDBRANCH  11  14
BRANCH  13  20
ATOM     20  C   UNL A   1      29.713  25.544  25.480  1.00  0.00     0.114 C 
BRANCH  20  21
ATOM     21  C   UNL A   1      30.219  26.850  24.886  1.00  0.00    -0.033 A 
ATOM     22  C   UNL A   1      29.834  27.131  23.559  1.00  0.00     0.005 A 
ATOM     23  C   UNL A   1      30.997  27.808  25.609  1.00  0.00    -0.015 A 
ATOM     24  C   UNL A   1      30.179  28.330  22.948  1.00  0.00     0.001 A 
ATOM     25  C   UNL A   1      31.330  29.033  24.967  1.00  0.00    -0.018 A 
ATOM     26  C   UNL A   1      31.461  27.640  26.938  1.00  0.00     0.009 A 
ATOM     27  C   UNL A   1      30.917  29.275  23.651  1.00  0.00     0.009 A 
ATOM     28  C   UNL A   1      32.070  30.018  25.644  1.00  0.00     0.009 A 
ATOM     29  C   UNL A   1      32.198  28.630  27.598  1.00  0.00     0.001 A 
ATOM     30  C   UNL A   1      32.499  29.820  26.953  1.00  0.00     0.001 A 
ENDBRANCH  20  21
ENDBRANCH  13  20
ENDBRANCH   8   9
ENDBRANCH   6   8
ENDBRANCH   3   6
ENDBRANCH   1   2
BRANCH   1  31
ATOM     31  C   UNL A   1      38.017  21.054  25.477  1.00  0.00     0.023 C 
BRANCH  31  32
ATOM     32  C   UNL A   1      38.551  22.422  25.925  1.00  0.00     0.023 C 
BRANCH  32  33
ATOM     33  C   UNL A   1      39.711  22.366  26.906  1.00  0.00     0.116 C 
BRANCH  33  34
ATOM     34  N   UNL A   1      41.039  22.340  26.270  1.00  0.00    -0.352 N 
ATOM     35  C   UNL A   1      41.916  23.402  26.082  1.00  0.00     0.251 C 
ATOM     36  H   UNL A   1      41.342  21.465  25.936  1.00  0.00     0.163 HD
ATOM     37  O   UNL A   1      42.811  23.361  25.238  1.00  0.00    -0.269 OA
BRANCH  35  38
ATOM     38  C   UNL A   1      41.770  24.576  26.953  1.00  0.00     0.039 A 
ATOM     39  C   UNL A   1      42.455  24.764  28.156  1.00  0.00     0.014 A 
ATOM     40  C   UNL A   1      40.949  25.569  26.445  1.00  0.00     0.014 A 
ATOM     41  C   UNL A   1      42.331  25.999  28.795  1.00  0.00     0.010 A 
ATOM     42  C   UNL A   1      41.134  26.845  26.867  1.00  0.00     0.010 A 
ATOM     43  C   UNL A   1      41.663  27.036  28.125  1.00  0.00    -0.014 A 
BRANCH  43  44
ATOM     44  C   UNL A   1      41.478  28.369  28.662  1.00  0.00     0.031 A 
ATOM     45  C   UNL A   1      42.497  29.353  28.246  1.00  0.00     0.074 A 
ATOM     46  C   UNL A   1      40.342  28.735  29.299  1.00  0.00     0.049 A 
ATOM     47  N   UNL A   1      43.431  29.855  28.979  1.00  0.00    -0.248 NA
ATOM     48  C   UNL A   1      42.583  29.718  26.826  1.00  0.00     0.031 C 
ATOM     49  C   UNL A   1      39.102  27.975  29.528  1.00  0.00     0.029 A 
ATOM     50  N   UNL A   1      40.043  29.945  29.836  1.00  0.00    -0.354 N 
ATOM     51  C   UNL A   1      44.115  30.750  28.169  1.00  0.00     0.074 A 
ATOM     52  C   UNL A   1      43.671  30.493  26.822  1.00  0.00     0.031 C 
ATOM     53  C   UNL A   1      38.130  28.804  29.973  1.00  0.00     0.029 A 
ATOM     54  C   UNL A   1      38.721  30.102  30.229  1.00  0.00     0.049 A 
ATOM     55  H   UNL A   1      40.714  30.658  29.940  1.00  0.00     0.167 HD
ATOM     56  C   UNL A   1      44.815  31.781  28.716  1.00  0.00     0.037 A 
ATOM     57  C   UNL A   1      38.164  31.228  30.738  1.00  0.00     0.037 A 
ATOM     58  C   UNL A   1      45.002  31.582  30.135  1.00  0.00     0.049 A 
ATOM     59  C   UNL A   1      39.281  32.042  31.286  1.00  0.00     0.074 A 
ATOM     60  C   UNL A   1      45.635  30.623  30.902  1.00  0.00     0.029 A 
ATOM     61  N   UNL A   1      44.138  32.223  30.992  1.00  0.00    -0.354 N 
ATOM     62  N   UNL A   1      40.000  31.666  32.310  1.00  0.00    -0.248 NA
ATOM     63  C   UNL A   1      39.916  32.999  30.393  1.00  0.00     0.031 C 
ATOM     64  C   UNL A   1      44.765  30.407  32.014  1.00  0.00     0.029 A 
ATOM     65  C   UNL A   1      43.695  31.295  31.901  1.00  0.00     0.049 A 
ATOM     66  H   UNL A   1      43.884  33.174  30.959  1.00  0.00     0.167 HD
ATOM     67  C   UNL A   1      41.305  31.998  31.970  1.00  0.00     0.074 A 
ATOM     68  C   UNL A   1      41.182  32.878  30.807  1.00  0.00     0.031 C 
ATOM     69  C   UNL A   1      42.368  31.302  32.471  1.00  0.00     0.037 A 
BRANCH  56  70
ATOM     70  C   UNL A   1      45.014  33.128  28.071  1.00  0.00     0.064 A 
ATOM     71  C   UNL A   1      46.323  33.551  27.768  1.00  0.00     0.173 A 
ATOM     72  C   UNL A   1      44.021  34.130  28.019  1.00  0.00     0.173 A 
ATOM     73  F   UNL A   1      47.345  32.681  27.792  1.00  0.00    -0.203 F 
ATOM     74  C   UNL A   1      46.627  34.892  27.527  1.00  0.00     0.198 A 
ATOM     75  C   UNL A   1      44.321  35.459  27.724  1.00  0.00     0.198 A 
ATOM     76  F   UNL A   1      42.749  33.895  28.360  1.00  0.00    -0.203 F 
ATOM     77  F   UNL A   1      47.904  35.267  27.375  1.00  0.00    -0.200 F 
ATOM     78  C   UNL A   1      45.627  35.846  27.515  1.00  0.00     0.200 A 
ATOM     79  F   UNL A   1      43.338  36.370  27.732  1.00  0.00    -0.200 F 
ATOM     80  F   UNL A   1      45.923  37.142  27.353  1.00  0.00    -0.200 F 
ENDBRANCH  56  70
BRANCH  57  81
ATOM     81  C   UNL A   1      36.816  31.778  30.461  1.00  0.00     0.064 A 
ATOM     82  C   UNL A   1      35.915  32.067  31.497  1.00  0.00     0.173 A 
ATOM     83  C   UNL A   1      36.493  32.295  29.189  1.00  0.00     0.173 A 
ATOM     84  F   UNL A   1      36.172  31.652  32.747  1.00  0.00    -0.203 F 
ATOM     85  C   UNL A   1      34.772  32.846  31.281  1.00  0.00     0.198 A 
ATOM     86  C   UNL A   1      35.353  33.071  28.975  1.00  0.00     0.198 A 
ATOM     87  F   UNL A   1      37.329  32.137  28.153  1.00  0.00    -0.203 F 
ATOM     88  F   UNL A   1      33.965  33.151  32.307  1.00  0.00    -0.200 F 
ATOM     89  C   UNL A   1      34.498  33.358  30.023  1.00  0.00     0.200 A 
ATOM     90  F   UNL A   1      35.124  33.594  27.762  1.00  0.00    -0.200 F 
ATOM     91  F   UNL A   1      33.440  34.157  29.829  1.00  0.00    -0.200 F 
ENDBRANCH  57  81
BRANCH  69  92
ATOM     92  C   UNL A   1      42.089  30.297  33.558  1.00  0.00     0.064 A 
ATOM     93  C   UNL A   1      41.836  28.934  33.318  1.00  0.00     0.173 A 
ATOM     94  C   UNL A   1      42.229  30.692  34.893  1.00  0.00     0.173 A 
ATOM     95  F   UNL A   1      41.791  28.452  32.073  1.00  0.00    -0.203 F 
ATOM     96  C   UNL A   1      41.688  28.023  34.363  1.00  0.00     0.198 A 
ATOM     97  C   UNL A   1      42.113  29.775  35.936  1.00  0.00     0.198 A 
ATOM     98  F   UNL A   1      42.532  31.967  35.185  1.00  0.00    -0.203 F 
ATOM     99  F   UNL A   1      41.442  26.730  34.099  1.00  0.00    -0.200 F 
ATOM    100  C   UNL A   1      41.831  28.444  35.672  1.00  0.00     0.200 A 
ATOM    101  F   UNL A   1      42.301  30.179  37.200  1.00  0.00    -0.200 F 
ATOM    102  F   UNL A   1      41.729  27.564  36.678  1.00  0.00    -0.200 F 
ENDBRANCH  69  92
ENDBRANCH  43  44
ENDBRANCH  35  38
ENDBRANCH  33  34
ENDBRANCH  32  33
ENDBRANCH  31  32
ENDBRANCH   1  31
TORSDOF 16
ENDMDL
