MODEL 1
REMARK VINA RESULT:     -12.0      0.000      0.000
REMARK SMILES Cc1c(I)cccc1[C@H]([NH3+])C(=O)NCCCCNC(=O)c1ccc(-c2c3nc(c(-c4c(F)c(F)c(F)c(F)c4F)c4ccc([nH]4)c(-c4c(F)c(F)c(F)c(F)c4F)c4nc(c(-c5c(F)c(F)c(F)c(F)c5F)c5ccc2[nH]5)C=C4)C=C3)cc1
REMARK SMILES IDX 16 1 15 2 14 3 13 4 11 5 12 6 9 8 8 9 1 10 2 11 3 12 4 13
REMARK SMILES IDX 5 14 7 15 6 16 10 17 17 21 18 22 19 23 20 25 21 26 22 27
REMARK SMILES IDX 83 28 23 29 82 30 24 31 25 32 26 33 76 34 27 35 81 36 75 37
REMARK SMILES IDX 77 38 28 39 80 40 74 41 73 42 29 44 61 45 41 46 60 47 42 48
REMARK SMILES IDX 45 49 59 50 78 51 43 52 44 53 58 55 79 56 46 57 30 58 31 59
REMARK SMILES IDX 39 60 32 61 33 62 37 63 40 64 34 65 35 66 38 67 36 68 62 69
REMARK SMILES IDX 63 70 71 71 64 72 65 73 69 74 72 75 66 76 67 77 70 78 68 79
REMARK SMILES IDX 47 80 48 81 56 82 49 83 50 84 54 85 57 86 51 87 52 88 55 89
REMARK SMILES IDX 53 90
REMARK H PARENT 13 7 10 18 10 19 10 20 18 24 77 43 45 54
REMARK Flexibility Score: inf
ROOT
ATOM      1  C   UNL A   1      32.432  29.557  25.229  1.00  0.00     0.023 C 
ENDROOT
BRANCH   1   2
ATOM      2  C   UNL A   1      31.060  29.273  24.625  1.00  0.00     0.023 C 
BRANCH   2   3
ATOM      3  C   UNL A   1      31.027  29.176  23.103  1.00  0.00     0.116 C 
BRANCH   3   4
ATOM      4  N   UNL A   1      32.353  29.089  22.523  1.00  0.00    -0.351 N 
ATOM      5  C   UNL A   1      33.023  27.986  22.074  1.00  0.00     0.283 C 
ATOM      6  O   UNL A   1      34.161  28.157  21.622  1.00  0.00    -0.268 OA
ATOM      7  H   UNL A   1      32.836  29.943  22.440  1.00  0.00     0.163 HD
BRANCH   5   8
ATOM      8  C   UNL A   1      32.404  26.559  22.151  1.00  0.00     0.302 C 
BRANCH   8   9
ATOM      9  C   UNL A   1      32.730  25.846  23.471  1.00  0.00     0.023 A 
ATOM     10  C   UNL A   1      30.586  24.469  23.315  1.00  0.00     0.046 C 
ATOM     11  C   UNL A   1      31.824  24.916  24.057  1.00  0.00    -0.028 A 
ATOM     12  C   UNL A   1      32.084  24.457  25.369  1.00  0.00     0.016 A 
ATOM     13  I   UNL A   1      30.750  23.230  26.451  1.00  0.00    -0.044 I 
ATOM     14  C   UNL A   1      33.246  24.831  26.052  1.00  0.00     0.015 A 
ATOM     15  C   UNL A   1      33.920  26.158  24.166  1.00  0.00     0.011 A 
ATOM     16  C   UNL A   1      34.174  25.661  25.441  1.00  0.00     0.002 A 
ENDBRANCH   8   9
BRANCH   8  17
ATOM     17  N   UNL A   1      32.770  25.809  20.923  1.00  0.00    -0.343 N 
ATOM     18  H   UNL A   1      33.482  25.114  21.149  1.00  0.00     0.345 HD
ATOM     19  H   UNL A   1      33.136  26.457  20.226  1.00  0.00     0.345 HD
ATOM     20  H   UNL A   1      31.944  25.340  20.552  1.00  0.00     0.345 HD
ENDBRANCH   8  17
ENDBRANCH   5   8
ENDBRANCH   3   4
ENDBRANCH   2   3
ENDBRANCH   1   2
BRANCH   1  21
ATOM     21  C   UNL A   1      32.425  29.978  26.694  1.00  0.00     0.116 C 
BRANCH  21  22
ATOM     22  N   UNL A   1      32.300  31.417  26.887  1.00  0.00    -0.352 N 
ATOM     23  C   UNL A   1      33.203  32.302  27.431  1.00  0.00     0.251 C 
ATOM     24  H   UNL A   1      31.450  31.812  26.586  1.00  0.00     0.163 HD
ATOM     25  O   UNL A   1      32.898  33.476  27.610  1.00  0.00    -0.269 OA
BRANCH  23  26
ATOM     26  C   UNL A   1      34.536  31.813  27.847  1.00  0.00     0.039 A 
ATOM     27  C   UNL A   1      34.725  30.471  28.180  1.00  0.00     0.014 A 
ATOM     28  C   UNL A   1      35.588  32.726  27.970  1.00  0.00     0.014 A 
ATOM     29  C   UNL A   1      35.900  30.083  28.814  1.00  0.00     0.010 A 
ATOM     30  C   UNL A   1      36.800  32.312  28.528  1.00  0.00     0.010 A 
ATOM     31  C   UNL A   1      36.945  31.003  29.011  1.00  0.00    -0.014 A 
BRANCH  31  32
ATOM     32  C   UNL A   1      38.159  30.572  29.753  1.00  0.00     0.031 A 
ATOM     33  C   UNL A   1      38.371  30.985  31.185  1.00  0.00     0.074 A 
ATOM     34  C   UNL A   1      39.026  29.730  29.160  1.00  0.00     0.049 A 
ATOM     35  N   UNL A   1      39.344  30.661  32.002  1.00  0.00    -0.248 NA
ATOM     36  C   UNL A   1      37.364  31.875  31.784  1.00  0.00     0.031 C 
ATOM     37  C   UNL A   1      38.914  29.241  27.786  1.00  0.00     0.029 A 
ATOM     38  N   UNL A   1      40.146  29.106  29.645  1.00  0.00    -0.354 N 
ATOM     39  C   UNL A   1      39.073  31.315  33.197  1.00  0.00     0.074 A 
ATOM     40  C   UNL A   1      37.861  32.079  32.996  1.00  0.00     0.031 C 
ATOM     41  C   UNL A   1      39.880  28.338  27.560  1.00  0.00     0.029 A 
ATOM     42  C   UNL A   1      40.716  28.232  28.752  1.00  0.00     0.049 A 
ATOM     43  H   UNL A   1      40.508  29.269  30.546  1.00  0.00     0.167 HD
ATOM     44  C   UNL A   1      39.765  31.269  34.360  1.00  0.00     0.037 A 
ATOM     45  C   UNL A   1      41.793  27.433  28.877  1.00  0.00     0.037 A 
ATOM     46  C   UNL A   1      40.957  30.490  34.569  1.00  0.00     0.049 A 
ATOM     47  C   UNL A   1      42.566  27.439  30.164  1.00  0.00     0.074 A 
ATOM     48  C   UNL A   1      41.730  30.384  35.714  1.00  0.00     0.029 A 
ATOM     49  N   UNL A   1      41.545  29.673  33.615  1.00  0.00    -0.354 N 
ATOM     50  N   UNL A   1      42.310  28.079  31.278  1.00  0.00    -0.248 NA
ATOM     51  C   UNL A   1      43.787  26.622  30.205  1.00  0.00     0.031 C 
ATOM     52  C   UNL A   1      42.800  29.528  35.442  1.00  0.00     0.029 A 
ATOM     53  C   UNL A   1      42.675  29.071  34.141  1.00  0.00     0.049 A 
ATOM     54  H   UNL A   1      41.207  29.542  32.699  1.00  0.00     0.167 HD
ATOM     55  C   UNL A   1      43.328  27.736  32.156  1.00  0.00     0.074 A 
ATOM     56  C   UNL A   1      44.198  26.816  31.452  1.00  0.00     0.031 C 
ATOM     57  C   UNL A   1      43.526  28.154  33.428  1.00  0.00     0.037 A 
BRANCH  44  58
ATOM     58  C   UNL A   1      39.256  32.084  35.512  1.00  0.00     0.064 A 
ATOM     59  C   UNL A   1      38.439  31.519  36.502  1.00  0.00     0.173 A 
ATOM     60  C   UNL A   1      39.651  33.421  35.670  1.00  0.00     0.173 A 
ATOM     61  F   UNL A   1      38.024  30.249  36.390  1.00  0.00    -0.203 F 
ATOM     62  C   UNL A   1      38.030  32.266  37.604  1.00  0.00     0.198 A 
ATOM     63  C   UNL A   1      39.259  34.158  36.784  1.00  0.00     0.198 A 
ATOM     64  F   UNL A   1      40.438  34.006  34.754  1.00  0.00    -0.203 F 
ATOM     65  F   UNL A   1      37.229  31.713  38.526  1.00  0.00    -0.200 F 
ATOM     66  C   UNL A   1      38.448  33.581  37.749  1.00  0.00     0.200 A 
ATOM     67  F   UNL A   1      39.673  35.424  36.930  1.00  0.00    -0.200 F 
ATOM     68  F   UNL A   1      38.066  34.292  38.819  1.00  0.00    -0.200 F 
ENDBRANCH  44  58
BRANCH  45  69
ATOM     69  C   UNL A   1      42.186  26.551  27.750  1.00  0.00     0.064 A 
ATOM     70  C   UNL A   1      43.146  26.966  26.818  1.00  0.00     0.173 A 
ATOM     71  C   UNL A   1      41.637  25.270  27.600  1.00  0.00     0.173 A 
ATOM     72  F   UNL A   1      43.683  28.191  26.910  1.00  0.00    -0.203 F 
ATOM     73  C   UNL A   1      43.542  26.132  25.775  1.00  0.00     0.198 A 
ATOM     74  C   UNL A   1      42.052  24.427  26.571  1.00  0.00     0.198 A 
ATOM     75  F   UNL A   1      40.716  24.828  28.468  1.00  0.00    -0.203 F 
ATOM     76  F   UNL A   1      44.442  26.561  24.881  1.00  0.00    -0.200 F 
ATOM     77  C   UNL A   1      43.001  24.860  25.658  1.00  0.00     0.200 A 
ATOM     78  F   UNL A   1      41.537  23.193  26.472  1.00  0.00    -0.200 F 
ATOM     79  F   UNL A   1      43.392  24.052  24.663  1.00  0.00    -0.200 F 
ENDBRANCH  45  69
BRANCH  57  80
ATOM     80  C   UNL A   1      44.721  27.613  34.154  1.00  0.00     0.064 A 
ATOM     81  C   UNL A   1      45.942  28.302  34.160  1.00  0.00     0.173 A 
ATOM     82  C   UNL A   1      44.624  26.433  34.905  1.00  0.00     0.173 A 
ATOM     83  F   UNL A   1      46.084  29.429  33.446  1.00  0.00    -0.203 F 
ATOM     84  C   UNL A   1      47.029  27.821  34.885  1.00  0.00     0.198 A 
ATOM     85  C   UNL A   1      45.706  25.966  35.645  1.00  0.00     0.198 A 
ATOM     86  F   UNL A   1      43.474  25.742  34.933  1.00  0.00    -0.203 F 
ATOM     87  F   UNL A   1      48.195  28.479  34.856  1.00  0.00    -0.200 F 
ATOM     88  C   UNL A   1      46.907  26.659  35.633  1.00  0.00     0.200 A 
ATOM     89  F   UNL A   1      45.584  24.850  36.377  1.00  0.00    -0.200 F 
ATOM     90  F   UNL A   1      47.950  26.205  36.340  1.00  0.00    -0.200 F 
ENDBRANCH  57  80
ENDBRANCH  31  32
ENDBRANCH  23  26
ENDBRANCH  21  22
ENDBRANCH   1  21
TORSDOF 13
ENDMDL
MODEL 2
REMARK VINA RESULT:     -11.9      0.289      1.673
REMARK SMILES Cc1c(I)cccc1[C@H]([NH3+])C(=O)NCCCCNC(=O)c1ccc(-c2c3nc(c(-c4c(F)c(F)c(F)c(F)c4F)c4ccc([nH]4)c(-c4c(F)c(F)c(F)c(F)c4F)c4nc(c(-c5c(F)c(F)c(F)c(F)c5F)c5ccc2[nH]5)C=C4)C=C3)cc1
REMARK SMILES IDX 16 1 15 2 14 3 13 4 11 5 12 6 9 8 8 9 1 10 2 11 3 12 4 13
REMARK SMILES IDX 5 14 7 15 6 16 10 17 17 21 18 22 19 23 20 25 21 26 22 27
REMARK SMILES IDX 83 28 23 29 82 30 24 31 25 32 26 33 76 34 27 35 81 36 75 37
REMARK SMILES IDX 77 38 28 39 80 40 74 41 73 42 29 44 61 45 41 46 60 47 42 48
REMARK SMILES IDX 45 49 59 50 78 51 43 52 44 53 58 55 79 56 46 57 30 58 31 59
REMARK SMILES IDX 39 60 32 61 33 62 37 63 40 64 34 65 35 66 38 67 36 68 62 69
REMARK SMILES IDX 63 70 71 71 64 72 65 73 69 74 72 75 66 76 67 77 70 78 68 79
REMARK SMILES IDX 47 80 48 81 56 82 49 83 50 84 54 85 57 86 51 87 52 88 55 89
REMARK SMILES IDX 53 90
REMARK H PARENT 13 7 10 18 10 19 10 20 18 24 77 43 45 54
REMARK Flexibility Score: inf
ROOT
ATOM      1  C   UNL A   1      31.777  28.649  25.700  1.00  0.00     0.023 C 
ENDROOT
BRANCH   1   2
ATOM      2  C   UNL A   1      31.061  29.576  24.721  1.00  0.00     0.023 C 
BRANCH   2   3
ATOM      3  C   UNL A   1      31.029  29.095  23.275  1.00  0.00     0.116 C 
BRANCH   3   4
ATOM      4  N   UNL A   1      32.345  29.062  22.669  1.00  0.00    -0.351 N 
ATOM      5  C   UNL A   1      33.024  27.996  22.149  1.00  0.00     0.283 C 
ATOM      6  O   UNL A   1      34.152  28.210  21.689  1.00  0.00    -0.268 OA
ATOM      7  H   UNL A   1      32.814  29.926  22.626  1.00  0.00     0.163 HD
BRANCH   5   8
ATOM      8  C   UNL A   1      32.429  26.557  22.157  1.00  0.00     0.302 C 
BRANCH   8   9
ATOM      9  C   UNL A   1      32.749  25.794  23.450  1.00  0.00     0.023 A 
ATOM     10  C   UNL A   1      30.502  24.586  23.354  1.00  0.00     0.046 C 
ATOM     11  C   UNL A   1      31.798  24.922  24.054  1.00  0.00    -0.028 A 
ATOM     12  C   UNL A   1      32.072  24.417  25.346  1.00  0.00     0.016 A 
ATOM     13  I   UNL A   1      30.691  23.271  26.457  1.00  0.00    -0.044 I 
ATOM     14  C   UNL A   1      33.284  24.688  25.988  1.00  0.00     0.015 A 
ATOM     15  C   UNL A   1      33.985  25.999  24.102  1.00  0.00     0.011 A 
ATOM     16  C   UNL A   1      34.250  25.458  25.356  1.00  0.00     0.002 A 
ENDBRANCH   8   9
BRANCH   8  17
ATOM     17  N   UNL A   1      32.823  25.866  20.903  1.00  0.00    -0.343 N 
ATOM     18  H   UNL A   1      32.608  26.464  20.104  1.00  0.00     0.345 HD
ATOM     19  H   UNL A   1      32.307  24.991  20.821  1.00  0.00     0.345 HD
ATOM     20  H   UNL A   1      33.823  25.671  20.921  1.00  0.00     0.345 HD
ENDBRANCH   8  17
ENDBRANCH   5   8
ENDBRANCH   3   4
ENDBRANCH   2   3
ENDBRANCH   1   2
BRANCH   1  21
ATOM     21  C   UNL A   1      32.384  29.331  26.920  1.00  0.00     0.116 C 
BRANCH  21  22
ATOM     22  N   UNL A   1      32.218  30.778  26.923  1.00  0.00    -0.352 N 
ATOM     23  C   UNL A   1      33.110  31.753  27.308  1.00  0.00     0.251 C 
ATOM     24  H   UNL A   1      31.346  31.104  26.605  1.00  0.00     0.163 HD
ATOM     25  O   UNL A   1      32.772  32.932  27.339  1.00  0.00    -0.269 OA
BRANCH  23  26
ATOM     26  C   UNL A   1      34.471  31.364  27.734  1.00  0.00     0.039 A 
ATOM     27  C   UNL A   1      34.784  30.023  27.964  1.00  0.00     0.014 A 
ATOM     28  C   UNL A   1      35.422  32.360  27.970  1.00  0.00     0.014 A 
ATOM     29  C   UNL A   1      35.972  29.699  28.609  1.00  0.00     0.010 A 
ATOM     30  C   UNL A   1      36.653  32.021  28.539  1.00  0.00     0.010 A 
ATOM     31  C   UNL A   1      36.913  30.696  28.919  1.00  0.00    -0.014 A 
BRANCH  31  32
ATOM     32  C   UNL A   1      38.141  30.324  29.670  1.00  0.00     0.031 A 
ATOM     33  C   UNL A   1      38.346  30.789  31.088  1.00  0.00     0.074 A 
ATOM     34  C   UNL A   1      39.031  29.489  29.101  1.00  0.00     0.049 A 
ATOM     35  N   UNL A   1      39.330  30.520  31.910  1.00  0.00    -0.248 NA
ATOM     36  C   UNL A   1      37.315  31.668  31.662  1.00  0.00     0.031 C 
ATOM     37  C   UNL A   1      38.928  28.952  27.743  1.00  0.00     0.029 A 
ATOM     38  N   UNL A   1      40.170  28.913  29.602  1.00  0.00    -0.354 N 
ATOM     39  C   UNL A   1      39.045  31.203  33.085  1.00  0.00     0.074 A 
ATOM     40  C   UNL A   1      37.810  31.925  32.864  1.00  0.00     0.031 C 
ATOM     41  C   UNL A   1      39.919  28.072  27.543  1.00  0.00     0.029 A 
ATOM     42  C   UNL A   1      40.761  28.028  28.734  1.00  0.00     0.049 A 
ATOM     43  H   UNL A   1      40.529  29.115  30.495  1.00  0.00     0.167 HD
ATOM     44  C   UNL A   1      39.741  31.214  34.246  1.00  0.00     0.037 A 
ATOM     45  C   UNL A   1      41.861  27.264  28.880  1.00  0.00     0.037 A 
ATOM     46  C   UNL A   1      40.956  30.477  34.475  1.00  0.00     0.049 A 
ATOM     47  C   UNL A   1      42.638  27.333  30.164  1.00  0.00     0.074 A 
ATOM     48  C   UNL A   1      41.734  30.430  35.620  1.00  0.00     0.029 A 
ATOM     49  N   UNL A   1      41.563  29.647  33.545  1.00  0.00    -0.354 N 
ATOM     50  N   UNL A   1      42.367  28.001  31.257  1.00  0.00    -0.248 NA
ATOM     51  C   UNL A   1      43.882  26.553  30.226  1.00  0.00     0.031 C 
ATOM     52  C   UNL A   1      42.828  29.597  35.371  1.00  0.00     0.029 A 
ATOM     53  C   UNL A   1      42.712  29.095  34.086  1.00  0.00     0.049 A 
ATOM     54  H   UNL A   1      41.227  29.477  32.636  1.00  0.00     0.167 HD
ATOM     55  C   UNL A   1      43.397  27.716  32.142  1.00  0.00     0.074 A 
ATOM     56  C   UNL A   1      44.291  26.800  31.464  1.00  0.00     0.031 C 
ATOM     57  C   UNL A   1      43.587  28.180  33.400  1.00  0.00     0.037 A 
BRANCH  44  58
ATOM     58  C   UNL A   1      39.212  32.051  35.374  1.00  0.00     0.064 A 
ATOM     59  C   UNL A   1      38.432  31.491  36.396  1.00  0.00     0.173 A 
ATOM     60  C   UNL A   1      39.552  33.409  35.475  1.00  0.00     0.173 A 
ATOM     61  F   UNL A   1      38.071  30.200  36.338  1.00  0.00    -0.203 F 
ATOM     62  C   UNL A   1      38.006  32.261  37.474  1.00  0.00     0.198 A 
ATOM     63  C   UNL A   1      39.143  34.171  36.566  1.00  0.00     0.198 A 
ATOM     64  F   UNL A   1      40.301  33.990  34.526  1.00  0.00    -0.203 F 
ATOM     65  F   UNL A   1      37.241  31.712  38.428  1.00  0.00    -0.200 F 
ATOM     66  C   UNL A   1      38.369  33.597  37.563  1.00  0.00     0.200 A 
ATOM     67  F   UNL A   1      39.504  35.458  36.657  1.00  0.00    -0.200 F 
ATOM     68  F   UNL A   1      37.971  34.333  38.611  1.00  0.00    -0.200 F 
ENDBRANCH  44  58
BRANCH  45  69
ATOM     69  C   UNL A   1      42.276  26.358  27.781  1.00  0.00     0.064 A 
ATOM     70  C   UNL A   1      41.696  25.090  27.641  1.00  0.00     0.173 A 
ATOM     71  C   UNL A   1      43.232  26.750  26.833  1.00  0.00     0.173 A 
ATOM     72  F   UNL A   1      40.793  24.665  28.536  1.00  0.00    -0.203 F 
ATOM     73  C   UNL A   1      42.060  24.246  26.595  1.00  0.00     0.198 A 
ATOM     74  C   UNL A   1      43.576  25.915  25.772  1.00  0.00     0.198 A 
ATOM     75  F   UNL A   1      43.813  27.955  26.924  1.00  0.00    -0.203 F 
ATOM     76  F   UNL A   1      41.511  23.028  26.497  1.00  0.00    -0.200 F 
ATOM     77  C   UNL A   1      42.993  24.663  25.656  1.00  0.00     0.200 A 
ATOM     78  F   UNL A   1      44.467  26.329  24.860  1.00  0.00    -0.200 F 
ATOM     79  F   UNL A   1      43.331  23.857  24.641  1.00  0.00    -0.200 F 
ENDBRANCH  45  69
BRANCH  57  80
ATOM     80  C   UNL A   1      44.799  27.697  34.137  1.00  0.00     0.064 A 
ATOM     81  C   UNL A   1      44.770  26.515  34.890  1.00  0.00     0.173 A 
ATOM     82  C   UNL A   1      46.016  28.386  34.035  1.00  0.00     0.173 A 
ATOM     83  F   UNL A   1      43.625  25.830  35.027  1.00  0.00    -0.203 F 
ATOM     84  C   UNL A   1      45.917  26.045  35.525  1.00  0.00     0.198 A 
ATOM     85  C   UNL A   1      47.165  27.902  34.652  1.00  0.00     0.198 A 
ATOM     86  F   UNL A   1      46.093  29.519  33.321  1.00  0.00    -0.203 F 
ATOM     87  F   UNL A   1      45.861  24.928  36.262  1.00  0.00    -0.200 F 
ATOM     88  C   UNL A   1      47.114  26.733  35.398  1.00  0.00     0.200 A 
ATOM     89  F   UNL A   1      48.325  28.562  34.521  1.00  0.00    -0.200 F 
ATOM     90  F   UNL A   1      48.220  26.272  35.998  1.00  0.00    -0.200 F 
ENDBRANCH  57  80
ENDBRANCH  31  32
ENDBRANCH  23  26
ENDBRANCH  21  22
ENDBRANCH   1  21
TORSDOF 13
ENDMDL
MODEL 3
REMARK VINA RESULT:     -11.9      1.623      2.781
REMARK SMILES Cc1c(I)cccc1[C@H]([NH3+])C(=O)NCCCCNC(=O)c1ccc(-c2c3nc(c(-c4c(F)c(F)c(F)c(F)c4F)c4ccc([nH]4)c(-c4c(F)c(F)c(F)c(F)c4F)c4nc(c(-c5c(F)c(F)c(F)c(F)c5F)c5ccc2[nH]5)C=C4)C=C3)cc1
REMARK SMILES IDX 16 1 15 2 14 3 13 4 11 5 12 6 9 8 8 9 1 10 2 11 3 12 4 13
REMARK SMILES IDX 5 14 7 15 6 16 10 17 17 21 18 22 19 23 20 25 21 26 22 27
REMARK SMILES IDX 83 28 23 29 82 30 24 31 25 32 26 33 76 34 27 35 81 36 75 37
REMARK SMILES IDX 77 38 28 39 80 40 74 41 73 42 29 44 61 45 41 46 60 47 42 48
REMARK SMILES IDX 45 49 59 50 78 51 43 52 44 53 58 55 79 56 46 57 30 58 31 59
REMARK SMILES IDX 39 60 32 61 33 62 37 63 40 64 34 65 35 66 38 67 36 68 62 69
REMARK SMILES IDX 63 70 71 71 64 72 65 73 69 74 72 75 66 76 67 77 70 78 68 79
REMARK SMILES IDX 47 80 48 81 56 82 49 83 50 84 54 85 57 86 51 87 52 88 55 89
REMARK SMILES IDX 53 90
REMARK H PARENT 13 7 10 18 10 19 10 20 18 24 77 43 45 54
REMARK Flexibility Score: inf
ROOT
ATOM      1  C   UNL A   1      31.786  31.764  26.891  1.00  0.00     0.023 C 
ENDROOT
BRANCH   1   2
ATOM      2  C   UNL A   1      32.164  30.294  26.734  1.00  0.00     0.023 C 
BRANCH   2   3
ATOM      3  C   UNL A   1      31.824  29.676  25.383  1.00  0.00     0.116 C 
BRANCH   3   4
ATOM      4  N   UNL A   1      32.955  29.660  24.476  1.00  0.00    -0.351 N 
ATOM      5  C   UNL A   1      33.254  28.759  23.493  1.00  0.00     0.283 C 
ATOM      6  O   UNL A   1      34.291  28.948  22.846  1.00  0.00    -0.268 OA
ATOM      7  H   UNL A   1      33.594  30.400  24.584  1.00  0.00     0.163 HD
BRANCH   5   8
ATOM      8  C   UNL A   1      32.354  27.522  23.208  1.00  0.00     0.302 C 
BRANCH   8   9
ATOM      9  C   UNL A   1      32.693  26.326  24.108  1.00  0.00     0.023 A 
ATOM     10  C   UNL A   1      30.261  25.550  24.080  1.00  0.00     0.046 C 
ATOM     11  C   UNL A   1      31.682  25.442  24.584  1.00  0.00    -0.028 A 
ATOM     12  C   UNL A   1      32.027  24.492  25.573  1.00  0.00     0.016 A 
ATOM     13  I   UNL A   1      30.614  23.241  26.517  1.00  0.00    -0.044 I 
ATOM     14  C   UNL A   1      33.345  24.355  26.018  1.00  0.00     0.015 A 
ATOM     15  C   UNL A   1      34.023  26.122  24.538  1.00  0.00     0.011 A 
ATOM     16  C   UNL A   1      34.346  25.153  25.483  1.00  0.00     0.002 A 
ENDBRANCH   8   9
BRANCH   8  17
ATOM     17  N   UNL A   1      32.372  27.239  21.750  1.00  0.00    -0.343 N 
ATOM     18  H   UNL A   1      31.452  26.910  21.456  1.00  0.00     0.345 HD
ATOM     19  H   UNL A   1      33.069  26.521  21.553  1.00  0.00     0.345 HD
ATOM     20  H   UNL A   1      32.607  28.090  21.241  1.00  0.00     0.345 HD
ENDBRANCH   8  17
ENDBRANCH   5   8
ENDBRANCH   3   4
ENDBRANCH   2   3
ENDBRANCH   1   2
BRANCH   1  21
ATOM     21  C   UNL A   1      32.926  32.691  27.294  1.00  0.00     0.116 C 
BRANCH  21  22
ATOM     22  N   UNL A   1      32.492  34.040  27.630  1.00  0.00    -0.352 N 
ATOM     23  C   UNL A   1      33.005  34.910  28.565  1.00  0.00     0.251 C 
ATOM     24  H   UNL A   1      31.723  34.377  27.116  1.00  0.00     0.163 HD
ATOM     25  O   UNL A   1      32.454  35.983  28.789  1.00  0.00    -0.269 OA
BRANCH  23  26
ATOM     26  C   UNL A   1      34.204  34.520  29.338  1.00  0.00     0.039 A 
ATOM     27  C   UNL A   1      35.481  34.735  28.818  1.00  0.00     0.014 A 
ATOM     28  C   UNL A   1      34.042  33.871  30.565  1.00  0.00     0.014 A 
ATOM     29  C   UNL A   1      36.577  34.133  29.426  1.00  0.00     0.010 A 
ATOM     30  C   UNL A   1      35.157  33.342  31.220  1.00  0.00     0.010 A 
ATOM     31  C   UNL A   1      36.426  33.416  30.625  1.00  0.00    -0.014 A 
BRANCH  31  32
ATOM     32  C   UNL A   1      37.606  32.728  31.211  1.00  0.00     0.031 A 
ATOM     33  C   UNL A   1      38.064  33.045  32.610  1.00  0.00     0.074 A 
ATOM     34  C   UNL A   1      38.210  31.749  30.511  1.00  0.00     0.049 A 
ATOM     35  N   UNL A   1      39.040  32.507  33.300  1.00  0.00    -0.248 NA
ATOM     36  C   UNL A   1      37.335  34.099  33.333  1.00  0.00     0.031 C 
ATOM     37  C   UNL A   1      37.840  31.335  29.157  1.00  0.00     0.029 A 
ATOM     38  N   UNL A   1      39.230  30.899  30.853  1.00  0.00    -0.354 N 
ATOM     39  C   UNL A   1      39.050  33.164  34.524  1.00  0.00     0.074 A 
ATOM     40  C   UNL A   1      38.002  34.160  34.477  1.00  0.00     0.031 C 
ATOM     41  C   UNL A   1      38.571  30.266  28.810  1.00  0.00     0.029 A 
ATOM     42  C   UNL A   1      39.502  29.957  29.891  1.00  0.00     0.049 A 
ATOM     43  H   UNL A   1      39.720  30.957  31.704  1.00  0.00     0.167 HD
ATOM     44  C   UNL A   1      39.850  32.943  35.595  1.00  0.00     0.037 A 
ATOM     45  C   UNL A   1      40.402  28.956  29.878  1.00  0.00     0.037 A 
ATOM     46  C   UNL A   1      40.876  31.936  35.652  1.00  0.00     0.049 A 
ATOM     47  C   UNL A   1      41.306  28.766  31.062  1.00  0.00     0.074 A 
ATOM     48  C   UNL A   1      41.739  31.642  36.693  1.00  0.00     0.029 A 
ATOM     49  N   UNL A   1      41.170  31.049  34.627  1.00  0.00    -0.354 N 
ATOM     50  N   UNL A   1      41.317  29.408  32.203  1.00  0.00    -0.248 NA
ATOM     51  C   UNL A   1      42.333  27.720  30.949  1.00  0.00     0.031 C 
ATOM     52  C   UNL A   1      42.575  30.598  36.287  1.00  0.00     0.029 A 
ATOM     53  C   UNL A   1      42.209  30.217  35.008  1.00  0.00     0.049 A 
ATOM     54  H   UNL A   1      40.708  31.017  33.759  1.00  0.00     0.167 HD
ATOM     55  C   UNL A   1      42.341  28.841  32.949  1.00  0.00     0.074 A 
ATOM     56  C   UNL A   1      42.918  27.790  32.137  1.00  0.00     0.031 C 
ATOM     57  C   UNL A   1      42.767  29.171  34.191  1.00  0.00     0.037 A 
BRANCH  44  58
ATOM     58  C   UNL A   1      39.654  33.807  36.806  1.00  0.00     0.064 A 
ATOM     59  C   UNL A   1      40.224  35.086  36.892  1.00  0.00     0.173 A 
ATOM     60  C   UNL A   1      38.826  33.385  37.857  1.00  0.00     0.173 A 
ATOM     61  F   UNL A   1      41.032  35.530  35.918  1.00  0.00    -0.203 F 
ATOM     62  C   UNL A   1      39.979  35.906  37.989  1.00  0.00     0.198 A 
ATOM     63  C   UNL A   1      38.565  34.217  38.943  1.00  0.00     0.198 A 
ATOM     64  F   UNL A   1      38.252  32.173  37.820  1.00  0.00    -0.203 F 
ATOM     65  F   UNL A   1      40.553  37.115  38.062  1.00  0.00    -0.200 F 
ATOM     66  C   UNL A   1      39.142  35.476  39.008  1.00  0.00     0.200 A 
ATOM     67  F   UNL A   1      37.747  33.804  39.921  1.00  0.00    -0.200 F 
ATOM     68  F   UNL A   1      38.894  36.275  40.056  1.00  0.00    -0.200 F 
ENDBRANCH  44  58
BRANCH  45  69
ATOM     69  C   UNL A   1      40.474  28.049  28.705  1.00  0.00     0.064 A 
ATOM     70  C   UNL A   1      39.766  26.840  28.692  1.00  0.00     0.173 A 
ATOM     71  C   UNL A   1      41.221  28.384  27.568  1.00  0.00     0.173 A 
ATOM     72  F   UNL A   1      39.055  26.468  29.766  1.00  0.00    -0.203 F 
ATOM     73  C   UNL A   1      39.806  25.997  27.583  1.00  0.00     0.198 A 
ATOM     74  C   UNL A   1      41.239  27.554  26.449  1.00  0.00     0.198 A 
ATOM     75  F   UNL A   1      41.913  29.532  27.533  1.00  0.00    -0.203 F 
ATOM     76  F   UNL A   1      39.142  24.834  27.604  1.00  0.00    -0.200 F 
ATOM     77  C   UNL A   1      40.535  26.360  26.460  1.00  0.00     0.200 A 
ATOM     78  F   UNL A   1      41.933  27.915  25.361  1.00  0.00    -0.200 F 
ATOM     79  F   UNL A   1      40.560  25.556  25.387  1.00  0.00    -0.200 F 
ENDBRANCH  45  69
BRANCH  57  80
ATOM     80  C   UNL A   1      43.904  28.380  34.762  1.00  0.00     0.064 A 
ATOM     81  C   UNL A   1      45.231  28.816  34.635  1.00  0.00     0.173 A 
ATOM     82  C   UNL A   1      43.660  27.214  35.501  1.00  0.00     0.173 A 
ATOM     83  F   UNL A   1      45.513  29.919  33.926  1.00  0.00    -0.203 F 
ATOM     84  C   UNL A   1      46.275  28.104  35.219  1.00  0.00     0.198 A 
ATOM     85  C   UNL A   1      44.704  26.517  36.102  1.00  0.00     0.198 A 
ATOM     86  F   UNL A   1      42.407  26.761  35.655  1.00  0.00    -0.203 F 
ATOM     87  F   UNL A   1      47.538  28.522  35.062  1.00  0.00    -0.200 F 
ATOM     88  C   UNL A   1      46.011  26.961  35.959  1.00  0.00     0.200 A 
ATOM     89  F   UNL A   1      44.447  25.418  36.826  1.00  0.00    -0.200 F 
ATOM     90  F   UNL A   1      47.015  26.285  36.531  1.00  0.00    -0.200 F 
ENDBRANCH  57  80
ENDBRANCH  31  32
ENDBRANCH  23  26
ENDBRANCH  21  22
ENDBRANCH   1  21
TORSDOF 13
ENDMDL
