MODEL 1
REMARK VINA RESULT:     -11.4      0.000      0.000
REMARK SMILES CC(C)[C@@H](NC(=O)[C@H]1CCCO1)C(=O)NCCCCNC(=O)c1ccc(-c2c3nc(c(-c4c(F)c(F)c(F)c(F)c4F)c4ccc([nH]4)c(-c4c(F)c(F)c(F)c(F)c4F)c4nc(c(-c5c(F)c(F)c(F)c(F)c5F)c5ccc2[nH]5)C=C4)C=C3)cc1
REMARK SMILES IDX 17 1 16 2 15 3 13 4 14 5 4 7 2 8 1 9 3 10 5 11 6 12 7 14
REMARK SMILES IDX 8 15 9 16 12 17 10 18 11 19 18 20 19 21 20 22 21 23 22 25
REMARK SMILES IDX 23 26 24 27 85 28 25 29 84 30 26 31 27 32 28 33 78 34 29 35
REMARK SMILES IDX 83 36 77 37 79 38 30 39 82 40 76 41 75 42 31 44 63 45 43 46
REMARK SMILES IDX 62 47 44 48 47 49 61 50 80 51 45 52 46 53 60 55 81 56 48 57
REMARK SMILES IDX 32 58 33 59 41 60 34 61 35 62 39 63 42 64 36 65 37 66 40 67
REMARK SMILES IDX 38 68 64 69 65 70 73 71 66 72 67 73 71 74 74 75 68 76 69 77
REMARK SMILES IDX 72 78 70 79 49 80 50 81 58 82 51 83 52 84 56 85 59 86 53 87
REMARK SMILES IDX 54 88 57 89 55 90
REMARK H PARENT 15 6 5 13 20 24 79 43 47 54
REMARK Flexibility Score: inf
ROOT
ATOM      1  C   UNL A   1      31.921  30.140  27.048  1.00  0.00     0.023 C 
ENDROOT
BRANCH   1   2
ATOM      2  C   UNL A   1      33.204  29.431  26.634  1.00  0.00     0.116 C 
BRANCH   2   3
ATOM      3  N   UNL A   1      33.508  29.672  25.235  1.00  0.00    -0.354 N 
ATOM      4  C   UNL A   1      33.275  28.872  24.158  1.00  0.00     0.242 C 
ATOM      5  O   UNL A   1      33.506  29.328  23.035  1.00  0.00    -0.273 OA
ATOM      6  H   UNL A   1      33.944  30.533  25.038  1.00  0.00     0.163 HD
BRANCH   4   7
ATOM      7  C   UNL A   1      32.811  27.416  24.339  1.00  0.00     0.174 C 
BRANCH   7   8
ATOM      8  C   UNL A   1      31.260  27.361  24.130  1.00  0.00     0.015 C 
ATOM      9  C   UNL A   1      30.853  26.933  22.717  1.00  0.00     0.010 C 
ATOM     10  C   UNL A   1      30.564  26.438  25.143  1.00  0.00     0.010 C 
ENDBRANCH   7   8
BRANCH   7  11
ATOM     11  N   UNL A   1      33.521  26.457  23.467  1.00  0.00    -0.342 N 
ATOM     12  C   UNL A   1      34.020  25.210  23.745  1.00  0.00     0.249 C 
ATOM     13  H   UNL A   1      33.656  26.760  22.540  1.00  0.00     0.164 HD
ATOM     14  O   UNL A   1      34.038  24.399  22.815  1.00  0.00    -0.272 OA
BRANCH  12  15
ATOM     15  C   UNL A   1      34.635  24.882  25.119  1.00  0.00     0.207 C 
ATOM     16  C   UNL A   1      33.619  24.367  26.127  1.00  0.00     0.044 C 
ATOM     17  O   UNL A   1      35.673  23.889  25.003  1.00  0.00    -0.368 OA
ATOM     18  C   UNL A   1      34.049  22.942  26.388  1.00  0.00     0.032 C 
ATOM     19  C   UNL A   1      35.528  22.977  26.091  1.00  0.00     0.161 C 
ENDBRANCH  12  15
ENDBRANCH   7  11
ENDBRANCH   4   7
ENDBRANCH   2   3
ENDBRANCH   1   2
BRANCH   1  20
ATOM     20  C   UNL A   1      31.909  31.632  26.723  1.00  0.00     0.023 C 
BRANCH  20  21
ATOM     21  C   UNL A   1      32.954  32.449  27.473  1.00  0.00     0.116 C 
BRANCH  21  22
ATOM     22  N   UNL A   1      32.563  33.843  27.626  1.00  0.00    -0.352 N 
ATOM     23  C   UNL A   1      33.047  34.765  28.524  1.00  0.00     0.251 C 
ATOM     24  H   UNL A   1      31.865  34.165  27.010  1.00  0.00     0.163 HD
ATOM     25  O   UNL A   1      32.525  35.860  28.662  1.00  0.00    -0.269 OA
BRANCH  23  26
ATOM     26  C   UNL A   1      34.210  34.379  29.343  1.00  0.00     0.039 A 
ATOM     27  C   UNL A   1      34.003  33.743  30.568  1.00  0.00     0.014 A 
ATOM     28  C   UNL A   1      35.498  34.562  28.833  1.00  0.00     0.014 A 
ATOM     29  C   UNL A   1      35.096  33.220  31.259  1.00  0.00     0.010 A 
ATOM     30  C   UNL A   1      36.575  33.982  29.488  1.00  0.00     0.010 A 
ATOM     31  C   UNL A   1      36.383  33.302  30.703  1.00  0.00    -0.014 A 
BRANCH  31  32
ATOM     32  C   UNL A   1      37.567  32.707  31.369  1.00  0.00     0.031 A 
ATOM     33  C   UNL A   1      38.284  31.571  30.700  1.00  0.00     0.074 A 
ATOM     34  C   UNL A   1      37.924  33.109  32.603  1.00  0.00     0.049 A 
ATOM     35  N   UNL A   1      39.206  30.775  31.178  1.00  0.00    -0.248 NA
ATOM     36  C   UNL A   1      37.882  31.267  29.317  1.00  0.00     0.031 C 
ATOM     37  C   UNL A   1      37.290  34.188  33.362  1.00  0.00     0.029 A 
ATOM     38  N   UNL A   1      38.897  32.636  33.447  1.00  0.00    -0.354 N 
ATOM     39  C   UNL A   1      39.469  29.861  30.167  1.00  0.00     0.074 A 
ATOM     40  C   UNL A   1      38.584  30.172  29.067  1.00  0.00     0.031 C 
ATOM     41  C   UNL A   1      37.895  34.298  34.557  1.00  0.00     0.029 A 
ATOM     42  C   UNL A   1      38.926  33.270  34.666  1.00  0.00     0.049 A 
ATOM     43  H   UNL A   1      39.516  31.911  33.203  1.00  0.00     0.167 HD
ATOM     44  C   UNL A   1      40.381  28.860  30.156  1.00  0.00     0.037 A 
ATOM     45  C   UNL A   1      39.683  33.030  35.753  1.00  0.00     0.037 A 
ATOM     46  C   UNL A   1      41.282  28.578  31.239  1.00  0.00     0.049 A 
ATOM     47  C   UNL A   1      40.687  31.907  35.715  1.00  0.00     0.074 A 
ATOM     48  C   UNL A   1      42.271  27.614  31.312  1.00  0.00     0.029 A 
ATOM     49  N   UNL A   1      41.308  29.271  32.441  1.00  0.00    -0.354 N 
ATOM     50  N   UNL A   1      40.950  31.067  34.746  1.00  0.00    -0.248 NA
ATOM     51  C   UNL A   1      41.495  31.699  36.926  1.00  0.00     0.031 C 
ATOM     52  C   UNL A   1      42.877  27.704  32.569  1.00  0.00     0.029 A 
ATOM     53  C   UNL A   1      42.293  28.751  33.264  1.00  0.00     0.049 A 
ATOM     54  H   UNL A   1      40.714  30.022  32.674  1.00  0.00     0.167 HD
ATOM     55  C   UNL A   1      41.978  30.258  35.211  1.00  0.00     0.074 A 
ATOM     56  C   UNL A   1      42.289  30.706  36.552  1.00  0.00     0.031 C 
ATOM     57  C   UNL A   1      42.608  29.237  34.582  1.00  0.00     0.037 A 
BRANCH  44  58
ATOM     58  C   UNL A   1      40.446  27.999  28.931  1.00  0.00     0.064 A 
ATOM     59  C   UNL A   1      41.258  28.339  27.838  1.00  0.00     0.173 A 
ATOM     60  C   UNL A   1      39.708  26.809  28.856  1.00  0.00     0.173 A 
ATOM     61  F   UNL A   1      41.971  29.475  27.854  1.00  0.00    -0.203 F 
ATOM     62  C   UNL A   1      41.308  27.532  26.704  1.00  0.00     0.198 A 
ATOM     63  C   UNL A   1      39.782  25.989  27.733  1.00  0.00     0.198 A 
ATOM     64  F   UNL A   1      38.918  26.437  29.875  1.00  0.00    -0.203 F 
ATOM     65  F   UNL A   1      42.052  27.901  25.654  1.00  0.00    -0.200 F 
ATOM     66  C   UNL A   1      40.576  26.355  26.656  1.00  0.00     0.200 A 
ATOM     67  F   UNL A   1      39.083  24.846  27.692  1.00  0.00    -0.200 F 
ATOM     68  F   UNL A   1      40.629  25.576  25.566  1.00  0.00    -0.200 F 
ENDBRANCH  44  58
BRANCH  45  69
ATOM     69  C   UNL A   1      39.538  33.879  36.964  1.00  0.00     0.064 A 
ATOM     70  C   UNL A   1      40.209  35.106  37.063  1.00  0.00     0.173 A 
ATOM     71  C   UNL A   1      38.738  33.483  38.045  1.00  0.00     0.173 A 
ATOM     72  F   UNL A   1      41.003  35.515  36.063  1.00  0.00    -0.203 F 
ATOM     73  C   UNL A   1      40.102  35.896  38.205  1.00  0.00     0.198 A 
ATOM     74  C   UNL A   1      38.610  34.286  39.177  1.00  0.00     0.198 A 
ATOM     75  F   UNL A   1      38.071  32.321  37.999  1.00  0.00    -0.203 F 
ATOM     76  F   UNL A   1      40.788  37.043  38.290  1.00  0.00    -0.200 F 
ATOM     77  C   UNL A   1      39.298  35.488  39.259  1.00  0.00     0.200 A 
ATOM     78  F   UNL A   1      37.824  33.896  40.189  1.00  0.00    -0.200 F 
ATOM     79  F   UNL A   1      39.194  36.249  40.357  1.00  0.00    -0.200 F 
ENDBRANCH  45  69
BRANCH  57  80
ATOM     80  C   UNL A   1      43.740  28.571  35.303  1.00  0.00     0.064 A 
ATOM     81  C   UNL A   1      43.534  27.460  36.132  1.00  0.00     0.173 A 
ATOM     82  C   UNL A   1      45.058  29.007  35.098  1.00  0.00     0.173 A 
ATOM     83  F   UNL A   1      42.290  27.016  36.369  1.00  0.00    -0.203 F 
ATOM     84  C   UNL A   1      44.608  26.813  36.737  1.00  0.00     0.198 A 
ATOM     85  C   UNL A   1      46.131  28.344  35.684  1.00  0.00     0.198 A 
ATOM     86  F   UNL A   1      45.305  30.063  34.307  1.00  0.00    -0.203 F 
ATOM     87  F   UNL A   1      44.389  25.769  37.548  1.00  0.00    -0.200 F 
ATOM     88  C   UNL A   1      45.906  27.249  36.505  1.00  0.00     0.200 A 
ATOM     89  F   UNL A   1      47.383  28.759  35.449  1.00  0.00    -0.200 F 
ATOM     90  F   UNL A   1      46.939  26.614  37.074  1.00  0.00    -0.200 F 
ENDBRANCH  57  80
ENDBRANCH  31  32
ENDBRANCH  23  26
ENDBRANCH  21  22
ENDBRANCH  20  21
ENDBRANCH   1  20
TORSDOF 14
ENDMDL
MODEL 2
REMARK VINA RESULT:     -11.3      5.593     10.782
REMARK SMILES CC(C)[C@@H](NC(=O)[C@H]1CCCO1)C(=O)NCCCCNC(=O)c1ccc(-c2c3nc(c(-c4c(F)c(F)c(F)c(F)c4F)c4ccc([nH]4)c(-c4c(F)c(F)c(F)c(F)c4F)c4nc(c(-c5c(F)c(F)c(F)c(F)c5F)c5ccc2[nH]5)C=C4)C=C3)cc1
REMARK SMILES IDX 17 1 16 2 15 3 13 4 14 5 4 7 2 8 1 9 3 10 5 11 6 12 7 14
REMARK SMILES IDX 8 15 9 16 12 17 10 18 11 19 18 20 19 21 20 22 21 23 22 25
REMARK SMILES IDX 23 26 24 27 85 28 25 29 84 30 26 31 27 32 28 33 78 34 29 35
REMARK SMILES IDX 83 36 77 37 79 38 30 39 82 40 76 41 75 42 31 44 63 45 43 46
REMARK SMILES IDX 62 47 44 48 47 49 61 50 80 51 45 52 46 53 60 55 81 56 48 57
REMARK SMILES IDX 32 58 33 59 41 60 34 61 35 62 39 63 42 64 36 65 37 66 40 67
REMARK SMILES IDX 38 68 64 69 65 70 73 71 66 72 67 73 71 74 74 75 68 76 69 77
REMARK SMILES IDX 72 78 70 79 49 80 50 81 58 82 51 83 52 84 56 85 59 86 53 87
REMARK SMILES IDX 54 88 57 89 55 90
REMARK H PARENT 15 6 5 13 20 24 79 43 47 54
REMARK Flexibility Score: inf
ROOT
ATOM      1  C   UNL A   1      37.148  21.909  24.393  1.00  0.00     0.023 C 
ENDROOT
BRANCH   1   2
ATOM      2  C   UNL A   1      36.673  22.958  25.390  1.00  0.00     0.116 C 
BRANCH   2   3
ATOM      3  N   UNL A   1      36.013  22.340  26.526  1.00  0.00    -0.354 N 
ATOM      4  C   UNL A   1      34.681  22.160  26.748  1.00  0.00     0.242 C 
ATOM      5  O   UNL A   1      34.341  21.498  27.731  1.00  0.00    -0.273 OA
ATOM      6  H   UNL A   1      36.611  22.006  27.234  1.00  0.00     0.163 HD
BRANCH   4   7
ATOM      7  C   UNL A   1      33.631  22.828  25.843  1.00  0.00     0.174 C 
BRANCH   7   8
ATOM      8  C   UNL A   1      33.345  21.877  24.632  1.00  0.00     0.015 C 
ATOM      9  C   UNL A   1      32.118  20.984  24.837  1.00  0.00     0.010 C 
ATOM     10  C   UNL A   1      33.179  22.643  23.310  1.00  0.00     0.010 C 
ENDBRANCH   7   8
BRANCH   7  11
ATOM     11  N   UNL A   1      32.391  23.204  26.554  1.00  0.00    -0.342 N 
ATOM     12  C   UNL A   1      31.630  24.341  26.464  1.00  0.00     0.249 C 
ATOM     13  H   UNL A   1      32.059  22.533  27.193  1.00  0.00     0.164 HD
ATOM     14  O   UNL A   1      30.420  24.217  26.673  1.00  0.00    -0.272 OA
BRANCH  12  15
ATOM     15  C   UNL A   1      32.275  25.720  26.230  1.00  0.00     0.207 C 
ATOM     16  C   UNL A   1      32.079  26.246  24.816  1.00  0.00     0.044 C 
ATOM     17  O   UNL A   1      31.743  26.706  27.137  1.00  0.00    -0.368 OA
ATOM     18  C   UNL A   1      31.213  27.472  24.996  1.00  0.00     0.032 C 
ATOM     19  C   UNL A   1      31.541  27.912  26.401  1.00  0.00     0.161 C 
ENDBRANCH  12  15
ENDBRANCH   7  11
ENDBRANCH   4   7
ENDBRANCH   2   3
ENDBRANCH   1   2
BRANCH   1  20
ATOM     20  C   UNL A   1      37.722  20.654  25.046  1.00  0.00     0.023 C 
BRANCH  20  21
ATOM     21  C   UNL A   1      39.045  20.868  25.769  1.00  0.00     0.116 C 
BRANCH  21  22
ATOM     22  N   UNL A   1      39.871  19.668  25.781  1.00  0.00    -0.352 N 
ATOM     23  C   UNL A   1      41.225  19.575  26.003  1.00  0.00     0.251 C 
ATOM     24  H   UNL A   1      39.402  18.819  25.608  1.00  0.00     0.163 HD
ATOM     25  O   UNL A   1      41.832  18.530  25.828  1.00  0.00    -0.269 OA
BRANCH  23  26
ATOM     26  C   UNL A   1      41.934  20.791  26.438  1.00  0.00     0.039 A 
ATOM     27  C   UNL A   1      42.352  21.718  25.482  1.00  0.00     0.014 A 
ATOM     28  C   UNL A   1      42.084  21.045  27.805  1.00  0.00     0.014 A 
ATOM     29  C   UNL A   1      42.862  22.947  25.901  1.00  0.00     0.010 A 
ATOM     30  C   UNL A   1      42.528  22.293  28.217  1.00  0.00     0.010 A 
ATOM     31  C   UNL A   1      42.916  23.256  27.269  1.00  0.00    -0.014 A 
BRANCH  31  32
ATOM     32  C   UNL A   1      43.391  24.572  27.760  1.00  0.00     0.031 A 
ATOM     33  C   UNL A   1      42.382  25.624  28.119  1.00  0.00     0.074 A 
ATOM     34  C   UNL A   1      44.707  24.853  27.781  1.00  0.00     0.049 A 
ATOM     35  N   UNL A   1      42.562  26.894  28.376  1.00  0.00    -0.248 NA
ATOM     36  C   UNL A   1      40.974  25.194  28.157  1.00  0.00     0.031 C 
ATOM     37  C   UNL A   1      45.781  23.920  27.435  1.00  0.00     0.029 A 
ATOM     38  N   UNL A   1      45.365  26.019  28.083  1.00  0.00    -0.354 N 
ATOM     39  C   UNL A   1      41.292  27.418  28.574  1.00  0.00     0.074 A 
ATOM     40  C   UNL A   1      40.348  26.341  28.369  1.00  0.00     0.031 C 
ATOM     41  C   UNL A   1      46.963  24.548  27.551  1.00  0.00     0.029 A 
ATOM     42  C   UNL A   1      46.729  25.937  27.934  1.00  0.00     0.049 A 
ATOM     43  H   UNL A   1      44.904  26.836  28.380  1.00  0.00     0.167 HD
ATOM     44  C   UNL A   1      40.948  28.682  28.913  1.00  0.00     0.037 A 
ATOM     45  C   UNL A   1      47.676  26.885  28.069  1.00  0.00     0.037 A 
ATOM     46  C   UNL A   1      41.894  29.739  29.150  1.00  0.00     0.049 A 
ATOM     47  C   UNL A   1      47.266  28.285  28.441  1.00  0.00     0.074 A 
ATOM     48  C   UNL A   1      41.651  31.044  29.539  1.00  0.00     0.029 A 
ATOM     49  N   UNL A   1      43.270  29.604  29.029  1.00  0.00    -0.354 N 
ATOM     50  N   UNL A   1      46.066  28.765  28.657  1.00  0.00    -0.248 NA
ATOM     51  C   UNL A   1      48.342  29.276  28.587  1.00  0.00     0.031 C 
ATOM     52  C   UNL A   1      42.879  31.708  29.625  1.00  0.00     0.029 A 
ATOM     53  C   UNL A   1      43.888  30.806  29.330  1.00  0.00     0.049 A 
ATOM     54  H   UNL A   1      43.736  28.777  28.769  1.00  0.00     0.167 HD
ATOM     55  C   UNL A   1      46.244  30.098  29.000  1.00  0.00     0.074 A 
ATOM     56  C   UNL A   1      47.668  30.354  28.963  1.00  0.00     0.031 C 
ATOM     57  C   UNL A   1      45.310  31.027  29.320  1.00  0.00     0.037 A 
BRANCH  44  58
ATOM     58  C   UNL A   1      39.487  28.988  29.047  1.00  0.00     0.064 A 
ATOM     59  C   UNL A   1      38.831  28.904  30.284  1.00  0.00     0.173 A 
ATOM     60  C   UNL A   1      38.739  29.394  27.932  1.00  0.00     0.173 A 
ATOM     61  F   UNL A   1      39.499  28.506  31.377  1.00  0.00    -0.203 F 
ATOM     62  C   UNL A   1      37.472  29.188  30.395  1.00  0.00     0.198 A 
ATOM     63  C   UNL A   1      37.387  29.706  28.052  1.00  0.00     0.198 A 
ATOM     64  F   UNL A   1      39.320  29.493  26.727  1.00  0.00    -0.203 F 
ATOM     65  F   UNL A   1      36.856  29.054  31.576  1.00  0.00    -0.200 F 
ATOM     66  C   UNL A   1      36.754  29.596  29.281  1.00  0.00     0.200 A 
ATOM     67  F   UNL A   1      36.696  30.110  26.977  1.00  0.00    -0.200 F 
ATOM     68  F   UNL A   1      35.448  29.875  29.390  1.00  0.00    -0.200 F 
ENDBRANCH  44  58
BRANCH  45  69
ATOM     69  C   UNL A   1      49.107  26.541  27.868  1.00  0.00     0.064 A 
ATOM     70  C   UNL A   1      49.641  26.426  26.576  1.00  0.00     0.173 A 
ATOM     71  C   UNL A   1      49.966  26.312  28.952  1.00  0.00     0.173 A 
ATOM     72  F   UNL A   1      48.852  26.615  25.508  1.00  0.00    -0.203 F 
ATOM     73  C   UNL A   1      50.974  26.077  26.376  1.00  0.00     0.198 A 
ATOM     74  C   UNL A   1      51.307  25.988  28.751  1.00  0.00     0.198 A 
ATOM     75  F   UNL A   1      49.507  26.413  30.207  1.00  0.00    -0.203 F 
ATOM     76  F   UNL A   1      51.447  25.933  25.131  1.00  0.00    -0.200 F 
ATOM     77  C   UNL A   1      51.808  25.863  27.463  1.00  0.00     0.200 A 
ATOM     78  F   UNL A   1      52.113  25.793  29.804  1.00  0.00    -0.200 F 
ATOM     79  F   UNL A   1      53.091  25.529  27.270  1.00  0.00    -0.200 F 
ENDBRANCH  45  69
BRANCH  57  80
ATOM     80  C   UNL A   1      45.794  32.388  29.718  1.00  0.00     0.064 A 
ATOM     81  C   UNL A   1      45.924  33.426  28.785  1.00  0.00     0.173 A 
ATOM     82  C   UNL A   1      46.056  32.674  31.067  1.00  0.00     0.173 A 
ATOM     83  F   UNL A   1      45.698  33.195  27.484  1.00  0.00    -0.203 F 
ATOM     84  C   UNL A   1      46.308  34.702  29.189  1.00  0.00     0.198 A 
ATOM     85  C   UNL A   1      46.416  33.956  31.469  1.00  0.00     0.198 A 
ATOM     86  F   UNL A   1      45.940  31.713  31.997  1.00  0.00    -0.203 F 
ATOM     87  F   UNL A   1      46.452  35.675  28.279  1.00  0.00    -0.200 F 
ATOM     88  C   UNL A   1      46.544  34.969  30.530  1.00  0.00     0.200 A 
ATOM     89  F   UNL A   1      46.631  34.214  32.767  1.00  0.00    -0.200 F 
ATOM     90  F   UNL A   1      46.896  36.201  30.918  1.00  0.00    -0.200 F 
ENDBRANCH  57  80
ENDBRANCH  31  32
ENDBRANCH  23  26
ENDBRANCH  21  22
ENDBRANCH  20  21
ENDBRANCH   1  20
TORSDOF 14
ENDMDL
MODEL 3
REMARK VINA RESULT:     -11.2      4.740      9.372
REMARK SMILES CC(C)[C@@H](NC(=O)[C@H]1CCCO1)C(=O)NCCCCNC(=O)c1ccc(-c2c3nc(c(-c4c(F)c(F)c(F)c(F)c4F)c4ccc([nH]4)c(-c4c(F)c(F)c(F)c(F)c4F)c4nc(c(-c5c(F)c(F)c(F)c(F)c5F)c5ccc2[nH]5)C=C4)C=C3)cc1
REMARK SMILES IDX 17 1 16 2 15 3 13 4 14 5 4 7 2 8 1 9 3 10 5 11 6 12 7 14
REMARK SMILES IDX 8 15 9 16 12 17 10 18 11 19 18 20 19 21 20 22 21 23 22 25
REMARK SMILES IDX 23 26 24 27 85 28 25 29 84 30 26 31 27 32 28 33 78 34 29 35
REMARK SMILES IDX 83 36 77 37 79 38 30 39 82 40 76 41 75 42 31 44 63 45 43 46
REMARK SMILES IDX 62 47 44 48 47 49 61 50 80 51 45 52 46 53 60 55 81 56 48 57
REMARK SMILES IDX 32 58 33 59 41 60 34 61 35 62 39 63 42 64 36 65 37 66 40 67
REMARK SMILES IDX 38 68 64 69 65 70 73 71 66 72 67 73 71 74 74 75 68 76 69 77
REMARK SMILES IDX 72 78 70 79 49 80 50 81 58 82 51 83 52 84 56 85 59 86 53 87
REMARK SMILES IDX 54 88 57 89 55 90
REMARK H PARENT 15 6 5 13 20 24 79 43 47 54
REMARK Flexibility Score: inf
ROOT
ATOM      1  C   UNL A   1      42.151  21.739  28.374  1.00  0.00     0.023 C 
ENDROOT
BRANCH   1   2
ATOM      2  C   UNL A   1      42.695  23.125  28.056  1.00  0.00     0.116 C 
BRANCH   2   3
ATOM      3  N   UNL A   1      44.146  23.123  28.022  1.00  0.00    -0.354 N 
ATOM      4  C   UNL A   1      44.983  23.750  27.147  1.00  0.00     0.242 C 
ATOM      5  O   UNL A   1      46.194  23.713  27.375  1.00  0.00    -0.273 OA
ATOM      6  H   UNL A   1      44.587  22.596  28.727  1.00  0.00     0.163 HD
BRANCH   4   7
ATOM      7  C   UNL A   1      44.438  24.417  25.872  1.00  0.00     0.174 C 
BRANCH   7   8
ATOM      8  C   UNL A   1      44.911  25.910  25.854  1.00  0.00     0.015 C 
ATOM      9  C   UNL A   1      46.163  26.141  25.003  1.00  0.00     0.010 C 
ATOM     10  C   UNL A   1      43.809  26.869  25.377  1.00  0.00     0.010 C 
ENDBRANCH   7   8
BRANCH   7  11
ATOM     11  N   UNL A   1      44.806  23.706  24.630  1.00  0.00    -0.342 N 
ATOM     12  C   UNL A   1      44.717  22.375  24.312  1.00  0.00     0.249 C 
ATOM     13  H   UNL A   1      45.172  24.278  23.917  1.00  0.00     0.164 HD
ATOM     14  O   UNL A   1      44.527  22.099  23.124  1.00  0.00    -0.272 OA
BRANCH  12  15
ATOM     15  C   UNL A   1      44.961  21.281  25.369  1.00  0.00     0.207 C 
ATOM     16  C   UNL A   1      43.892  20.199  25.376  1.00  0.00     0.044 C 
ATOM     17  O   UNL A   1      46.233  20.634  25.168  1.00  0.00    -0.368 OA
ATOM     18  C   UNL A   1      44.630  18.951  24.946  1.00  0.00     0.032 C 
ATOM     19  C   UNL A   1      46.048  19.235  25.375  1.00  0.00     0.161 C 
ENDBRANCH  12  15
ENDBRANCH   7  11
ENDBRANCH   4   7
ENDBRANCH   2   3
ENDBRANCH   1   2
BRANCH   1  20
ATOM     20  C   UNL A   1      40.899  21.371  27.583  1.00  0.00     0.023 C 
BRANCH  20  21
ATOM     21  C   UNL A   1      40.812  22.016  26.205  1.00  0.00     0.116 C 
BRANCH  21  22
ATOM     22  N   UNL A   1      39.438  22.285  25.804  1.00  0.00    -0.352 N 
ATOM     23  C   UNL A   1      38.659  23.371  26.126  1.00  0.00     0.251 C 
ATOM     24  H   UNL A   1      39.016  21.604  25.231  1.00  0.00     0.163 HD
ATOM     25  O   UNL A   1      37.467  23.405  25.862  1.00  0.00    -0.269 OA
BRANCH  23  26
ATOM     26  C   UNL A   1      39.303  24.493  26.831  1.00  0.00     0.039 A 
ATOM     27  C   UNL A   1      40.045  25.424  26.102  1.00  0.00     0.014 A 
ATOM     28  C   UNL A   1      39.075  24.664  28.200  1.00  0.00     0.014 A 
ATOM     29  C   UNL A   1      40.504  26.578  26.737  1.00  0.00     0.010 A 
ATOM     30  C   UNL A   1      39.475  25.843  28.812  1.00  0.00     0.010 A 
ATOM     31  C   UNL A   1      40.188  26.812  28.084  1.00  0.00    -0.014 A 
BRANCH  31  32
ATOM     32  C   UNL A   1      40.600  28.053  28.784  1.00  0.00     0.031 A 
ATOM     33  C   UNL A   1      41.995  28.155  29.325  1.00  0.00     0.074 A 
ATOM     34  C   UNL A   1      39.701  29.026  29.024  1.00  0.00     0.049 A 
ATOM     35  N   UNL A   1      42.510  29.046  30.134  1.00  0.00    -0.248 NA
ATOM     36  C   UNL A   1      42.930  27.087  28.932  1.00  0.00     0.031 C 
ATOM     37  C   UNL A   1      38.310  29.030  28.567  1.00  0.00     0.029 A 
ATOM     38  N   UNL A   1      39.820  30.193  29.737  1.00  0.00    -0.354 N 
ATOM     39  C   UNL A   1      43.813  28.629  30.368  1.00  0.00     0.074 A 
ATOM     40  C   UNL A   1      44.000  27.386  29.652  1.00  0.00     0.031 C 
ATOM     41  C   UNL A   1      37.708  30.149  29.006  1.00  0.00     0.029 A 
ATOM     42  C   UNL A   1      38.654  30.915  29.811  1.00  0.00     0.049 A 
ATOM     43  H   UNL A   1      40.662  30.485  30.155  1.00  0.00     0.167 HD
ATOM     44  C   UNL A   1      44.771  29.239  31.103  1.00  0.00     0.037 A 
ATOM     45  C   UNL A   1      38.377  32.054  30.474  1.00  0.00     0.037 A 
ATOM     46  C   UNL A   1      44.590  30.493  31.783  1.00  0.00     0.049 A 
ATOM     47  C   UNL A   1      39.461  32.711  31.290  1.00  0.00     0.074 A 
ATOM     48  C   UNL A   1      45.509  31.216  32.520  1.00  0.00     0.029 A 
ATOM     49  N   UNL A   1      43.405  31.214  31.799  1.00  0.00    -0.354 N 
ATOM     50  N   UNL A   1      40.698  32.326  31.481  1.00  0.00    -0.248 NA
ATOM     51  C   UNL A   1      39.106  33.958  31.982  1.00  0.00     0.031 C 
ATOM     52  C   UNL A   1      44.873  32.362  33.007  1.00  0.00     0.029 A 
ATOM     53  C   UNL A   1      43.569  32.372  32.539  1.00  0.00     0.049 A 
ATOM     54  H   UNL A   1      42.572  30.942  31.350  1.00  0.00     0.167 HD
ATOM     55  C   UNL A   1      41.281  33.299  32.282  1.00  0.00     0.074 A 
ATOM     56  C   UNL A   1      40.261  34.293  32.542  1.00  0.00     0.031 C 
ATOM     57  C   UNL A   1      42.548  33.364  32.755  1.00  0.00     0.037 A 
BRANCH  44  58
ATOM     58  C   UNL A   1      46.101  28.556  31.207  1.00  0.00     0.064 A 
ATOM     59  C   UNL A   1      46.364  27.610  32.209  1.00  0.00     0.173 A 
ATOM     60  C   UNL A   1      47.118  28.831  30.281  1.00  0.00     0.173 A 
ATOM     61  F   UNL A   1      45.429  27.323  33.129  1.00  0.00    -0.203 F 
ATOM     62  C   UNL A   1      47.605  26.985  32.297  1.00  0.00     0.198 A 
ATOM     63  C   UNL A   1      48.348  28.183  30.354  1.00  0.00     0.198 A 
ATOM     64  F   UNL A   1      46.917  29.726  29.302  1.00  0.00    -0.203 F 
ATOM     65  F   UNL A   1      47.849  26.121  33.292  1.00  0.00    -0.200 F 
ATOM     66  C   UNL A   1      48.593  27.266  31.365  1.00  0.00     0.200 A 
ATOM     67  F   UNL A   1      49.298  28.447  29.446  1.00  0.00    -0.200 F 
ATOM     68  F   UNL A   1      49.785  26.659  31.447  1.00  0.00    -0.200 F 
ENDBRANCH  44  58
BRANCH  45  69
ATOM     69  C   UNL A   1      37.023  32.659  30.383  1.00  0.00     0.064 A 
ATOM     70  C   UNL A   1      36.688  33.506  29.318  1.00  0.00     0.173 A 
ATOM     71  C   UNL A   1      36.043  32.413  31.355  1.00  0.00     0.173 A 
ATOM     72  F   UNL A   1      37.600  33.789  28.376  1.00  0.00    -0.203 F 
ATOM     73  C   UNL A   1      35.431  34.101  29.238  1.00  0.00     0.198 A 
ATOM     74  C   UNL A   1      34.777  32.987  31.260  1.00  0.00     0.198 A 
ATOM     75  F   UNL A   1      36.311  31.607  32.392  1.00  0.00    -0.203 F 
ATOM     76  F   UNL A   1      35.152  34.941  28.232  1.00  0.00    -0.200 F 
ATOM     77  C   UNL A   1      34.474  33.837  30.207  1.00  0.00     0.200 A 
ATOM     78  F   UNL A   1      33.850  32.721  32.192  1.00  0.00    -0.200 F 
ATOM     79  F   UNL A   1      33.264  34.408  30.128  1.00  0.00    -0.200 F 
ENDBRANCH  45  69
BRANCH  57  80
ATOM     80  C   UNL A   1      42.930  34.576  33.551  1.00  0.00     0.064 A 
ATOM     81  C   UNL A   1      43.314  35.773  32.930  1.00  0.00     0.173 A 
ATOM     82  C   UNL A   1      42.833  34.558  34.951  1.00  0.00     0.173 A 
ATOM     83  F   UNL A   1      43.434  35.833  31.596  1.00  0.00    -0.203 F 
ATOM     84  C   UNL A   1      43.596  36.908  33.686  1.00  0.00     0.198 A 
ATOM     85  C   UNL A   1      43.091  35.700  35.700  1.00  0.00     0.198 A 
ATOM     86  F   UNL A   1      42.463  33.436  35.587  1.00  0.00    -0.203 F 
ATOM     87  F   UNL A   1      43.987  38.035  33.077  1.00  0.00    -0.200 F 
ATOM     88  C   UNL A   1      43.475  36.874  35.069  1.00  0.00     0.200 A 
ATOM     89  F   UNL A   1      42.963  35.668  37.034  1.00  0.00    -0.200 F 
ATOM     90  F   UNL A   1      43.730  37.972  35.792  1.00  0.00    -0.200 F 
ENDBRANCH  57  80
ENDBRANCH  31  32
ENDBRANCH  23  26
ENDBRANCH  21  22
ENDBRANCH  20  21
ENDBRANCH   1  20
TORSDOF 14
ENDMDL
