MODEL 1
REMARK VINA RESULT:     -13.3      0.000      0.000
REMARK SMILES CC[C@@H](C)NC(=O)c1cccc(NC(=O)[C@H]2CCCC[C@@H]2C(=O)NCCCCNC(=O)c2ccc(-c3c4nc(c(-c5c(F)c(F)c(F)c(F)c5F)c5ccc([nH]5)c(-c5c(F)c(F)c(F)c(F)c5F)c5nc(c(-c6c(F)c(F)c(F)c(F)c6F)c6ccc3[nH]6)C=C5)C=C4)cc2)c1
REMARK SMILES IDX 25 1 24 2 22 3 23 4 21 6 16 7 17 8 18 9 20 10 19 11 14 12
REMARK SMILES IDX 13 13 15 15 12 16 8 17 9 18 95 19 10 20 11 21 6 22 5 23 7 25
REMARK SMILES IDX 3 26 4 27 2 28 1 29 26 30 27 31 28 32 29 33 30 34 31 36
REMARK SMILES IDX 32 37 33 38 94 39 34 40 93 41 35 42 36 43 37 44 87 45 38 46
REMARK SMILES IDX 92 47 86 48 88 49 39 50 91 51 85 52 84 53 40 55 72 56 52 57
REMARK SMILES IDX 71 58 53 59 56 60 70 61 89 62 54 63 55 64 69 66 90 67 57 68
REMARK SMILES IDX 41 69 42 70 50 71 43 72 44 73 48 74 51 75 45 76 46 77 49 78
REMARK SMILES IDX 47 79 73 80 74 81 82 82 75 83 76 84 80 85 83 86 77 87 78 88
REMARK SMILES IDX 81 89 79 90 58 91 59 92 67 93 60 94 61 95 65 96 68 97 62 98
REMARK SMILES IDX 63 99 66 100 64 101
REMARK H PARENT 24 5 13 14 5 24 29 35 88 54 56 65
REMARK Flexibility Score: inf
ROOT
ATOM      1  C   UNL A   1      35.687  20.612  25.336  1.00  0.00     0.116 C 
ENDROOT
BRANCH   1   2
ATOM      2  N   UNL A   1      34.698  21.062  24.371  1.00  0.00    -0.356 N 
ATOM      3  C   UNL A   1      33.634  21.905  24.380  1.00  0.00     0.223 C 
ATOM      4  O   UNL A   1      33.095  22.047  23.276  1.00  0.00    -0.275 OA
ATOM      5  H   UNL A   1      34.833  20.650  23.487  1.00  0.00     0.163 HD
BRANCH   3   6
ATOM      6  C   UNL A   1      33.153  22.729  25.595  1.00  0.00     0.091 C 
ATOM      7  C   UNL A   1      32.281  23.949  25.273  1.00  0.00     0.091 C 
ATOM      8  C   UNL A   1      33.143  25.079  24.658  1.00  0.00     0.014 C 
ATOM      9  C   UNL A   1      34.397  25.439  25.455  1.00  0.00     0.001 C 
ATOM     10  C   UNL A   1      34.353  23.144  26.478  1.00  0.00     0.014 C 
ATOM     11  C   UNL A   1      35.219  24.215  25.827  1.00  0.00     0.001 C 
BRANCH   7  12
ATOM     12  C   UNL A   1      31.443  24.418  26.468  1.00  0.00     0.228 C 
ATOM     13  N   UNL A   1      31.081  25.712  26.714  1.00  0.00    -0.326 N 
ATOM     14  H   UNL A   1      30.609  25.784  27.576  1.00  0.00     0.169 HD
ATOM     15  O   UNL A   1      31.104  23.608  27.341  1.00  0.00    -0.274 OA
BRANCH  13  16
ATOM     16  C   UNL A   1      31.183  26.976  26.095  1.00  0.00     0.041 A 
ATOM     17  C   UNL A   1      30.689  28.314  24.108  1.00  0.00     0.041 A 
ATOM     18  C   UNL A   1      31.278  29.437  24.689  1.00  0.00     0.014 A 
ATOM     19  C   UNL A   1      30.674  27.086  24.792  1.00  0.00     0.040 A 
ATOM     20  C   UNL A   1      31.822  29.333  25.956  1.00  0.00     0.003 A 
ATOM     21  C   UNL A   1      31.769  28.112  26.639  1.00  0.00     0.026 A 
BRANCH  17  22
ATOM     22  C   UNL A   1      30.166  28.474  22.735  1.00  0.00     0.251 C 
ATOM     23  N   UNL A   1      28.915  28.976  22.504  1.00  0.00    -0.350 N 
ATOM     24  H   UNL A   1      28.657  29.010  21.555  1.00  0.00     0.164 HD
ATOM     25  O   UNL A   1      30.894  28.195  21.784  1.00  0.00    -0.269 OA
BRANCH  23  26
ATOM     26  C   UNL A   1      27.898  29.471  23.428  1.00  0.00     0.079 C 
ATOM     27  C   UNL A   1      26.682  28.551  23.339  1.00  0.00     0.031 C 
BRANCH  26  28
ATOM     28  C   UNL A   1      27.565  30.933  23.098  1.00  0.00     0.021 C 
ATOM     29  C   UNL A   1      28.646  31.907  23.545  1.00  0.00     0.006 C 
ENDBRANCH  26  28
ENDBRANCH  23  26
ENDBRANCH  17  22
ENDBRANCH  13  16
ENDBRANCH   7  12
ENDBRANCH   3   6
ENDBRANCH   1   2
BRANCH   1  30
ATOM     30  C   UNL A   1      37.097  21.067  24.982  1.00  0.00     0.023 C 
BRANCH  30  31
ATOM     31  C   UNL A   1      38.138  19.952  25.009  1.00  0.00     0.023 C 
BRANCH  31  32
ATOM     32  C   UNL A   1      39.405  20.263  25.801  1.00  0.00     0.116 C 
BRANCH  32  33
ATOM     33  N   UNL A   1      40.344  19.156  25.872  1.00  0.00    -0.352 N 
ATOM     34  C   UNL A   1      41.704  19.197  26.126  1.00  0.00     0.251 C 
ATOM     35  H   UNL A   1      39.963  18.261  25.720  1.00  0.00     0.163 HD
ATOM     36  O   UNL A   1      42.381  18.188  26.080  1.00  0.00    -0.269 OA
BRANCH  34  37
ATOM     37  C   UNL A   1      42.322  20.510  26.407  1.00  0.00     0.039 A 
ATOM     38  C   UNL A   1      42.738  21.296  25.331  1.00  0.00     0.014 A 
ATOM     39  C   UNL A   1      42.401  20.986  27.715  1.00  0.00     0.014 A 
ATOM     40  C   UNL A   1      43.153  22.609  25.566  1.00  0.00     0.010 A 
ATOM     41  C   UNL A   1      42.741  22.316  27.938  1.00  0.00     0.010 A 
ATOM     42  C   UNL A   1      43.110  23.142  26.865  1.00  0.00    -0.014 A 
BRANCH  42  43
ATOM     43  C   UNL A   1      43.427  24.567  27.124  1.00  0.00     0.031 A 
ATOM     44  C   UNL A   1      44.814  25.083  26.872  1.00  0.00     0.074 A 
ATOM     45  C   UNL A   1      42.492  25.372  27.663  1.00  0.00     0.049 A 
ATOM     46  N   UNL A   1      45.315  26.268  27.116  1.00  0.00    -0.248 NA
ATOM     47  C   UNL A   1      45.779  24.130  26.300  1.00  0.00     0.031 C 
ATOM     48  C   UNL A   1      41.126  24.974  28.006  1.00  0.00     0.029 A 
ATOM     49  N   UNL A   1      42.554  26.694  28.029  1.00  0.00    -0.354 N 
ATOM     50  C   UNL A   1      46.650  26.195  26.745  1.00  0.00     0.074 A 
ATOM     51  C   UNL A   1      46.897  24.837  26.313  1.00  0.00     0.031 C 
ATOM     52  C   UNL A   1      40.470  26.034  28.506  1.00  0.00     0.029 A 
ATOM     53  C   UNL A   1      41.378  27.176  28.553  1.00  0.00     0.049 A 
ATOM     54  H   UNL A   1      43.362  27.245  27.925  1.00  0.00     0.167 HD
ATOM     55  C   UNL A   1      47.580  27.180  26.740  1.00  0.00     0.037 A 
ATOM     56  C   UNL A   1      41.071  28.402  29.018  1.00  0.00     0.037 A 
ATOM     57  C   UNL A   1      47.323  28.538  27.141  1.00  0.00     0.049 A 
ATOM     58  C   UNL A   1      42.120  29.480  28.995  1.00  0.00     0.074 A 
ATOM     59  C   UNL A   1      48.179  29.624  27.112  1.00  0.00     0.029 A 
ATOM     60  N   UNL A   1      46.112  28.995  27.643  1.00  0.00    -0.354 N 
ATOM     61  N   UNL A   1      43.361  29.418  28.579  1.00  0.00    -0.248 NA
ATOM     62  C   UNL A   1      41.721  30.800  29.503  1.00  0.00     0.031 C 
ATOM     63  C   UNL A   1      47.498  30.731  27.629  1.00  0.00     0.029 A 
ATOM     64  C   UNL A   1      46.205  30.344  27.943  1.00  0.00     0.049 A 
ATOM     65  H   UNL A   1      45.308  28.442  27.768  1.00  0.00     0.167 HD
ATOM     66  C   UNL A   1      43.885  30.692  28.750  1.00  0.00     0.074 A 
ATOM     67  C   UNL A   1      42.821  31.511  29.295  1.00  0.00     0.031 C 
ATOM     68  C   UNL A   1      45.133  31.143  28.479  1.00  0.00     0.037 A 
BRANCH  55  69
ATOM     69  C   UNL A   1      48.961  26.819  26.277  1.00  0.00     0.064 A 
ATOM     70  C   UNL A   1      49.358  27.001  24.944  1.00  0.00     0.173 A 
ATOM     71  C   UNL A   1      49.902  26.298  27.178  1.00  0.00     0.173 A 
ATOM     72  F   UNL A   1      48.491  27.482  24.041  1.00  0.00    -0.203 F 
ATOM     73  C   UNL A   1      50.635  26.644  24.522  1.00  0.00     0.198 A 
ATOM     74  C   UNL A   1      51.188  25.970  26.759  1.00  0.00     0.198 A 
ATOM     75  F   UNL A   1      49.574  26.107  28.464  1.00  0.00    -0.203 F 
ATOM     76  F   UNL A   1      50.973  26.776  23.232  1.00  0.00    -0.200 F 
ATOM     77  C   UNL A   1      51.552  26.134  25.430  1.00  0.00     0.200 A 
ATOM     78  F   UNL A   1      52.076  25.487  27.639  1.00  0.00    -0.200 F 
ATOM     79  F   UNL A   1      52.781  25.792  25.022  1.00  0.00    -0.200 F 
ENDBRANCH  55  69
BRANCH  56  80
ATOM     80  C   UNL A   1      39.699  28.685  29.510  1.00  0.00     0.064 A 
ATOM     81  C   UNL A   1      39.355  28.439  30.847  1.00  0.00     0.173 A 
ATOM     82  C   UNL A   1      38.708  29.206  28.666  1.00  0.00     0.173 A 
ATOM     83  F   UNL A   1      40.264  27.922  31.687  1.00  0.00    -0.203 F 
ATOM     84  C   UNL A   1      38.068  28.688  31.317  1.00  0.00     0.198 A 
ATOM     85  C   UNL A   1      37.428  29.477  29.143  1.00  0.00     0.198 A 
ATOM     86  F   UNL A   1      38.989  29.463  27.380  1.00  0.00    -0.203 F 
ATOM     87  F   UNL A   1      37.755  28.407  32.589  1.00  0.00    -0.200 F 
ATOM     88  C   UNL A   1      37.106  29.212  30.466  1.00  0.00     0.200 A 
ATOM     89  F   UNL A   1      36.505  29.995  28.321  1.00  0.00    -0.200 F 
ATOM     90  F   UNL A   1      35.869  29.456  30.919  1.00  0.00    -0.200 F 
ENDBRANCH  56  80
BRANCH  68  91
ATOM     91  C   UNL A   1      45.409  32.594  28.738  1.00  0.00     0.064 A 
ATOM     92  C   UNL A   1      45.950  33.032  29.956  1.00  0.00     0.173 A 
ATOM     93  C   UNL A   1      45.169  33.552  27.741  1.00  0.00     0.173 A 
ATOM     94  F   UNL A   1      46.181  32.157  30.945  1.00  0.00    -0.203 F 
ATOM     95  C   UNL A   1      46.219  34.381  30.173  1.00  0.00     0.198 A 
ATOM     96  C   UNL A   1      45.464  34.896  27.953  1.00  0.00     0.198 A 
ATOM     97  F   UNL A   1      44.657  33.182  26.557  1.00  0.00    -0.203 F 
ATOM     98  F   UNL A   1      46.696  34.783  31.359  1.00  0.00    -0.200 F 
ATOM     99  C   UNL A   1      45.983  35.309  29.170  1.00  0.00     0.200 A 
ATOM    100  F   UNL A   1      45.245  35.789  26.979  1.00  0.00    -0.200 F 
ATOM    101  F   UNL A   1      46.250  36.606  29.379  1.00  0.00    -0.200 F 
ENDBRANCH  68  91
ENDBRANCH  42  43
ENDBRANCH  34  37
ENDBRANCH  32  33
ENDBRANCH  31  32
ENDBRANCH  30  31
ENDBRANCH   1  30
TORSDOF 16
ENDMDL
MODEL 2
REMARK VINA RESULT:     -13.2      5.214     11.261
REMARK SMILES CC[C@@H](C)NC(=O)c1cccc(NC(=O)[C@H]2CCCC[C@@H]2C(=O)NCCCCNC(=O)c2ccc(-c3c4nc(c(-c5c(F)c(F)c(F)c(F)c5F)c5ccc([nH]5)c(-c5c(F)c(F)c(F)c(F)c5F)c5nc(c(-c6c(F)c(F)c(F)c(F)c6F)c6ccc3[nH]6)C=C5)C=C4)cc2)c1
REMARK SMILES IDX 25 1 24 2 22 3 23 4 21 6 16 7 17 8 18 9 20 10 19 11 14 12
REMARK SMILES IDX 13 13 15 15 12 16 8 17 9 18 95 19 10 20 11 21 6 22 5 23 7 25
REMARK SMILES IDX 3 26 4 27 2 28 1 29 26 30 27 31 28 32 29 33 30 34 31 36
REMARK SMILES IDX 32 37 33 38 94 39 34 40 93 41 35 42 36 43 37 44 87 45 38 46
REMARK SMILES IDX 92 47 86 48 88 49 39 50 91 51 85 52 84 53 40 55 72 56 52 57
REMARK SMILES IDX 71 58 53 59 56 60 70 61 89 62 54 63 55 64 69 66 90 67 57 68
REMARK SMILES IDX 41 69 42 70 50 71 43 72 44 73 48 74 51 75 45 76 46 77 49 78
REMARK SMILES IDX 47 79 73 80 74 81 82 82 75 83 76 84 80 85 83 86 77 87 78 88
REMARK SMILES IDX 81 89 79 90 58 91 59 92 67 93 60 94 61 95 65 96 68 97 62 98
REMARK SMILES IDX 63 99 66 100 64 101
REMARK H PARENT 24 5 13 14 5 24 29 35 88 54 56 65
REMARK Flexibility Score: inf
ROOT
ATOM      1  C   UNL A   1      33.198  30.105  26.462  1.00  0.00     0.116 C 
ENDROOT
BRANCH   1   2
ATOM      2  N   UNL A   1      33.691  29.258  25.389  1.00  0.00    -0.356 N 
ATOM      3  C   UNL A   1      33.445  28.000  24.943  1.00  0.00     0.223 C 
ATOM      4  O   UNL A   1      34.068  27.699  23.918  1.00  0.00    -0.275 OA
ATOM      5  H   UNL A   1      34.378  29.712  24.849  1.00  0.00     0.163 HD
BRANCH   3   6
ATOM      6  C   UNL A   1      32.415  27.020  25.547  1.00  0.00     0.091 C 
ATOM      7  C   UNL A   1      32.691  25.529  25.310  1.00  0.00     0.091 C 
ATOM      8  C   UNL A   1      32.404  25.157  23.834  1.00  0.00     0.014 C 
ATOM      9  C   UNL A   1      31.036  25.599  23.313  1.00  0.00     0.001 C 
ATOM     10  C   UNL A   1      30.985  27.382  25.082  1.00  0.00     0.014 C 
ATOM     11  C   UNL A   1      30.745  27.061  23.614  1.00  0.00     0.001 C 
BRANCH   7  12
ATOM     12  C   UNL A   1      31.966  24.621  26.309  1.00  0.00     0.228 C 
ATOM     13  N   UNL A   1      32.187  23.280  26.455  1.00  0.00    -0.326 N 
ATOM     14  H   UNL A   1      31.555  22.891  27.102  1.00  0.00     0.169 HD
ATOM     15  O   UNL A   1      31.054  25.077  27.010  1.00  0.00    -0.274 OA
BRANCH  13  16
ATOM     16  C   UNL A   1      33.055  22.289  25.950  1.00  0.00     0.041 A 
ATOM     17  C   UNL A   1      33.272  20.297  24.546  1.00  0.00     0.041 A 
ATOM     18  C   UNL A   1      34.636  20.222  24.822  1.00  0.00     0.014 A 
ATOM     19  C   UNL A   1      32.482  21.301  25.134  1.00  0.00     0.040 A 
ATOM     20  C   UNL A   1      35.207  21.164  25.659  1.00  0.00     0.003 A 
ATOM     21  C   UNL A   1      34.416  22.178  26.209  1.00  0.00     0.026 A 
BRANCH  17  22
ATOM     22  C   UNL A   1      32.710  19.237  23.683  1.00  0.00     0.251 C 
ATOM     23  N   UNL A   1      32.868  17.913  23.987  1.00  0.00    -0.350 N 
ATOM     24  H   UNL A   1      32.481  17.293  23.329  1.00  0.00     0.164 HD
ATOM     25  O   UNL A   1      32.046  19.559  22.700  1.00  0.00    -0.269 OA
BRANCH  23  26
ATOM     26  C   UNL A   1      33.513  17.264  25.126  1.00  0.00     0.079 C 
ATOM     27  C   UNL A   1      34.730  16.496  24.613  1.00  0.00     0.031 C 
BRANCH  26  28
ATOM     28  C   UNL A   1      32.503  16.364  25.851  1.00  0.00     0.021 C 
ATOM     29  C   UNL A   1      32.602  14.902  25.438  1.00  0.00     0.006 C 
ENDBRANCH  26  28
ENDBRANCH  23  26
ENDBRANCH  17  22
ENDBRANCH  13  16
ENDBRANCH   7  12
ENDBRANCH   3   6
ENDBRANCH   1   2
BRANCH   1  30
ATOM     30  C   UNL A   1      31.840  30.716  26.146  1.00  0.00     0.023 C 
BRANCH  30  31
ATOM     31  C   UNL A   1      31.508  31.959  26.967  1.00  0.00     0.023 C 
BRANCH  31  32
ATOM     32  C   UNL A   1      32.706  32.817  27.364  1.00  0.00     0.116 C 
BRANCH  32  33
ATOM     33  N   UNL A   1      32.369  34.198  27.668  1.00  0.00    -0.352 N 
ATOM     34  C   UNL A   1      32.974  35.050  28.575  1.00  0.00     0.251 C 
ATOM     35  H   UNL A   1      31.612  34.575  27.163  1.00  0.00     0.163 HD
ATOM     36  O   UNL A   1      32.532  36.165  28.778  1.00  0.00    -0.269 OA
BRANCH  34  37
ATOM     37  C   UNL A   1      34.142  34.552  29.330  1.00  0.00     0.039 A 
ATOM     38  C   UNL A   1      33.930  33.958  30.576  1.00  0.00     0.014 A 
ATOM     39  C   UNL A   1      35.416  34.592  28.763  1.00  0.00     0.014 A 
ATOM     40  C   UNL A   1      34.994  33.319  31.217  1.00  0.00     0.010 A 
ATOM     41  C   UNL A   1      36.454  33.891  29.366  1.00  0.00     0.010 A 
ATOM     42  C   UNL A   1      36.250  33.240  30.593  1.00  0.00    -0.014 A 
BRANCH  42  43
ATOM     43  C   UNL A   1      37.361  32.464  31.195  1.00  0.00     0.031 A 
ATOM     44  C   UNL A   1      37.861  32.812  32.566  1.00  0.00     0.074 A 
ATOM     45  C   UNL A   1      37.972  31.504  30.474  1.00  0.00     0.049 A 
ATOM     46  N   UNL A   1      38.875  32.315  33.231  1.00  0.00    -0.248 NA
ATOM     47  C   UNL A   1      37.148  33.887  33.275  1.00  0.00     0.031 C 
ATOM     48  C   UNL A   1      37.615  31.111  29.110  1.00  0.00     0.029 A 
ATOM     49  N   UNL A   1      39.032  30.689  30.787  1.00  0.00    -0.354 N 
ATOM     50  C   UNL A   1      38.929  33.027  34.420  1.00  0.00     0.074 A 
ATOM     51  C   UNL A   1      37.884  34.027  34.365  1.00  0.00     0.031 C 
ATOM     52  C   UNL A   1      38.423  30.114  28.712  1.00  0.00     0.029 A 
ATOM     53  C   UNL A   1      39.376  29.822  29.779  1.00  0.00     0.049 A 
ATOM     54  H   UNL A   1      39.501  30.723  31.651  1.00  0.00     0.167 HD
ATOM     55  C   UNL A   1      39.758  32.846  35.476  1.00  0.00     0.037 A 
ATOM     56  C   UNL A   1      40.352  28.895  29.723  1.00  0.00     0.037 A 
ATOM     57  C   UNL A   1      40.775  31.830  35.540  1.00  0.00     0.049 A 
ATOM     58  C   UNL A   1      41.256  28.709  30.911  1.00  0.00     0.074 A 
ATOM     59  C   UNL A   1      41.624  31.522  36.588  1.00  0.00     0.029 A 
ATOM     60  N   UNL A   1      41.078  30.952  34.508  1.00  0.00    -0.354 N 
ATOM     61  N   UNL A   1      41.255  29.342  32.059  1.00  0.00    -0.248 NA
ATOM     62  C   UNL A   1      42.292  27.674  30.797  1.00  0.00     0.031 C 
ATOM     63  C   UNL A   1      42.465  30.482  36.179  1.00  0.00     0.029 A 
ATOM     64  C   UNL A   1      42.113  30.114  34.890  1.00  0.00     0.049 A 
ATOM     65  H   UNL A   1      40.625  30.930  33.635  1.00  0.00     0.167 HD
ATOM     66  C   UNL A   1      42.270  28.769  32.812  1.00  0.00     0.074 A 
ATOM     67  C   UNL A   1      42.857  27.725  31.995  1.00  0.00     0.031 C 
ATOM     68  C   UNL A   1      42.679  29.077  34.066  1.00  0.00     0.037 A 
BRANCH  55  69
ATOM     69  C   UNL A   1      39.589  33.766  36.649  1.00  0.00     0.064 A 
ATOM     70  C   UNL A   1      40.196  35.031  36.681  1.00  0.00     0.173 A 
ATOM     71  C   UNL A   1      38.802  33.386  37.746  1.00  0.00     0.173 A 
ATOM     72  F   UNL A   1      40.970  35.435  35.662  1.00  0.00    -0.203 F 
ATOM     73  C   UNL A   1      40.048  35.868  37.783  1.00  0.00     0.198 A 
ATOM     74  C   UNL A   1      38.631  34.239  38.833  1.00  0.00     0.198 A 
ATOM     75  F   UNL A   1      38.198  32.189  37.763  1.00  0.00    -0.203 F 
ATOM     76  F   UNL A   1      40.682  37.049  37.814  1.00  0.00    -0.200 F 
ATOM     77  C   UNL A   1      39.262  35.475  38.856  1.00  0.00     0.200 A 
ATOM     78  F   UNL A   1      37.864  33.863  39.865  1.00  0.00    -0.200 F 
ATOM     79  F   UNL A   1      39.120  36.283  39.915  1.00  0.00    -0.200 F 
ENDBRANCH  55  69
BRANCH  56  80
ATOM     80  C   UNL A   1      40.501  28.047  28.513  1.00  0.00     0.064 A 
ATOM     81  C   UNL A   1      39.874  26.795  28.438  1.00  0.00     0.173 A 
ATOM     82  C   UNL A   1      41.264  28.464  27.413  1.00  0.00     0.173 A 
ATOM     83  F   UNL A   1      39.151  26.346  29.473  1.00  0.00    -0.203 F 
ATOM     84  C   UNL A   1      40.019  25.985  27.314  1.00  0.00     0.198 A 
ATOM     85  C   UNL A   1      41.387  27.663  26.280  1.00  0.00     0.198 A 
ATOM     86  F   UNL A   1      41.879  29.655  27.436  1.00  0.00    -0.203 F 
ATOM     87  F   UNL A   1      39.441  24.776  27.283  1.00  0.00    -0.200 F 
ATOM     88  C   UNL A   1      40.771  26.422  26.233  1.00  0.00     0.200 A 
ATOM     89  F   UNL A   1      42.105  28.094  25.233  1.00  0.00    -0.200 F 
ATOM     90  F   UNL A   1      40.906  25.644  25.151  1.00  0.00    -0.200 F 
ENDBRANCH  56  80
BRANCH  68  91
ATOM     91  C   UNL A   1      43.793  28.258  34.646  1.00  0.00     0.064 A 
ATOM     92  C   UNL A   1      45.130  28.672  34.558  1.00  0.00     0.173 A 
ATOM     93  C   UNL A   1      43.516  27.066  35.331  1.00  0.00     0.173 A 
ATOM     94  F   UNL A   1      45.447  29.796  33.898  1.00  0.00    -0.203 F 
ATOM     95  C   UNL A   1      46.152  27.909  35.119  1.00  0.00     0.198 A 
ATOM     96  C   UNL A   1      44.537  26.320  35.914  1.00  0.00     0.198 A 
ATOM     97  F   UNL A   1      42.252  26.630  35.447  1.00  0.00    -0.203 F 
ATOM     98  F   UNL A   1      47.426  28.302  34.987  1.00  0.00    -0.200 F 
ATOM     99  C   UNL A   1      45.854  26.739  35.801  1.00  0.00     0.200 A 
ATOM    100  F   UNL A   1      44.245  25.196  36.582  1.00  0.00    -0.200 F 
ATOM    101  F   UNL A   1      46.838  26.011  36.347  1.00  0.00    -0.200 F 
ENDBRANCH  68  91
ENDBRANCH  42  43
ENDBRANCH  34  37
ENDBRANCH  32  33
ENDBRANCH  31  32
ENDBRANCH  30  31
ENDBRANCH   1  30
TORSDOF 16
ENDMDL
MODEL 3
REMARK VINA RESULT:     -13.2      5.116     11.106
REMARK SMILES CC[C@@H](C)NC(=O)c1cccc(NC(=O)[C@H]2CCCC[C@@H]2C(=O)NCCCCNC(=O)c2ccc(-c3c4nc(c(-c5c(F)c(F)c(F)c(F)c5F)c5ccc([nH]5)c(-c5c(F)c(F)c(F)c(F)c5F)c5nc(c(-c6c(F)c(F)c(F)c(F)c6F)c6ccc3[nH]6)C=C5)C=C4)cc2)c1
REMARK SMILES IDX 25 1 24 2 22 3 23 4 21 6 16 7 17 8 18 9 20 10 19 11 14 12
REMARK SMILES IDX 13 13 15 15 12 16 8 17 9 18 95 19 10 20 11 21 6 22 5 23 7 25
REMARK SMILES IDX 3 26 4 27 2 28 1 29 26 30 27 31 28 32 29 33 30 34 31 36
REMARK SMILES IDX 32 37 33 38 94 39 34 40 93 41 35 42 36 43 37 44 87 45 38 46
REMARK SMILES IDX 92 47 86 48 88 49 39 50 91 51 85 52 84 53 40 55 72 56 52 57
REMARK SMILES IDX 71 58 53 59 56 60 70 61 89 62 54 63 55 64 69 66 90 67 57 68
REMARK SMILES IDX 41 69 42 70 50 71 43 72 44 73 48 74 51 75 45 76 46 77 49 78
REMARK SMILES IDX 47 79 73 80 74 81 82 82 75 83 76 84 80 85 83 86 77 87 78 88
REMARK SMILES IDX 81 89 79 90 58 91 59 92 67 93 60 94 61 95 65 96 68 97 62 98
REMARK SMILES IDX 63 99 66 100 64 101
REMARK H PARENT 24 5 13 14 5 24 29 35 88 54 56 65
REMARK Flexibility Score: inf
ROOT
ATOM      1  C   UNL A   1      33.281  30.008  26.929  1.00  0.00     0.116 C 
ENDROOT
BRANCH   1   2
ATOM      2  N   UNL A   1      33.731  29.442  25.670  1.00  0.00    -0.356 N 
ATOM      3  C   UNL A   1      33.265  28.521  24.787  1.00  0.00     0.223 C 
ATOM      4  O   UNL A   1      33.965  28.394  23.776  1.00  0.00    -0.275 OA
ATOM      5  H   UNL A   1      34.593  29.822  25.384  1.00  0.00     0.163 HD
BRANCH   3   6
ATOM      6  C   UNL A   1      31.935  27.747  24.918  1.00  0.00     0.091 C 
ATOM      7  C   UNL A   1      31.998  26.249  24.596  1.00  0.00     0.091 C 
ATOM      8  C   UNL A   1      32.147  26.033  23.069  1.00  0.00     0.014 C 
ATOM      9  C   UNL A   1      31.128  26.783  22.211  1.00  0.00     0.001 C 
ATOM     10  C   UNL A   1      30.826  28.430  24.084  1.00  0.00     0.014 C 
ATOM     11  C   UNL A   1      31.025  28.253  22.585  1.00  0.00     0.001 C 
BRANCH   7  12
ATOM     12  C   UNL A   1      30.835  25.456  25.202  1.00  0.00     0.228 C 
ATOM     13  N   UNL A   1      30.586  24.131  24.980  1.00  0.00    -0.326 N 
ATOM     14  H   UNL A   1      29.745  23.857  25.412  1.00  0.00     0.169 HD
ATOM     15  O   UNL A   1      29.990  26.034  25.898  1.00  0.00    -0.274 OA
BRANCH  13  16
ATOM     16  C   UNL A   1      31.181  23.040  24.311  1.00  0.00     0.041 A 
ATOM     17  C   UNL A   1      32.441  20.956  24.541  1.00  0.00     0.041 A 
ATOM     18  C   UNL A   1      32.426  20.767  23.160  1.00  0.00     0.014 A 
ATOM     19  C   UNL A   1      31.854  22.101  25.108  1.00  0.00     0.040 A 
ATOM     20  C   UNL A   1      31.803  21.707  22.358  1.00  0.00     0.003 A 
ATOM     21  C   UNL A   1      31.194  22.824  22.939  1.00  0.00     0.026 A 
BRANCH  17  22
ATOM     22  C   UNL A   1      33.161  19.943  25.342  1.00  0.00     0.251 C 
ATOM     23  N   UNL A   1      34.492  20.075  25.625  1.00  0.00    -0.350 N 
ATOM     24  H   UNL A   1      34.877  19.328  26.138  1.00  0.00     0.164 HD
ATOM     25  O   UNL A   1      32.533  18.990  25.800  1.00  0.00    -0.269 OA
BRANCH  23  26
ATOM     26  C   UNL A   1      35.439  21.138  25.298  1.00  0.00     0.079 C 
ATOM     27  C   UNL A   1      36.807  20.503  25.061  1.00  0.00     0.031 C 
BRANCH  26  28
ATOM     28  C   UNL A   1      35.453  22.184  26.421  1.00  0.00     0.021 C 
ATOM     29  C   UNL A   1      34.900  23.534  25.985  1.00  0.00     0.006 C 
ENDBRANCH  26  28
ENDBRANCH  23  26
ENDBRANCH  17  22
ENDBRANCH  13  16
ENDBRANCH   7  12
ENDBRANCH   3   6
ENDBRANCH   1   2
BRANCH   1  30
ATOM     30  C   UNL A   1      31.831  30.471  26.877  1.00  0.00     0.023 C 
BRANCH  30  31
ATOM     31  C   UNL A   1      31.661  31.981  26.739  1.00  0.00     0.023 C 
BRANCH  31  32
ATOM     32  C   UNL A   1      32.796  32.820  27.320  1.00  0.00     0.116 C 
BRANCH  32  33
ATOM     33  N   UNL A   1      32.408  34.175  27.673  1.00  0.00    -0.352 N 
ATOM     34  C   UNL A   1      32.968  35.008  28.626  1.00  0.00     0.251 C 
ATOM     35  H   UNL A   1      31.650  34.549  27.168  1.00  0.00     0.163 HD
ATOM     36  O   UNL A   1      32.486  36.100  28.865  1.00  0.00    -0.269 OA
BRANCH  34  37
ATOM     37  C   UNL A   1      34.137  34.517  29.384  1.00  0.00     0.039 A 
ATOM     38  C   UNL A   1      33.921  33.882  30.609  1.00  0.00     0.014 A 
ATOM     39  C   UNL A   1      35.417  34.605  28.839  1.00  0.00     0.014 A 
ATOM     40  C   UNL A   1      34.992  33.251  31.248  1.00  0.00     0.010 A 
ATOM     41  C   UNL A   1      36.464  33.912  29.437  1.00  0.00     0.010 A 
ATOM     42  C   UNL A   1      36.258  33.220  30.641  1.00  0.00    -0.014 A 
BRANCH  42  43
ATOM     43  C   UNL A   1      37.379  32.454  31.237  1.00  0.00     0.031 A 
ATOM     44  C   UNL A   1      37.881  32.805  32.608  1.00  0.00     0.074 A 
ATOM     45  C   UNL A   1      37.997  31.502  30.513  1.00  0.00     0.049 A 
ATOM     46  N   UNL A   1      38.902  32.317  33.267  1.00  0.00    -0.248 NA
ATOM     47  C   UNL A   1      37.159  33.872  33.321  1.00  0.00     0.031 C 
ATOM     48  C   UNL A   1      37.638  31.108  29.149  1.00  0.00     0.029 A 
ATOM     49  N   UNL A   1      39.066  30.698  30.820  1.00  0.00    -0.354 N 
ATOM     50  C   UNL A   1      38.953  33.028  34.458  1.00  0.00     0.074 A 
ATOM     51  C   UNL A   1      37.898  34.017  34.409  1.00  0.00     0.031 C 
ATOM     52  C   UNL A   1      38.455  30.120  28.747  1.00  0.00     0.029 A 
ATOM     53  C   UNL A   1      39.415  29.835  29.809  1.00  0.00     0.049 A 
ATOM     54  H   UNL A   1      39.538  30.734  31.683  1.00  0.00     0.167 HD
ATOM     55  C   UNL A   1      39.788  32.852  35.510  1.00  0.00     0.037 A 
ATOM     56  C   UNL A   1      40.400  28.919  29.748  1.00  0.00     0.037 A 
ATOM     57  C   UNL A   1      40.816  31.846  35.569  1.00  0.00     0.049 A 
ATOM     58  C   UNL A   1      41.310  28.739  30.932  1.00  0.00     0.074 A 
ATOM     59  C   UNL A   1      41.671  31.546  36.613  1.00  0.00     0.029 A 
ATOM     60  N   UNL A   1      41.123  30.974  34.534  1.00  0.00    -0.354 N 
ATOM     61  N   UNL A   1      41.307  29.371  32.081  1.00  0.00    -0.248 NA
ATOM     62  C   UNL A   1      42.357  27.715  30.812  1.00  0.00     0.031 C 
ATOM     63  C   UNL A   1      42.521  30.514  36.199  1.00  0.00     0.029 A 
ATOM     64  C   UNL A   1      42.168  30.146  34.911  1.00  0.00     0.049 A 
ATOM     65  H   UNL A   1      40.668  30.949  33.663  1.00  0.00     0.167 HD
ATOM     66  C   UNL A   1      42.331  28.806  32.829  1.00  0.00     0.074 A 
ATOM     67  C   UNL A   1      42.925  27.770  32.008  1.00  0.00     0.031 C 
ATOM     68  C   UNL A   1      42.741  29.116  34.083  1.00  0.00     0.037 A 
BRANCH  55  69
ATOM     69  C   UNL A   1      39.614  33.769  36.686  1.00  0.00     0.064 A 
ATOM     70  C   UNL A   1      38.821  33.407  37.786  1.00  0.00     0.173 A 
ATOM     71  C   UNL A   1      40.257  35.015  36.720  1.00  0.00     0.173 A 
ATOM     72  F   UNL A   1      38.174  32.232  37.794  1.00  0.00    -0.203 F 
ATOM     73  C   UNL A   1      38.651  34.274  38.861  1.00  0.00     0.198 A 
ATOM     74  C   UNL A   1      40.109  35.866  37.812  1.00  0.00     0.198 A 
ATOM     75  F   UNL A   1      41.029  35.407  35.696  1.00  0.00    -0.203 F 
ATOM     76  F   UNL A   1      37.845  33.929  39.875  1.00  0.00    -0.200 F 
ATOM     77  C   UNL A   1      39.299  35.500  38.877  1.00  0.00     0.200 A 
ATOM     78  F   UNL A   1      40.743  37.046  37.831  1.00  0.00    -0.200 F 
ATOM     79  F   UNL A   1      39.135  36.332  39.914  1.00  0.00    -0.200 F 
ENDBRANCH  55  69
BRANCH  56  80
ATOM     80  C   UNL A   1      40.553  28.075  28.536  1.00  0.00     0.064 A 
ATOM     81  C   UNL A   1      39.932  26.820  28.457  1.00  0.00     0.173 A 
ATOM     82  C   UNL A   1      41.314  28.498  27.437  1.00  0.00     0.173 A 
ATOM     83  F   UNL A   1      39.211  26.364  29.492  1.00  0.00    -0.203 F 
ATOM     84  C   UNL A   1      40.080  26.013  27.331  1.00  0.00     0.198 A 
ATOM     85  C   UNL A   1      41.441  27.700  26.302  1.00  0.00     0.198 A 
ATOM     86  F   UNL A   1      41.923  29.692  27.463  1.00  0.00    -0.203 F 
ATOM     87  F   UNL A   1      39.509  24.802  27.298  1.00  0.00    -0.200 F 
ATOM     88  C   UNL A   1      40.831  26.456  26.252  1.00  0.00     0.200 A 
ATOM     89  F   UNL A   1      42.156  28.137  25.256  1.00  0.00    -0.200 F 
ATOM     90  F   UNL A   1      40.969  25.682  25.167  1.00  0.00    -0.200 F 
ENDBRANCH  56  80
BRANCH  68  91
ATOM     91  C   UNL A   1      43.866  28.307  34.656  1.00  0.00     0.064 A 
ATOM     92  C   UNL A   1      45.199  28.732  34.560  1.00  0.00     0.173 A 
ATOM     93  C   UNL A   1      43.602  27.114  35.345  1.00  0.00     0.173 A 
ATOM     94  F   UNL A   1      45.502  29.858  33.897  1.00  0.00    -0.203 F 
ATOM     95  C   UNL A   1      46.230  27.979  35.116  1.00  0.00     0.198 A 
ATOM     96  C   UNL A   1      44.633  26.377  35.922  1.00  0.00     0.198 A 
ATOM     97  F   UNL A   1      42.343  26.667  35.468  1.00  0.00    -0.203 F 
ATOM     98  F   UNL A   1      47.500  28.382  34.977  1.00  0.00    -0.200 F 
ATOM     99  C   UNL A   1      45.946  26.807  35.801  1.00  0.00     0.200 A 
ATOM    100  F   UNL A   1      44.355  25.251  36.594  1.00  0.00    -0.200 F 
ATOM    101  F   UNL A   1      46.939  26.088  36.342  1.00  0.00    -0.200 F 
ENDBRANCH  68  91
ENDBRANCH  42  43
ENDBRANCH  34  37
ENDBRANCH  32  33
ENDBRANCH  31  32
ENDBRANCH  30  31
ENDBRANCH   1  30
TORSDOF 16
ENDMDL
