MODEL 1
REMARK VINA RESULT:     -11.8      0.000      0.000
REMARK SMILES C/C=C/C[C@@H](C(=O)NCCCCNC(=O)c1ccc(-c2c3nc(c(-c4c(F)c(F)c(F)c(F)c4F)c4ccc([nH]4)c(-c4c(F)c(F)c(F)c(F)c4F)c4nc(c(-c5c(F)c(F)c(F)c(F)c5F)c5ccc2[nH]5)C=C4)C=C3)cc1)c1cccc(Cl)c1
REMARK SMILES IDX 10 1 9 2 8 3 6 4 7 5 5 7 4 8 3 9 1 10 2 11 79 12 80 13 85 14
REMARK SMILES IDX 81 15 83 16 82 17 84 18 11 19 12 20 13 21 14 22 15 24 16 25
REMARK SMILES IDX 17 26 78 27 18 28 77 29 19 30 20 31 21 32 71 33 22 34 76 35
REMARK SMILES IDX 70 36 72 37 23 38 75 39 69 40 68 41 24 43 56 44 36 45 55 46
REMARK SMILES IDX 37 47 40 48 54 49 73 50 38 51 39 52 53 54 74 55 41 56 25 57
REMARK SMILES IDX 26 58 34 59 27 60 28 61 32 62 35 63 29 64 30 65 33 66 31 67
REMARK SMILES IDX 57 68 58 69 66 70 59 71 60 72 64 73 67 74 61 75 62 76 65 77
REMARK SMILES IDX 63 78 42 79 43 80 51 81 44 82 45 83 49 84 52 85 46 86 47 87
REMARK SMILES IDX 50 88 48 89
REMARK H PARENT 8 6 13 23 72 42 40 53
REMARK Flexibility Score: inf
ROOT
ATOM      1  C   UNL A   1      31.743  30.910  26.006  1.00  0.00     0.023 C 
ENDROOT
BRANCH   1   2
ATOM      2  C   UNL A   1      33.041  30.206  26.415  1.00  0.00     0.116 C 
BRANCH   2   3
ATOM      3  N   UNL A   1      32.725  29.144  27.347  1.00  0.00    -0.356 N 
ATOM      4  C   UNL A   1      32.004  28.009  27.096  1.00  0.00     0.227 C 
ATOM      5  O   UNL A   1      31.350  27.553  28.036  1.00  0.00    -0.274 OA
ATOM      6  H   UNL A   1      33.068  29.251  28.263  1.00  0.00     0.163 HD
BRANCH   4   7
ATOM      7  C   UNL A   1      32.113  27.292  25.727  1.00  0.00     0.112 C 
BRANCH   7   8
ATOM      8  C   UNL A   1      30.776  27.330  24.942  1.00  0.00     0.045 C 
BRANCH   8   9
ATOM      9  C   UNL A   1      30.610  28.306  23.812  1.00  0.00    -0.030 C 
ATOM     10  C   UNL A   1      29.281  29.688  22.196  1.00  0.00     0.035 C 
ATOM     11  C   UNL A   1      29.429  28.675  23.287  1.00  0.00    -0.035 C 
ENDBRANCH   8   9
ENDBRANCH   7   8
BRANCH   7  12
ATOM     12  C   UNL A   1      32.615  25.841  25.958  1.00  0.00    -0.034 A 
ATOM     13  C   UNL A   1      31.797  24.819  26.478  1.00  0.00     0.004 A 
ATOM     14  C   UNL A   1      33.960  25.517  25.686  1.00  0.00     0.025 A 
ATOM     15  C   UNL A   1      32.306  23.547  26.755  1.00  0.00     0.002 A 
ATOM     16  C   UNL A   1      34.468  24.249  25.986  1.00  0.00     0.041 A 
ATOM     17  C   UNL A   1      33.647  23.264  26.523  1.00  0.00     0.020 A 
ATOM     18  Cl  UNL A   1      36.134  23.908  25.715  1.00  0.00    -0.084 Cl
ENDBRANCH   7  12
ENDBRANCH   4   7
ENDBRANCH   2   3
ENDBRANCH   1   2
BRANCH   1  19
ATOM     19  C   UNL A   1      31.421  32.178  26.786  1.00  0.00     0.023 C 
BRANCH  19  20
ATOM     20  C   UNL A   1      32.636  32.895  27.345  1.00  0.00     0.116 C 
BRANCH  20  21
ATOM     21  N   UNL A   1      32.379  34.284  27.700  1.00  0.00    -0.352 N 
ATOM     22  C   UNL A   1      32.991  35.060  28.654  1.00  0.00     0.251 C 
ATOM     23  H   UNL A   1      31.669  34.728  27.184  1.00  0.00     0.163 HD
ATOM     24  O   UNL A   1      32.583  36.188  28.891  1.00  0.00    -0.269 OA
BRANCH  22  25
ATOM     25  C   UNL A   1      34.125  34.501  29.420  1.00  0.00     0.039 A 
ATOM     26  C   UNL A   1      33.867  33.835  30.620  1.00  0.00     0.014 A 
ATOM     27  C   UNL A   1      35.431  34.603  28.936  1.00  0.00     0.014 A 
ATOM     28  C   UNL A   1      34.917  33.221  31.304  1.00  0.00     0.010 A 
ATOM     29  C   UNL A   1      36.452  33.899  29.555  1.00  0.00     0.010 A 
ATOM     30  C   UNL A   1      36.212  33.224  30.760  1.00  0.00    -0.014 A 
BRANCH  30  31
ATOM     31  C   UNL A   1      37.346  32.577  31.463  1.00  0.00     0.031 A 
ATOM     32  C   UNL A   1      38.075  31.439  30.802  1.00  0.00     0.074 A 
ATOM     33  C   UNL A   1      37.677  32.969  32.708  1.00  0.00     0.049 A 
ATOM     34  N   UNL A   1      39.051  30.698  31.264  1.00  0.00    -0.248 NA
ATOM     35  C   UNL A   1      37.617  31.051  29.457  1.00  0.00     0.031 C 
ATOM     36  C   UNL A   1      36.997  34.010  33.480  1.00  0.00     0.029 A 
ATOM     37  N   UNL A   1      38.671  32.531  33.544  1.00  0.00    -0.354 N 
ATOM     38  C   UNL A   1      39.297  29.748  30.282  1.00  0.00     0.074 A 
ATOM     39  C   UNL A   1      38.327  29.957  29.232  1.00  0.00     0.031 C 
ATOM     40  C   UNL A   1      37.618  34.156  34.662  1.00  0.00     0.029 A 
ATOM     41  C   UNL A   1      38.719  33.203  34.741  1.00  0.00     0.049 A 
ATOM     42  H   UNL A   1      39.292  31.804  33.310  1.00  0.00     0.167 HD
ATOM     43  C   UNL A   1      40.273  28.810  30.238  1.00  0.00     0.037 A 
ATOM     44  C   UNL A   1      39.567  33.067  35.777  1.00  0.00     0.037 A 
ATOM     45  C   UNL A   1      41.269  28.643  31.260  1.00  0.00     0.049 A 
ATOM     46  C   UNL A   1      40.674  32.051  35.683  1.00  0.00     0.074 A 
ATOM     47  C   UNL A   1      42.344  27.774  31.286  1.00  0.00     0.029 A 
ATOM     48  N   UNL A   1      41.316  29.377  32.437  1.00  0.00    -0.354 N 
ATOM     49  N   UNL A   1      40.947  31.209  34.716  1.00  0.00    -0.248 NA
ATOM     50  C   UNL A   1      41.601  31.981  36.820  1.00  0.00     0.031 C 
ATOM     51  C   UNL A   1      43.025  27.959  32.495  1.00  0.00     0.029 A 
ATOM     52  C   UNL A   1      42.398  28.973  33.202  1.00  0.00     0.049 A 
ATOM     53  H   UNL A   1      40.675  30.079  32.692  1.00  0.00     0.167 HD
ATOM     54  C   UNL A   1      42.088  30.527  35.115  1.00  0.00     0.074 A 
ATOM     55  C   UNL A   1      42.469  31.071  36.402  1.00  0.00     0.031 C 
ATOM     56  C   UNL A   1      42.760  29.536  34.477  1.00  0.00     0.037 A 
BRANCH  43  57
ATOM     57  C   UNL A   1      40.313  27.912  29.036  1.00  0.00     0.064 A 
ATOM     58  C   UNL A   1      41.052  28.251  27.891  1.00  0.00     0.173 A 
ATOM     59  C   UNL A   1      39.613  26.697  29.027  1.00  0.00     0.173 A 
ATOM     60  F   UNL A   1      41.726  29.409  27.840  1.00  0.00    -0.203 F 
ATOM     61  C   UNL A   1      41.057  27.424  26.770  1.00  0.00     0.198 A 
ATOM     62  C   UNL A   1      39.647  25.857  27.916  1.00  0.00     0.198 A 
ATOM     63  F   UNL A   1      38.892  26.324  30.096  1.00  0.00    -0.203 F 
ATOM     64  F   UNL A   1      41.719  27.800  25.666  1.00  0.00    -0.200 F 
ATOM     65  C   UNL A   1      40.360  26.227  26.785  1.00  0.00     0.200 A 
ATOM     66  F   UNL A   1      38.981  24.695  27.936  1.00  0.00    -0.200 F 
ATOM     67  F   UNL A   1      40.366  25.432  25.707  1.00  0.00    -0.200 F 
ENDBRANCH  43  57
BRANCH  44  68
ATOM     68  C   UNL A   1      39.441  33.949  36.966  1.00  0.00     0.064 A 
ATOM     69  C   UNL A   1      38.714  33.535  38.091  1.00  0.00     0.173 A 
ATOM     70  C   UNL A   1      40.034  35.219  37.003  1.00  0.00     0.173 A 
ATOM     71  F   UNL A   1      38.114  32.336  38.095  1.00  0.00    -0.203 F 
ATOM     72  C   UNL A   1      38.561  34.369  39.196  1.00  0.00     0.198 A 
ATOM     73  C   UNL A   1      39.903  36.041  38.120  1.00  0.00     0.198 A 
ATOM     74  F   UNL A   1      40.747  35.657  35.956  1.00  0.00    -0.203 F 
ATOM     75  F   UNL A   1      37.819  33.966  40.238  1.00  0.00    -0.200 F 
ATOM     76  C   UNL A   1      39.159  35.619  39.213  1.00  0.00     0.200 A 
ATOM     77  F   UNL A   1      40.494  37.244  38.138  1.00  0.00    -0.200 F 
ATOM     78  F   UNL A   1      39.012  36.420  40.276  1.00  0.00    -0.200 F 
ENDBRANCH  44  68
BRANCH  56  79
ATOM     79  C   UNL A   1      43.989  29.003  35.152  1.00  0.00     0.064 A 
ATOM     80  C   UNL A   1      45.253  29.567  34.926  1.00  0.00     0.173 A 
ATOM     81  C   UNL A   1      43.896  27.933  36.054  1.00  0.00     0.173 A 
ATOM     82  F   UNL A   1      45.394  30.584  34.061  1.00  0.00    -0.203 F 
ATOM     83  C   UNL A   1      46.386  29.057  35.553  1.00  0.00     0.198 A 
ATOM     84  C   UNL A   1      45.026  27.445  36.703  1.00  0.00     0.198 A 
ATOM     85  F   UNL A   1      42.708  27.365  36.309  1.00  0.00    -0.203 F 
ATOM     86  F   UNL A   1      47.590  29.576  35.282  1.00  0.00    -0.200 F 
ATOM     87  C   UNL A   1      46.270  28.001  36.445  1.00  0.00     0.200 A 
ATOM     88  F   UNL A   1      44.912  26.433  37.573  1.00  0.00    -0.200 F 
ATOM     89  F   UNL A   1      47.362  27.512  37.049  1.00  0.00    -0.200 F 
ENDBRANCH  56  79
ENDBRANCH  30  31
ENDBRANCH  22  25
ENDBRANCH  20  21
ENDBRANCH  19  20
ENDBRANCH   1  19
TORSDOF 14
ENDMDL
MODEL 2
REMARK VINA RESULT:     -11.8      0.597      2.145
REMARK SMILES C/C=C/C[C@@H](C(=O)NCCCCNC(=O)c1ccc(-c2c3nc(c(-c4c(F)c(F)c(F)c(F)c4F)c4ccc([nH]4)c(-c4c(F)c(F)c(F)c(F)c4F)c4nc(c(-c5c(F)c(F)c(F)c(F)c5F)c5ccc2[nH]5)C=C4)C=C3)cc1)c1cccc(Cl)c1
REMARK SMILES IDX 10 1 9 2 8 3 6 4 7 5 5 7 4 8 3 9 1 10 2 11 79 12 80 13 85 14
REMARK SMILES IDX 81 15 83 16 82 17 84 18 11 19 12 20 13 21 14 22 15 24 16 25
REMARK SMILES IDX 17 26 78 27 18 28 77 29 19 30 20 31 21 32 71 33 22 34 76 35
REMARK SMILES IDX 70 36 72 37 23 38 75 39 69 40 68 41 24 43 56 44 36 45 55 46
REMARK SMILES IDX 37 47 40 48 54 49 73 50 38 51 39 52 53 54 74 55 41 56 25 57
REMARK SMILES IDX 26 58 34 59 27 60 28 61 32 62 35 63 29 64 30 65 33 66 31 67
REMARK SMILES IDX 57 68 58 69 66 70 59 71 60 72 64 73 67 74 61 75 62 76 65 77
REMARK SMILES IDX 63 78 42 79 43 80 51 81 44 82 45 83 49 84 52 85 46 86 47 87
REMARK SMILES IDX 50 88 48 89
REMARK H PARENT 8 6 13 23 72 42 40 53
REMARK Flexibility Score: inf
ROOT
ATOM      1  C   UNL A   1      31.706  30.906  26.164  1.00  0.00     0.023 C 
ENDROOT
BRANCH   1   2
ATOM      2  C   UNL A   1      33.007  30.289  26.689  1.00  0.00     0.116 C 
BRANCH   2   3
ATOM      3  N   UNL A   1      32.686  29.123  27.484  1.00  0.00    -0.356 N 
ATOM      4  C   UNL A   1      31.957  28.031  27.096  1.00  0.00     0.227 C 
ATOM      5  O   UNL A   1      31.301  27.466  27.973  1.00  0.00    -0.274 OA
ATOM      6  H   UNL A   1      33.030  29.114  28.405  1.00  0.00     0.163 HD
BRANCH   4   7
ATOM      7  C   UNL A   1      32.061  27.488  25.649  1.00  0.00     0.112 C 
BRANCH   7   8
ATOM      8  C   UNL A   1      30.686  27.477  24.932  1.00  0.00     0.045 C 
BRANCH   8   9
ATOM      9  C   UNL A   1      30.544  28.143  23.592  1.00  0.00    -0.030 C 
ATOM     10  C   UNL A   1      29.792  29.963  22.040  1.00  0.00     0.035 C 
ATOM     11  C   UNL A   1      29.878  29.289  23.373  1.00  0.00    -0.035 C 
ENDBRANCH   8   9
ENDBRANCH   7   8
BRANCH   7  12
ATOM     12  C   UNL A   1      32.713  26.080  25.685  1.00  0.00    -0.034 A 
ATOM     13  C   UNL A   1      34.104  25.875  25.605  1.00  0.00     0.004 A 
ATOM     14  C   UNL A   1      31.894  24.934  25.756  1.00  0.00     0.025 A 
ATOM     15  C   UNL A   1      34.651  24.590  25.553  1.00  0.00     0.002 A 
ATOM     16  C   UNL A   1      32.446  23.652  25.681  1.00  0.00     0.041 A 
ATOM     17  C   UNL A   1      33.821  23.475  25.576  1.00  0.00     0.020 A 
ATOM     18  Cl  UNL A   1      31.413  22.274  25.691  1.00  0.00    -0.084 Cl
ENDBRANCH   7  12
ENDBRANCH   4   7
ENDBRANCH   2   3
ENDBRANCH   1   2
BRANCH   1  19
ATOM     19  C   UNL A   1      31.469  32.356  26.566  1.00  0.00     0.023 C 
BRANCH  19  20
ATOM     20  C   UNL A   1      32.593  32.974  27.376  1.00  0.00     0.116 C 
BRANCH  20  21
ATOM     21  N   UNL A   1      32.367  34.372  27.713  1.00  0.00    -0.352 N 
ATOM     22  C   UNL A   1      33.006  35.151  28.647  1.00  0.00     0.251 C 
ATOM     23  H   UNL A   1      31.658  34.821  27.199  1.00  0.00     0.163 HD
ATOM     24  O   UNL A   1      32.622  36.291  28.871  1.00  0.00    -0.269 OA
BRANCH  22  25
ATOM     25  C   UNL A   1      34.140  34.583  29.406  1.00  0.00     0.039 A 
ATOM     26  C   UNL A   1      33.892  33.981  30.641  1.00  0.00     0.014 A 
ATOM     27  C   UNL A   1      35.434  34.614  28.883  1.00  0.00     0.014 A 
ATOM     28  C   UNL A   1      34.938  33.357  31.323  1.00  0.00     0.010 A 
ATOM     29  C   UNL A   1      36.446  33.899  29.505  1.00  0.00     0.010 A 
ATOM     30  C   UNL A   1      36.215  33.287  30.745  1.00  0.00    -0.014 A 
BRANCH  30  31
ATOM     31  C   UNL A   1      37.344  32.628  31.446  1.00  0.00     0.031 A 
ATOM     32  C   UNL A   1      38.078  31.501  30.772  1.00  0.00     0.074 A 
ATOM     33  C   UNL A   1      37.667  33.000  32.699  1.00  0.00     0.049 A 
ATOM     34  N   UNL A   1      39.049  30.751  31.229  1.00  0.00    -0.248 NA
ATOM     35  C   UNL A   1      37.629  31.134  29.418  1.00  0.00     0.031 C 
ATOM     36  C   UNL A   1      36.982  34.029  33.483  1.00  0.00     0.029 A 
ATOM     37  N   UNL A   1      38.655  32.549  33.535  1.00  0.00    -0.354 N 
ATOM     38  C   UNL A   1      39.303  29.817  30.233  1.00  0.00     0.074 A 
ATOM     39  C   UNL A   1      38.340  30.043  29.181  1.00  0.00     0.031 C 
ATOM     40  C   UNL A   1      37.594  34.156  34.671  1.00  0.00     0.029 A 
ATOM     41  C   UNL A   1      38.695  33.202  34.743  1.00  0.00     0.049 A 
ATOM     42  H   UNL A   1      39.277  31.825  33.294  1.00  0.00     0.167 HD
ATOM     43  C   UNL A   1      40.277  28.879  30.182  1.00  0.00     0.037 A 
ATOM     44  C   UNL A   1      39.535  33.049  35.783  1.00  0.00     0.037 A 
ATOM     45  C   UNL A   1      41.267  28.696  31.208  1.00  0.00     0.049 A 
ATOM     46  C   UNL A   1      40.643  32.034  35.680  1.00  0.00     0.074 A 
ATOM     47  C   UNL A   1      42.341  27.825  31.228  1.00  0.00     0.029 A 
ATOM     48  N   UNL A   1      41.306  29.411  32.397  1.00  0.00    -0.354 N 
ATOM     49  N   UNL A   1      40.922  31.207  34.702  1.00  0.00    -0.248 NA
ATOM     50  C   UNL A   1      41.562  31.944  36.823  1.00  0.00     0.031 C 
ATOM     51  C   UNL A   1      43.014  27.991  32.444  1.00  0.00     0.029 A 
ATOM     52  C   UNL A   1      42.382  28.994  33.163  1.00  0.00     0.049 A 
ATOM     53  H   UNL A   1      40.664  30.109  32.658  1.00  0.00     0.167 HD
ATOM     54  C   UNL A   1      42.059  30.518  35.098  1.00  0.00     0.074 A 
ATOM     55  C   UNL A   1      42.432  31.041  36.396  1.00  0.00     0.031 C 
ATOM     56  C   UNL A   1      42.735  29.536  34.449  1.00  0.00     0.037 A 
BRANCH  43  57
ATOM     57  C   UNL A   1      40.326  28.000  28.966  1.00  0.00     0.064 A 
ATOM     58  C   UNL A   1      39.647  26.772  28.920  1.00  0.00     0.173 A 
ATOM     59  C   UNL A   1      41.054  28.389  27.832  1.00  0.00     0.173 A 
ATOM     60  F   UNL A   1      38.951  26.345  29.984  1.00  0.00    -0.203 F 
ATOM     61  C   UNL A   1      39.725  25.951  27.798  1.00  0.00     0.198 A 
ATOM     62  C   UNL A   1      41.103  27.580  26.699  1.00  0.00     0.198 A 
ATOM     63  F   UNL A   1      41.720  29.554  27.821  1.00  0.00    -0.203 F 
ATOM     64  F   UNL A   1      39.120  24.755  27.802  1.00  0.00    -0.200 F 
ATOM     65  C   UNL A   1      40.448  26.357  26.687  1.00  0.00     0.200 A 
ATOM     66  F   UNL A   1      41.793  27.979  25.622  1.00  0.00    -0.200 F 
ATOM     67  F   UNL A   1      40.522  25.567  25.608  1.00  0.00    -0.200 F 
ENDBRANCH  43  57
BRANCH  44  68
ATOM     68  C   UNL A   1      39.401  33.912  36.985  1.00  0.00     0.064 A 
ATOM     69  C   UNL A   1      39.979  35.189  37.017  1.00  0.00     0.173 A 
ATOM     70  C   UNL A   1      38.703  33.481  38.122  1.00  0.00     0.173 A 
ATOM     71  F   UNL A   1      40.671  35.637  35.960  1.00  0.00    -0.203 F 
ATOM     72  C   UNL A   1      39.888  35.991  38.152  1.00  0.00     0.198 A 
ATOM     73  C   UNL A   1      38.590  34.296  39.246  1.00  0.00     0.198 A 
ATOM     74  F   UNL A   1      38.125  32.271  38.137  1.00  0.00    -0.203 F 
ATOM     75  F   UNL A   1      40.492  37.188  38.173  1.00  0.00    -0.200 F 
ATOM     76  C   UNL A   1      39.190  35.546  39.265  1.00  0.00     0.200 A 
ATOM     77  F   UNL A   1      37.904  33.868  40.315  1.00  0.00    -0.200 F 
ATOM     78  F   UNL A   1      39.103  36.319  40.356  1.00  0.00    -0.200 F 
ENDBRANCH  44  68
BRANCH  56  79
ATOM     79  C   UNL A   1      43.960  28.993  35.124  1.00  0.00     0.064 A 
ATOM     80  C   UNL A   1      43.893  27.891  35.989  1.00  0.00     0.173 A 
ATOM     81  C   UNL A   1      45.217  29.565  34.881  1.00  0.00     0.173 A 
ATOM     82  F   UNL A   1      42.710  27.319  36.263  1.00  0.00    -0.203 F 
ATOM     83  C   UNL A   1      45.036  27.403  36.614  1.00  0.00     0.198 A 
ATOM     84  C   UNL A   1      46.363  29.055  35.484  1.00  0.00     0.198 A 
ATOM     85  F   UNL A   1      45.334  30.615  34.054  1.00  0.00    -0.203 F 
ATOM     86  F   UNL A   1      44.942  26.385  37.479  1.00  0.00    -0.200 F 
ATOM     87  C   UNL A   1      46.270  27.982  36.357  1.00  0.00     0.200 A 
ATOM     88  F   UNL A   1      47.557  29.607  35.224  1.00  0.00    -0.200 F 
ATOM     89  F   UNL A   1      47.371  27.509  36.958  1.00  0.00    -0.200 F 
ENDBRANCH  56  79
ENDBRANCH  30  31
ENDBRANCH  22  25
ENDBRANCH  20  21
ENDBRANCH  19  20
ENDBRANCH   1  19
TORSDOF 14
ENDMDL
MODEL 3
REMARK VINA RESULT:     -11.7      0.945      7.648
REMARK SMILES C/C=C/C[C@@H](C(=O)NCCCCNC(=O)c1ccc(-c2c3nc(c(-c4c(F)c(F)c(F)c(F)c4F)c4ccc([nH]4)c(-c4c(F)c(F)c(F)c(F)c4F)c4nc(c(-c5c(F)c(F)c(F)c(F)c5F)c5ccc2[nH]5)C=C4)C=C3)cc1)c1cccc(Cl)c1
REMARK SMILES IDX 10 1 9 2 8 3 6 4 7 5 5 7 4 8 3 9 1 10 2 11 79 12 80 13 85 14
REMARK SMILES IDX 81 15 83 16 82 17 84 18 11 19 12 20 13 21 14 22 15 24 16 25
REMARK SMILES IDX 17 26 78 27 18 28 77 29 19 30 20 31 21 32 71 33 22 34 76 35
REMARK SMILES IDX 70 36 72 37 23 38 75 39 69 40 68 41 24 43 56 44 36 45 55 46
REMARK SMILES IDX 37 47 40 48 54 49 73 50 38 51 39 52 53 54 74 55 41 56 25 57
REMARK SMILES IDX 26 58 34 59 27 60 28 61 32 62 35 63 29 64 30 65 33 66 31 67
REMARK SMILES IDX 57 68 58 69 66 70 59 71 60 72 64 73 67 74 61 75 62 76 65 77
REMARK SMILES IDX 63 78 42 79 43 80 51 81 44 82 45 83 49 84 52 85 46 86 47 87
REMARK SMILES IDX 50 88 48 89
REMARK H PARENT 8 6 13 23 72 42 40 53
REMARK Flexibility Score: inf
ROOT
ATOM      1  C   UNL A   1      31.497  31.076  26.338  1.00  0.00     0.023 C 
ENDROOT
BRANCH   1   2
ATOM      2  C   UNL A   1      32.837  30.424  26.694  1.00  0.00     0.116 C 
BRANCH   2   3
ATOM      3  N   UNL A   1      32.588  29.250  27.504  1.00  0.00    -0.356 N 
ATOM      4  C   UNL A   1      31.963  28.095  27.118  1.00  0.00     0.227 C 
ATOM      5  O   UNL A   1      31.328  27.495  27.988  1.00  0.00    -0.274 OA
ATOM      6  H   UNL A   1      32.903  29.287  28.435  1.00  0.00     0.163 HD
BRANCH   4   7
ATOM      7  C   UNL A   1      32.156  27.535  25.687  1.00  0.00     0.112 C 
BRANCH   7   8
ATOM      8  C   UNL A   1      30.865  27.656  24.836  1.00  0.00     0.045 C 
BRANCH   8   9
ATOM      9  C   UNL A   1      30.784  28.701  23.760  1.00  0.00    -0.030 C 
ATOM     10  C   UNL A   1      29.627  30.005  21.957  1.00  0.00     0.035 C 
ATOM     11  C   UNL A   1      29.706  28.924  22.989  1.00  0.00    -0.035 C 
ENDBRANCH   8   9
ENDBRANCH   7   8
BRANCH   7  12
ATOM     12  C   UNL A   1      32.657  26.069  25.785  1.00  0.00    -0.034 A 
ATOM     13  C   UNL A   1      34.020  25.717  25.731  1.00  0.00     0.004 A 
ATOM     14  C   UNL A   1      31.722  25.018  25.887  1.00  0.00     0.025 A 
ATOM     15  C   UNL A   1      34.430  24.381  25.734  1.00  0.00     0.002 A 
ATOM     16  C   UNL A   1      32.138  23.683  25.866  1.00  0.00     0.041 A 
ATOM     17  C   UNL A   1      33.488  23.360  25.787  1.00  0.00     0.020 A 
ATOM     18  Cl  UNL A   1      30.967  22.421  25.913  1.00  0.00    -0.084 Cl
ENDBRANCH   7  12
ENDBRANCH   4   7
ENDBRANCH   2   3
ENDBRANCH   1   2
BRANCH   1  19
ATOM     19  C   UNL A   1      31.428  32.580  26.569  1.00  0.00     0.023 C 
BRANCH  19  20
ATOM     20  C   UNL A   1      32.621  33.156  27.310  1.00  0.00     0.116 C 
BRANCH  20  21
ATOM     21  N   UNL A   1      32.386  34.490  27.844  1.00  0.00    -0.352 N 
ATOM     22  C   UNL A   1      33.042  35.144  28.858  1.00  0.00     0.251 C 
ATOM     23  H   UNL A   1      31.655  34.993  27.417  1.00  0.00     0.163 HD
ATOM     24  O   UNL A   1      32.649  36.234  29.249  1.00  0.00    -0.269 OA
BRANCH  22  25
ATOM     25  C   UNL A   1      34.206  34.497  29.499  1.00  0.00     0.039 A 
ATOM     26  C   UNL A   1      33.994  33.659  30.596  1.00  0.00     0.014 A 
ATOM     27  C   UNL A   1      35.494  34.689  28.995  1.00  0.00     0.014 A 
ATOM     28  C   UNL A   1      35.073  32.968  31.150  1.00  0.00     0.010 A 
ATOM     29  C   UNL A   1      36.543  33.918  29.474  1.00  0.00     0.010 A 
ATOM     30  C   UNL A   1      36.349  33.071  30.573  1.00  0.00    -0.014 A 
BRANCH  30  31
ATOM     31  C   UNL A   1      37.513  32.346  31.139  1.00  0.00     0.031 A 
ATOM     32  C   UNL A   1      37.999  32.690  32.521  1.00  0.00     0.074 A 
ATOM     33  C   UNL A   1      38.162  31.432  30.395  1.00  0.00     0.049 A 
ATOM     34  N   UNL A   1      39.030  32.223  33.179  1.00  0.00    -0.248 NA
ATOM     35  C   UNL A   1      37.253  33.733  33.246  1.00  0.00     0.031 C 
ATOM     36  C   UNL A   1      37.829  31.066  29.017  1.00  0.00     0.029 A 
ATOM     37  N   UNL A   1      39.243  30.643  30.695  1.00  0.00    -0.354 N 
ATOM     38  C   UNL A   1      39.067  32.932  34.372  1.00  0.00     0.074 A 
ATOM     39  C   UNL A   1      38.005  33.909  34.321  1.00  0.00     0.031 C 
ATOM     40  C   UNL A   1      38.665  30.099  28.605  1.00  0.00     0.029 A 
ATOM     41  C   UNL A   1      39.606  29.796  29.678  1.00  0.00     0.049 A 
ATOM     42  H   UNL A   1      39.714  30.681  31.559  1.00  0.00     0.167 HD
ATOM     43  C   UNL A   1      39.889  32.758  35.434  1.00  0.00     0.037 A 
ATOM     44  C   UNL A   1      40.584  28.874  29.627  1.00  0.00     0.037 A 
ATOM     45  C   UNL A   1      40.909  31.748  35.500  1.00  0.00     0.049 A 
ATOM     46  C   UNL A   1      41.452  28.664  30.839  1.00  0.00     0.074 A 
ATOM     47  C   UNL A   1      41.750  31.436  36.553  1.00  0.00     0.029 A 
ATOM     48  N   UNL A   1      41.215  30.874  34.467  1.00  0.00    -0.354 N 
ATOM     49  N   UNL A   1      41.429  29.288  31.993  1.00  0.00    -0.248 NA
ATOM     50  C   UNL A   1      42.470  27.609  30.747  1.00  0.00     0.031 C 
ATOM     51  C   UNL A   1      42.588  30.393  36.146  1.00  0.00     0.029 A 
ATOM     52  C   UNL A   1      42.241  30.027  34.855  1.00  0.00     0.049 A 
ATOM     53  H   UNL A   1      40.771  30.858  33.589  1.00  0.00     0.167 HD
ATOM     54  C   UNL A   1      42.409  28.687  32.770  1.00  0.00     0.074 A 
ATOM     55  C   UNL A   1      42.992  27.634  31.964  1.00  0.00     0.031 C 
ATOM     56  C   UNL A   1      42.798  28.982  34.036  1.00  0.00     0.037 A 
BRANCH  43  57
ATOM     57  C   UNL A   1      39.697  33.670  36.611  1.00  0.00     0.064 A 
ATOM     58  C   UNL A   1      38.876  33.310  37.692  1.00  0.00     0.173 A 
ATOM     59  C   UNL A   1      40.342  34.913  36.664  1.00  0.00     0.173 A 
ATOM     60  F   UNL A   1      38.222  32.140  37.684  1.00  0.00    -0.203 F 
ATOM     61  C   UNL A   1      38.682  34.178  38.764  1.00  0.00     0.198 A 
ATOM     62  C   UNL A   1      40.171  35.765  37.754  1.00  0.00     0.198 A 
ATOM     63  F   UNL A   1      41.140  35.306  35.659  1.00  0.00    -0.203 F 
ATOM     64  F   UNL A   1      37.844  33.838  39.754  1.00  0.00    -0.200 F 
ATOM     65  C   UNL A   1      39.333  35.401  38.797  1.00  0.00     0.200 A 
ATOM     66  F   UNL A   1      40.810  36.942  37.789  1.00  0.00    -0.200 F 
ATOM     67  F   UNL A   1      39.145  36.234  39.829  1.00  0.00    -0.200 F 
ENDBRANCH  43  57
BRANCH  44  68
ATOM     68  C   UNL A   1      40.761  28.039  28.410  1.00  0.00     0.064 A 
ATOM     69  C   UNL A   1      40.136  26.789  28.302  1.00  0.00     0.173 A 
ATOM     70  C   UNL A   1      41.558  28.465  27.338  1.00  0.00     0.173 A 
ATOM     71  F   UNL A   1      39.378  26.331  29.310  1.00  0.00    -0.203 F 
ATOM     72  C   UNL A   1      40.324  25.984  27.181  1.00  0.00     0.198 A 
ATOM     73  C   UNL A   1      41.723  27.671  26.205  1.00  0.00     0.198 A 
ATOM     74  F   UNL A   1      42.170  29.657  27.389  1.00  0.00    -0.203 F 
ATOM     75  F   UNL A   1      39.752  24.772  27.126  1.00  0.00    -0.200 F 
ATOM     76  C   UNL A   1      41.113  26.427  26.131  1.00  0.00     0.200 A 
ATOM     77  F   UNL A   1      42.476  28.108  25.186  1.00  0.00    -0.200 F 
ATOM     78  F   UNL A   1      41.293  25.653  25.052  1.00  0.00    -0.200 F 
ENDBRANCH  44  68
BRANCH  56  79
ATOM     79  C   UNL A   1      43.881  28.131  34.631  1.00  0.00     0.064 A 
ATOM     80  C   UNL A   1      43.593  26.919  35.273  1.00  0.00     0.173 A 
ATOM     81  C   UNL A   1      45.224  28.523  34.534  1.00  0.00     0.173 A 
ATOM     82  F   UNL A   1      42.321  26.509  35.403  1.00  0.00    -0.203 F 
ATOM     83  C   UNL A   1      44.608  26.144  35.827  1.00  0.00     0.198 A 
ATOM     84  C   UNL A   1      46.240  27.731  35.061  1.00  0.00     0.198 A 
ATOM     85  F   UNL A   1      45.552  29.671  33.921  1.00  0.00    -0.203 F 
ATOM     86  F   UNL A   1      44.305  25.017  36.484  1.00  0.00    -0.200 F 
ATOM     87  C   UNL A   1      45.930  26.549  35.716  1.00  0.00     0.200 A 
ATOM     88  F   UNL A   1      47.518  28.117  34.943  1.00  0.00    -0.200 F 
ATOM     89  F   UNL A   1      46.906  25.801  36.248  1.00  0.00    -0.200 F 
ENDBRANCH  56  79
ENDBRANCH  30  31
ENDBRANCH  22  25
ENDBRANCH  20  21
ENDBRANCH  19  20
ENDBRANCH   1  19
TORSDOF 14
ENDMDL
