MODEL 1
REMARK VINA RESULT:     -11.6      0.000      0.000
REMARK SMILES COc1ccc2c(c1)c(Cc1nc(-c3ccc(C(=O)NCCCCNC(=O)c4ccc(-c5c6nc(c(-c7c(F)c(F)c(F)c(F)c7F)c7ccc([nH]7)c(-c7c(F)c(F)c(F)c(F)c7F)c7nc(c(-c8c(F)c(F)c(F)c(F)c8F)c8ccc5[nH]8)C=C7)C=C6)cc4)cc3)cs1)c(C)n2C(=O)c1ccc(Cl)cc1
REMARK SMILES IDX 21 1 20 2 18 3 19 4 17 6 14 7 15 8 92 9 16 10 91 11 13 12
REMARK SMILES IDX 11 13 12 14 94 15 93 16 10 17 9 18 3 19 4 20 8 21 5 22 7 23
REMARK SMILES IDX 6 24 97 25 95 26 96 27 2 28 1 29 98 30 99 31 100 32 101 33
REMARK SMILES IDX 106 34 102 35 105 36 103 37 104 38 22 39 23 40 24 41 25 42
REMARK SMILES IDX 26 43 27 45 28 46 29 47 90 48 30 49 89 50 31 51 32 52 33 53
REMARK SMILES IDX 83 54 34 55 88 56 82 57 84 58 35 59 87 60 81 61 80 62 36 64
REMARK SMILES IDX 68 65 48 66 67 67 49 68 52 69 66 70 85 71 50 72 51 73 65 75
REMARK SMILES IDX 86 76 53 77 37 78 38 79 46 80 39 81 40 82 44 83 47 84 41 85
REMARK SMILES IDX 42 86 45 87 43 88 69 89 70 90 78 91 71 92 72 93 76 94 79 95
REMARK SMILES IDX 73 96 74 97 77 98 75 99 54 100 55 101 63 102 56 103 57 104
REMARK SMILES IDX 61 105 64 106 58 107 59 108 62 109 60 110
REMARK H PARENT 20 5 25 44 84 63 52 74
REMARK Flexibility Score: inf
ROOT
ATOM      1  C   UNL A   1      46.568  25.259  25.493  1.00  0.00     0.116 C 
ENDROOT
BRANCH   1   2
ATOM      2  N   UNL A   1      46.895  26.663  25.652  1.00  0.00    -0.352 N 
ATOM      3  C   UNL A   1      47.034  27.434  26.786  1.00  0.00     0.251 C 
ATOM      4  O   UNL A   1      47.330  28.614  26.662  1.00  0.00    -0.269 OA
ATOM      5  H   UNL A   1      47.043  27.147  24.807  1.00  0.00     0.163 HD
BRANCH   3   6
ATOM      6  C   UNL A   1      46.752  26.887  28.141  1.00  0.00     0.039 A 
ATOM      7  C   UNL A   1      46.341  26.156  30.828  1.00  0.00     0.001 A 
ATOM      8  C   UNL A   1      47.637  26.351  30.339  1.00  0.00     0.011 A 
ATOM      9  C   UNL A   1      45.267  26.209  29.926  1.00  0.00     0.011 A 
ATOM     10  C   UNL A   1      47.841  26.720  29.006  1.00  0.00     0.014 A 
ATOM     11  C   UNL A   1      45.475  26.543  28.585  1.00  0.00     0.014 A 
BRANCH   7  12
ATOM     12  C   UNL A   1      46.082  25.878  32.234  1.00  0.00     0.081 A 
ATOM     13  C   UNL A   1      46.630  25.145  34.251  1.00  0.00     0.098 A 
ATOM     14  N   UNL A   1      46.994  25.170  32.987  1.00  0.00    -0.241 NA
ATOM     15  S   UNL A   1      45.068  25.786  34.568  1.00  0.00    -0.126 S 
ATOM     16  C   UNL A   1      44.936  26.237  32.916  1.00  0.00     0.095 A 
BRANCH  13  17
ATOM     17  C   UNL A   1      47.503  24.633  35.358  1.00  0.00     0.105 C 
BRANCH  17  18
ATOM     18  C   UNL A   1      47.521  23.124  35.389  1.00  0.00    -0.012 A 
ATOM     19  C   UNL A   1      50.410  21.572  33.422  1.00  0.00     0.119 A 
ATOM     20  C   UNL A   1      50.026  20.257  33.606  1.00  0.00     0.048 A 
ATOM     21  C   UNL A   1      49.637  22.590  33.977  1.00  0.00     0.057 A 
ATOM     22  C   UNL A   1      48.879  19.941  34.349  1.00  0.00     0.031 A 
ATOM     23  C   UNL A   1      48.487  22.299  34.749  1.00  0.00     0.008 A 
ATOM     24  C   UNL A   1      48.132  20.967  34.971  1.00  0.00     0.057 A 
ATOM     25  N   UNL A   1      47.019  20.951  35.835  1.00  0.00    -0.280 N 
ATOM     26  C   UNL A   1      46.620  22.285  36.035  1.00  0.00     0.028 A 
ATOM     27  C   UNL A   1      45.443  22.740  36.842  1.00  0.00     0.065 C 
BRANCH  19  28
ATOM     28  O   UNL A   1      51.525  21.989  32.749  1.00  0.00    -0.497 OA
ATOM     29  C   UNL A   1      52.652  21.126  32.830  1.00  0.00     0.278 C 
ENDBRANCH  19  28
BRANCH  25  30
ATOM     30  C   UNL A   1      46.409  19.788  36.392  1.00  0.00     0.262 C 
ATOM     31  O   UNL A   1      45.573  19.168  35.736  1.00  0.00    -0.268 OA
BRANCH  30  32
ATOM     32  C   UNL A   1      46.718  19.210  37.712  1.00  0.00     0.040 A 
ATOM     33  C   UNL A   1      47.923  19.495  38.362  1.00  0.00     0.015 A 
ATOM     34  C   UNL A   1      45.777  18.349  38.291  1.00  0.00     0.015 A 
ATOM     35  C   UNL A   1      48.221  18.845  39.563  1.00  0.00     0.021 A 
ATOM     36  C   UNL A   1      46.078  17.708  39.492  1.00  0.00     0.021 A 
ATOM     37  C   UNL A   1      47.305  17.946  40.114  1.00  0.00     0.041 A 
ATOM     38  Cl  UNL A   1      47.699  17.105  41.562  1.00  0.00    -0.084 Cl
ENDBRANCH  30  32
ENDBRANCH  25  30
ENDBRANCH  17  18
ENDBRANCH  13  17
ENDBRANCH   7  12
ENDBRANCH   3   6
ENDBRANCH   1   2
BRANCH   1  39
ATOM     39  C   UNL A   1      45.096  24.985  25.225  1.00  0.00     0.023 C 
BRANCH  39  40
ATOM     40  C   UNL A   1      44.605  23.557  25.443  1.00  0.00     0.023 C 
BRANCH  40  41
ATOM     41  C   UNL A   1      43.411  23.099  24.601  1.00  0.00     0.116 C 
BRANCH  41  42
ATOM     42  N   UNL A   1      42.404  22.320  25.296  1.00  0.00    -0.352 N 
ATOM     43  C   UNL A   1      41.352  22.609  26.123  1.00  0.00     0.251 C 
ATOM     44  H   UNL A   1      42.501  21.353  25.136  1.00  0.00     0.163 HD
ATOM     45  O   UNL A   1      40.555  21.689  26.328  1.00  0.00    -0.269 OA
BRANCH  43  46
ATOM     46  C   UNL A   1      41.142  23.900  26.833  1.00  0.00     0.039 A 
ATOM     47  C   UNL A   1      40.298  24.919  26.405  1.00  0.00     0.014 A 
ATOM     48  C   UNL A   1      41.927  24.125  27.981  1.00  0.00     0.014 A 
ATOM     49  C   UNL A   1      40.335  26.169  27.014  1.00  0.00     0.010 A 
ATOM     50  C   UNL A   1      41.937  25.362  28.624  1.00  0.00     0.010 A 
ATOM     51  C   UNL A   1      41.180  26.406  28.103  1.00  0.00    -0.014 A 
BRANCH  51  52
ATOM     52  C   UNL A   1      41.172  27.758  28.663  1.00  0.00     0.031 A 
ATOM     53  C   UNL A   1      42.332  28.621  28.294  1.00  0.00     0.074 A 
ATOM     54  C   UNL A   1      40.192  28.266  29.434  1.00  0.00     0.049 A 
ATOM     55  N   UNL A   1      43.226  29.142  29.076  1.00  0.00    -0.248 NA
ATOM     56  C   UNL A   1      42.555  28.882  26.866  1.00  0.00     0.031 C 
ATOM     57  C   UNL A   1      38.860  27.717  29.689  1.00  0.00     0.029 A 
ATOM     58  N   UNL A   1      40.177  29.455  30.111  1.00  0.00    -0.354 N 
ATOM     59  C   UNL A   1      44.048  29.915  28.258  1.00  0.00     0.074 A 
ATOM     60  C   UNL A   1      43.644  29.651  26.900  1.00  0.00     0.031 C 
ATOM     61  C   UNL A   1      38.099  28.658  30.292  1.00  0.00     0.029 A 
ATOM     62  C   UNL A   1      38.930  29.810  30.598  1.00  0.00     0.049 A 
ATOM     63  H   UNL A   1      40.980  30.008  30.240  1.00  0.00     0.167 HD
ATOM     64  C   UNL A   1      44.895  30.853  28.761  1.00  0.00     0.037 A 
ATOM     65  C   UNL A   1      38.596  30.990  31.170  1.00  0.00     0.037 A 
ATOM     66  C   UNL A   1      45.142  30.666  30.163  1.00  0.00     0.049 A 
ATOM     67  C   UNL A   1      39.831  31.621  31.686  1.00  0.00     0.074 A 
ATOM     68  C   UNL A   1      45.808  29.741  30.937  1.00  0.00     0.029 A 
ATOM     69  N   UNL A   1      44.405  31.433  31.022  1.00  0.00    -0.354 N 
ATOM     70  N   UNL A   1      40.516  31.180  32.704  1.00  0.00    -0.248 NA
ATOM     71  C   UNL A   1      40.485  32.653  30.895  1.00  0.00     0.031 C 
ATOM     72  C   UNL A   1      45.151  29.756  32.204  1.00  0.00     0.029 A 
ATOM     73  C   UNL A   1      44.118  30.688  32.135  1.00  0.00     0.049 A 
ATOM     74  H   UNL A   1      44.127  32.365  30.867  1.00  0.00     0.167 HD
ATOM     75  C   UNL A   1      41.817  31.568  32.441  1.00  0.00     0.074 A 
ATOM     76  C   UNL A   1      41.706  32.610  31.432  1.00  0.00     0.031 C 
ATOM     77  C   UNL A   1      42.866  30.801  32.849  1.00  0.00     0.037 A 
BRANCH  64  78
ATOM     78  C   UNL A   1      45.233  32.153  28.072  1.00  0.00     0.064 A 
ATOM     79  C   UNL A   1      44.217  33.100  27.826  1.00  0.00     0.173 A 
ATOM     80  C   UNL A   1      46.442  32.361  27.374  1.00  0.00     0.173 A 
ATOM     81  F   UNL A   1      43.014  32.979  28.409  1.00  0.00    -0.203 F 
ATOM     82  C   UNL A   1      44.383  34.142  26.909  1.00  0.00     0.198 A 
ATOM     83  C   UNL A   1      46.622  33.433  26.499  1.00  0.00     0.198 A 
ATOM     84  F   UNL A   1      47.446  31.478  27.426  1.00  0.00    -0.203 F 
ATOM     85  F   UNL A   1      43.352  34.949  26.622  1.00  0.00    -0.200 F 
ATOM     86  C   UNL A   1      45.586  34.307  26.245  1.00  0.00     0.200 A 
ATOM     87  F   UNL A   1      47.785  33.561  25.846  1.00  0.00    -0.200 F 
ATOM     88  F   UNL A   1      45.730  35.271  25.327  1.00  0.00    -0.200 F 
ENDBRANCH  64  78
BRANCH  65  89
ATOM     89  C   UNL A   1      37.318  31.733  31.091  1.00  0.00     0.064 A 
ATOM     90  C   UNL A   1      36.494  31.864  32.221  1.00  0.00     0.173 A 
ATOM     91  C   UNL A   1      37.035  32.582  30.004  1.00  0.00     0.173 A 
ATOM     92  F   UNL A   1      36.715  31.111  33.310  1.00  0.00    -0.203 F 
ATOM     93  C   UNL A   1      35.484  32.827  32.284  1.00  0.00     0.198 A 
ATOM     94  C   UNL A   1      36.019  33.536  30.065  1.00  0.00     0.198 A 
ATOM     95  F   UNL A   1      37.803  32.577  28.906  1.00  0.00    -0.203 F 
ATOM     96  F   UNL A   1      34.776  32.979  33.411  1.00  0.00    -0.200 F 
ATOM     97  C   UNL A   1      35.259  33.673  31.211  1.00  0.00     0.200 A 
ATOM     98  F   UNL A   1      35.829  34.370  29.032  1.00  0.00    -0.200 F 
ATOM     99  F   UNL A   1      34.343  34.647  31.299  1.00  0.00    -0.200 F 
ENDBRANCH  65  89
BRANCH  77 100
ATOM    100  C   UNL A   1      42.608  29.823  33.954  1.00  0.00     0.064 A 
ATOM    101  C   UNL A   1      42.031  28.556  33.763  1.00  0.00     0.173 A 
ATOM    102  C   UNL A   1      43.044  30.150  35.245  1.00  0.00     0.173 A 
ATOM    103  F   UNL A   1      41.678  28.137  32.540  1.00  0.00    -0.203 F 
ATOM    104  C   UNL A   1      41.851  27.681  34.832  1.00  0.00     0.198 A 
ATOM    105  C   UNL A   1      42.898  29.259  36.302  1.00  0.00     0.198 A 
ATOM    106  F   UNL A   1      43.651  31.326  35.471  1.00  0.00    -0.203 F 
ATOM    107  F   UNL A   1      41.277  26.485  34.632  1.00  0.00    -0.200 F 
ATOM    108  C   UNL A   1      42.290  28.031  36.099  1.00  0.00     0.200 A 
ATOM    109  F   UNL A   1      43.367  29.582  37.516  1.00  0.00    -0.200 F 
ATOM    110  F   UNL A   1      42.149  27.174  37.120  1.00  0.00    -0.200 F 
ENDBRANCH  77 100
ENDBRANCH  51  52
ENDBRANCH  43  46
ENDBRANCH  41  42
ENDBRANCH  40  41
ENDBRANCH  39  40
ENDBRANCH   1  39
TORSDOF 17
ENDMDL
MODEL 2
REMARK VINA RESULT:     -11.5      1.930      3.409
REMARK SMILES COc1ccc2c(c1)c(Cc1nc(-c3ccc(C(=O)NCCCCNC(=O)c4ccc(-c5c6nc(c(-c7c(F)c(F)c(F)c(F)c7F)c7ccc([nH]7)c(-c7c(F)c(F)c(F)c(F)c7F)c7nc(c(-c8c(F)c(F)c(F)c(F)c8F)c8ccc5[nH]8)C=C7)C=C6)cc4)cc3)cs1)c(C)n2C(=O)c1ccc(Cl)cc1
REMARK SMILES IDX 21 1 20 2 18 3 19 4 17 6 14 7 15 8 92 9 16 10 91 11 13 12
REMARK SMILES IDX 11 13 12 14 94 15 93 16 10 17 9 18 3 19 4 20 8 21 5 22 7 23
REMARK SMILES IDX 6 24 97 25 95 26 96 27 2 28 1 29 98 30 99 31 100 32 101 33
REMARK SMILES IDX 106 34 102 35 105 36 103 37 104 38 22 39 23 40 24 41 25 42
REMARK SMILES IDX 26 43 27 45 28 46 29 47 90 48 30 49 89 50 31 51 32 52 33 53
REMARK SMILES IDX 83 54 34 55 88 56 82 57 84 58 35 59 87 60 81 61 80 62 36 64
REMARK SMILES IDX 68 65 48 66 67 67 49 68 52 69 66 70 85 71 50 72 51 73 65 75
REMARK SMILES IDX 86 76 53 77 37 78 38 79 46 80 39 81 40 82 44 83 47 84 41 85
REMARK SMILES IDX 42 86 45 87 43 88 69 89 70 90 78 91 71 92 72 93 76 94 79 95
REMARK SMILES IDX 73 96 74 97 77 98 75 99 54 100 55 101 63 102 56 103 57 104
REMARK SMILES IDX 61 105 64 106 58 107 59 108 62 109 60 110
REMARK H PARENT 20 5 25 44 84 63 52 74
REMARK Flexibility Score: inf
ROOT
ATOM      1  C   UNL A   1      45.268  26.369  25.895  1.00  0.00     0.116 C 
ENDROOT
BRANCH   1   2
ATOM      2  N   UNL A   1      46.492  25.614  26.087  1.00  0.00    -0.352 N 
ATOM      3  C   UNL A   1      47.014  25.014  27.212  1.00  0.00     0.251 C 
ATOM      4  O   UNL A   1      48.077  24.417  27.119  1.00  0.00    -0.269 OA
ATOM      5  H   UNL A   1      47.042  25.514  25.276  1.00  0.00     0.163 HD
BRANCH   3   6
ATOM      6  C   UNL A   1      46.362  25.149  28.543  1.00  0.00     0.039 A 
ATOM      7  C   UNL A   1      45.254  25.086  31.130  1.00  0.00     0.001 A 
ATOM      8  C   UNL A   1      44.802  24.200  30.145  1.00  0.00     0.011 A 
ATOM      9  C   UNL A   1      46.174  26.081  30.768  1.00  0.00     0.011 A 
ATOM     10  C   UNL A   1      45.357  24.228  28.862  1.00  0.00     0.014 A 
ATOM     11  C   UNL A   1      46.702  26.131  29.474  1.00  0.00     0.014 A 
BRANCH   7  12
ATOM     12  C   UNL A   1      44.779  25.016  32.505  1.00  0.00     0.081 A 
ATOM     13  C   UNL A   1      44.221  23.952  34.365  1.00  0.00     0.098 A 
ATOM     14  N   UNL A   1      44.510  23.797  33.091  1.00  0.00    -0.241 NA
ATOM     15  S   UNL A   1      44.050  25.583  34.878  1.00  0.00    -0.126 S 
ATOM     16  C   UNL A   1      44.519  26.106  33.311  1.00  0.00     0.095 A 
BRANCH  13  17
ATOM     17  C   UNL A   1      44.081  22.811  35.330  1.00  0.00     0.105 C 
BRANCH  17  18
ATOM     18  C   UNL A   1      45.394  22.504  36.010  1.00  0.00    -0.012 A 
ATOM     19  C   UNL A   1      45.934  24.433  39.268  1.00  0.00     0.119 A 
ATOM     20  C   UNL A   1      47.216  23.971  39.503  1.00  0.00     0.048 A 
ATOM     21  C   UNL A   1      45.254  24.000  38.132  1.00  0.00     0.057 A 
ATOM     22  C   UNL A   1      47.828  23.071  38.619  1.00  0.00     0.031 A 
ATOM     23  C   UNL A   1      45.839  23.076  37.234  1.00  0.00     0.008 A 
ATOM     24  C   UNL A   1      47.115  22.577  37.503  1.00  0.00     0.057 A 
ATOM     25  N   UNL A   1      47.424  21.617  36.519  1.00  0.00    -0.280 N 
ATOM     26  C   UNL A   1      46.380  21.627  35.577  1.00  0.00     0.028 A 
ATOM     27  C   UNL A   1      46.314  20.803  34.327  1.00  0.00     0.065 C 
BRANCH  19  28
ATOM     28  O   UNL A   1      45.232  25.281  40.078  1.00  0.00    -0.497 OA
ATOM     29  C   UNL A   1      44.515  26.314  39.414  1.00  0.00     0.278 C 
ENDBRANCH  19  28
BRANCH  25  30
ATOM     30  C   UNL A   1      48.591  20.795  36.488  1.00  0.00     0.262 C 
ATOM     31  O   UNL A   1      48.703  19.872  37.294  1.00  0.00    -0.268 OA
BRANCH  30  32
ATOM     32  C   UNL A   1      49.702  20.924  35.530  1.00  0.00     0.040 A 
ATOM     33  C   UNL A   1      49.985  22.146  34.910  1.00  0.00     0.015 A 
ATOM     34  C   UNL A   1      50.457  19.781  35.238  1.00  0.00     0.015 A 
ATOM     35  C   UNL A   1      50.979  22.201  33.930  1.00  0.00     0.021 A 
ATOM     36  C   UNL A   1      51.452  19.843  34.263  1.00  0.00     0.021 A 
ATOM     37  C   UNL A   1      51.698  21.048  33.603  1.00  0.00     0.041 A 
ATOM     38  Cl  UNL A   1      52.882  21.105  32.356  1.00  0.00    -0.084 Cl
ENDBRANCH  30  32
ENDBRANCH  25  30
ENDBRANCH  17  18
ENDBRANCH  13  17
ENDBRANCH   7  12
ENDBRANCH   3   6
ENDBRANCH   1   2
BRANCH   1  39
ATOM     39  C   UNL A   1      44.091  25.539  25.401  1.00  0.00     0.023 C 
BRANCH  39  40
ATOM     40  C   UNL A   1      44.270  24.025  25.382  1.00  0.00     0.023 C 
BRANCH  40  41
ATOM     41  C   UNL A   1      43.218  23.212  24.620  1.00  0.00     0.116 C 
BRANCH  41  42
ATOM     42  N   UNL A   1      42.308  22.430  25.434  1.00  0.00    -0.352 N 
ATOM     43  C   UNL A   1      41.281  22.717  26.292  1.00  0.00     0.251 C 
ATOM     44  H   UNL A   1      42.467  21.462  25.349  1.00  0.00     0.163 HD
ATOM     45  O   UNL A   1      40.565  21.766  26.617  1.00  0.00    -0.269 OA
BRANCH  43  46
ATOM     46  C   UNL A   1      41.013  24.047  26.904  1.00  0.00     0.039 A 
ATOM     47  C   UNL A   1      40.137  24.999  26.394  1.00  0.00     0.014 A 
ATOM     48  C   UNL A   1      41.776  24.385  28.040  1.00  0.00     0.014 A 
ATOM     49  C   UNL A   1      40.119  26.290  26.910  1.00  0.00     0.010 A 
ATOM     50  C   UNL A   1      41.731  25.666  28.590  1.00  0.00     0.010 A 
ATOM     51  C   UNL A   1      40.941  26.639  27.987  1.00  0.00    -0.014 A 
BRANCH  51  52
ATOM     52  C   UNL A   1      40.876  28.027  28.446  1.00  0.00     0.031 A 
ATOM     53  C   UNL A   1      41.989  28.913  27.997  1.00  0.00     0.074 A 
ATOM     54  C   UNL A   1      39.881  28.544  29.193  1.00  0.00     0.049 A 
ATOM     55  N   UNL A   1      42.865  29.532  28.725  1.00  0.00    -0.248 NA
ATOM     56  C   UNL A   1      42.182  29.078  26.550  1.00  0.00     0.031 C 
ATOM     57  C   UNL A   1      38.580  27.954  29.507  1.00  0.00     0.029 A 
ATOM     58  N   UNL A   1      39.818  29.777  29.781  1.00  0.00    -0.354 N 
ATOM     59  C   UNL A   1      43.640  30.280  27.840  1.00  0.00     0.074 A 
ATOM     60  C   UNL A   1      43.233  29.897  26.512  1.00  0.00     0.031 C 
ATOM     61  C   UNL A   1      37.782  28.900  30.051  1.00  0.00     0.029 A 
ATOM     62  C   UNL A   1      38.561  30.110  30.259  1.00  0.00     0.049 A 
ATOM     63  H   UNL A   1      40.595  30.376  29.857  1.00  0.00     0.167 HD
ATOM     64  C   UNL A   1      44.447  31.291  28.260  1.00  0.00     0.037 A 
ATOM     65  C   UNL A   1      38.178  31.311  30.748  1.00  0.00     0.037 A 
ATOM     66  C   UNL A   1      44.720  31.220  29.668  1.00  0.00     0.049 A 
ATOM     67  C   UNL A   1      39.387  32.036  31.197  1.00  0.00     0.074 A 
ATOM     68  C   UNL A   1      45.438  30.387  30.498  1.00  0.00     0.029 A 
ATOM     69  N   UNL A   1      43.956  32.014  30.479  1.00  0.00    -0.354 N 
ATOM     70  N   UNL A   1      40.104  31.704  32.234  1.00  0.00    -0.248 NA
ATOM     71  C   UNL A   1      39.982  33.036  30.322  1.00  0.00     0.031 C 
ATOM     72  C   UNL A   1      44.796  30.465  31.770  1.00  0.00     0.029 A 
ATOM     73  C   UNL A   1      43.718  31.340  31.649  1.00  0.00     0.049 A 
ATOM     74  H   UNL A   1      43.633  32.917  30.260  1.00  0.00     0.167 HD
ATOM     75  C   UNL A   1      41.381  32.132  31.923  1.00  0.00     0.074 A 
ATOM     76  C   UNL A   1      41.210  33.090  30.843  1.00  0.00     0.031 C 
ATOM     77  C   UNL A   1      42.471  31.447  32.371  1.00  0.00     0.037 A 
BRANCH  64  78
ATOM     78  C   UNL A   1      44.715  32.551  27.472  1.00  0.00     0.064 A 
ATOM     79  C   UNL A   1      45.933  32.695  26.774  1.00  0.00     0.173 A 
ATOM     80  C   UNL A   1      43.962  33.733  27.634  1.00  0.00     0.173 A 
ATOM     81  F   UNL A   1      46.746  31.643  26.594  1.00  0.00    -0.203 F 
ATOM     82  C   UNL A   1      46.383  33.939  26.323  1.00  0.00     0.198 A 
ATOM     83  C   UNL A   1      44.391  34.964  27.137  1.00  0.00     0.198 A 
ATOM     84  F   UNL A   1      42.845  33.761  28.373  1.00  0.00    -0.203 F 
ATOM     85  F   UNL A   1      47.598  34.047  25.767  1.00  0.00    -0.200 F 
ATOM     86  C   UNL A   1      45.613  35.073  26.506  1.00  0.00     0.200 A 
ATOM     87  F   UNL A   1      43.643  36.055  27.346  1.00  0.00    -0.200 F 
ATOM     88  F   UNL A   1      46.066  36.274  26.124  1.00  0.00    -0.200 F 
ENDBRANCH  64  78
BRANCH  65  89
ATOM     89  C   UNL A   1      36.865  31.986  30.634  1.00  0.00     0.064 A 
ATOM     90  C   UNL A   1      35.988  32.040  31.730  1.00  0.00     0.173 A 
ATOM     91  C   UNL A   1      36.580  32.850  29.559  1.00  0.00     0.173 A 
ATOM     92  F   UNL A   1      36.206  31.270  32.807  1.00  0.00    -0.203 F 
ATOM     93  C   UNL A   1      34.925  32.945  31.775  1.00  0.00     0.198 A 
ATOM     94  C   UNL A   1      35.511  33.745  29.601  1.00  0.00     0.198 A 
ATOM     95  F   UNL A   1      37.392  32.917  28.495  1.00  0.00    -0.203 F 
ATOM     96  F   UNL A   1      34.164  33.026  32.875  1.00  0.00    -0.200 F 
ATOM     97  C   UNL A   1      34.698  33.808  30.717  1.00  0.00     0.200 A 
ATOM     98  F   UNL A   1      35.318  34.596  28.583  1.00  0.00    -0.200 F 
ATOM     99  F   UNL A   1      33.727  34.728  30.791  1.00  0.00    -0.200 F 
ENDBRANCH  65  89
BRANCH  77 100
ATOM    100  C   UNL A   1      42.272  30.542  33.549  1.00  0.00     0.064 A 
ATOM    101  C   UNL A   1      42.416  30.950  34.886  1.00  0.00     0.173 A 
ATOM    102  C   UNL A   1      41.832  29.234  33.312  1.00  0.00     0.173 A 
ATOM    103  F   UNL A   1      42.742  32.214  35.190  1.00  0.00    -0.203 F 
ATOM    104  C   UNL A   1      42.182  30.064  35.935  1.00  0.00     0.198 A 
ATOM    105  C   UNL A   1      41.561  28.363  34.362  1.00  0.00     0.198 A 
ATOM    106  F   UNL A   1      41.626  28.811  32.054  1.00  0.00    -0.203 F 
ATOM    107  F   UNL A   1      42.348  30.465  37.204  1.00  0.00    -0.200 F 
ATOM    108  C   UNL A   1      41.749  28.773  35.672  1.00  0.00     0.200 A 
ATOM    109  F   UNL A   1      41.097  27.132  34.105  1.00  0.00    -0.200 F 
ATOM    110  F   UNL A   1      41.489  27.932  36.682  1.00  0.00    -0.200 F 
ENDBRANCH  77 100
ENDBRANCH  51  52
ENDBRANCH  43  46
ENDBRANCH  41  42
ENDBRANCH  40  41
ENDBRANCH  39  40
ENDBRANCH   1  39
TORSDOF 17
ENDMDL
MODEL 3
REMARK VINA RESULT:     -11.1      5.795     13.471
REMARK SMILES COc1ccc2c(c1)c(Cc1nc(-c3ccc(C(=O)NCCCCNC(=O)c4ccc(-c5c6nc(c(-c7c(F)c(F)c(F)c(F)c7F)c7ccc([nH]7)c(-c7c(F)c(F)c(F)c(F)c7F)c7nc(c(-c8c(F)c(F)c(F)c(F)c8F)c8ccc5[nH]8)C=C7)C=C6)cc4)cc3)cs1)c(C)n2C(=O)c1ccc(Cl)cc1
REMARK SMILES IDX 21 1 20 2 18 3 19 4 17 6 14 7 15 8 92 9 16 10 91 11 13 12
REMARK SMILES IDX 11 13 12 14 94 15 93 16 10 17 9 18 3 19 4 20 8 21 5 22 7 23
REMARK SMILES IDX 6 24 97 25 95 26 96 27 2 28 1 29 98 30 99 31 100 32 101 33
REMARK SMILES IDX 106 34 102 35 105 36 103 37 104 38 22 39 23 40 24 41 25 42
REMARK SMILES IDX 26 43 27 45 28 46 29 47 90 48 30 49 89 50 31 51 32 52 33 53
REMARK SMILES IDX 83 54 34 55 88 56 82 57 84 58 35 59 87 60 81 61 80 62 36 64
REMARK SMILES IDX 68 65 48 66 67 67 49 68 52 69 66 70 85 71 50 72 51 73 65 75
REMARK SMILES IDX 86 76 53 77 37 78 38 79 46 80 39 81 40 82 44 83 47 84 41 85
REMARK SMILES IDX 42 86 45 87 43 88 69 89 70 90 78 91 71 92 72 93 76 94 79 95
REMARK SMILES IDX 73 96 74 97 77 98 75 99 54 100 55 101 63 102 56 103 57 104
REMARK SMILES IDX 61 105 64 106 58 107 59 108 62 109 60 110
REMARK H PARENT 20 5 25 44 84 63 52 74
REMARK Flexibility Score: inf
ROOT
ATOM      1  C   UNL A   1      36.928  30.945  32.558  1.00  0.00     0.116 C 
ENDROOT
BRANCH   1   2
ATOM      2  N   UNL A   1      37.204  31.761  33.726  1.00  0.00    -0.352 N 
ATOM      3  C   UNL A   1      38.187  32.700  33.958  1.00  0.00     0.251 C 
ATOM      4  O   UNL A   1      38.207  33.273  35.038  1.00  0.00    -0.269 OA
ATOM      5  H   UNL A   1      36.585  31.621  34.479  1.00  0.00     0.163 HD
BRANCH   3   6
ATOM      6  C   UNL A   1      39.263  32.966  32.965  1.00  0.00     0.039 A 
ATOM      7  C   UNL A   1      41.357  33.766  31.262  1.00  0.00     0.001 A 
ATOM      8  C   UNL A   1      40.169  34.503  31.316  1.00  0.00     0.011 A 
ATOM      9  C   UNL A   1      41.432  32.561  31.975  1.00  0.00     0.011 A 
ATOM     10  C   UNL A   1      39.130  34.109  32.166  1.00  0.00     0.014 A 
ATOM     11  C   UNL A   1      40.380  32.148  32.798  1.00  0.00     0.014 A 
BRANCH   7  12
ATOM     12  C   UNL A   1      42.499  34.205  30.473  1.00  0.00     0.081 A 
ATOM     13  C   UNL A   1      43.494  34.857  28.605  1.00  0.00     0.098 A 
ATOM     14  N   UNL A   1      42.398  34.326  29.103  1.00  0.00    -0.241 NA
ATOM     15  S   UNL A   1      44.785  35.042  29.724  1.00  0.00    -0.126 S 
ATOM     16  C   UNL A   1      43.752  34.488  30.979  1.00  0.00     0.095 A 
BRANCH  13  17
ATOM     17  C   UNL A   1      43.626  35.308  27.180  1.00  0.00     0.105 C 
BRANCH  17  18
ATOM     18  C   UNL A   1      44.146  36.723  27.099  1.00  0.00    -0.012 A 
ATOM     19  C   UNL A   1      47.923  36.949  26.540  1.00  0.00     0.119 A 
ATOM     20  C   UNL A   1      48.004  38.327  26.625  1.00  0.00     0.048 A 
ATOM     21  C   UNL A   1      46.683  36.331  26.686  1.00  0.00     0.057 A 
ATOM     22  C   UNL A   1      46.855  39.100  26.847  1.00  0.00     0.031 A 
ATOM     23  C   UNL A   1      45.505  37.088  26.890  1.00  0.00     0.008 A 
ATOM     24  C   UNL A   1      45.587  38.482  26.927  1.00  0.00     0.057 A 
ATOM     25  N   UNL A   1      44.279  38.992  27.046  1.00  0.00    -0.280 N 
ATOM     26  C   UNL A   1      43.412  37.897  27.209  1.00  0.00     0.028 A 
ATOM     27  C   UNL A   1      41.931  37.971  27.428  1.00  0.00     0.065 C 
BRANCH  19  28
ATOM     28  O   UNL A   1      48.969  36.104  26.292  1.00  0.00    -0.497 OA
ATOM     29  C   UNL A   1      48.996  35.522  24.995  1.00  0.00     0.278 C 
ENDBRANCH  19  28
BRANCH  25  30
ATOM     30  C   UNL A   1      43.913  40.371  27.014  1.00  0.00     0.262 C 
ATOM     31  O   UNL A   1      43.960  41.034  28.049  1.00  0.00    -0.268 OA
BRANCH  30  32
ATOM     32  C   UNL A   1      43.502  41.118  25.813  1.00  0.00     0.040 A 
ATOM     33  C   UNL A   1      44.401  41.949  25.135  1.00  0.00     0.015 A 
ATOM     34  C   UNL A   1      42.176  40.991  25.379  1.00  0.00     0.015 A 
ATOM     35  C   UNL A   1      43.942  42.720  24.064  1.00  0.00     0.021 A 
ATOM     36  C   UNL A   1      41.727  41.759  24.305  1.00  0.00     0.021 A 
ATOM     37  C   UNL A   1      42.607  42.631  23.663  1.00  0.00     0.041 A 
ATOM     38  Cl  UNL A   1      42.032  43.624  22.381  1.00  0.00    -0.084 Cl
ENDBRANCH  30  32
ENDBRANCH  25  30
ENDBRANCH  17  18
ENDBRANCH  13  17
ENDBRANCH   7  12
ENDBRANCH   3   6
ENDBRANCH   1   2
BRANCH   1  39
ATOM     39  C   UNL A   1      35.570  31.200  31.923  1.00  0.00     0.023 C 
BRANCH  39  40
ATOM     40  C   UNL A   1      35.036  32.628  31.973  1.00  0.00     0.023 C 
BRANCH  40  41
ATOM     41  C   UNL A   1      35.633  33.626  30.976  1.00  0.00     0.116 C 
BRANCH  41  42
ATOM     42  N   UNL A   1      35.227  33.463  29.593  1.00  0.00    -0.352 N 
ATOM     43  C   UNL A   1      35.563  32.612  28.576  1.00  0.00     0.251 C 
ATOM     44  H   UNL A   1      34.548  34.122  29.322  1.00  0.00     0.163 HD
ATOM     45  O   UNL A   1      34.816  32.620  27.593  1.00  0.00    -0.269 OA
BRANCH  43  46
ATOM     46  C   UNL A   1      36.774  31.748  28.538  1.00  0.00     0.039 A 
ATOM     47  C   UNL A   1      36.819  30.456  28.024  1.00  0.00     0.014 A 
ATOM     48  C   UNL A   1      37.937  32.261  29.148  1.00  0.00     0.014 A 
ATOM     49  C   UNL A   1      37.934  29.652  28.232  1.00  0.00     0.010 A 
ATOM     50  C   UNL A   1      39.074  31.473  29.322  1.00  0.00     0.010 A 
ATOM     51  C   UNL A   1      39.052  30.145  28.912  1.00  0.00    -0.014 A 
BRANCH  51  52
ATOM     52  C   UNL A   1      40.168  29.218  29.108  1.00  0.00     0.031 A 
ATOM     53  C   UNL A   1      40.498  28.888  30.524  1.00  0.00     0.074 A 
ATOM     54  C   UNL A   1      40.867  28.636  28.114  1.00  0.00     0.049 A 
ATOM     55  N   UNL A   1      41.598  29.124  31.169  1.00  0.00    -0.248 NA
ATOM     56  C   UNL A   1      39.442  28.272  31.339  1.00  0.00     0.031 C 
ATOM     57  C   UNL A   1      40.552  28.591  26.686  1.00  0.00     0.029 A 
ATOM     58  N   UNL A   1      42.005  27.882  28.210  1.00  0.00    -0.354 N 
ATOM     59  C   UNL A   1      41.430  28.562  32.433  1.00  0.00     0.074 A 
ATOM     60  C   UNL A   1      40.058  28.129  32.513  1.00  0.00     0.031 C 
ATOM     61  C   UNL A   1      41.356  27.687  26.082  1.00  0.00     0.029 A 
ATOM     62  C   UNL A   1      42.333  27.208  27.045  1.00  0.00     0.049 A 
ATOM     63  H   UNL A   1      42.542  27.824  29.032  1.00  0.00     0.167 HD
ATOM     64  C   UNL A   1      42.478  28.335  33.271  1.00  0.00     0.037 A 
ATOM     65  C   UNL A   1      43.311  26.285  26.898  1.00  0.00     0.037 A 
ATOM     66  C   UNL A   1      43.643  29.088  32.899  1.00  0.00     0.049 A 
ATOM     67  C   UNL A   1      44.305  26.488  27.975  1.00  0.00     0.074 A 
ATOM     68  C   UNL A   1      44.008  30.417  32.904  1.00  0.00     0.029 A 
ATOM     69  N   UNL A   1      44.589  28.428  32.164  1.00  0.00    -0.354 N 
ATOM     70  N   UNL A   1      45.111  27.509  28.053  1.00  0.00    -0.248 NA
ATOM     71  C   UNL A   1      44.248  25.646  29.162  1.00  0.00     0.031 C 
ATOM     72  C   UNL A   1      44.966  30.557  31.855  1.00  0.00     0.029 A 
ATOM     73  C   UNL A   1      45.134  29.306  31.264  1.00  0.00     0.049 A 
ATOM     74  H   UNL A   1      44.838  27.481  32.266  1.00  0.00     0.167 HD
ATOM     75  C   UNL A   1      45.336  27.670  29.408  1.00  0.00     0.074 A 
ATOM     76  C   UNL A   1      44.940  26.408  30.012  1.00  0.00     0.031 C 
ATOM     77  C   UNL A   1      45.541  28.910  29.935  1.00  0.00     0.037 A 
BRANCH  64  78
ATOM     78  C   UNL A   1      42.570  27.169  34.224  1.00  0.00     0.064 A 
ATOM     79  C   UNL A   1      42.224  27.345  35.581  1.00  0.00     0.173 A 
ATOM     80  C   UNL A   1      43.275  25.984  33.924  1.00  0.00     0.173 A 
ATOM     81  F   UNL A   1      41.584  28.453  35.985  1.00  0.00    -0.203 F 
ATOM     82  C   UNL A   1      42.605  26.429  36.566  1.00  0.00     0.198 A 
ATOM     83  C   UNL A   1      43.608  25.047  34.902  1.00  0.00     0.198 A 
ATOM     84  F   UNL A   1      43.763  25.746  32.700  1.00  0.00    -0.203 F 
ATOM     85  F   UNL A   1      42.355  26.694  37.856  1.00  0.00    -0.200 F 
ATOM     86  C   UNL A   1      43.298  25.282  36.226  1.00  0.00     0.200 A 
ATOM     87  F   UNL A   1      44.302  23.954  34.558  1.00  0.00    -0.200 F 
ATOM     88  F   UNL A   1      43.712  24.430  37.173  1.00  0.00    -0.200 F 
ENDBRANCH  64  78
BRANCH  65  89
ATOM     89  C   UNL A   1      43.330  25.079  26.039  1.00  0.00     0.064 A 
ATOM     90  C   UNL A   1      44.392  24.851  25.148  1.00  0.00     0.173 A 
ATOM     91  C   UNL A   1      42.480  23.987  26.297  1.00  0.00     0.173 A 
ATOM     92  F   UNL A   1      45.265  25.832  24.871  1.00  0.00    -0.203 F 
ATOM     93  C   UNL A   1      44.624  23.590  24.593  1.00  0.00     0.198 A 
ATOM     94  C   UNL A   1      42.707  22.732  25.732  1.00  0.00     0.198 A 
ATOM     95  F   UNL A   1      41.477  24.087  27.180  1.00  0.00    -0.203 F 
ATOM     96  F   UNL A   1      45.697  23.392  23.815  1.00  0.00    -0.200 F 
ATOM     97  C   UNL A   1      43.791  22.528  24.899  1.00  0.00     0.200 A 
ATOM     98  F   UNL A   1      41.911  21.704  26.059  1.00  0.00    -0.200 F 
ATOM     99  F   UNL A   1      44.057  21.302  24.428  1.00  0.00    -0.200 F 
ENDBRANCH  65  89
BRANCH  77 100
ATOM    100  C   UNL A   1      45.974  29.990  28.992  1.00  0.00     0.064 A 
ATOM    101  C   UNL A   1      45.092  30.733  28.190  1.00  0.00     0.173 A 
ATOM    102  C   UNL A   1      47.329  30.345  28.968  1.00  0.00     0.173 A 
ATOM    103  F   UNL A   1      43.770  30.512  28.233  1.00  0.00    -0.203 F 
ATOM    104  C   UNL A   1      45.559  31.748  27.359  1.00  0.00     0.198 A 
ATOM    105  C   UNL A   1      47.788  31.385  28.166  1.00  0.00     0.198 A 
ATOM    106  F   UNL A   1      48.207  29.703  29.756  1.00  0.00    -0.203 F 
ATOM    107  F   UNL A   1      44.703  32.430  26.583  1.00  0.00    -0.200 F 
ATOM    108  C   UNL A   1      46.906  32.077  27.352  1.00  0.00     0.200 A 
ATOM    109  F   UNL A   1      49.082  31.732  28.199  1.00  0.00    -0.200 F 
ATOM    110  F   UNL A   1      47.349  33.079  26.580  1.00  0.00    -0.200 F 
ENDBRANCH  77 100
ENDBRANCH  51  52
ENDBRANCH  43  46
ENDBRANCH  41  42
ENDBRANCH  40  41
ENDBRANCH  39  40
ENDBRANCH   1  39
TORSDOF 17
ENDMDL
