MODEL 1
REMARK VINA RESULT:     -13.8      0.000      0.000
REMARK SMILES O=C(NCCCCNC(=O)c1nc(NC[C@H]2c3ccccc3CSc3ccccc32)c2ccccc2n1)c1ccc(-c2c3nc(c(-c4c(F)c(F)c(F)c(F)c4F)c4ccc([nH]4)c(-c4c(F)c(F)c(F)c(F)c4F)c4nc(c(-c5c(F)c(F)c(F)c(F)c5F)c5ccc2[nH]5)C=C4)C=C3)cc1
REMARK SMILES IDX 6 1 5 2 4 3 3 4 1 5 2 6 38 8 39 9 100 10 40 11 99 12 41 13
REMARK SMILES IDX 42 14 43 15 93 16 44 17 98 18 92 19 94 20 45 21 97 22 91 23
REMARK SMILES IDX 90 24 46 26 78 27 58 28 77 29 59 30 62 31 76 32 95 33 60 34
REMARK SMILES IDX 61 35 75 37 96 38 63 39 47 40 48 41 56 42 49 43 50 44 54 45
REMARK SMILES IDX 57 46 51 47 52 48 55 49 53 50 79 51 80 52 88 53 81 54 82 55
REMARK SMILES IDX 86 56 89 57 83 58 84 59 87 60 85 61 64 62 65 63 73 64 66 65
REMARK SMILES IDX 67 66 71 67 74 68 68 69 69 70 72 71 70 72 7 73 8 74 9 75
REMARK SMILES IDX 10 77 11 78 12 79 37 80 13 81 36 82 31 83 35 84 32 85 34 86
REMARK SMILES IDX 33 87 14 88 15 90 16 91 17 92 30 93 18 94 22 95 25 96 29 97
REMARK SMILES IDX 19 98 21 99 23 100 24 101 26 102 28 103 20 104 27 105
REMARK H PARENT 3 7 94 25 62 36 8 76 14 89
REMARK Flexibility Score: inf
ROOT
ATOM      1  C   UNL A   1      31.795  30.247  26.784  1.00  0.00     0.023 C 
ENDROOT
BRANCH   1   2
ATOM      2  C   UNL A   1      31.555  31.753  26.802  1.00  0.00     0.023 C 
BRANCH   2   3
ATOM      3  C   UNL A   1      32.805  32.605  26.957  1.00  0.00     0.116 C 
BRANCH   3   4
ATOM      4  N   UNL A   1      32.544  33.894  27.581  1.00  0.00    -0.352 N 
ATOM      5  O   UNL A   1      32.720  35.530  29.121  1.00  0.00    -0.269 OA
ATOM      6  C   UNL A   1      33.173  34.490  28.646  1.00  0.00     0.251 C 
ATOM      7  H   UNL A   1      31.811  34.413  27.180  1.00  0.00     0.163 HD
BRANCH   6   8
ATOM      8  C   UNL A   1      34.377  33.873  29.246  1.00  0.00     0.039 A 
ATOM      9  C   UNL A   1      34.219  32.793  30.118  1.00  0.00     0.014 A 
ATOM     10  C   UNL A   1      35.658  34.357  28.967  1.00  0.00     0.014 A 
ATOM     11  C   UNL A   1      35.344  32.177  30.672  1.00  0.00     0.010 A 
ATOM     12  C   UNL A   1      36.780  33.677  29.433  1.00  0.00     0.010 A 
ATOM     13  C   UNL A   1      36.637  32.597  30.316  1.00  0.00    -0.014 A 
BRANCH  13  14
ATOM     14  C   UNL A   1      37.841  31.958  30.910  1.00  0.00     0.031 A 
ATOM     15  C   UNL A   1      38.285  32.340  32.299  1.00  0.00     0.074 A 
ATOM     16  C   UNL A   1      38.538  31.043  30.206  1.00  0.00     0.049 A 
ATOM     17  N   UNL A   1      39.302  31.893  32.993  1.00  0.00    -0.248 NA
ATOM     18  C   UNL A   1      37.502  33.375  32.995  1.00  0.00     0.031 C 
ATOM     19  C   UNL A   1      38.237  30.625  28.836  1.00  0.00     0.029 A 
ATOM     20  N   UNL A   1      39.637  30.292  30.547  1.00  0.00    -0.354 N 
ATOM     21  C   UNL A   1      39.279  32.595  34.191  1.00  0.00     0.074 A 
ATOM     22  C   UNL A   1      38.198  33.548  34.109  1.00  0.00     0.031 C 
ATOM     23  C   UNL A   1      39.096  29.658  28.472  1.00  0.00     0.029 A 
ATOM     24  C   UNL A   1      40.033  29.414  29.566  1.00  0.00     0.049 A 
ATOM     25  H   UNL A   1      40.097  30.375  31.413  1.00  0.00     0.167 HD
ATOM     26  C   UNL A   1      40.061  32.428  35.281  1.00  0.00     0.037 A 
ATOM     27  C   UNL A   1      41.034  28.511  29.553  1.00  0.00     0.037 A 
ATOM     28  C   UNL A   1      41.104  31.445  35.382  1.00  0.00     0.049 A 
ATOM     29  C   UNL A   1      41.900  28.358  30.776  1.00  0.00     0.074 A 
ATOM     30  C   UNL A   1      41.915  31.164  36.466  1.00  0.00     0.029 A 
ATOM     31  N   UNL A   1      41.474  30.581  34.364  1.00  0.00    -0.354 N 
ATOM     32  N   UNL A   1      41.819  28.980  31.928  1.00  0.00    -0.248 NA
ATOM     33  C   UNL A   1      42.995  27.378  30.703  1.00  0.00     0.031 C 
ATOM     34  C   UNL A   1      42.810  30.162  36.090  1.00  0.00     0.029 A 
ATOM     35  C   UNL A   1      42.518  29.779  34.790  1.00  0.00     0.049 A 
ATOM     36  H   UNL A   1      41.056  30.542  33.473  1.00  0.00     0.167 HD
ATOM     37  C   UNL A   1      42.823  28.444  32.723  1.00  0.00     0.074 A 
ATOM     38  C   UNL A   1      43.499  27.441  31.929  1.00  0.00     0.031 C 
ATOM     39  C   UNL A   1      43.156  28.761  33.997  1.00  0.00     0.037 A 
BRANCH  26  40
ATOM     40  C   UNL A   1      39.803  33.292  36.480  1.00  0.00     0.064 A 
ATOM     41  C   UNL A   1      40.436  34.535  36.632  1.00  0.00     0.173 A 
ATOM     42  C   UNL A   1      38.834  32.928  37.428  1.00  0.00     0.173 A 
ATOM     43  F   UNL A   1      41.378  34.924  35.758  1.00  0.00    -0.203 F 
ATOM     44  C   UNL A   1      40.112  35.379  37.690  1.00  0.00     0.198 A 
ATOM     45  C   UNL A   1      38.492  33.788  38.468  1.00  0.00     0.198 A 
ATOM     46  F   UNL A   1      38.194  31.754  37.324  1.00  0.00    -0.203 F 
ATOM     47  F   UNL A   1      40.748  36.551  37.827  1.00  0.00    -0.200 F 
ATOM     48  C   UNL A   1      39.131  35.012  38.598  1.00  0.00     0.200 A 
ATOM     49  F   UNL A   1      37.529  33.441  39.334  1.00  0.00    -0.200 F 
ATOM     50  F   UNL A   1      38.798  35.840  39.598  1.00  0.00    -0.200 F 
ENDBRANCH  26  40
BRANCH  27  51
ATOM     51  C   UNL A   1      41.245  27.651  28.356  1.00  0.00     0.064 A 
ATOM     52  C   UNL A   1      42.137  28.031  27.344  1.00  0.00     0.173 A 
ATOM     53  C   UNL A   1      40.566  26.433  28.199  1.00  0.00     0.173 A 
ATOM     54  F   UNL A   1      42.798  29.195  27.436  1.00  0.00    -0.203 F 
ATOM     55  C   UNL A   1      42.328  27.238  26.214  1.00  0.00     0.198 A 
ATOM     56  C   UNL A   1      40.780  25.626  27.084  1.00  0.00     0.198 A 
ATOM     57  F   UNL A   1      39.703  26.018  29.139  1.00  0.00    -0.203 F 
ATOM     58  F   UNL A   1      43.152  27.649  25.240  1.00  0.00    -0.200 F 
ATOM     59  C   UNL A   1      41.655  26.032  26.088  1.00  0.00     0.200 A 
ATOM     60  F   UNL A   1      40.141  24.453  26.975  1.00  0.00    -0.200 F 
ATOM     61  F   UNL A   1      41.844  25.267  25.005  1.00  0.00    -0.200 F 
ENDBRANCH  27  51
BRANCH  39  62
ATOM     62  C   UNL A   1      44.275  28.004  34.650  1.00  0.00     0.064 A 
ATOM     63  C   UNL A   1      45.584  28.501  34.658  1.00  0.00     0.173 A 
ATOM     64  C   UNL A   1      44.000  26.851  35.403  1.00  0.00     0.173 A 
ATOM     65  F   UNL A   1      45.896  29.596  33.947  1.00  0.00    -0.203 F 
ATOM     66  C   UNL A   1      46.579  27.874  35.403  1.00  0.00     0.198 A 
ATOM     67  C   UNL A   1      44.990  26.245  36.169  1.00  0.00     0.198 A 
ATOM     68  F   UNL A   1      42.757  26.345  35.436  1.00  0.00    -0.203 F 
ATOM     69  F   UNL A   1      47.828  28.360  35.391  1.00  0.00    -0.200 F 
ATOM     70  C   UNL A   1      46.278  26.758  36.170  1.00  0.00     0.200 A 
ATOM     71  F   UNL A   1      44.691  25.181  36.927  1.00  0.00    -0.200 F 
ATOM     72  F   UNL A   1      47.228  26.181  36.917  1.00  0.00    -0.200 F 
ENDBRANCH  39  62
ENDBRANCH  13  14
ENDBRANCH   6   8
ENDBRANCH   3   4
ENDBRANCH   2   3
ENDBRANCH   1   2
BRANCH   1  73
ATOM     73  C   UNL A   1      33.101  29.798  26.132  1.00  0.00     0.116 C 
BRANCH  73  74
ATOM     74  N   UNL A   1      33.053  29.861  24.680  1.00  0.00    -0.349 N 
ATOM     75  C   UNL A   1      32.925  28.816  23.779  1.00  0.00     0.289 C 
ATOM     76  H   UNL A   1      33.120  30.761  24.287  1.00  0.00     0.163 HD
ATOM     77  O   UNL A   1      33.010  29.060  22.575  1.00  0.00    -0.266 OA
BRANCH  75  78
ATOM     78  C   UNL A   1      32.725  27.413  24.283  1.00  0.00     0.220 A 
ATOM     79  N   UNL A   1      33.844  26.716  24.539  1.00  0.00    -0.206 NA
ATOM     80  N   UNL A   1      31.470  27.070  24.628  1.00  0.00    -0.224 NA
ATOM     81  C   UNL A   1      33.692  25.604  25.265  1.00  0.00     0.138 A 
ATOM     82  C   UNL A   1      31.334  25.933  25.309  1.00  0.00     0.077 A 
ATOM     83  C   UNL A   1      32.424  25.128  25.659  1.00  0.00     0.043 A 
ATOM     84  C   UNL A   1      30.064  25.567  25.739  1.00  0.00     0.029 A 
ATOM     85  C   UNL A   1      32.195  23.940  26.401  1.00  0.00     0.014 A 
ATOM     86  C   UNL A   1      29.845  24.413  26.496  1.00  0.00     0.002 A 
ATOM     87  C   UNL A   1      30.914  23.590  26.820  1.00  0.00     0.001 A 
BRANCH  81  88
ATOM     88  N   UNL A   1      34.825  24.954  25.725  1.00  0.00    -0.368 N 
ATOM     89  H   UNL A   1      35.083  25.103  26.664  1.00  0.00     0.162 HD
BRANCH  88  90
ATOM     90  C   UNL A   1      35.672  24.059  24.927  1.00  0.00     0.127 C 
BRANCH  90  91
ATOM     91  C   UNL A   1      35.229  22.539  25.077  1.00  0.00     0.070 C 
ATOM     92  C   UNL A   1      34.131  22.178  24.042  1.00  0.00    -0.035 A 
ATOM     93  C   UNL A   1      36.428  21.544  25.217  1.00  0.00    -0.025 A 
ATOM     94  C   UNL A   1      33.830  22.989  22.930  1.00  0.00     0.005 A 
ATOM     95  C   UNL A   1      33.317  21.042  24.225  1.00  0.00    -0.034 A 
ATOM     96  C   UNL A   1      36.399  20.146  25.002  1.00  0.00     0.011 A 
ATOM     97  C   UNL A   1      37.684  22.071  25.637  1.00  0.00     0.005 A 
ATOM     98  C   UNL A   1      32.790  22.698  22.042  1.00  0.00     0.000 A 
ATOM     99  C   UNL A   1      32.284  20.738  23.310  1.00  0.00     0.005 A 
ATOM    100  C   UNL A   1      33.609  20.063  25.320  1.00  0.00     0.110 C 
ATOM    101  S   UNL A   1      35.001  19.040  24.802  1.00  0.00    -0.121 SA
ATOM    102  C   UNL A   1      37.613  19.414  24.993  1.00  0.00     0.015 A 
ATOM    103  C   UNL A   1      38.869  21.332  25.641  1.00  0.00     0.000 A 
ATOM    104  C   UNL A   1      32.018  21.566  22.228  1.00  0.00     0.000 A 
ATOM    105  C   UNL A   1      38.840  20.002  25.280  1.00  0.00     0.001 A 
ENDBRANCH  90  91
ENDBRANCH  88  90
ENDBRANCH  81  88
ENDBRANCH  75  78
ENDBRANCH  73  74
ENDBRANCH   1  73
TORSDOF 14
ENDMDL
MODEL 2
REMARK VINA RESULT:     -13.8      0.201      1.516
REMARK SMILES O=C(NCCCCNC(=O)c1nc(NC[C@H]2c3ccccc3CSc3ccccc32)c2ccccc2n1)c1ccc(-c2c3nc(c(-c4c(F)c(F)c(F)c(F)c4F)c4ccc([nH]4)c(-c4c(F)c(F)c(F)c(F)c4F)c4nc(c(-c5c(F)c(F)c(F)c(F)c5F)c5ccc2[nH]5)C=C4)C=C3)cc1
REMARK SMILES IDX 6 1 5 2 4 3 3 4 1 5 2 6 38 8 39 9 100 10 40 11 99 12 41 13
REMARK SMILES IDX 42 14 43 15 93 16 44 17 98 18 92 19 94 20 45 21 97 22 91 23
REMARK SMILES IDX 90 24 46 26 78 27 58 28 77 29 59 30 62 31 76 32 95 33 60 34
REMARK SMILES IDX 61 35 75 37 96 38 63 39 47 40 48 41 56 42 49 43 50 44 54 45
REMARK SMILES IDX 57 46 51 47 52 48 55 49 53 50 79 51 80 52 88 53 81 54 82 55
REMARK SMILES IDX 86 56 89 57 83 58 84 59 87 60 85 61 64 62 65 63 73 64 66 65
REMARK SMILES IDX 67 66 71 67 74 68 68 69 69 70 72 71 70 72 7 73 8 74 9 75
REMARK SMILES IDX 10 77 11 78 12 79 37 80 13 81 36 82 31 83 35 84 32 85 34 86
REMARK SMILES IDX 33 87 14 88 15 90 16 91 17 92 30 93 18 94 22 95 25 96 29 97
REMARK SMILES IDX 19 98 21 99 23 100 24 101 26 102 28 103 20 104 27 105
REMARK H PARENT 3 7 94 25 62 36 8 76 14 89
REMARK Flexibility Score: inf
ROOT
ATOM      1  C   UNL A   1      31.819  30.208  26.709  1.00  0.00     0.023 C 
ENDROOT
BRANCH   1   2
ATOM      2  C   UNL A   1      31.567  31.707  26.832  1.00  0.00     0.023 C 
BRANCH   2   3
ATOM      3  C   UNL A   1      32.817  32.566  26.948  1.00  0.00     0.116 C 
BRANCH   3   4
ATOM      4  N   UNL A   1      32.566  33.860  27.563  1.00  0.00    -0.352 N 
ATOM      5  O   UNL A   1      32.756  35.506  29.092  1.00  0.00    -0.269 OA
ATOM      6  C   UNL A   1      33.201  34.460  28.622  1.00  0.00     0.251 C 
ATOM      7  H   UNL A   1      31.834  34.381  27.161  1.00  0.00     0.163 HD
BRANCH   6   8
ATOM      8  C   UNL A   1      34.403  33.840  29.223  1.00  0.00     0.039 A 
ATOM      9  C   UNL A   1      34.240  32.779  30.117  1.00  0.00     0.014 A 
ATOM     10  C   UNL A   1      35.687  34.302  28.923  1.00  0.00     0.014 A 
ATOM     11  C   UNL A   1      35.363  32.160  30.674  1.00  0.00     0.010 A 
ATOM     12  C   UNL A   1      36.805  33.618  29.392  1.00  0.00     0.010 A 
ATOM     13  C   UNL A   1      36.657  32.557  30.297  1.00  0.00    -0.014 A 
BRANCH  13  14
ATOM     14  C   UNL A   1      37.858  31.914  30.893  1.00  0.00     0.031 A 
ATOM     15  C   UNL A   1      38.300  32.294  32.282  1.00  0.00     0.074 A 
ATOM     16  C   UNL A   1      38.555  30.999  30.189  1.00  0.00     0.049 A 
ATOM     17  N   UNL A   1      39.316  31.844  32.978  1.00  0.00    -0.248 NA
ATOM     18  C   UNL A   1      37.519  33.330  32.979  1.00  0.00     0.031 C 
ATOM     19  C   UNL A   1      38.256  30.583  28.817  1.00  0.00     0.029 A 
ATOM     20  N   UNL A   1      39.652  30.246  30.531  1.00  0.00    -0.354 N 
ATOM     21  C   UNL A   1      39.292  32.544  34.177  1.00  0.00     0.074 A 
ATOM     22  C   UNL A   1      38.213  33.500  34.094  1.00  0.00     0.031 C 
ATOM     23  C   UNL A   1      39.113  29.616  28.454  1.00  0.00     0.029 A 
ATOM     24  C   UNL A   1      40.048  29.368  29.549  1.00  0.00     0.049 A 
ATOM     25  H   UNL A   1      40.110  30.326  31.397  1.00  0.00     0.167 HD
ATOM     26  C   UNL A   1      40.072  32.374  35.268  1.00  0.00     0.037 A 
ATOM     27  C   UNL A   1      41.047  28.463  29.536  1.00  0.00     0.037 A 
ATOM     28  C   UNL A   1      41.113  31.389  35.369  1.00  0.00     0.049 A 
ATOM     29  C   UNL A   1      41.911  28.306  30.761  1.00  0.00     0.074 A 
ATOM     30  C   UNL A   1      41.921  31.104  36.454  1.00  0.00     0.029 A 
ATOM     31  N   UNL A   1      41.483  30.526  34.351  1.00  0.00    -0.354 N 
ATOM     32  N   UNL A   1      41.829  28.927  31.913  1.00  0.00    -0.248 NA
ATOM     33  C   UNL A   1      43.003  27.324  30.689  1.00  0.00     0.031 C 
ATOM     34  C   UNL A   1      42.814  30.101  36.079  1.00  0.00     0.029 A 
ATOM     35  C   UNL A   1      42.524  29.721  34.778  1.00  0.00     0.049 A 
ATOM     36  H   UNL A   1      41.066  30.489  33.459  1.00  0.00     0.167 HD
ATOM     37  C   UNL A   1      42.831  28.388  32.710  1.00  0.00     0.074 A 
ATOM     38  C   UNL A   1      43.505  27.384  31.916  1.00  0.00     0.031 C 
ATOM     39  C   UNL A   1      43.162  28.702  33.985  1.00  0.00     0.037 A 
BRANCH  26  40
ATOM     40  C   UNL A   1      39.813  33.237  36.468  1.00  0.00     0.064 A 
ATOM     41  C   UNL A   1      40.474  34.463  36.639  1.00  0.00     0.173 A 
ATOM     42  C   UNL A   1      38.819  32.892  37.396  1.00  0.00     0.173 A 
ATOM     43  F   UNL A   1      41.440  34.834  35.785  1.00  0.00    -0.203 F 
ATOM     44  C   UNL A   1      40.152  35.309  37.697  1.00  0.00     0.198 A 
ATOM     45  C   UNL A   1      38.479  33.754  38.435  1.00  0.00     0.198 A 
ATOM     46  F   UNL A   1      38.152  31.735  37.273  1.00  0.00    -0.203 F 
ATOM     47  F   UNL A   1      40.813  36.464  37.853  1.00  0.00    -0.200 F 
ATOM     48  C   UNL A   1      39.146  34.960  38.584  1.00  0.00     0.200 A 
ATOM     49  F   UNL A   1      37.493  33.425  39.281  1.00  0.00    -0.200 F 
ATOM     50  F   UNL A   1      38.815  35.791  39.584  1.00  0.00    -0.200 F 
ENDBRANCH  26  40
BRANCH  27  51
ATOM     51  C   UNL A   1      41.259  27.604  28.339  1.00  0.00     0.064 A 
ATOM     52  C   UNL A   1      40.561  26.398  28.184  1.00  0.00     0.173 A 
ATOM     53  C   UNL A   1      42.158  27.968  27.326  1.00  0.00     0.173 A 
ATOM     54  F   UNL A   1      39.703  25.994  29.134  1.00  0.00    -0.203 F 
ATOM     55  C   UNL A   1      40.766  25.582  27.074  1.00  0.00     0.198 A 
ATOM     56  C   UNL A   1      42.340  27.166  26.200  1.00  0.00     0.198 A 
ATOM     57  F   UNL A   1      42.850  29.113  27.420  1.00  0.00    -0.203 F 
ATOM     58  F   UNL A   1      40.119  24.412  26.975  1.00  0.00    -0.200 F 
ATOM     59  C   UNL A   1      41.650  25.970  26.079  1.00  0.00     0.200 A 
ATOM     60  F   UNL A   1      43.183  27.554  25.233  1.00  0.00    -0.200 F 
ATOM     61  F   UNL A   1      41.842  25.189  25.008  1.00  0.00    -0.200 F 
ENDBRANCH  27  51
BRANCH  39  62
ATOM     62  C   UNL A   1      44.278  27.942  34.639  1.00  0.00     0.064 A 
ATOM     63  C   UNL A   1      44.050  26.714  35.272  1.00  0.00     0.173 A 
ATOM     64  C   UNL A   1      45.605  28.376  34.493  1.00  0.00     0.173 A 
ATOM     65  F   UNL A   1      42.798  26.263  35.440  1.00  0.00    -0.203 F 
ATOM     66  C   UNL A   1      45.113  25.942  35.731  1.00  0.00     0.198 A 
ATOM     67  C   UNL A   1      46.666  27.589  34.928  1.00  0.00     0.198 A 
ATOM     68  F   UNL A   1      45.874  29.541  33.882  1.00  0.00    -0.203 F 
ATOM     69  F   UNL A   1      44.874  24.774  36.343  1.00  0.00    -0.200 F 
ATOM     70  C   UNL A   1      46.420  26.372  35.545  1.00  0.00     0.200 A 
ATOM     71  F   UNL A   1      47.927  27.994  34.726  1.00  0.00    -0.200 F 
ATOM     72  F   UNL A   1      47.442  25.608  35.953  1.00  0.00    -0.200 F 
ENDBRANCH  39  62
ENDBRANCH  13  14
ENDBRANCH   6   8
ENDBRANCH   3   4
ENDBRANCH   2   3
ENDBRANCH   1   2
BRANCH   1  73
ATOM     73  C   UNL A   1      33.146  29.816  26.062  1.00  0.00     0.116 C 
BRANCH  73  74
ATOM     74  N   UNL A   1      33.099  29.870  24.610  1.00  0.00    -0.349 N 
ATOM     75  C   UNL A   1      32.952  28.822  23.715  1.00  0.00     0.289 C 
ATOM     76  H   UNL A   1      33.183  30.767  24.210  1.00  0.00     0.163 HD
ATOM     77  O   UNL A   1      33.042  29.057  22.510  1.00  0.00    -0.266 OA
BRANCH  75  78
ATOM     78  C   UNL A   1      32.726  27.427  24.229  1.00  0.00     0.220 A 
ATOM     79  N   UNL A   1      33.831  26.714  24.500  1.00  0.00    -0.206 NA
ATOM     80  N   UNL A   1      31.462  27.107  24.566  1.00  0.00    -0.224 NA
ATOM     81  C   UNL A   1      33.655  25.610  25.233  1.00  0.00     0.138 A 
ATOM     82  C   UNL A   1      31.302  25.978  25.255  1.00  0.00     0.077 A 
ATOM     83  C   UNL A   1      32.376  25.157  25.620  1.00  0.00     0.043 A 
ATOM     84  C   UNL A   1      30.023  25.634  25.676  1.00  0.00     0.029 A 
ATOM     85  C   UNL A   1      32.122  23.980  26.369  1.00  0.00     0.014 A 
ATOM     86  C   UNL A   1      29.780  24.491  26.441  1.00  0.00     0.002 A 
ATOM     87  C   UNL A   1      30.832  23.653  26.780  1.00  0.00     0.001 A 
BRANCH  81  88
ATOM     88  N   UNL A   1      34.774  24.946  25.708  1.00  0.00    -0.368 N 
ATOM     89  H   UNL A   1      35.011  25.078  26.655  1.00  0.00     0.162 HD
BRANCH  88  90
ATOM     90  C   UNL A   1      35.634  24.061  24.914  1.00  0.00     0.127 C 
BRANCH  90  91
ATOM     91  C   UNL A   1      35.215  22.534  25.072  1.00  0.00     0.070 C 
ATOM     92  C   UNL A   1      34.119  22.152  24.042  1.00  0.00    -0.035 A 
ATOM     93  C   UNL A   1      36.429  21.558  25.212  1.00  0.00    -0.025 A 
ATOM     94  C   UNL A   1      33.802  22.954  22.928  1.00  0.00     0.005 A 
ATOM     95  C   UNL A   1      33.323  21.005  24.233  1.00  0.00    -0.034 A 
ATOM     96  C   UNL A   1      36.420  20.159  25.003  1.00  0.00     0.011 A 
ATOM     97  C   UNL A   1      37.678  22.106  25.626  1.00  0.00     0.005 A 
ATOM     98  C   UNL A   1      32.764  22.644  22.044  1.00  0.00     0.000 A 
ATOM     99  C   UNL A   1      32.292  20.682  23.323  1.00  0.00     0.005 A 
ATOM    100  C   UNL A   1      33.633  20.035  25.331  1.00  0.00     0.110 C 
ATOM    101  S   UNL A   1      35.039  19.031  24.812  1.00  0.00    -0.121 SA
ATOM    102  C   UNL A   1      37.645  19.446  24.993  1.00  0.00     0.015 A 
ATOM    103  C   UNL A   1      38.875  21.385  25.629  1.00  0.00     0.000 A 
ATOM    104  C   UNL A   1      32.010  21.501  22.238  1.00  0.00     0.000 A 
ATOM    105  C   UNL A   1      38.864  20.053  25.273  1.00  0.00     0.001 A 
ENDBRANCH  90  91
ENDBRANCH  88  90
ENDBRANCH  81  88
ENDBRANCH  75  78
ENDBRANCH  73  74
ENDBRANCH   1  73
TORSDOF 14
ENDMDL
MODEL 3
REMARK VINA RESULT:     -13.4      0.617      6.921
REMARK SMILES O=C(NCCCCNC(=O)c1nc(NC[C@H]2c3ccccc3CSc3ccccc32)c2ccccc2n1)c1ccc(-c2c3nc(c(-c4c(F)c(F)c(F)c(F)c4F)c4ccc([nH]4)c(-c4c(F)c(F)c(F)c(F)c4F)c4nc(c(-c5c(F)c(F)c(F)c(F)c5F)c5ccc2[nH]5)C=C4)C=C3)cc1
REMARK SMILES IDX 6 1 5 2 4 3 3 4 1 5 2 6 38 8 39 9 100 10 40 11 99 12 41 13
REMARK SMILES IDX 42 14 43 15 93 16 44 17 98 18 92 19 94 20 45 21 97 22 91 23
REMARK SMILES IDX 90 24 46 26 78 27 58 28 77 29 59 30 62 31 76 32 95 33 60 34
REMARK SMILES IDX 61 35 75 37 96 38 63 39 47 40 48 41 56 42 49 43 50 44 54 45
REMARK SMILES IDX 57 46 51 47 52 48 55 49 53 50 79 51 80 52 88 53 81 54 82 55
REMARK SMILES IDX 86 56 89 57 83 58 84 59 87 60 85 61 64 62 65 63 73 64 66 65
REMARK SMILES IDX 67 66 71 67 74 68 68 69 69 70 72 71 70 72 7 73 8 74 9 75
REMARK SMILES IDX 10 77 11 78 12 79 37 80 13 81 36 82 31 83 35 84 32 85 34 86
REMARK SMILES IDX 33 87 14 88 15 90 16 91 17 92 30 93 18 94 22 95 25 96 29 97
REMARK SMILES IDX 19 98 21 99 23 100 24 101 26 102 28 103 20 104 27 105
REMARK H PARENT 3 7 94 25 62 36 8 76 14 89
REMARK Flexibility Score: inf
ROOT
ATOM      1  C   UNL A   1      31.461  30.439  26.183  1.00  0.00     0.023 C 
ENDROOT
BRANCH   1   2
ATOM      2  C   UNL A   1      31.418  31.936  26.476  1.00  0.00     0.023 C 
BRANCH   2   3
ATOM      3  C   UNL A   1      32.639  32.490  27.192  1.00  0.00     0.116 C 
BRANCH   3   4
ATOM      4  N   UNL A   1      32.497  33.890  27.562  1.00  0.00    -0.352 N 
ATOM      5  O   UNL A   1      32.818  35.760  28.780  1.00  0.00    -0.269 OA
ATOM      6  C   UNL A   1      33.173  34.613  28.515  1.00  0.00     0.251 C 
ATOM      7  H   UNL A   1      31.819  34.392  27.055  1.00  0.00     0.163 HD
BRANCH   6   8
ATOM      8  C   UNL A   1      34.309  34.009  29.246  1.00  0.00     0.039 A 
ATOM      9  C   UNL A   1      34.048  33.034  30.213  1.00  0.00     0.014 A 
ATOM     10  C   UNL A   1      35.626  34.404  28.998  1.00  0.00     0.014 A 
ATOM     11  C   UNL A   1      35.108  32.431  30.895  1.00  0.00     0.010 A 
ATOM     12  C   UNL A   1      36.684  33.727  29.598  1.00  0.00     0.010 A 
ATOM     13  C   UNL A   1      36.438  32.754  30.576  1.00  0.00    -0.014 A 
BRANCH  13  14
ATOM     14  C   UNL A   1      37.573  32.127  31.305  1.00  0.00     0.031 A 
ATOM     15  C   UNL A   1      38.360  31.019  30.656  1.00  0.00     0.074 A 
ATOM     16  C   UNL A   1      37.891  32.543  32.548  1.00  0.00     0.049 A 
ATOM     17  N   UNL A   1      39.385  30.349  31.124  1.00  0.00    -0.248 NA
ATOM     18  C   UNL A   1      37.933  30.584  29.315  1.00  0.00     0.031 C 
ATOM     19  C   UNL A   1      37.175  33.574  33.302  1.00  0.00     0.029 A 
ATOM     20  N   UNL A   1      38.904  32.160  33.393  1.00  0.00    -0.354 N 
ATOM     21  C   UNL A   1      39.711  29.423  30.143  1.00  0.00     0.074 A 
ATOM     22  C   UNL A   1      38.738  29.558  29.085  1.00  0.00     0.031 C 
ATOM     23  C   UNL A   1      37.799  33.776  34.473  1.00  0.00     0.029 A 
ATOM     24  C   UNL A   1      38.937  32.866  34.573  1.00  0.00     0.049 A 
ATOM     25  H   UNL A   1      39.547  31.448  33.173  1.00  0.00     0.167 HD
ATOM     26  C   UNL A   1      40.756  28.565  30.106  1.00  0.00     0.037 A 
ATOM     27  C   UNL A   1      39.791  32.790  35.613  1.00  0.00     0.037 A 
ATOM     28  C   UNL A   1      41.753  28.465  31.137  1.00  0.00     0.049 A 
ATOM     29  C   UNL A   1      40.937  31.814  35.552  1.00  0.00     0.074 A 
ATOM     30  C   UNL A   1      42.879  27.665  31.164  1.00  0.00     0.029 A 
ATOM     31  N   UNL A   1      41.744  29.194  32.315  1.00  0.00    -0.354 N 
ATOM     32  N   UNL A   1      41.273  30.995  34.585  1.00  0.00    -0.248 NA
ATOM     33  C   UNL A   1      41.826  31.751  36.723  1.00  0.00     0.031 C 
ATOM     34  C   UNL A   1      43.529  27.871  32.381  1.00  0.00     0.029 A 
ATOM     35  C   UNL A   1      42.838  28.843  33.087  1.00  0.00     0.049 A 
ATOM     36  H   UNL A   1      41.064  29.861  32.565  1.00  0.00     0.167 HD
ATOM     37  C   UNL A   1      42.425  30.348  35.014  1.00  0.00     0.074 A 
ATOM     38  C   UNL A   1      42.738  30.873  36.325  1.00  0.00     0.031 C 
ATOM     39  C   UNL A   1      43.153  29.402  34.376  1.00  0.00     0.037 A 
BRANCH  26  40
ATOM     40  C   UNL A   1      40.915  27.688  28.899  1.00  0.00     0.064 A 
ATOM     41  C   UNL A   1      40.126  26.541  28.724  1.00  0.00     0.173 A 
ATOM     42  C   UNL A   1      41.781  28.055  27.858  1.00  0.00     0.173 A 
ATOM     43  F   UNL A   1      39.289  26.142  29.695  1.00  0.00    -0.203 F 
ATOM     44  C   UNL A   1      40.201  25.793  27.553  1.00  0.00     0.198 A 
ATOM     45  C   UNL A   1      41.831  27.321  26.677  1.00  0.00     0.198 A 
ATOM     46  F   UNL A   1      42.551  29.147  27.973  1.00  0.00    -0.203 F 
ATOM     47  F   UNL A   1      39.455  24.688  27.418  1.00  0.00    -0.200 F 
ATOM     48  C   UNL A   1      41.042  26.191  26.526  1.00  0.00     0.200 A 
ATOM     49  F   UNL A   1      42.631  27.718  25.676  1.00  0.00    -0.200 F 
ATOM     50  F   UNL A   1      41.090  25.486  25.386  1.00  0.00    -0.200 F 
ENDBRANCH  26  40
BRANCH  27  51
ATOM     51  C   UNL A   1      39.621  33.694  36.784  1.00  0.00     0.064 A 
ATOM     52  C   UNL A   1      40.249  34.945  36.826  1.00  0.00     0.173 A 
ATOM     53  C   UNL A   1      38.826  33.329  37.882  1.00  0.00     0.173 A 
ATOM     54  F   UNL A   1      41.036  35.334  35.810  1.00  0.00    -0.203 F 
ATOM     55  C   UNL A   1      40.107  35.789  37.926  1.00  0.00     0.198 A 
ATOM     56  C   UNL A   1      38.659  34.187  38.968  1.00  0.00     0.198 A 
ATOM     57  F   UNL A   1      38.198  32.144  37.893  1.00  0.00    -0.203 F 
ATOM     58  F   UNL A   1      40.757  36.961  37.958  1.00  0.00    -0.200 F 
ATOM     59  C   UNL A   1      39.306  35.413  38.992  1.00  0.00     0.200 A 
ATOM     60  F   UNL A   1      37.870  33.826  39.989  1.00  0.00    -0.200 F 
ATOM     61  F   UNL A   1      39.163  36.227  40.046  1.00  0.00    -0.200 F 
ENDBRANCH  27  51
BRANCH  39  62
ATOM     62  C   UNL A   1      44.388  28.880  35.049  1.00  0.00     0.064 A 
ATOM     63  C   UNL A   1      45.621  29.532  34.918  1.00  0.00     0.173 A 
ATOM     64  C   UNL A   1      44.299  27.809  35.953  1.00  0.00     0.173 A 
ATOM     65  F   UNL A   1      45.756  30.556  34.061  1.00  0.00    -0.203 F 
ATOM     66  C   UNL A   1      46.720  29.135  35.674  1.00  0.00     0.198 A 
ATOM     67  C   UNL A   1      45.392  27.434  36.727  1.00  0.00     0.198 A 
ATOM     68  F   UNL A   1      43.135  27.162  36.122  1.00  0.00    -0.203 F 
ATOM     69  F   UNL A   1      47.893  29.766  35.528  1.00  0.00    -0.200 F 
ATOM     70  C   UNL A   1      46.601  28.098  36.589  1.00  0.00     0.200 A 
ATOM     71  F   UNL A   1      45.268  26.449  37.627  1.00  0.00    -0.200 F 
ATOM     72  F   UNL A   1      47.650  27.745  37.343  1.00  0.00    -0.200 F 
ENDBRANCH  39  62
ENDBRANCH  13  14
ENDBRANCH   6   8
ENDBRANCH   3   4
ENDBRANCH   2   3
ENDBRANCH   1   2
BRANCH   1  73
ATOM     73  C   UNL A   1      32.830  29.887  25.790  1.00  0.00     0.116 C 
BRANCH  73  74
ATOM     74  N   UNL A   1      33.026  29.851  24.349  1.00  0.00    -0.349 N 
ATOM     75  C   UNL A   1      33.078  28.745  23.516  1.00  0.00     0.289 C 
ATOM     76  H   UNL A   1      33.137  30.726  23.909  1.00  0.00     0.163 HD
ATOM     77  O   UNL A   1      33.360  28.912  22.329  1.00  0.00    -0.266 OA
BRANCH  75  78
ATOM     78  C   UNL A   1      32.830  27.373  24.078  1.00  0.00     0.220 A 
ATOM     79  N   UNL A   1      33.924  26.657  24.385  1.00  0.00    -0.206 NA
ATOM     80  N   UNL A   1      31.560  27.081  24.417  1.00  0.00    -0.224 NA
ATOM     81  C   UNL A   1      33.729  25.583  25.156  1.00  0.00     0.138 A 
ATOM     82  C   UNL A   1      31.381  25.980  25.145  1.00  0.00     0.077 A 
ATOM     83  C   UNL A   1      32.441  25.161  25.549  1.00  0.00     0.043 A 
ATOM     84  C   UNL A   1      30.094  25.668  25.568  1.00  0.00     0.029 A 
ATOM     85  C   UNL A   1      32.166  24.014  26.339  1.00  0.00     0.014 A 
ATOM     86  C   UNL A   1      29.830  24.556  26.371  1.00  0.00     0.002 A 
ATOM     87  C   UNL A   1      30.869  23.719  26.750  1.00  0.00     0.001 A 
BRANCH  81  88
ATOM     88  N   UNL A   1      34.835  24.923  25.666  1.00  0.00    -0.368 N 
ATOM     89  H   UNL A   1      35.057  25.074  26.613  1.00  0.00     0.162 HD
BRANCH  88  90
ATOM     90  C   UNL A   1      35.703  24.016  24.906  1.00  0.00     0.127 C 
BRANCH  90  91
ATOM     91  C   UNL A   1      35.254  22.498  25.067  1.00  0.00     0.070 C 
ATOM     92  C   UNL A   1      34.146  22.138  24.042  1.00  0.00    -0.035 A 
ATOM     93  C   UNL A   1      36.450  21.498  25.202  1.00  0.00    -0.025 A 
ATOM     94  C   UNL A   1      33.841  22.944  22.929  1.00  0.00     0.005 A 
ATOM     95  C   UNL A   1      33.329  21.007  24.237  1.00  0.00    -0.034 A 
ATOM     96  C   UNL A   1      36.412  20.099  24.994  1.00  0.00     0.011 A 
ATOM     97  C   UNL A   1      37.711  22.021  25.610  1.00  0.00     0.005 A 
ATOM     98  C   UNL A   1      32.793  22.655  22.050  1.00  0.00     0.000 A 
ATOM     99  C   UNL A   1      32.287  20.704  23.332  1.00  0.00     0.005 A 
ATOM    100  C   UNL A   1      33.625  20.031  25.335  1.00  0.00     0.110 C 
ATOM    101  S   UNL A   1      35.007  18.999  24.810  1.00  0.00    -0.121 SA
ATOM    102  C   UNL A   1      37.622  19.361  24.979  1.00  0.00     0.015 A 
ATOM    103  C   UNL A   1      38.893  21.276  25.608  1.00  0.00     0.000 A 
ATOM    104  C   UNL A   1      32.017  21.528  22.248  1.00  0.00     0.000 A 
ATOM    105  C   UNL A   1      38.854  19.944  25.253  1.00  0.00     0.001 A 
ENDBRANCH  90  91
ENDBRANCH  88  90
ENDBRANCH  81  88
ENDBRANCH  75  78
ENDBRANCH  73  74
ENDBRANCH   1  73
TORSDOF 14
ENDMDL
