MODEL 1
REMARK VINA RESULT:     -11.0      0.000      0.000
REMARK SMILES CC[NH+](CC)CC[N@H+]1CC[C@@H](C(=O)NCCCCNC(=O)c2ccc(-c3c4nc(c(-c5c(F)c(F)c(F)c(F)c5F)c5ccc([nH]5)c(-c5c(F)c(F)c(F)c(F)c5F)c5nc(c(-c6c(F)c(F)c(F)c(F)c6F)c6ccc3[nH]6)C=C5)C=C4)cc2)[C@@H]1C
REMARK SMILES IDX 15 1 14 2 12 3 13 4 11 6 8 7 9 8 85 9 10 11 86 12 7 13 6 14
REMARK SMILES IDX 3 15 2 17 1 18 4 19 5 20 16 21 17 22 18 23 19 24 20 25 21 27
REMARK SMILES IDX 22 28 23 29 84 30 24 31 83 32 25 33 26 34 27 35 77 36 28 37
REMARK SMILES IDX 82 38 76 39 78 40 29 41 81 42 75 43 74 44 30 46 62 47 42 48
REMARK SMILES IDX 61 49 43 50 46 51 60 52 79 53 44 54 45 55 59 57 80 58 47 59
REMARK SMILES IDX 31 60 32 61 40 62 33 63 34 64 38 65 41 66 35 67 36 68 39 69
REMARK SMILES IDX 37 70 63 71 64 72 72 73 65 74 66 75 70 76 73 77 67 78 68 79
REMARK SMILES IDX 71 80 69 81 48 82 49 83 57 84 50 85 51 86 55 87 58 88 52 89
REMARK SMILES IDX 53 90 56 91 54 92
REMARK H PARENT 14 5 8 10 3 16 19 26 78 45 46 56
REMARK Flexibility Score: inf
ROOT
ATOM      1  C   UNL A   1      33.312  30.364  26.495  1.00  0.00     0.116 C 
ENDROOT
BRANCH   1   2
ATOM      2  N   UNL A   1      33.728  29.595  25.342  1.00  0.00    -0.356 N 
ATOM      3  C   UNL A   1      33.738  28.252  25.122  1.00  0.00     0.229 C 
ATOM      4  O   UNL A   1      34.131  27.875  24.013  1.00  0.00    -0.275 OA
ATOM      5  H   UNL A   1      34.062  30.135  24.590  1.00  0.00     0.163 HD
BRANCH   3   6
ATOM      6  C   UNL A   1      33.305  27.223  26.163  1.00  0.00     0.142 C 
ATOM      7  N   UNL A   1      31.373  25.780  26.459  1.00  0.00    -0.327 N 
ATOM      8  C   UNL A   1      32.581  24.952  26.452  1.00  0.00     0.263 C 
ATOM      9  C   UNL A   1      31.794  27.194  26.404  1.00  0.00     0.193 C 
ATOM     10  H   UNL A   1      30.858  25.612  27.322  1.00  0.00     0.348 HD
ATOM     11  C   UNL A   1      33.716  25.789  25.885  1.00  0.00     0.081 C 
ATOM     12  C   UNL A   1      31.435  27.862  27.735  1.00  0.00     0.076 C 
BRANCH   7  13
ATOM     13  C   UNL A   1      30.397  25.418  25.421  1.00  0.00     0.324 C 
BRANCH  13  14
ATOM     14  C   UNL A   1      30.107  26.460  24.308  1.00  0.00     0.324 C 
BRANCH  14  15
ATOM     15  N   UNL A   1      31.071  26.708  23.230  1.00  0.00    -0.331 N 
ATOM     16  H   UNL A   1      31.931  26.837  23.764  1.00  0.00     0.348 HD
BRANCH  15  17
ATOM     17  C   UNL A   1      31.368  25.571  22.360  1.00  0.00     0.258 C 
ATOM     18  C   UNL A   1      32.854  25.220  22.332  1.00  0.00     0.071 C 
ENDBRANCH  15  17
BRANCH  15  19
ATOM     19  C   UNL A   1      30.903  27.973  22.510  1.00  0.00     0.258 C 
ATOM     20  C   UNL A   1      29.545  28.661  22.570  1.00  0.00     0.071 C 
ENDBRANCH  15  19
ENDBRANCH  14  15
ENDBRANCH  13  14
ENDBRANCH   7  13
ENDBRANCH   3   6
ENDBRANCH   1   2
BRANCH   1  21
ATOM     21  C   UNL A   1      31.842  30.781  26.429  1.00  0.00     0.023 C 
BRANCH  21  22
ATOM     22  C   UNL A   1      31.529  32.125  27.075  1.00  0.00     0.023 C 
BRANCH  22  23
ATOM     23  C   UNL A   1      32.749  32.917  27.522  1.00  0.00     0.116 C 
BRANCH  23  24
ATOM     24  N   UNL A   1      32.500  34.338  27.721  1.00  0.00    -0.352 N 
ATOM     25  C   UNL A   1      33.167  35.197  28.572  1.00  0.00     0.251 C 
ATOM     26  H   UNL A   1      31.773  34.732  27.186  1.00  0.00     0.163 HD
ATOM     27  O   UNL A   1      32.821  36.356  28.703  1.00  0.00    -0.269 OA
BRANCH  25  28
ATOM     28  C   UNL A   1      34.286  34.649  29.367  1.00  0.00     0.039 A 
ATOM     29  C   UNL A   1      33.998  33.863  30.484  1.00  0.00     0.014 A 
ATOM     30  C   UNL A   1      35.602  34.824  28.934  1.00  0.00     0.014 A 
ATOM     31  C   UNL A   1      35.032  33.177  31.121  1.00  0.00     0.010 A 
ATOM     32  C   UNL A   1      36.617  34.078  29.520  1.00  0.00     0.010 A 
ATOM     33  C   UNL A   1      36.341  33.244  30.614  1.00  0.00    -0.014 A 
BRANCH  33  34
ATOM     34  C   UNL A   1      37.443  32.453  31.211  1.00  0.00     0.031 A 
ATOM     35  C   UNL A   1      37.932  32.781  32.592  1.00  0.00     0.074 A 
ATOM     36  C   UNL A   1      38.054  31.500  30.483  1.00  0.00     0.049 A 
ATOM     37  N   UNL A   1      38.938  32.275  33.258  1.00  0.00    -0.248 NA
ATOM     38  C   UNL A   1      37.214  33.850  33.305  1.00  0.00     0.031 C 
ATOM     39  C   UNL A   1      37.703  31.122  29.114  1.00  0.00     0.029 A 
ATOM     40  N   UNL A   1      39.109  30.679  30.794  1.00  0.00    -0.354 N 
ATOM     41  C   UNL A   1      38.984  32.976  34.454  1.00  0.00     0.074 A 
ATOM     42  C   UNL A   1      37.945  33.981  34.399  1.00  0.00     0.031 C 
ATOM     43  C   UNL A   1      38.505  30.121  28.715  1.00  0.00     0.029 A 
ATOM     44  C   UNL A   1      39.447  29.811  29.785  1.00  0.00     0.049 A 
ATOM     45  H   UNL A   1      39.579  30.709  31.659  1.00  0.00     0.167 HD
ATOM     46  C   UNL A   1      39.802  32.781  35.517  1.00  0.00     0.037 A 
ATOM     47  C   UNL A   1      40.408  28.869  29.735  1.00  0.00     0.037 A 
ATOM     48  C   UNL A   1      40.811  31.759  35.580  1.00  0.00     0.049 A 
ATOM     49  C   UNL A   1      41.305  28.671  30.926  1.00  0.00     0.074 A 
ATOM     50  C   UNL A   1      41.650  31.436  36.632  1.00  0.00     0.029 A 
ATOM     51  N   UNL A   1      41.116  30.889  34.543  1.00  0.00    -0.354 N 
ATOM     52  N   UNL A   1      41.302  29.298  32.076  1.00  0.00    -0.248 NA
ATOM     53  C   UNL A   1      42.337  27.632  30.809  1.00  0.00     0.031 C 
ATOM     54  C   UNL A   1      42.485  30.392  36.220  1.00  0.00     0.029 A 
ATOM     55  C   UNL A   1      42.142  30.040  34.924  1.00  0.00     0.049 A 
ATOM     56  H   UNL A   1      40.670  30.878  33.666  1.00  0.00     0.167 HD
ATOM     57  C   UNL A   1      42.308  28.713  32.832  1.00  0.00     0.074 A 
ATOM     58  C   UNL A   1      42.897  27.676  32.010  1.00  0.00     0.031 C 
ATOM     59  C   UNL A   1      42.707  29.006  34.094  1.00  0.00     0.037 A 
BRANCH  46  60
ATOM     60  C   UNL A   1      39.623  33.696  36.692  1.00  0.00     0.064 A 
ATOM     61  C   UNL A   1      38.836  33.329  37.795  1.00  0.00     0.173 A 
ATOM     62  C   UNL A   1      40.234  34.958  36.713  1.00  0.00     0.173 A 
ATOM     63  F   UNL A   1      38.215  32.139  37.815  1.00  0.00    -0.203 F 
ATOM     64  C   UNL A   1      38.632  34.207  38.855  1.00  0.00     0.198 A 
ATOM     65  C   UNL A   1      40.053  35.822  37.789  1.00  0.00     0.198 A 
ATOM     66  F   UNL A   1      40.999  35.357  35.685  1.00  0.00    -0.203 F 
ATOM     67  F   UNL A   1      37.823  33.860  39.865  1.00  0.00    -0.200 F 
ATOM     68  C   UNL A   1      39.244  35.452  38.854  1.00  0.00     0.200 A 
ATOM     69  F   UNL A   1      40.652  37.022  37.791  1.00  0.00    -0.200 F 
ATOM     70  F   UNL A   1      39.043  36.299  39.871  1.00  0.00    -0.200 F 
ENDBRANCH  46  60
BRANCH  47  71
ATOM     71  C   UNL A   1      40.533  28.006  28.534  1.00  0.00     0.064 A 
ATOM     72  C   UNL A   1      39.856  26.780  28.467  1.00  0.00     0.173 A 
ATOM     73  C   UNL A   1      41.312  28.385  27.431  1.00  0.00     0.173 A 
ATOM     74  F   UNL A   1      39.116  26.368  29.507  1.00  0.00    -0.203 F 
ATOM     75  C   UNL A   1      39.961  25.961  27.346  1.00  0.00     0.198 A 
ATOM     76  C   UNL A   1      41.398  27.574  26.302  1.00  0.00     0.198 A 
ATOM     77  F   UNL A   1      41.975  29.551  27.447  1.00  0.00    -0.203 F 
ATOM     78  F   UNL A   1      39.328  24.780  27.320  1.00  0.00    -0.200 F 
ATOM     79  C   UNL A   1      40.726  26.361  26.261  1.00  0.00     0.200 A 
ATOM     80  F   UNL A   1      42.130  27.969  25.251  1.00  0.00    -0.200 F 
ATOM     81  F   UNL A   1      40.821  25.576  25.180  1.00  0.00    -0.200 F 
ENDBRANCH  47  71
BRANCH  59  82
ATOM     82  C   UNL A   1      43.807  28.171  34.676  1.00  0.00     0.064 A 
ATOM     83  C   UNL A   1      45.149  28.571  34.605  1.00  0.00     0.173 A 
ATOM     84  C   UNL A   1      43.509  26.979  35.352  1.00  0.00     0.173 A 
ATOM     85  F   UNL A   1      45.484  29.696  33.955  1.00  0.00    -0.203 F 
ATOM     86  C   UNL A   1      46.156  27.796  35.174  1.00  0.00     0.198 A 
ATOM     87  C   UNL A   1      44.515  26.218  35.941  1.00  0.00     0.198 A 
ATOM     88  F   UNL A   1      42.239  26.557  35.451  1.00  0.00    -0.203 F 
ATOM     89  F   UNL A   1      47.436  28.175  35.059  1.00  0.00    -0.200 F 
ATOM     90  C   UNL A   1      45.838  26.625  35.846  1.00  0.00     0.200 A 
ATOM     91  F   UNL A   1      44.206  25.094  36.599  1.00  0.00    -0.200 F 
ATOM     92  F   UNL A   1      46.808  25.884  36.399  1.00  0.00    -0.200 F 
ENDBRANCH  59  82
ENDBRANCH  33  34
ENDBRANCH  25  28
ENDBRANCH  23  24
ENDBRANCH  22  23
ENDBRANCH  21  22
ENDBRANCH   1  21
TORSDOF 16
ENDMDL
MODEL 2
REMARK VINA RESULT:     -10.9      0.836      2.245
REMARK SMILES CC[NH+](CC)CC[N@H+]1CC[C@@H](C(=O)NCCCCNC(=O)c2ccc(-c3c4nc(c(-c5c(F)c(F)c(F)c(F)c5F)c5ccc([nH]5)c(-c5c(F)c(F)c(F)c(F)c5F)c5nc(c(-c6c(F)c(F)c(F)c(F)c6F)c6ccc3[nH]6)C=C5)C=C4)cc2)[C@@H]1C
REMARK SMILES IDX 15 1 14 2 12 3 13 4 11 6 8 7 9 8 85 9 10 11 86 12 7 13 6 14
REMARK SMILES IDX 3 15 2 17 1 18 4 19 5 20 16 21 17 22 18 23 19 24 20 25 21 27
REMARK SMILES IDX 22 28 23 29 84 30 24 31 83 32 25 33 26 34 27 35 77 36 28 37
REMARK SMILES IDX 82 38 76 39 78 40 29 41 81 42 75 43 74 44 30 46 62 47 42 48
REMARK SMILES IDX 61 49 43 50 46 51 60 52 79 53 44 54 45 55 59 57 80 58 47 59
REMARK SMILES IDX 31 60 32 61 40 62 33 63 34 64 38 65 41 66 35 67 36 68 39 69
REMARK SMILES IDX 37 70 63 71 64 72 72 73 65 74 66 75 70 76 73 77 67 78 68 79
REMARK SMILES IDX 71 80 69 81 48 82 49 83 57 84 50 85 51 86 55 87 58 88 52 89
REMARK SMILES IDX 53 90 56 91 54 92
REMARK H PARENT 14 5 8 10 3 16 19 26 78 45 46 56
REMARK Flexibility Score: inf
ROOT
ATOM      1  C   UNL A   1      33.091  29.846  26.525  1.00  0.00     0.116 C 
ENDROOT
BRANCH   1   2
ATOM      2  N   UNL A   1      33.211  29.543  25.114  1.00  0.00    -0.356 N 
ATOM      3  C   UNL A   1      32.405  28.828  24.284  1.00  0.00     0.229 C 
ATOM      4  O   UNL A   1      32.751  28.757  23.100  1.00  0.00    -0.275 OA
ATOM      5  H   UNL A   1      34.013  29.918  24.683  1.00  0.00     0.163 HD
BRANCH   3   6
ATOM      6  C   UNL A   1      31.132  28.123  24.745  1.00  0.00     0.142 C 
ATOM      7  N   UNL A   1      29.974  26.079  24.125  1.00  0.00    -0.327 N 
ATOM      8  C   UNL A   1      30.265  26.037  25.561  1.00  0.00     0.263 C 
ATOM      9  C   UNL A   1      30.388  27.402  23.619  1.00  0.00     0.193 C 
ATOM     10  H   UNL A   1      28.972  25.958  23.984  1.00  0.00     0.348 HD
ATOM     11  C   UNL A   1      31.308  27.103  25.855  1.00  0.00     0.081 C 
ATOM     12  C   UNL A   1      29.135  28.178  23.201  1.00  0.00     0.076 C 
BRANCH   7  13
ATOM     13  C   UNL A   1      30.546  24.955  23.369  1.00  0.00     0.324 C 
BRANCH  13  14
ATOM     14  C   UNL A   1      31.959  25.144  22.755  1.00  0.00     0.324 C 
BRANCH  14  15
ATOM     15  N   UNL A   1      32.919  24.036  22.703  1.00  0.00    -0.331 N 
ATOM     16  H   UNL A   1      33.108  23.988  21.702  1.00  0.00     0.348 HD
BRANCH  15  17
ATOM     17  C   UNL A   1      34.232  24.297  23.292  1.00  0.00     0.258 C 
ATOM     18  C   UNL A   1      34.173  25.283  24.456  1.00  0.00     0.071 C 
ENDBRANCH  15  17
BRANCH  15  19
ATOM     19  C   UNL A   1      32.379  22.713  23.030  1.00  0.00     0.258 C 
ATOM     20  C   UNL A   1      33.254  21.757  23.831  1.00  0.00     0.071 C 
ENDBRANCH  15  19
ENDBRANCH  14  15
ENDBRANCH  13  14
ENDBRANCH   7  13
ENDBRANCH   3   6
ENDBRANCH   1   2
BRANCH   1  21
ATOM     21  C   UNL A   1      31.779  30.550  26.869  1.00  0.00     0.023 C 
BRANCH  21  22
ATOM     22  C   UNL A   1      31.769  32.051  26.604  1.00  0.00     0.023 C 
BRANCH  22  23
ATOM     23  C   UNL A   1      32.811  32.842  27.381  1.00  0.00     0.116 C 
BRANCH  23  24
ATOM     24  N   UNL A   1      32.410  34.205  27.702  1.00  0.00    -0.352 N 
ATOM     25  C   UNL A   1      32.977  35.048  28.636  1.00  0.00     0.251 C 
ATOM     26  H   UNL A   1      31.648  34.566  27.195  1.00  0.00     0.163 HD
ATOM     27  O   UNL A   1      32.508  36.147  28.866  1.00  0.00    -0.269 OA
BRANCH  25  28
ATOM     28  C   UNL A   1      34.145  34.552  29.396  1.00  0.00     0.039 A 
ATOM     29  C   UNL A   1      33.934  33.942  30.633  1.00  0.00     0.014 A 
ATOM     30  C   UNL A   1      35.419  34.595  28.825  1.00  0.00     0.014 A 
ATOM     31  C   UNL A   1      34.996  33.293  31.263  1.00  0.00     0.010 A 
ATOM     32  C   UNL A   1      36.454  33.880  29.415  1.00  0.00     0.010 A 
ATOM     33  C   UNL A   1      36.251  33.219  30.636  1.00  0.00    -0.014 A 
BRANCH  33  34
ATOM     34  C   UNL A   1      37.372  32.456  31.235  1.00  0.00     0.031 A 
ATOM     35  C   UNL A   1      37.867  32.816  32.606  1.00  0.00     0.074 A 
ATOM     36  C   UNL A   1      37.993  31.503  30.516  1.00  0.00     0.049 A 
ATOM     37  N   UNL A   1      38.887  32.338  33.270  1.00  0.00    -0.248 NA
ATOM     38  C   UNL A   1      37.137  33.883  33.308  1.00  0.00     0.031 C 
ATOM     39  C   UNL A   1      37.636  31.097  29.157  1.00  0.00     0.029 A 
ATOM     40  N   UNL A   1      39.065  30.706  30.831  1.00  0.00    -0.354 N 
ATOM     41  C   UNL A   1      38.932  33.058  34.455  1.00  0.00     0.074 A 
ATOM     42  C   UNL A   1      37.875  34.044  34.394  1.00  0.00     0.031 C 
ATOM     43  C   UNL A   1      38.452  30.104  28.766  1.00  0.00     0.029 A 
ATOM     44  C   UNL A   1      39.409  29.828  29.833  1.00  0.00     0.049 A 
ATOM     45  H   UNL A   1      39.542  30.757  31.691  1.00  0.00     0.167 HD
ATOM     46  C   UNL A   1      39.762  32.894  35.513  1.00  0.00     0.037 A 
ATOM     47  C   UNL A   1      40.385  28.902  29.789  1.00  0.00     0.037 A 
ATOM     48  C   UNL A   1      40.790  31.891  35.584  1.00  0.00     0.049 A 
ATOM     49  C   UNL A   1      41.296  28.738  30.975  1.00  0.00     0.074 A 
ATOM     50  C   UNL A   1      41.643  31.600  36.633  1.00  0.00     0.029 A 
ATOM     51  N   UNL A   1      41.100  31.010  34.558  1.00  0.00    -0.354 N 
ATOM     52  N   UNL A   1      41.293  29.383  32.115  1.00  0.00    -0.248 NA
ATOM     53  C   UNL A   1      42.346  27.715  30.865  1.00  0.00     0.031 C 
ATOM     54  C   UNL A   1      42.493  30.564  36.229  1.00  0.00     0.029 A 
ATOM     55  C   UNL A   1      42.145  30.185  34.943  1.00  0.00     0.049 A 
ATOM     56  H   UNL A   1      40.647  30.978  33.685  1.00  0.00     0.167 HD
ATOM     57  C   UNL A   1      42.316  28.828  32.871  1.00  0.00     0.074 A 
ATOM     58  C   UNL A   1      42.915  27.788  32.060  1.00  0.00     0.031 C 
ATOM     59  C   UNL A   1      42.720  29.148  34.124  1.00  0.00     0.037 A 
BRANCH  46  60
ATOM     60  C   UNL A   1      39.578  33.824  36.675  1.00  0.00     0.064 A 
ATOM     61  C   UNL A   1      40.194  35.084  36.712  1.00  0.00     0.173 A 
ATOM     62  C   UNL A   1      38.786  33.450  37.771  1.00  0.00     0.173 A 
ATOM     63  F   UNL A   1      40.977  35.483  35.696  1.00  0.00    -0.203 F 
ATOM     64  C   UNL A   1      40.061  35.917  37.819  1.00  0.00     0.198 A 
ATOM     65  C   UNL A   1      38.629  34.298  38.863  1.00  0.00     0.198 A 
ATOM     66  F   UNL A   1      38.172  32.256  37.786  1.00  0.00    -0.203 F 
ATOM     67  F   UNL A   1      40.713  37.087  37.859  1.00  0.00    -0.200 F 
ATOM     68  C   UNL A   1      39.275  35.525  38.893  1.00  0.00     0.200 A 
ATOM     69  F   UNL A   1      37.863  33.921  39.897  1.00  0.00    -0.200 F 
ATOM     70  F   UNL A   1      39.152  36.323  39.961  1.00  0.00    -0.200 F 
ENDBRANCH  46  60
BRANCH  47  71
ATOM     71  C   UNL A   1      40.515  28.021  28.601  1.00  0.00     0.064 A 
ATOM     72  C   UNL A   1      39.866  26.780  28.563  1.00  0.00     0.173 A 
ATOM     73  C   UNL A   1      41.270  28.400  27.481  1.00  0.00     0.173 A 
ATOM     74  F   UNL A   1      39.149  26.368  29.619  1.00  0.00    -0.203 F 
ATOM     75  C   UNL A   1      39.975  25.944  27.454  1.00  0.00     0.198 A 
ATOM     76  C   UNL A   1      41.361  27.572  26.365  1.00  0.00     0.198 A 
ATOM     77  F   UNL A   1      41.907  29.580  27.469  1.00  0.00    -0.203 F 
ATOM     78  F   UNL A   1      39.369  24.749  27.456  1.00  0.00    -0.200 F 
ATOM     79  C   UNL A   1      40.717  26.344  26.352  1.00  0.00     0.200 A 
ATOM     80  F   UNL A   1      42.070  27.967  25.298  1.00  0.00    -0.200 F 
ATOM     81  F   UNL A   1      40.816  25.543  25.284  1.00  0.00    -0.200 F 
ENDBRANCH  47  71
BRANCH  59  82
ATOM     82  C   UNL A   1      43.840  28.342  34.709  1.00  0.00     0.064 A 
ATOM     83  C   UNL A   1      43.602  27.144  35.397  1.00  0.00     0.173 A 
ATOM     84  C   UNL A   1      45.171  28.751  34.539  1.00  0.00     0.173 A 
ATOM     85  F   UNL A   1      42.345  26.720  35.598  1.00  0.00    -0.203 F 
ATOM     86  C   UNL A   1      44.656  26.394  35.911  1.00  0.00     0.198 A 
ATOM     87  C   UNL A   1      46.225  27.987  35.034  1.00  0.00     0.198 A 
ATOM     88  F   UNL A   1      45.450  29.889  33.884  1.00  0.00    -0.203 F 
ATOM     89  F   UNL A   1      44.404  25.273  36.601  1.00  0.00    -0.200 F 
ATOM     90  C   UNL A   1      45.965  26.813  35.724  1.00  0.00     0.200 A 
ATOM     91  F   UNL A   1      47.489  28.387  34.843  1.00  0.00    -0.200 F 
ATOM     92  F   UNL A   1      46.979  26.086  36.214  1.00  0.00    -0.200 F 
ENDBRANCH  59  82
ENDBRANCH  33  34
ENDBRANCH  25  28
ENDBRANCH  23  24
ENDBRANCH  22  23
ENDBRANCH  21  22
ENDBRANCH   1  21
TORSDOF 16
ENDMDL
MODEL 3
REMARK VINA RESULT:     -10.8      1.224      2.254
REMARK SMILES CC[NH+](CC)CC[N@H+]1CC[C@@H](C(=O)NCCCCNC(=O)c2ccc(-c3c4nc(c(-c5c(F)c(F)c(F)c(F)c5F)c5ccc([nH]5)c(-c5c(F)c(F)c(F)c(F)c5F)c5nc(c(-c6c(F)c(F)c(F)c(F)c6F)c6ccc3[nH]6)C=C5)C=C4)cc2)[C@@H]1C
REMARK SMILES IDX 15 1 14 2 12 3 13 4 11 6 8 7 9 8 85 9 10 11 86 12 7 13 6 14
REMARK SMILES IDX 3 15 2 17 1 18 4 19 5 20 16 21 17 22 18 23 19 24 20 25 21 27
REMARK SMILES IDX 22 28 23 29 84 30 24 31 83 32 25 33 26 34 27 35 77 36 28 37
REMARK SMILES IDX 82 38 76 39 78 40 29 41 81 42 75 43 74 44 30 46 62 47 42 48
REMARK SMILES IDX 61 49 43 50 46 51 60 52 79 53 44 54 45 55 59 57 80 58 47 59
REMARK SMILES IDX 31 60 32 61 40 62 33 63 34 64 38 65 41 66 35 67 36 68 39 69
REMARK SMILES IDX 37 70 63 71 64 72 72 73 65 74 66 75 70 76 73 77 67 78 68 79
REMARK SMILES IDX 71 80 69 81 48 82 49 83 57 84 50 85 51 86 55 87 58 88 52 89
REMARK SMILES IDX 53 90 56 91 54 92
REMARK H PARENT 14 5 8 10 3 16 19 26 78 45 46 56
REMARK Flexibility Score: inf
ROOT
ATOM      1  C   UNL A   1      33.274  29.928  26.725  1.00  0.00     0.116 C 
ENDROOT
BRANCH   1   2
ATOM      2  N   UNL A   1      33.662  29.723  25.346  1.00  0.00    -0.356 N 
ATOM      3  C   UNL A   1      33.495  28.652  24.522  1.00  0.00     0.229 C 
ATOM      4  O   UNL A   1      33.913  28.772  23.366  1.00  0.00    -0.275 OA
ATOM      5  H   UNL A   1      34.126  30.487  24.935  1.00  0.00     0.163 HD
BRANCH   3   6
ATOM      6  C   UNL A   1      32.842  27.345  24.960  1.00  0.00     0.142 C 
ATOM      7  N   UNL A   1      33.104  25.004  24.365  1.00  0.00    -0.327 N 
ATOM      8  C   UNL A   1      33.297  25.145  25.811  1.00  0.00     0.263 C 
ATOM      9  C   UNL A   1      32.703  26.320  23.832  1.00  0.00     0.193 C 
ATOM     10  H   UNL A   1      32.363  24.326  24.193  1.00  0.00     0.348 HD
ATOM     11  C   UNL A   1      33.520  26.620  26.108  1.00  0.00     0.081 C 
ATOM     12  C   UNL A   1      31.254  26.228  23.345  1.00  0.00     0.076 C 
BRANCH   7  13
ATOM     13  C   UNL A   1      34.254  24.412  23.667  1.00  0.00     0.324 C 
BRANCH  13  14
ATOM     14  C   UNL A   1      34.162  22.916  23.264  1.00  0.00     0.324 C 
BRANCH  14  15
ATOM     15  N   UNL A   1      33.734  21.895  24.226  1.00  0.00    -0.331 N 
ATOM     16  H   UNL A   1      33.134  22.446  24.841  1.00  0.00     0.348 HD
BRANCH  15  17
ATOM     17  C   UNL A   1      32.842  20.859  23.708  1.00  0.00     0.258 C 
ATOM     18  C   UNL A   1      31.996  21.340  22.532  1.00  0.00     0.071 C 
ENDBRANCH  15  17
BRANCH  15  19
ATOM     19  C   UNL A   1      34.782  21.381  25.113  1.00  0.00     0.258 C 
ATOM     20  C   UNL A   1      34.738  21.780  26.583  1.00  0.00     0.071 C 
ENDBRANCH  15  19
ENDBRANCH  14  15
ENDBRANCH  13  14
ENDBRANCH   7  13
ENDBRANCH   3   6
ENDBRANCH   1   2
BRANCH   1  21
ATOM     21  C   UNL A   1      31.838  30.434  26.867  1.00  0.00     0.023 C 
BRANCH  21  22
ATOM     22  C   UNL A   1      31.676  31.944  26.737  1.00  0.00     0.023 C 
BRANCH  22  23
ATOM     23  C   UNL A   1      32.777  32.762  27.395  1.00  0.00     0.116 C 
BRANCH  23  24
ATOM     24  N   UNL A   1      32.402  34.136  27.697  1.00  0.00    -0.352 N 
ATOM     25  C   UNL A   1      32.992  34.986  28.611  1.00  0.00     0.251 C 
ATOM     26  H   UNL A   1      31.641  34.501  27.191  1.00  0.00     0.163 HD
ATOM     27  O   UNL A   1      32.543  36.096  28.826  1.00  0.00    -0.269 OA
BRANCH  25  28
ATOM     28  C   UNL A   1      34.158  34.484  29.368  1.00  0.00     0.039 A 
ATOM     29  C   UNL A   1      33.943  33.831  30.582  1.00  0.00     0.014 A 
ATOM     30  C   UNL A   1      35.438  34.564  28.814  1.00  0.00     0.014 A 
ATOM     31  C   UNL A   1      35.007  33.178  31.204  1.00  0.00     0.010 A 
ATOM     32  C   UNL A   1      36.477  33.847  29.393  1.00  0.00     0.010 A 
ATOM     33  C   UNL A   1      36.270  33.144  30.590  1.00  0.00    -0.014 A 
BRANCH  33  34
ATOM     34  C   UNL A   1      37.396  32.379  31.177  1.00  0.00     0.031 A 
ATOM     35  C   UNL A   1      37.896  32.727  32.549  1.00  0.00     0.074 A 
ATOM     36  C   UNL A   1      38.018  31.434  30.447  1.00  0.00     0.049 A 
ATOM     37  N   UNL A   1      38.920  32.246  33.205  1.00  0.00    -0.248 NA
ATOM     38  C   UNL A   1      37.165  33.785  33.264  1.00  0.00     0.031 C 
ATOM     39  C   UNL A   1      37.658  31.041  29.085  1.00  0.00     0.029 A 
ATOM     40  N   UNL A   1      39.094  30.638  30.750  1.00  0.00    -0.354 N 
ATOM     41  C   UNL A   1      38.967  32.955  34.397  1.00  0.00     0.074 A 
ATOM     42  C   UNL A   1      37.906  33.939  34.349  1.00  0.00     0.031 C 
ATOM     43  C   UNL A   1      38.475  30.054  28.682  1.00  0.00     0.029 A 
ATOM     44  C   UNL A   1      39.437  29.771  29.743  1.00  0.00     0.049 A 
ATOM     45  H   UNL A   1      39.574  30.683  31.608  1.00  0.00     0.167 HD
ATOM     46  C   UNL A   1      39.802  32.785  35.451  1.00  0.00     0.037 A 
ATOM     47  C   UNL A   1      40.417  28.849  29.686  1.00  0.00     0.037 A 
ATOM     48  C   UNL A   1      40.833  31.784  35.508  1.00  0.00     0.049 A 
ATOM     49  C   UNL A   1      41.332  28.677  30.867  1.00  0.00     0.074 A 
ATOM     50  C   UNL A   1      41.691  31.486  36.550  1.00  0.00     0.029 A 
ATOM     51  N   UNL A   1      41.143  30.914  34.472  1.00  0.00    -0.354 N 
ATOM     52  N   UNL A   1      41.331  29.312  32.013  1.00  0.00    -0.248 NA
ATOM     53  C   UNL A   1      42.385  27.659  30.743  1.00  0.00     0.031 C 
ATOM     54  C   UNL A   1      42.544  30.457  36.134  1.00  0.00     0.029 A 
ATOM     55  C   UNL A   1      42.191  30.089  34.845  1.00  0.00     0.049 A 
ATOM     56  H   UNL A   1      40.686  30.888  33.600  1.00  0.00     0.167 HD
ATOM     57  C   UNL A   1      42.359  28.752  32.760  1.00  0.00     0.074 A 
ATOM     58  C   UNL A   1      42.959  27.722  31.936  1.00  0.00     0.031 C 
ATOM     59  C   UNL A   1      42.767  29.062  34.014  1.00  0.00     0.037 A 
BRANCH  46  60
ATOM     60  C   UNL A   1      39.618  33.703  36.622  1.00  0.00     0.064 A 
ATOM     61  C   UNL A   1      38.829  33.339  37.723  1.00  0.00     0.173 A 
ATOM     62  C   UNL A   1      40.228  34.966  36.641  1.00  0.00     0.173 A 
ATOM     63  F   UNL A   1      38.208  32.149  37.745  1.00  0.00    -0.203 F 
ATOM     64  C   UNL A   1      38.621  34.221  38.780  1.00  0.00     0.198 A 
ATOM     65  C   UNL A   1      40.044  35.833  37.713  1.00  0.00     0.198 A 
ATOM     66  F   UNL A   1      40.996  35.363  35.614  1.00  0.00    -0.203 F 
ATOM     67  F   UNL A   1      37.809  33.877  39.789  1.00  0.00    -0.200 F 
ATOM     68  C   UNL A   1      39.232  35.466  38.776  1.00  0.00     0.200 A 
ATOM     69  F   UNL A   1      40.642  37.034  37.713  1.00  0.00    -0.200 F 
ATOM     70  F   UNL A   1      39.027  36.317  39.790  1.00  0.00    -0.200 F 
ENDBRANCH  46  60
BRANCH  47  71
ATOM     71  C   UNL A   1      40.545  27.980  28.489  1.00  0.00     0.064 A 
ATOM     72  C   UNL A   1      39.900  26.737  28.442  1.00  0.00     0.173 A 
ATOM     73  C   UNL A   1      41.294  28.372  27.370  1.00  0.00     0.173 A 
ATOM     74  F   UNL A   1      39.189  26.312  29.497  1.00  0.00    -0.203 F 
ATOM     75  C   UNL A   1      40.008  25.912  27.324  1.00  0.00     0.198 A 
ATOM     76  C   UNL A   1      41.383  27.555  26.245  1.00  0.00     0.198 A 
ATOM     77  F   UNL A   1      41.926  29.555  27.367  1.00  0.00    -0.203 F 
ATOM     78  F   UNL A   1      39.406  24.715  27.318  1.00  0.00    -0.200 F 
ATOM     79  C   UNL A   1      40.744  26.324  26.224  1.00  0.00     0.200 A 
ATOM     80  F   UNL A   1      42.087  27.962  25.180  1.00  0.00    -0.200 F 
ATOM     81  F   UNL A   1      40.841  25.535  25.147  1.00  0.00    -0.200 F 
ENDBRANCH  47  71
BRANCH  59  82
ATOM     82  C   UNL A   1      43.892  28.254  34.588  1.00  0.00     0.064 A 
ATOM     83  C   UNL A   1      43.662  27.045  35.257  1.00  0.00     0.173 A 
ATOM     84  C   UNL A   1      45.221  28.675  34.425  1.00  0.00     0.173 A 
ATOM     85  F   UNL A   1      42.407  26.610  35.451  1.00  0.00    -0.203 F 
ATOM     86  C   UNL A   1      44.720  26.294  35.760  1.00  0.00     0.198 A 
ATOM     87  C   UNL A   1      46.279  27.910  34.908  1.00  0.00     0.198 A 
ATOM     88  F   UNL A   1      45.493  29.824  33.786  1.00  0.00    -0.203 F 
ATOM     89  F   UNL A   1      44.475  25.161  36.433  1.00  0.00    -0.200 F 
ATOM     90  C   UNL A   1      46.027  26.724  35.580  1.00  0.00     0.200 A 
ATOM     91  F   UNL A   1      47.540  28.320  34.723  1.00  0.00    -0.200 F 
ATOM     92  F   UNL A   1      47.045  25.996  36.059  1.00  0.00    -0.200 F 
ENDBRANCH  59  82
ENDBRANCH  33  34
ENDBRANCH  25  28
ENDBRANCH  23  24
ENDBRANCH  22  23
ENDBRANCH  21  22
ENDBRANCH   1  21
TORSDOF 16
ENDMDL
