MODEL 1
REMARK VINA RESULT:     -15.0      0.000      0.000
REMARK SMILES O=C(NCCCCNC(=O)c1ccc2c(c1)NC1=[NH+]S(=O)(=O)[NH+]=C1N2)c1ccc(-c2c3nc(c(-c4c(F)c(F)c(F)c(F)c4F)c4ccc([nH]4)c(-c4c(F)c(F)c(F)c(F)c4F)c4nc(c(-c5c(F)c(F)c(F)c(F)c5F)c5ccc2[nH]5)C=C4)C=C3)cc1
REMARK SMILES IDX 4 1 3 2 1 3 2 4 26 6 27 7 88 8 28 9 87 10 29 11 30 12 31 13
REMARK SMILES IDX 81 14 32 15 86 16 80 17 82 18 33 19 85 20 79 21 78 22 34 24
REMARK SMILES IDX 66 25 46 26 65 27 47 28 50 29 64 30 83 31 48 32 49 33 63 35
REMARK SMILES IDX 84 36 51 37 35 38 36 39 44 40 37 41 38 42 42 43 45 44 39 45
REMARK SMILES IDX 40 46 43 47 41 48 67 49 68 50 76 51 69 52 70 53 74 54 77 55
REMARK SMILES IDX 71 56 72 57 75 58 73 59 52 60 53 61 61 62 54 63 55 64 59 65
REMARK SMILES IDX 62 66 56 67 57 68 60 69 58 70 5 71 6 72 7 73 8 74 9 75 10 77
REMARK SMILES IDX 11 78 12 79 16 80 13 81 15 82 14 83 17 84 25 85 18 86 24 88
REMARK SMILES IDX 19 90 23 91 20 92 21 95 22 96
REMARK H PARENT 3 5 82 23 50 34 8 76 17 87 25 89 19 93 23 94
REMARK Flexibility Score: inf
ROOT
ATOM      1  C   UNL A   1      37.670  23.729  25.741  1.00  0.00     0.116 C 
ENDROOT
BRANCH   1   2
ATOM      2  N   UNL A   1      38.409  22.632  26.384  1.00  0.00    -0.352 N 
ATOM      3  O   UNL A   1      40.317  21.700  27.222  1.00  0.00    -0.269 OA
ATOM      4  C   UNL A   1      39.625  22.695  27.061  1.00  0.00     0.251 C 
ATOM      5  H   UNL A   1      37.992  21.741  26.328  1.00  0.00     0.163 HD
BRANCH   4   6
ATOM      6  C   UNL A   1      40.055  23.997  27.605  1.00  0.00     0.039 A 
ATOM      7  C   UNL A   1      41.363  24.310  27.975  1.00  0.00     0.014 A 
ATOM      8  C   UNL A   1      39.069  24.963  27.689  1.00  0.00     0.014 A 
ATOM      9  C   UNL A   1      41.610  25.604  28.434  1.00  0.00     0.010 A 
ATOM     10  C   UNL A   1      39.431  26.267  27.653  1.00  0.00     0.010 A 
ATOM     11  C   UNL A   1      40.604  26.576  28.287  1.00  0.00    -0.014 A 
BRANCH  11  12
ATOM     12  C   UNL A   1      40.723  27.950  28.740  1.00  0.00     0.031 A 
ATOM     13  C   UNL A   1      41.895  28.625  28.168  1.00  0.00     0.074 A 
ATOM     14  C   UNL A   1      39.792  28.591  29.488  1.00  0.00     0.049 A 
ATOM     15  N   UNL A   1      43.013  28.843  28.768  1.00  0.00    -0.248 NA
ATOM     16  C   UNL A   1      41.919  28.886  26.722  1.00  0.00     0.031 C 
ATOM     17  C   UNL A   1      38.444  28.157  29.887  1.00  0.00     0.029 A 
ATOM     18  N   UNL A   1      39.863  29.837  30.036  1.00  0.00    -0.354 N 
ATOM     19  C   UNL A   1      43.819  29.473  27.835  1.00  0.00     0.074 A 
ATOM     20  C   UNL A   1      43.181  29.287  26.558  1.00  0.00     0.031 C 
ATOM     21  C   UNL A   1      37.763  29.192  30.432  1.00  0.00     0.029 A 
ATOM     22  C   UNL A   1      38.674  30.308  30.588  1.00  0.00     0.049 A 
ATOM     23  H   UNL A   1      40.693  30.366  30.040  1.00  0.00     0.167 HD
ATOM     24  C   UNL A   1      44.794  30.322  28.256  1.00  0.00     0.037 A 
ATOM     25  C   UNL A   1      38.475  31.528  31.152  1.00  0.00     0.037 A 
ATOM     26  C   UNL A   1      45.060  30.131  29.664  1.00  0.00     0.049 A 
ATOM     27  C   UNL A   1      39.813  32.030  31.548  1.00  0.00     0.074 A 
ATOM     28  C   UNL A   1      45.545  29.091  30.433  1.00  0.00     0.029 A 
ATOM     29  N   UNL A   1      44.402  30.969  30.530  1.00  0.00    -0.354 N 
ATOM     30  N   UNL A   1      40.543  31.488  32.482  1.00  0.00    -0.248 NA
ATOM     31  C   UNL A   1      40.531  32.854  30.590  1.00  0.00     0.031 C 
ATOM     32  C   UNL A   1      44.795  29.138  31.647  1.00  0.00     0.029 A 
ATOM     33  C   UNL A   1      43.942  30.243  31.596  1.00  0.00     0.049 A 
ATOM     34  H   UNL A   1      44.282  31.938  30.404  1.00  0.00     0.167 HD
ATOM     35  C   UNL A   1      41.838  31.534  31.988  1.00  0.00     0.074 A 
ATOM     36  C   UNL A   1      41.780  32.475  30.870  1.00  0.00     0.031 C 
ATOM     37  C   UNL A   1      42.755  30.589  32.350  1.00  0.00     0.037 A 
BRANCH  24  38
ATOM     38  C   UNL A   1      45.177  31.586  27.529  1.00  0.00     0.064 A 
ATOM     39  C   UNL A   1      46.479  31.696  27.004  1.00  0.00     0.173 A 
ATOM     40  C   UNL A   1      44.442  32.790  27.586  1.00  0.00     0.173 A 
ATOM     41  F   UNL A   1      47.278  30.621  26.928  1.00  0.00    -0.203 F 
ATOM     42  C   UNL A   1      47.024  32.928  26.635  1.00  0.00     0.198 A 
ATOM     43  C   UNL A   1      44.971  34.009  27.167  1.00  0.00     0.198 A 
ATOM     44  F   UNL A   1      43.233  32.869  28.151  1.00  0.00    -0.203 F 
ATOM     45  F   UNL A   1      48.309  33.001  26.261  1.00  0.00    -0.200 F 
ATOM     46  C   UNL A   1      46.272  34.084  26.721  1.00  0.00     0.200 A 
ATOM     47  F   UNL A   1      44.231  35.121  27.284  1.00  0.00    -0.200 F 
ATOM     48  F   UNL A   1      46.810  35.274  26.426  1.00  0.00    -0.200 F 
ENDBRANCH  24  38
BRANCH  25  49
ATOM     49  C   UNL A   1      37.310  32.443  31.012  1.00  0.00     0.064 A 
ATOM     50  C   UNL A   1      37.044  33.084  29.788  1.00  0.00     0.173 A 
ATOM     51  C   UNL A   1      36.266  32.445  31.956  1.00  0.00     0.173 A 
ATOM     52  F   UNL A   1      37.971  33.099  28.820  1.00  0.00    -0.203 F 
ATOM     53  C   UNL A   1      35.790  33.640  29.504  1.00  0.00     0.198 A 
ATOM     54  C   UNL A   1      35.016  33.002  31.671  1.00  0.00     0.198 A 
ATOM     55  F   UNL A   1      36.402  31.813  33.130  1.00  0.00    -0.203 F 
ATOM     56  F   UNL A   1      35.551  34.169  28.295  1.00  0.00    -0.200 F 
ATOM     57  C   UNL A   1      34.772  33.582  30.440  1.00  0.00     0.200 A 
ATOM     58  F   UNL A   1      34.026  32.908  32.570  1.00  0.00    -0.200 F 
ATOM     59  F   UNL A   1      33.549  34.043  30.141  1.00  0.00    -0.200 F 
ENDBRANCH  25  49
BRANCH  37  60
ATOM     60  C   UNL A   1      42.417  29.707  33.526  1.00  0.00     0.064 A 
ATOM     61  C   UNL A   1      41.799  28.448  33.430  1.00  0.00     0.173 A 
ATOM     62  C   UNL A   1      42.870  30.104  34.791  1.00  0.00     0.173 A 
ATOM     63  F   UNL A   1      41.405  27.957  32.249  1.00  0.00    -0.203 F 
ATOM     64  C   UNL A   1      41.624  27.640  34.555  1.00  0.00     0.198 A 
ATOM     65  C   UNL A   1      42.727  29.282  35.905  1.00  0.00     0.198 A 
ATOM     66  F   UNL A   1      43.503  31.279  34.937  1.00  0.00    -0.203 F 
ATOM     67  F   UNL A   1      41.028  26.443  34.440  1.00  0.00    -0.200 F 
ATOM     68  C   UNL A   1      42.099  28.053  35.789  1.00  0.00     0.200 A 
ATOM     69  F   UNL A   1      43.227  29.669  37.087  1.00  0.00    -0.200 F 
ATOM     70  F   UNL A   1      41.973  27.258  36.861  1.00  0.00    -0.200 F 
ENDBRANCH  37  60
ENDBRANCH  11  12
ENDBRANCH   4   6
ENDBRANCH   1   2
BRANCH   1  71
ATOM     71  C   UNL A   1      36.244  23.389  25.348  1.00  0.00     0.023 C 
BRANCH  71  72
ATOM     72  C   UNL A   1      35.201  24.435  25.761  1.00  0.00     0.023 C 
BRANCH  72  73
ATOM     73  C   UNL A   1      34.224  24.916  24.681  1.00  0.00     0.116 C 
BRANCH  73  74
ATOM     74  N   UNL A   1      32.844  24.997  25.140  1.00  0.00    -0.352 N 
ATOM     75  C   UNL A   1      31.835  24.068  25.043  1.00  0.00     0.251 C 
ATOM     76  H   UNL A   1      32.599  25.840  25.586  1.00  0.00     0.163 HD
ATOM     77  O   UNL A   1      30.684  24.362  25.349  1.00  0.00    -0.269 OA
BRANCH  75  78
ATOM     78  C   UNL A   1      32.129  22.713  24.534  1.00  0.00     0.044 A 
ATOM     79  C   UNL A   1      31.987  22.416  23.173  1.00  0.00     0.018 A 
ATOM     80  C   UNL A   1      32.536  21.731  25.442  1.00  0.00     0.070 A 
ATOM     81  C   UNL A   1      32.138  21.102  22.731  1.00  0.00     0.057 A 
ATOM     82  C   UNL A   1      32.696  20.414  25.007  1.00  0.00     0.173 A 
ATOM     83  C   UNL A   1      32.460  20.090  23.640  1.00  0.00     0.172 A 
ATOM     84  N   UNL A   1      33.013  19.396  25.926  1.00  0.00    -0.229 N 
ATOM     85  N   UNL A   1      32.517  18.750  23.214  1.00  0.00    -0.229 N 
ATOM     86  C   UNL A   1      33.008  18.080  25.555  1.00  0.00     0.383 C 
ATOM     87  H   UNL A   1      33.241  19.634  26.854  1.00  0.00     0.313 HD
ATOM     88  C   UNL A   1      32.733  17.733  24.102  1.00  0.00     0.383 C 
ATOM     89  H   UNL A   1      32.398  18.540  22.260  1.00  0.00     0.313 HD
ATOM     90  N   UNL A   1      33.205  17.039  26.283  1.00  0.00    -0.122 N 
ATOM     91  N   UNL A   1      32.735  16.468  23.883  1.00  0.00    -0.122 N 
ATOM     92  S   UNL A   1      33.029  15.730  25.314  1.00  0.00     0.469 S 
ATOM     93  H   UNL A   1      33.421  17.031  27.243  1.00  0.00     0.331 HD
ATOM     94  H   UNL A   1      32.588  16.024  23.017  1.00  0.00     0.331 HD
ATOM     95  O   UNL A   1      34.293  15.043  25.228  1.00  0.00    -0.143 OA
ATOM     96  O   UNL A   1      31.820  15.033  25.717  1.00  0.00    -0.143 OA
ENDBRANCH  75  78
ENDBRANCH  73  74
ENDBRANCH  72  73
ENDBRANCH  71  72
ENDBRANCH   1  71
TORSDOF 11
ENDMDL
MODEL 2
REMARK VINA RESULT:     -14.6      0.928      1.873
REMARK SMILES O=C(NCCCCNC(=O)c1ccc2c(c1)NC1=[NH+]S(=O)(=O)[NH+]=C1N2)c1ccc(-c2c3nc(c(-c4c(F)c(F)c(F)c(F)c4F)c4ccc([nH]4)c(-c4c(F)c(F)c(F)c(F)c4F)c4nc(c(-c5c(F)c(F)c(F)c(F)c5F)c5ccc2[nH]5)C=C4)C=C3)cc1
REMARK SMILES IDX 4 1 3 2 1 3 2 4 26 6 27 7 88 8 28 9 87 10 29 11 30 12 31 13
REMARK SMILES IDX 81 14 32 15 86 16 80 17 82 18 33 19 85 20 79 21 78 22 34 24
REMARK SMILES IDX 66 25 46 26 65 27 47 28 50 29 64 30 83 31 48 32 49 33 63 35
REMARK SMILES IDX 84 36 51 37 35 38 36 39 44 40 37 41 38 42 42 43 45 44 39 45
REMARK SMILES IDX 40 46 43 47 41 48 67 49 68 50 76 51 69 52 70 53 74 54 77 55
REMARK SMILES IDX 71 56 72 57 75 58 73 59 52 60 53 61 61 62 54 63 55 64 59 65
REMARK SMILES IDX 62 66 56 67 57 68 60 69 58 70 5 71 6 72 7 73 8 74 9 75 10 77
REMARK SMILES IDX 11 78 12 79 16 80 13 81 15 82 14 83 17 84 25 85 18 86 24 88
REMARK SMILES IDX 19 90 23 91 20 92 21 95 22 96
REMARK H PARENT 3 5 82 23 50 34 8 76 17 87 25 89 19 93 23 94
REMARK Flexibility Score: inf
ROOT
ATOM      1  C   UNL A   1      37.819  23.864  25.875  1.00  0.00     0.116 C 
ENDROOT
BRANCH   1   2
ATOM      2  N   UNL A   1      38.595  22.725  26.386  1.00  0.00    -0.352 N 
ATOM      3  O   UNL A   1      40.540  21.761  27.097  1.00  0.00    -0.269 OA
ATOM      4  C   UNL A   1      39.818  22.749  27.053  1.00  0.00     0.251 C 
ATOM      5  H   UNL A   1      38.202  21.833  26.239  1.00  0.00     0.163 HD
BRANCH   4   6
ATOM      6  C   UNL A   1      40.221  23.995  27.731  1.00  0.00     0.039 A 
ATOM      7  C   UNL A   1      41.533  24.332  28.061  1.00  0.00     0.014 A 
ATOM      8  C   UNL A   1      39.197  24.888  27.993  1.00  0.00     0.014 A 
ATOM      9  C   UNL A   1      41.748  25.571  28.664  1.00  0.00     0.010 A 
ATOM     10  C   UNL A   1      39.495  26.205  28.100  1.00  0.00     0.010 A 
ATOM     11  C   UNL A   1      40.690  26.497  28.700  1.00  0.00    -0.014 A 
BRANCH  11  12
ATOM     12  C   UNL A   1      40.773  27.810  29.313  1.00  0.00     0.031 A 
ATOM     13  C   UNL A   1      41.874  28.613  28.765  1.00  0.00     0.074 A 
ATOM     14  C   UNL A   1      39.862  28.303  30.188  1.00  0.00     0.049 A 
ATOM     15  N   UNL A   1      43.015  28.815  29.324  1.00  0.00    -0.248 NA
ATOM     16  C   UNL A   1      41.794  29.049  27.365  1.00  0.00     0.031 C 
ATOM     17  C   UNL A   1      38.563  27.750  30.605  1.00  0.00     0.029 A 
ATOM     18  N   UNL A   1      39.909  29.474  30.883  1.00  0.00    -0.354 N 
ATOM     19  C   UNL A   1      43.731  29.597  28.433  1.00  0.00     0.074 A 
ATOM     20  C   UNL A   1      43.024  29.536  27.181  1.00  0.00     0.031 C 
ATOM     21  C   UNL A   1      37.870  28.673  31.314  1.00  0.00     0.029 A 
ATOM     22  C   UNL A   1      38.736  29.809  31.557  1.00  0.00     0.049 A 
ATOM     23  H   UNL A   1      40.712  30.043  30.906  1.00  0.00     0.167 HD
ATOM     24  C   UNL A   1      44.690  30.440  28.901  1.00  0.00     0.037 A 
ATOM     25  C   UNL A   1      38.516  30.937  32.280  1.00  0.00     0.037 A 
ATOM     26  C   UNL A   1      45.053  30.092  30.257  1.00  0.00     0.049 A 
ATOM     27  C   UNL A   1      39.852  31.459  32.660  1.00  0.00     0.074 A 
ATOM     28  C   UNL A   1      45.634  28.994  30.860  1.00  0.00     0.029 A 
ATOM     29  N   UNL A   1      44.413  30.781  31.258  1.00  0.00    -0.354 N 
ATOM     30  N   UNL A   1      40.664  30.847  33.475  1.00  0.00    -0.248 NA
ATOM     31  C   UNL A   1      40.468  32.432  31.773  1.00  0.00     0.031 C 
ATOM     32  C   UNL A   1      44.960  28.851  32.111  1.00  0.00     0.029 A 
ATOM     33  C   UNL A   1      44.055  29.906  32.248  1.00  0.00     0.049 A 
ATOM     34  H   UNL A   1      44.239  31.751  31.261  1.00  0.00     0.167 HD
ATOM     35  C   UNL A   1      41.921  31.023  32.918  1.00  0.00     0.074 A 
ATOM     36  C   UNL A   1      41.750  32.090  31.933  1.00  0.00     0.031 C 
ATOM     37  C   UNL A   1      42.903  30.092  33.105  1.00  0.00     0.037 A 
BRANCH  24  38
ATOM     38  C   UNL A   1      44.967  31.803  28.319  1.00  0.00     0.064 A 
ATOM     39  C   UNL A   1      43.943  32.769  28.341  1.00  0.00     0.173 A 
ATOM     40  C   UNL A   1      46.066  32.103  27.484  1.00  0.00     0.173 A 
ATOM     41  F   UNL A   1      42.839  32.576  29.078  1.00  0.00    -0.203 F 
ATOM     42  C   UNL A   1      43.985  33.908  27.534  1.00  0.00     0.198 A 
ATOM     43  C   UNL A   1      46.129  33.266  26.721  1.00  0.00     0.198 A 
ATOM     44  F   UNL A   1      47.068  31.242  27.277  1.00  0.00    -0.203 F 
ATOM     45  F   UNL A   1      42.931  34.734  27.494  1.00  0.00    -0.200 F 
ATOM     46  C   UNL A   1      45.076  34.154  26.722  1.00  0.00     0.200 A 
ATOM     47  F   UNL A   1      47.186  33.471  25.921  1.00  0.00    -0.200 F 
ATOM     48  F   UNL A   1      45.094  35.213  25.903  1.00  0.00    -0.200 F 
ENDBRANCH  24  38
BRANCH  25  49
ATOM     49  C   UNL A   1      37.304  31.798  32.323  1.00  0.00     0.064 A 
ATOM     50  C   UNL A   1      36.773  32.231  33.553  1.00  0.00     0.173 A 
ATOM     51  C   UNL A   1      36.849  32.476  31.177  1.00  0.00     0.173 A 
ATOM     52  F   UNL A   1      37.178  31.663  34.698  1.00  0.00    -0.203 F 
ATOM     53  C   UNL A   1      35.888  33.312  33.635  1.00  0.00     0.198 A 
ATOM     54  C   UNL A   1      35.963  33.554  31.260  1.00  0.00     0.198 A 
ATOM     55  F   UNL A   1      37.335  32.174  29.964  1.00  0.00    -0.203 F 
ATOM     56  F   UNL A   1      35.468  33.746  34.833  1.00  0.00    -0.200 F 
ATOM     57  C   UNL A   1      35.498  33.984  32.489  1.00  0.00     0.200 A 
ATOM     58  F   UNL A   1      35.621  34.220  30.148  1.00  0.00    -0.200 F 
ATOM     59  F   UNL A   1      34.713  35.068  32.572  1.00  0.00    -0.200 F 
ENDBRANCH  25  49
BRANCH  37  60
ATOM     60  C   UNL A   1      42.681  29.056  34.179  1.00  0.00     0.064 A 
ATOM     61  C   UNL A   1      41.935  27.876  34.010  1.00  0.00     0.173 A 
ATOM     62  C   UNL A   1      43.377  29.207  35.386  1.00  0.00     0.173 A 
ATOM     63  F   UNL A   1      41.302  27.615  32.860  1.00  0.00    -0.203 F 
ATOM     64  C   UNL A   1      41.872  26.909  35.015  1.00  0.00     0.198 A 
ATOM     65  C   UNL A   1      43.342  28.225  36.372  1.00  0.00     0.198 A 
ATOM     66  F   UNL A   1      44.138  30.293  35.588  1.00  0.00    -0.203 F 
ATOM     67  F   UNL A   1      41.150  25.793  34.833  1.00  0.00    -0.200 F 
ATOM     68  C   UNL A   1      42.585  27.080  36.190  1.00  0.00     0.200 A 
ATOM     69  F   UNL A   1      44.069  28.377  37.488  1.00  0.00    -0.200 F 
ATOM     70  F   UNL A   1      42.563  26.131  37.137  1.00  0.00    -0.200 F 
ENDBRANCH  37  60
ENDBRANCH  11  12
ENDBRANCH   4   6
ENDBRANCH   1   2
BRANCH   1  71
ATOM     71  C   UNL A   1      36.450  23.503  25.327  1.00  0.00     0.023 C 
BRANCH  71  72
ATOM     72  C   UNL A   1      35.315  24.429  25.783  1.00  0.00     0.023 C 
BRANCH  72  73
ATOM     73  C   UNL A   1      34.330  24.912  24.712  1.00  0.00     0.116 C 
BRANCH  73  74
ATOM     74  N   UNL A   1      32.956  25.006  25.187  1.00  0.00    -0.352 N 
ATOM     75  C   UNL A   1      31.935  24.089  25.097  1.00  0.00     0.251 C 
ATOM     76  H   UNL A   1      32.725  25.849  25.639  1.00  0.00     0.163 HD
ATOM     77  O   UNL A   1      30.791  24.394  25.416  1.00  0.00    -0.269 OA
BRANCH  75  78
ATOM     78  C   UNL A   1      32.208  22.734  24.577  1.00  0.00     0.044 A 
ATOM     79  C   UNL A   1      32.055  22.446  23.216  1.00  0.00     0.018 A 
ATOM     80  C   UNL A   1      32.606  21.740  25.477  1.00  0.00     0.070 A 
ATOM     81  C   UNL A   1      32.186  21.133  22.765  1.00  0.00     0.057 A 
ATOM     82  C   UNL A   1      32.748  20.424  25.034  1.00  0.00     0.173 A 
ATOM     83  C   UNL A   1      32.500  20.111  23.666  1.00  0.00     0.172 A 
ATOM     84  N   UNL A   1      33.055  19.396  25.945  1.00  0.00    -0.229 N 
ATOM     85  N   UNL A   1      32.536  18.773  23.232  1.00  0.00    -0.229 N 
ATOM     86  C   UNL A   1      33.031  18.083  25.566  1.00  0.00     0.383 C 
ATOM     87  H   UNL A   1      33.291  19.626  26.873  1.00  0.00     0.313 HD
ATOM     88  C   UNL A   1      32.743  17.749  24.113  1.00  0.00     0.383 C 
ATOM     89  H   UNL A   1      32.410  18.571  22.277  1.00  0.00     0.313 HD
ATOM     90  N   UNL A   1      33.218  17.035  26.287  1.00  0.00    -0.122 N 
ATOM     91  N   UNL A   1      32.728  16.485  23.886  1.00  0.00    -0.122 N 
ATOM     92  S   UNL A   1      33.020  15.734  25.311  1.00  0.00     0.469 S 
ATOM     93  H   UNL A   1      33.439  17.018  27.246  1.00  0.00     0.331 HD
ATOM     94  H   UNL A   1      32.570  16.048  23.018  1.00  0.00     0.331 HD
ATOM     95  O   UNL A   1      34.274  15.032  25.215  1.00  0.00    -0.143 OA
ATOM     96  O   UNL A   1      31.804  15.051  25.716  1.00  0.00    -0.143 OA
ENDBRANCH  75  78
ENDBRANCH  73  74
ENDBRANCH  72  73
ENDBRANCH  71  72
ENDBRANCH   1  71
TORSDOF 11
ENDMDL
MODEL 3
REMARK VINA RESULT:     -14.6      2.953      7.738
REMARK SMILES O=C(NCCCCNC(=O)c1ccc2c(c1)NC1=[NH+]S(=O)(=O)[NH+]=C1N2)c1ccc(-c2c3nc(c(-c4c(F)c(F)c(F)c(F)c4F)c4ccc([nH]4)c(-c4c(F)c(F)c(F)c(F)c4F)c4nc(c(-c5c(F)c(F)c(F)c(F)c5F)c5ccc2[nH]5)C=C4)C=C3)cc1
REMARK SMILES IDX 4 1 3 2 1 3 2 4 26 6 27 7 88 8 28 9 87 10 29 11 30 12 31 13
REMARK SMILES IDX 81 14 32 15 86 16 80 17 82 18 33 19 85 20 79 21 78 22 34 24
REMARK SMILES IDX 66 25 46 26 65 27 47 28 50 29 64 30 83 31 48 32 49 33 63 35
REMARK SMILES IDX 84 36 51 37 35 38 36 39 44 40 37 41 38 42 42 43 45 44 39 45
REMARK SMILES IDX 40 46 43 47 41 48 67 49 68 50 76 51 69 52 70 53 74 54 77 55
REMARK SMILES IDX 71 56 72 57 75 58 73 59 52 60 53 61 61 62 54 63 55 64 59 65
REMARK SMILES IDX 62 66 56 67 57 68 60 69 58 70 5 71 6 72 7 73 8 74 9 75 10 77
REMARK SMILES IDX 11 78 12 79 16 80 13 81 15 82 14 83 17 84 25 85 18 86 24 88
REMARK SMILES IDX 19 90 23 91 20 92 21 95 22 96
REMARK H PARENT 3 5 82 23 50 34 8 76 17 87 25 89 19 93 23 94
REMARK Flexibility Score: inf
ROOT
ATOM      1  C   UNL A   1      36.872  22.912  24.078  1.00  0.00     0.116 C 
ENDROOT
BRANCH   1   2
ATOM      2  N   UNL A   1      36.936  21.477  24.390  1.00  0.00    -0.352 N 
ATOM      3  O   UNL A   1      38.081  19.574  24.924  1.00  0.00    -0.269 OA
ATOM      4  C   UNL A   1      37.951  20.785  25.048  1.00  0.00     0.251 C 
ATOM      5  H   UNL A   1      36.166  20.936  24.098  1.00  0.00     0.163 HD
BRANCH   4   6
ATOM      6  C   UNL A   1      38.863  21.546  25.922  1.00  0.00     0.039 A 
ATOM      7  C   UNL A   1      40.067  21.059  26.430  1.00  0.00     0.014 A 
ATOM      8  C   UNL A   1      38.483  22.848  26.190  1.00  0.00     0.014 A 
ATOM      9  C   UNL A   1      40.835  21.924  27.210  1.00  0.00     0.010 A 
ATOM     10  C   UNL A   1      39.440  23.754  26.501  1.00  0.00     0.010 A 
ATOM     11  C   UNL A   1      40.480  23.285  27.256  1.00  0.00    -0.014 A 
BRANCH  11  12
ATOM     12  C   UNL A   1      41.179  24.285  28.042  1.00  0.00     0.031 A 
ATOM     13  C   UNL A   1      40.404  25.524  28.183  1.00  0.00     0.074 A 
ATOM     14  C   UNL A   1      42.346  24.064  28.695  1.00  0.00     0.049 A 
ATOM     15  N   UNL A   1      40.592  26.614  27.525  1.00  0.00    -0.248 NA
ATOM     16  C   UNL A   1      39.159  25.489  28.961  1.00  0.00     0.031 C 
ATOM     17  C   UNL A   1      43.088  22.809  28.898  1.00  0.00     0.029 A 
ATOM     18  N   UNL A   1      43.117  24.962  29.371  1.00  0.00    -0.354 N 
ATOM     19  C   UNL A   1      39.613  27.489  27.968  1.00  0.00     0.074 A 
ATOM     20  C   UNL A   1      38.651  26.691  28.682  1.00  0.00     0.031 C 
ATOM     21  C   UNL A   1      44.078  22.993  29.803  1.00  0.00     0.029 A 
ATOM     22  C   UNL A   1      44.160  24.407  30.110  1.00  0.00     0.049 A 
ATOM     23  H   UNL A   1      42.948  25.931  29.340  1.00  0.00     0.167 HD
ATOM     24  C   UNL A   1      39.846  28.828  27.932  1.00  0.00     0.037 A 
ATOM     25  C   UNL A   1      45.037  25.082  30.898  1.00  0.00     0.037 A 
ATOM     26  C   UNL A   1      40.970  29.125  27.072  1.00  0.00     0.049 A 
ATOM     27  C   UNL A   1      45.030  26.488  30.424  1.00  0.00     0.074 A 
ATOM     28  C   UNL A   1      41.231  28.980  25.724  1.00  0.00     0.029 A 
ATOM     29  N   UNL A   1      42.192  29.255  27.685  1.00  0.00    -0.354 N 
ATOM     30  N   UNL A   1      45.474  26.861  29.257  1.00  0.00    -0.248 NA
ATOM     31  C   UNL A   1      44.109  27.408  31.070  1.00  0.00     0.031 C 
ATOM     32  C   UNL A   1      42.607  28.605  25.646  1.00  0.00     0.029 A 
ATOM     33  C   UNL A   1      43.140  28.610  26.936  1.00  0.00     0.049 A 
ATOM     34  H   UNL A   1      42.358  29.736  28.528  1.00  0.00     0.167 HD
ATOM     35  C   UNL A   1      44.571  27.822  28.829  1.00  0.00     0.074 A 
ATOM     36  C   UNL A   1      43.816  28.188  30.026  1.00  0.00     0.031 C 
ATOM     37  C   UNL A   1      44.333  28.010  27.498  1.00  0.00     0.037 A 
BRANCH  24  38
ATOM     38  C   UNL A   1      39.362  29.792  28.985  1.00  0.00     0.064 A 
ATOM     39  C   UNL A   1      39.857  29.665  30.297  1.00  0.00     0.173 A 
ATOM     40  C   UNL A   1      38.231  30.626  28.841  1.00  0.00     0.173 A 
ATOM     41  F   UNL A   1      40.912  28.877  30.556  1.00  0.00    -0.203 F 
ATOM     42  C   UNL A   1      39.222  30.267  31.387  1.00  0.00     0.198 A 
ATOM     43  C   UNL A   1      37.632  31.266  29.924  1.00  0.00     0.198 A 
ATOM     44  F   UNL A   1      37.584  30.766  27.679  1.00  0.00    -0.203 F 
ATOM     45  F   UNL A   1      39.654  30.014  32.630  1.00  0.00    -0.200 F 
ATOM     46  C   UNL A   1      38.109  31.063  31.200  1.00  0.00     0.200 A 
ATOM     47  F   UNL A   1      36.537  32.014  29.721  1.00  0.00    -0.200 F 
ATOM     48  F   UNL A   1      37.463  31.592  32.246  1.00  0.00    -0.200 F 
ENDBRANCH  24  38
BRANCH  25  49
ATOM     49  C   UNL A   1      45.557  24.716  32.243  1.00  0.00     0.064 A 
ATOM     50  C   UNL A   1      46.769  25.255  32.715  1.00  0.00     0.173 A 
ATOM     51  C   UNL A   1      44.729  24.109  33.206  1.00  0.00     0.173 A 
ATOM     52  F   UNL A   1      47.601  25.881  31.872  1.00  0.00    -0.203 F 
ATOM     53  C   UNL A   1      47.102  25.239  34.076  1.00  0.00     0.198 A 
ATOM     54  C   UNL A   1      45.064  24.092  34.562  1.00  0.00     0.198 A 
ATOM     55  F   UNL A   1      43.530  23.615  32.865  1.00  0.00    -0.203 F 
ATOM     56  F   UNL A   1      48.228  25.834  34.496  1.00  0.00    -0.200 F 
ATOM     57  C   UNL A   1      46.241  24.673  34.999  1.00  0.00     0.200 A 
ATOM     58  F   UNL A   1      44.205  23.575  35.453  1.00  0.00    -0.200 F 
ATOM     59  F   UNL A   1      46.521  24.726  36.309  1.00  0.00    -0.200 F 
ENDBRANCH  25  49
BRANCH  37  60
ATOM     60  C   UNL A   1      45.298  27.382  26.524  1.00  0.00     0.064 A 
ATOM     61  C   UNL A   1      46.552  27.918  26.181  1.00  0.00     0.173 A 
ATOM     62  C   UNL A   1      44.988  26.108  26.027  1.00  0.00     0.173 A 
ATOM     63  F   UNL A   1      46.961  29.094  26.673  1.00  0.00    -0.203 F 
ATOM     64  C   UNL A   1      47.439  27.219  25.360  1.00  0.00     0.198 A 
ATOM     65  C   UNL A   1      45.888  25.398  25.238  1.00  0.00     0.198 A 
ATOM     66  F   UNL A   1      43.823  25.529  26.353  1.00  0.00    -0.203 F 
ATOM     67  F   UNL A   1      48.628  27.752  25.043  1.00  0.00    -0.200 F 
ATOM     68  C   UNL A   1      47.110  25.955  24.899  1.00  0.00     0.200 A 
ATOM     69  F   UNL A   1      45.581  24.158  24.832  1.00  0.00    -0.200 F 
ATOM     70  F   UNL A   1      47.980  25.262  24.149  1.00  0.00    -0.200 F 
ENDBRANCH  37  60
ENDBRANCH  11  12
ENDBRANCH   4   6
ENDBRANCH   1   2
BRANCH   1  71
ATOM     71  C   UNL A   1      35.515  23.397  23.602  1.00  0.00     0.023 C 
BRANCH  71  72
ATOM     72  C   UNL A   1      34.870  24.467  24.493  1.00  0.00     0.023 C 
BRANCH  72  73
ATOM     73  C   UNL A   1      33.637  25.191  23.940  1.00  0.00     0.116 C 
BRANCH  73  74
ATOM     74  N   UNL A   1      32.477  25.117  24.818  1.00  0.00    -0.352 N 
ATOM     75  C   UNL A   1      31.656  24.048  25.094  1.00  0.00     0.251 C 
ATOM     76  H   UNL A   1      32.248  25.953  25.283  1.00  0.00     0.163 HD
ATOM     77  O   UNL A   1      30.628  24.202  25.743  1.00  0.00    -0.269 OA
BRANCH  75  78
ATOM     78  C   UNL A   1      31.996  22.707  24.574  1.00  0.00     0.044 A 
ATOM     79  C   UNL A   1      31.885  22.422  23.209  1.00  0.00     0.018 A 
ATOM     80  C   UNL A   1      32.413  21.726  25.479  1.00  0.00     0.070 A 
ATOM     81  C   UNL A   1      32.079  21.118  22.755  1.00  0.00     0.057 A 
ATOM     82  C   UNL A   1      32.616  20.419  25.032  1.00  0.00     0.173 A 
ATOM     83  C   UNL A   1      32.412  20.104  23.658  1.00  0.00     0.172 A 
ATOM     84  N   UNL A   1      32.944  19.399  25.946  1.00  0.00    -0.229 N 
ATOM     85  N   UNL A   1      32.512  18.771  23.218  1.00  0.00    -0.229 N 
ATOM     86  C   UNL A   1      32.981  18.087  25.560  1.00  0.00     0.383 C 
ATOM     87  H   UNL A   1      33.149  19.633  26.880  1.00  0.00     0.313 HD
ATOM     88  C   UNL A   1      32.740  17.751  24.099  1.00  0.00     0.383 C 
ATOM     89  H   UNL A   1      32.416  18.569  22.259  1.00  0.00     0.313 HD
ATOM     90  N   UNL A   1      33.193  17.044  26.280  1.00  0.00    -0.122 N 
ATOM     91  N   UNL A   1      32.780  16.488  23.866  1.00  0.00    -0.122 N 
ATOM     92  S   UNL A   1      33.069  15.742  25.294  1.00  0.00     0.469 S 
ATOM     93  H   UNL A   1      33.392  17.031  27.243  1.00  0.00     0.331 HD
ATOM     94  H   UNL A   1      32.660  16.051  22.992  1.00  0.00     0.331 HD
ATOM     95  O   UNL A   1      34.352  15.091  25.223  1.00  0.00    -0.143 OA
ATOM     96  O   UNL A   1      31.873  15.009  25.667  1.00  0.00    -0.143 OA
ENDBRANCH  75  78
ENDBRANCH  73  74
ENDBRANCH  72  73
ENDBRANCH  71  72
ENDBRANCH   1  71
TORSDOF 11
ENDMDL
