MODEL 1
REMARK VINA RESULT:     -11.4      0.000      0.000
REMARK SMILES O=C(Cc1csc(NC(=O)CS[C@@H]2CCS(=O)(=O)C2)n1)NCCCCNC(=O)c1ccc(-c2c3nc(c(-c4c(F)c(F)c(F)c(F)c4F)c4ccc([nH]4)c(-c4c(F)c(F)c(F)c(F)c4F)c4nc(c(-c5c(F)c(F)c(F)c(F)c5F)c5ccc2[nH]5)C=C4)C=C3)cc1
REMARK SMILES IDX 22 1 21 2 1 3 2 4 3 6 4 7 5 8 20 9 6 10 7 11 8 12 9 13 10 15
REMARK SMILES IDX 11 16 12 17 13 18 14 19 19 20 15 21 16 22 17 23 18 24 23 25
REMARK SMILES IDX 24 26 25 27 26 28 27 29 28 31 29 32 30 33 91 34 31 35 90 36
REMARK SMILES IDX 32 37 33 38 34 39 84 40 35 41 89 42 83 43 85 44 36 45 88 46
REMARK SMILES IDX 82 47 81 48 37 50 69 51 49 52 68 53 50 54 53 55 67 56 86 57
REMARK SMILES IDX 51 58 52 59 66 61 87 62 54 63 38 64 39 65 47 66 40 67 41 68
REMARK SMILES IDX 45 69 48 70 42 71 43 72 46 73 44 74 70 75 71 76 79 77 72 78
REMARK SMILES IDX 73 79 77 80 80 81 74 82 75 83 78 84 76 85 55 86 56 87 64 88
REMARK SMILES IDX 57 89 58 90 62 91 65 92 59 93 60 94 63 95 61 96
REMARK H PARENT 21 5 8 14 26 30 85 49 53 60
REMARK Flexibility Score: inf
ROOT
ATOM      1  C   UNL A   1      35.067  32.805  27.741  1.00  0.00     0.116 C 
ENDROOT
BRANCH   1   2
ATOM      2  N   UNL A   1      35.109  31.360  27.858  1.00  0.00    -0.356 N 
ATOM      3  O   UNL A   1      33.058  30.986  26.909  1.00  0.00    -0.275 OA
ATOM      4  C   UNL A   1      34.082  30.544  27.424  1.00  0.00     0.226 C 
ATOM      5  H   UNL A   1      35.905  30.943  28.263  1.00  0.00     0.163 HD
BRANCH   4   6
ATOM      6  C   UNL A   1      34.249  29.068  27.745  1.00  0.00     0.157 C 
BRANCH   6   7
ATOM      7  C   UNL A   1      33.466  28.164  26.849  1.00  0.00     0.063 A 
ATOM      8  C   UNL A   1      32.163  27.733  27.030  1.00  0.00     0.093 A 
ATOM      9  N   UNL A   1      34.034  27.754  25.652  1.00  0.00    -0.224 NA
ATOM     10  S   UNL A   1      31.673  26.771  25.701  1.00  0.00    -0.105 S 
ATOM     11  C   UNL A   1      33.209  26.970  25.000  1.00  0.00     0.189 A 
BRANCH  11  12
ATOM     12  N   UNL A   1      33.523  26.497  23.759  1.00  0.00    -0.301 N 
ATOM     13  C   UNL A   1      32.954  26.672  22.541  1.00  0.00     0.236 C 
ATOM     14  H   UNL A   1      34.319  25.918  23.745  1.00  0.00     0.172 HD
ATOM     15  O   UNL A   1      33.652  26.388  21.561  1.00  0.00    -0.274 OA
BRANCH  13  16
ATOM     16  C   UNL A   1      31.525  27.139  22.323  1.00  0.00     0.170 C 
BRANCH  16  17
ATOM     17  S   UNL A   1      31.302  28.951  22.404  1.00  0.00    -0.148 SA
BRANCH  17  18
ATOM     18  C   UNL A   1      29.837  29.237  23.474  1.00  0.00     0.063 C 
ATOM     19  C   UNL A   1      28.552  28.485  23.128  1.00  0.00     0.031 C 
ATOM     20  C   UNL A   1      29.509  30.689  23.792  1.00  0.00     0.151 C 
ATOM     21  C   UNL A   1      27.562  29.425  22.457  1.00  0.00     0.138 C 
ATOM     22  S   UNL A   1      28.018  31.083  22.915  1.00  0.00     0.151 S 
ATOM     23  O   UNL A   1      28.382  31.823  21.726  1.00  0.00    -0.229 OA
ATOM     24  O   UNL A   1      27.050  31.585  23.867  1.00  0.00    -0.229 OA
ENDBRANCH  17  18
ENDBRANCH  16  17
ENDBRANCH  13  16
ENDBRANCH  11  12
ENDBRANCH   6   7
ENDBRANCH   4   6
ENDBRANCH   1   2
BRANCH   1  25
ATOM     25  C   UNL A   1      34.492  33.456  29.000  1.00  0.00     0.023 C 
BRANCH  25  26
ATOM     26  C   UNL A   1      33.280  34.365  28.769  1.00  0.00     0.023 C 
BRANCH  26  27
ATOM     27  C   UNL A   1      33.423  35.794  29.283  1.00  0.00     0.116 C 
BRANCH  27  28
ATOM     28  N   UNL A   1      32.526  36.089  30.387  1.00  0.00    -0.352 N 
ATOM     29  C   UNL A   1      32.606  35.725  31.711  1.00  0.00     0.251 C 
ATOM     30  H   UNL A   1      31.740  36.632  30.151  1.00  0.00     0.163 HD
ATOM     31  O   UNL A   1      31.665  35.951  32.464  1.00  0.00    -0.269 OA
BRANCH  29  32
ATOM     32  C   UNL A   1      33.808  35.032  32.230  1.00  0.00     0.039 A 
ATOM     33  C   UNL A   1      33.681  33.715  32.680  1.00  0.00     0.014 A 
ATOM     34  C   UNL A   1      35.049  35.671  32.292  1.00  0.00     0.014 A 
ATOM     35  C   UNL A   1      34.808  33.017  33.123  1.00  0.00     0.010 A 
ATOM     36  C   UNL A   1      36.184  34.951  32.661  1.00  0.00     0.010 A 
ATOM     37  C   UNL A   1      36.078  33.616  33.079  1.00  0.00    -0.014 A 
BRANCH  37  38
ATOM     38  C   UNL A   1      37.300  32.856  33.451  1.00  0.00     0.031 A 
ATOM     39  C   UNL A   1      38.027  33.160  34.732  1.00  0.00     0.074 A 
ATOM     40  C   UNL A   1      37.795  31.932  32.604  1.00  0.00     0.049 A 
ATOM     41  N   UNL A   1      39.146  32.656  35.191  1.00  0.00    -0.248 NA
ATOM     42  C   UNL A   1      37.431  34.185  35.602  1.00  0.00     0.031 C 
ATOM     43  C   UNL A   1      37.211  31.573  31.311  1.00  0.00     0.029 A 
ATOM     44  N   UNL A   1      38.909  31.133  32.696  1.00  0.00    -0.354 N 
ATOM     45  C   UNL A   1      39.390  33.306  36.393  1.00  0.00     0.074 A 
ATOM     46  C   UNL A   1      38.337  34.284  36.565  1.00  0.00     0.031 C 
ATOM     47  C   UNL A   1      37.959  30.615  30.741  1.00  0.00     0.029 A 
ATOM     48  C   UNL A   1      39.099  30.322  31.605  1.00  0.00     0.049 A 
ATOM     49  H   UNL A   1      39.515  31.143  33.472  1.00  0.00     0.167 HD
ATOM     50  C   UNL A   1      40.387  33.092  37.285  1.00  0.00     0.037 A 
ATOM     51  C   UNL A   1      40.085  29.449  31.323  1.00  0.00     0.037 A 
ATOM     52  C   UNL A   1      41.428  32.111  37.119  1.00  0.00     0.049 A 
ATOM     53  C   UNL A   1      41.194  29.245  32.320  1.00  0.00     0.074 A 
ATOM     54  C   UNL A   1      42.456  31.786  37.989  1.00  0.00     0.029 A 
ATOM     55  N   UNL A   1      41.580  31.299  36.004  1.00  0.00    -0.354 N 
ATOM     56  N   UNL A   1      41.378  29.821  33.483  1.00  0.00    -0.248 NA
ATOM     57  C   UNL A   1      42.231  28.265  31.967  1.00  0.00     0.031 C 
ATOM     58  C   UNL A   1      43.258  30.817  37.377  1.00  0.00     0.029 A 
ATOM     59  C   UNL A   1      42.697  30.493  36.154  1.00  0.00     0.049 A 
ATOM     60  H   UNL A   1      40.981  31.296  35.223  1.00  0.00     0.167 HD
ATOM     61  C   UNL A   1      42.530  29.254  34.013  1.00  0.00     0.074 A 
ATOM     62  C   UNL A   1      42.994  28.276  33.051  1.00  0.00     0.031 C 
ATOM     63  C   UNL A   1      43.147  29.518  35.191  1.00  0.00     0.037 A 
BRANCH  50  64
ATOM     64  C   UNL A   1      40.402  33.939  38.527  1.00  0.00     0.064 A 
ATOM     65  C   UNL A   1      41.169  35.112  38.610  1.00  0.00     0.173 A 
ATOM     66  C   UNL A   1      39.611  33.596  39.635  1.00  0.00     0.173 A 
ATOM     67  F   UNL A   1      41.949  35.482  37.584  1.00  0.00    -0.203 F 
ATOM     68  C   UNL A   1      41.171  35.888  39.766  1.00  0.00     0.198 A 
ATOM     69  C   UNL A   1      39.589  34.393  40.776  1.00  0.00     0.198 A 
ATOM     70  F   UNL A   1      38.852  32.491  39.608  1.00  0.00    -0.203 F 
ATOM     71  F   UNL A   1      41.955  36.973  39.841  1.00  0.00    -0.200 F 
ATOM     72  C   UNL A   1      40.375  35.533  40.844  1.00  0.00     0.200 A 
ATOM     73  F   UNL A   1      38.808  34.057  41.812  1.00  0.00    -0.200 F 
ATOM     74  F   UNL A   1      40.374  36.285  41.954  1.00  0.00    -0.200 F 
ENDBRANCH  50  64
BRANCH  51  75
ATOM     75  C   UNL A   1      40.062  28.689  30.045  1.00  0.00     0.064 A 
ATOM     76  C   UNL A   1      39.437  27.437  29.960  1.00  0.00     0.173 A 
ATOM     77  C   UNL A   1      40.667  29.196  28.885  1.00  0.00     0.173 A 
ATOM     78  F   UNL A   1      38.863  26.900  31.047  1.00  0.00    -0.203 F 
ATOM     79  C   UNL A   1      39.440  26.711  28.771  1.00  0.00     0.198 A 
ATOM     80  C   UNL A   1      40.640  28.482  27.688  1.00  0.00     0.198 A 
ATOM     81  F   UNL A   1      41.272  30.392  28.911  1.00  0.00    -0.203 F 
ATOM     82  F   UNL A   1      38.879  25.494  28.731  1.00  0.00    -0.200 F 
ATOM     83  C   UNL A   1      40.034  27.237  27.634  1.00  0.00     0.200 A 
ATOM     84  F   UNL A   1      41.201  29.003  26.589  1.00  0.00    -0.200 F 
ATOM     85  F   UNL A   1      40.031  26.541  26.490  1.00  0.00    -0.200 F 
ENDBRANCH  51  75
BRANCH  63  86
ATOM     86  C   UNL A   1      44.371  28.714  35.526  1.00  0.00     0.064 A 
ATOM     87  C   UNL A   1      44.287  27.482  36.192  1.00  0.00     0.173 A 
ATOM     88  C   UNL A   1      45.643  29.166  35.141  1.00  0.00     0.173 A 
ATOM     89  F   UNL A   1      43.098  27.012  36.596  1.00  0.00    -0.203 F 
ATOM     90  C   UNL A   1      45.434  26.747  36.485  1.00  0.00     0.198 A 
ATOM     91  C   UNL A   1      46.783  28.412  35.405  1.00  0.00     0.198 A 
ATOM     92  F   UNL A   1      45.780  30.333  34.495  1.00  0.00    -0.203 F 
ATOM     93  F   UNL A   1      45.334  25.599  37.169  1.00  0.00    -0.200 F 
ATOM     94  C   UNL A   1      46.679  27.208  36.084  1.00  0.00     0.200 A 
ATOM     95  F   UNL A   1      47.983  28.852  35.003  1.00  0.00    -0.200 F 
ATOM     96  F   UNL A   1      47.780  26.495  36.359  1.00  0.00    -0.200 F 
ENDBRANCH  63  86
ENDBRANCH  37  38
ENDBRANCH  29  32
ENDBRANCH  27  28
ENDBRANCH  26  27
ENDBRANCH  25  26
ENDBRANCH   1  25
TORSDOF 16
ENDMDL
MODEL 2
REMARK VINA RESULT:     -11.3      2.299      8.113
REMARK SMILES O=C(Cc1csc(NC(=O)CS[C@@H]2CCS(=O)(=O)C2)n1)NCCCCNC(=O)c1ccc(-c2c3nc(c(-c4c(F)c(F)c(F)c(F)c4F)c4ccc([nH]4)c(-c4c(F)c(F)c(F)c(F)c4F)c4nc(c(-c5c(F)c(F)c(F)c(F)c5F)c5ccc2[nH]5)C=C4)C=C3)cc1
REMARK SMILES IDX 22 1 21 2 1 3 2 4 3 6 4 7 5 8 20 9 6 10 7 11 8 12 9 13 10 15
REMARK SMILES IDX 11 16 12 17 13 18 14 19 19 20 15 21 16 22 17 23 18 24 23 25
REMARK SMILES IDX 24 26 25 27 26 28 27 29 28 31 29 32 30 33 91 34 31 35 90 36
REMARK SMILES IDX 32 37 33 38 34 39 84 40 35 41 89 42 83 43 85 44 36 45 88 46
REMARK SMILES IDX 82 47 81 48 37 50 69 51 49 52 68 53 50 54 53 55 67 56 86 57
REMARK SMILES IDX 51 58 52 59 66 61 87 62 54 63 38 64 39 65 47 66 40 67 41 68
REMARK SMILES IDX 45 69 48 70 42 71 43 72 46 73 44 74 70 75 71 76 79 77 72 78
REMARK SMILES IDX 73 79 77 80 80 81 74 82 75 83 78 84 76 85 55 86 56 87 64 88
REMARK SMILES IDX 57 89 58 90 62 91 65 92 59 93 60 94 63 95 61 96
REMARK H PARENT 21 5 8 14 26 30 85 49 53 60
REMARK Flexibility Score: inf
ROOT
ATOM      1  C   UNL A   1      34.164  29.690  27.101  1.00  0.00     0.116 C 
ENDROOT
BRANCH   1   2
ATOM      2  N   UNL A   1      33.022  29.653  26.209  1.00  0.00    -0.356 N 
ATOM      3  O   UNL A   1      34.051  28.441  24.559  1.00  0.00    -0.275 OA
ATOM      4  C   UNL A   1      33.053  29.019  24.982  1.00  0.00     0.226 C 
ATOM      5  H   UNL A   1      32.189  30.098  26.489  1.00  0.00     0.163 HD
BRANCH   4   6
ATOM      6  C   UNL A   1      31.805  29.194  24.132  1.00  0.00     0.157 C 
BRANCH   6   7
ATOM      7  C   UNL A   1      30.813  28.087  24.281  1.00  0.00     0.063 A 
ATOM      8  C   UNL A   1      29.761  27.788  23.432  1.00  0.00     0.093 A 
ATOM      9  N   UNL A   1      30.971  27.183  25.321  1.00  0.00    -0.224 NA
ATOM     10  S   UNL A   1      28.947  26.384  23.977  1.00  0.00    -0.105 S 
ATOM     11  C   UNL A   1      30.014  26.287  25.297  1.00  0.00     0.189 A 
BRANCH  11  12
ATOM     12  N   UNL A   1      30.001  25.250  26.184  1.00  0.00    -0.301 N 
ATOM     13  C   UNL A   1      30.676  24.075  26.232  1.00  0.00     0.236 C 
ATOM     14  H   UNL A   1      29.380  25.381  26.937  1.00  0.00     0.172 HD
ATOM     15  O   UNL A   1      30.696  23.495  27.324  1.00  0.00    -0.274 OA
BRANCH  13  16
ATOM     16  C   UNL A   1      31.351  23.427  25.036  1.00  0.00     0.170 C 
BRANCH  16  17
ATOM     17  S   UNL A   1      32.146  21.821  25.395  1.00  0.00    -0.148 SA
BRANCH  17  18
ATOM     18  C   UNL A   1      33.933  22.177  25.627  1.00  0.00     0.063 C 
ATOM     19  C   UNL A   1      34.322  23.593  26.055  1.00  0.00     0.031 C 
ATOM     20  C   UNL A   1      34.862  21.706  24.518  1.00  0.00     0.151 C 
ATOM     21  C   UNL A   1      34.883  24.360  24.868  1.00  0.00     0.138 C 
ATOM     22  S   UNL A   1      35.442  23.159  23.681  1.00  0.00     0.151 S 
ATOM     23  O   UNL A   1      34.679  23.305  22.459  1.00  0.00    -0.229 OA
ATOM     24  O   UNL A   1      36.889  23.140  23.686  1.00  0.00    -0.229 OA
ENDBRANCH  17  18
ENDBRANCH  16  17
ENDBRANCH  13  16
ENDBRANCH  11  12
ENDBRANCH   6   7
ENDBRANCH   4   6
ENDBRANCH   1   2
BRANCH   1  25
ATOM     25  C   UNL A   1      34.176  30.963  27.950  1.00  0.00     0.023 C 
BRANCH  25  26
ATOM     26  C   UNL A   1      33.699  32.229  27.233  1.00  0.00     0.023 C 
BRANCH  26  27
ATOM     27  C   UNL A   1      32.309  32.721  27.623  1.00  0.00     0.116 C 
BRANCH  27  28
ATOM     28  N   UNL A   1      32.243  34.166  27.774  1.00  0.00    -0.352 N 
ATOM     29  C   UNL A   1      33.007  35.007  28.547  1.00  0.00     0.251 C 
ATOM     30  H   UNL A   1      31.544  34.608  27.241  1.00  0.00     0.163 HD
ATOM     31  O   UNL A   1      32.697  36.190  28.650  1.00  0.00    -0.269 OA
BRANCH  29  32
ATOM     32  C   UNL A   1      34.184  34.493  29.284  1.00  0.00     0.039 A 
ATOM     33  C   UNL A   1      33.982  33.869  30.518  1.00  0.00     0.014 A 
ATOM     34  C   UNL A   1      35.479  34.635  28.780  1.00  0.00     0.014 A 
ATOM     35  C   UNL A   1      35.068  33.323  31.210  1.00  0.00     0.010 A 
ATOM     36  C   UNL A   1      36.550  34.025  29.432  1.00  0.00     0.010 A 
ATOM     37  C   UNL A   1      36.357  33.360  30.653  1.00  0.00    -0.014 A 
BRANCH  37  38
ATOM     38  C   UNL A   1      37.505  32.698  31.327  1.00  0.00     0.031 A 
ATOM     39  C   UNL A   1      38.217  31.549  30.668  1.00  0.00     0.074 A 
ATOM     40  C   UNL A   1      37.869  33.091  32.563  1.00  0.00     0.049 A 
ATOM     41  N   UNL A   1      39.190  30.802  31.129  1.00  0.00    -0.248 NA
ATOM     42  C   UNL A   1      37.760  31.174  29.322  1.00  0.00     0.031 C 
ATOM     43  C   UNL A   1      37.233  34.163  33.331  1.00  0.00     0.029 A 
ATOM     44  N   UNL A   1      38.855  32.626  33.400  1.00  0.00    -0.354 N 
ATOM     45  C   UNL A   1      39.452  29.867  30.136  1.00  0.00     0.074 A 
ATOM     46  C   UNL A   1      38.499  30.101  29.074  1.00  0.00     0.031 C 
ATOM     47  C   UNL A   1      37.855  34.286  34.514  1.00  0.00     0.029 A 
ATOM     48  C   UNL A   1      38.905  33.275  34.609  1.00  0.00     0.049 A 
ATOM     49  H   UNL A   1      39.468  31.895  33.155  1.00  0.00     0.167 HD
ATOM     50  C   UNL A   1      40.416  28.915  30.103  1.00  0.00     0.037 A 
ATOM     51  C   UNL A   1      39.696  33.073  35.680  1.00  0.00     0.037 A 
ATOM     52  C   UNL A   1      41.373  28.691  31.156  1.00  0.00     0.049 A 
ATOM     53  C   UNL A   1      40.744  31.994  35.626  1.00  0.00     0.074 A 
ATOM     54  C   UNL A   1      42.418  27.782  31.194  1.00  0.00     0.029 A 
ATOM     55  N   UNL A   1      41.398  29.377  32.361  1.00  0.00    -0.354 N 
ATOM     56  N   UNL A   1      41.025  31.159  34.656  1.00  0.00    -0.248 NA
ATOM     57  C   UNL A   1      41.592  31.834  36.817  1.00  0.00     0.031 C 
ATOM     58  C   UNL A   1      43.040  27.883  32.443  1.00  0.00     0.029 A 
ATOM     59  C   UNL A   1      42.424  28.896  33.159  1.00  0.00     0.049 A 
ATOM     60  H   UNL A   1      40.779  30.101  32.612  1.00  0.00     0.167 HD
ATOM     61  C   UNL A   1      42.096  30.397  35.105  1.00  0.00     0.074 A 
ATOM     62  C   UNL A   1      42.426  30.880  36.429  1.00  0.00     0.031 C 
ATOM     63  C   UNL A   1      42.747  29.389  34.476  1.00  0.00     0.037 A 
BRANCH  50  64
ATOM     64  C   UNL A   1      40.485  28.040  28.883  1.00  0.00     0.064 A 
ATOM     65  C   UNL A   1      39.774  26.832  28.802  1.00  0.00     0.173 A 
ATOM     66  C   UNL A   1      41.240  28.429  27.766  1.00  0.00     0.173 A 
ATOM     67  F   UNL A   1      39.044  26.408  29.844  1.00  0.00    -0.203 F 
ATOM     68  C   UNL A   1      39.845  26.031  27.665  1.00  0.00     0.198 A 
ATOM     69  C   UNL A   1      41.281  27.643  26.617  1.00  0.00     0.198 A 
ATOM     70  F   UNL A   1      41.932  29.577  27.784  1.00  0.00    -0.203 F 
ATOM     71  F   UNL A   1      39.202  24.855  27.635  1.00  0.00    -0.200 F 
ATOM     72  C   UNL A   1      40.591  26.441  26.571  1.00  0.00     0.200 A 
ATOM     73  F   UNL A   1      41.991  28.048  25.555  1.00  0.00    -0.200 F 
ATOM     74  F   UNL A   1      40.654  25.672  25.475  1.00  0.00    -0.200 F 
ENDBRANCH  50  64
BRANCH  51  75
ATOM     75  C   UNL A   1      39.537  33.921  36.892  1.00  0.00     0.064 A 
ATOM     76  C   UNL A   1      38.766  33.490  37.980  1.00  0.00     0.173 A 
ATOM     77  C   UNL A   1      40.147  35.180  36.984  1.00  0.00     0.173 A 
ATOM     78  F   UNL A   1      38.144  32.302  37.930  1.00  0.00    -0.203 F 
ATOM     79  C   UNL A   1      38.591  34.295  39.103  1.00  0.00     0.198 A 
ATOM     80  C   UNL A   1      39.999  35.971  38.122  1.00  0.00     0.198 A 
ATOM     81  F   UNL A   1      40.902  35.638  35.973  1.00  0.00    -0.203 F 
ATOM     82  F   UNL A   1      37.808  33.879  40.107  1.00  0.00    -0.200 F 
ATOM     83  C   UNL A   1      39.214  35.532  39.177  1.00  0.00     0.200 A 
ATOM     84  F   UNL A   1      40.617  37.158  38.195  1.00  0.00    -0.200 F 
ATOM     85  F   UNL A   1      39.051  36.304  40.259  1.00  0.00    -0.200 F 
ENDBRANCH  51  75
BRANCH  63  86
ATOM     86  C   UNL A   1      43.909  28.762  35.193  1.00  0.00     0.064 A 
ATOM     87  C   UNL A   1      43.746  27.654  36.038  1.00  0.00     0.173 A 
ATOM     88  C   UNL A   1      45.210  29.254  35.001  1.00  0.00     0.173 A 
ATOM     89  F   UNL A   1      42.522  27.154  36.268  1.00  0.00    -0.203 F 
ATOM     90  C   UNL A   1      44.837  27.081  36.686  1.00  0.00     0.198 A 
ATOM     91  C   UNL A   1      46.303  28.657  35.624  1.00  0.00     0.198 A 
ATOM     92  F   UNL A   1      45.423  30.307  34.198  1.00  0.00    -0.203 F 
ATOM     93  F   UNL A   1      44.651  26.057  37.530  1.00  0.00    -0.200 F 
ATOM     94  C   UNL A   1      46.115  27.576  36.472  1.00  0.00     0.200 A 
ATOM     95  F   UNL A   1      47.537  29.128  35.403  1.00  0.00    -0.200 F 
ATOM     96  F   UNL A   1      47.165  27.018  37.090  1.00  0.00    -0.200 F 
ENDBRANCH  63  86
ENDBRANCH  37  38
ENDBRANCH  29  32
ENDBRANCH  27  28
ENDBRANCH  26  27
ENDBRANCH  25  26
ENDBRANCH   1  25
TORSDOF 16
ENDMDL
MODEL 3
REMARK VINA RESULT:     -11.2      1.576      2.674
REMARK SMILES O=C(Cc1csc(NC(=O)CS[C@@H]2CCS(=O)(=O)C2)n1)NCCCCNC(=O)c1ccc(-c2c3nc(c(-c4c(F)c(F)c(F)c(F)c4F)c4ccc([nH]4)c(-c4c(F)c(F)c(F)c(F)c4F)c4nc(c(-c5c(F)c(F)c(F)c(F)c5F)c5ccc2[nH]5)C=C4)C=C3)cc1
REMARK SMILES IDX 22 1 21 2 1 3 2 4 3 6 4 7 5 8 20 9 6 10 7 11 8 12 9 13 10 15
REMARK SMILES IDX 11 16 12 17 13 18 14 19 19 20 15 21 16 22 17 23 18 24 23 25
REMARK SMILES IDX 24 26 25 27 26 28 27 29 28 31 29 32 30 33 91 34 31 35 90 36
REMARK SMILES IDX 32 37 33 38 34 39 84 40 35 41 89 42 83 43 85 44 36 45 88 46
REMARK SMILES IDX 82 47 81 48 37 50 69 51 49 52 68 53 50 54 53 55 67 56 86 57
REMARK SMILES IDX 51 58 52 59 66 61 87 62 54 63 38 64 39 65 47 66 40 67 41 68
REMARK SMILES IDX 45 69 48 70 42 71 43 72 46 73 44 74 70 75 71 76 79 77 72 78
REMARK SMILES IDX 73 79 77 80 80 81 74 82 75 83 78 84 76 85 55 86 56 87 64 88
REMARK SMILES IDX 57 89 58 90 62 91 65 92 59 93 60 94 63 95 61 96
REMARK H PARENT 21 5 8 14 26 30 85 49 53 60
REMARK Flexibility Score: inf
ROOT
ATOM      1  C   UNL A   1      34.963  32.382  28.428  1.00  0.00     0.116 C 
ENDROOT
BRANCH   1   2
ATOM      2  N   UNL A   1      34.029  31.335  28.061  1.00  0.00    -0.356 N 
ATOM      3  O   UNL A   1      35.602  29.686  27.828  1.00  0.00    -0.275 OA
ATOM      4  C   UNL A   1      34.428  30.041  27.784  1.00  0.00     0.226 C 
ATOM      5  H   UNL A   1      33.071  31.555  28.008  1.00  0.00     0.163 HD
BRANCH   4   6
ATOM      6  C   UNL A   1      33.326  29.116  27.295  1.00  0.00     0.157 C 
BRANCH   6   7
ATOM      7  C   UNL A   1      33.337  28.892  25.818  1.00  0.00     0.063 A 
ATOM      8  C   UNL A   1      34.288  28.201  25.085  1.00  0.00     0.093 A 
ATOM      9  N   UNL A   1      32.259  29.332  25.066  1.00  0.00    -0.224 NA
ATOM     10  S   UNL A   1      33.832  28.146  23.436  1.00  0.00    -0.105 S 
ATOM     11  C   UNL A   1      32.440  29.052  23.798  1.00  0.00     0.189 A 
BRANCH  11  12
ATOM     12  N   UNL A   1      31.475  29.327  22.873  1.00  0.00    -0.301 N 
ATOM     13  C   UNL A   1      30.415  28.616  22.414  1.00  0.00     0.236 C 
ATOM     14  H   UNL A   1      31.566  30.215  22.458  1.00  0.00     0.172 HD
ATOM     15  O   UNL A   1      29.538  29.256  21.823  1.00  0.00    -0.274 OA
BRANCH  13  16
ATOM     16  C   UNL A   1      30.275  27.110  22.543  1.00  0.00     0.170 C 
BRANCH  16  17
ATOM     17  S   UNL A   1      29.831  26.532  24.218  1.00  0.00    -0.148 SA
BRANCH  17  18
ATOM     18  C   UNL A   1      31.257  25.536  24.809  1.00  0.00     0.063 C 
ATOM     19  C   UNL A   1      31.487  24.174  24.154  1.00  0.00     0.031 C 
ATOM     20  C   UNL A   1      31.411  25.409  26.318  1.00  0.00     0.151 C 
ATOM     21  C   UNL A   1      31.027  23.063  25.086  1.00  0.00     0.138 C 
ATOM     22  S   UNL A   1      31.018  23.730  26.735  1.00  0.00     0.151 S 
ATOM     23  O   UNL A   1      29.666  23.703  27.252  1.00  0.00    -0.229 OA
ATOM     24  O   UNL A   1      32.133  23.171  27.468  1.00  0.00    -0.229 OA
ENDBRANCH  17  18
ENDBRANCH  16  17
ENDBRANCH  13  16
ENDBRANCH  11  12
ENDBRANCH   6   7
ENDBRANCH   4   6
ENDBRANCH   1   2
BRANCH   1  25
ATOM     25  C   UNL A   1      34.467  33.760  27.990  1.00  0.00     0.023 C 
BRANCH  25  26
ATOM     26  C   UNL A   1      33.276  34.307  28.782  1.00  0.00     0.023 C 
BRANCH  26  27
ATOM     27  C   UNL A   1      33.411  35.750  29.258  1.00  0.00     0.116 C 
BRANCH  27  28
ATOM     28  N   UNL A   1      32.526  36.064  30.368  1.00  0.00    -0.352 N 
ATOM     29  C   UNL A   1      32.622  35.722  31.696  1.00  0.00     0.251 C 
ATOM     30  H   UNL A   1      31.737  36.603  30.132  1.00  0.00     0.163 HD
ATOM     31  O   UNL A   1      31.689  35.960  32.456  1.00  0.00    -0.269 OA
BRANCH  29  32
ATOM     32  C   UNL A   1      33.830  35.038  32.213  1.00  0.00     0.039 A 
ATOM     33  C   UNL A   1      33.690  33.771  32.786  1.00  0.00     0.014 A 
ATOM     34  C   UNL A   1      35.090  35.638  32.153  1.00  0.00     0.014 A 
ATOM     35  C   UNL A   1      34.819  33.077  33.231  1.00  0.00     0.010 A 
ATOM     36  C   UNL A   1      36.223  34.916  32.527  1.00  0.00     0.010 A 
ATOM     37  C   UNL A   1      36.101  33.627  33.068  1.00  0.00    -0.014 A 
BRANCH  37  38
ATOM     38  C   UNL A   1      37.320  32.862  33.443  1.00  0.00     0.031 A 
ATOM     39  C   UNL A   1      38.047  33.167  34.724  1.00  0.00     0.074 A 
ATOM     40  C   UNL A   1      37.811  31.933  32.600  1.00  0.00     0.049 A 
ATOM     41  N   UNL A   1      39.163  32.659  35.186  1.00  0.00    -0.248 NA
ATOM     42  C   UNL A   1      37.455  34.198  35.590  1.00  0.00     0.031 C 
ATOM     43  C   UNL A   1      37.226  31.573  31.307  1.00  0.00     0.029 A 
ATOM     44  N   UNL A   1      38.921  31.130  32.695  1.00  0.00    -0.354 N 
ATOM     45  C   UNL A   1      39.409  33.312  36.386  1.00  0.00     0.074 A 
ATOM     46  C   UNL A   1      38.360  34.295  36.554  1.00  0.00     0.031 C 
ATOM     47  C   UNL A   1      37.969  30.610  30.741  1.00  0.00     0.029 A 
ATOM     48  C   UNL A   1      39.107  30.314  31.607  1.00  0.00     0.049 A 
ATOM     49  H   UNL A   1      39.526  31.140  33.472  1.00  0.00     0.167 HD
ATOM     50  C   UNL A   1      40.405  33.096  37.279  1.00  0.00     0.037 A 
ATOM     51  C   UNL A   1      40.090  29.436  31.329  1.00  0.00     0.037 A 
ATOM     52  C   UNL A   1      41.441  32.109  37.118  1.00  0.00     0.049 A 
ATOM     53  C   UNL A   1      41.197  29.230  32.327  1.00  0.00     0.074 A 
ATOM     54  C   UNL A   1      42.466  31.782  37.989  1.00  0.00     0.029 A 
ATOM     55  N   UNL A   1      41.590  31.293  36.005  1.00  0.00    -0.354 N 
ATOM     56  N   UNL A   1      41.383  29.808  33.489  1.00  0.00    -0.248 NA
ATOM     57  C   UNL A   1      42.230  28.243  31.978  1.00  0.00     0.031 C 
ATOM     58  C   UNL A   1      43.265  30.808  37.381  1.00  0.00     0.029 A 
ATOM     59  C   UNL A   1      42.703  30.482  36.158  1.00  0.00     0.049 A 
ATOM     60  H   UNL A   1      40.991  31.291  35.223  1.00  0.00     0.167 HD
ATOM     61  C   UNL A   1      42.532  29.237  34.021  1.00  0.00     0.074 A 
ATOM     62  C   UNL A   1      42.991  28.254  33.062  1.00  0.00     0.031 C 
ATOM     63  C   UNL A   1      43.149  29.502  35.198  1.00  0.00     0.037 A 
BRANCH  50  64
ATOM     64  C   UNL A   1      40.422  33.947  38.518  1.00  0.00     0.064 A 
ATOM     65  C   UNL A   1      39.687  33.597  39.662  1.00  0.00     0.173 A 
ATOM     66  C   UNL A   1      41.210  35.107  38.578  1.00  0.00     0.173 A 
ATOM     67  F   UNL A   1      38.910  32.504  39.657  1.00  0.00    -0.203 F 
ATOM     68  C   UNL A   1      39.713  34.393  40.805  1.00  0.00     0.198 A 
ATOM     69  C   UNL A   1      41.261  35.882  39.734  1.00  0.00     0.198 A 
ATOM     70  F   UNL A   1      41.938  35.484  37.517  1.00  0.00    -0.203 F 
ATOM     71  F   UNL A   1      38.960  34.067  41.864  1.00  0.00    -0.200 F 
ATOM     72  C   UNL A   1      40.506  35.529  40.842  1.00  0.00     0.200 A 
ATOM     73  F   UNL A   1      42.040  36.972  39.774  1.00  0.00    -0.200 F 
ATOM     74  F   UNL A   1      40.535  36.292  41.945  1.00  0.00    -0.200 F 
ENDBRANCH  50  64
BRANCH  51  75
ATOM     75  C   UNL A   1      40.064  28.672  30.052  1.00  0.00     0.064 A 
ATOM     76  C   UNL A   1      39.451  27.414  29.976  1.00  0.00     0.173 A 
ATOM     77  C   UNL A   1      40.655  29.181  28.887  1.00  0.00     0.173 A 
ATOM     78  F   UNL A   1      38.890  26.875  31.069  1.00  0.00    -0.203 F 
ATOM     79  C   UNL A   1      39.451  26.684  28.789  1.00  0.00     0.198 A 
ATOM     80  C   UNL A   1      40.626  28.464  27.692  1.00  0.00     0.198 A 
ATOM     81  F   UNL A   1      41.250  30.384  28.904  1.00  0.00    -0.203 F 
ATOM     82  F   UNL A   1      38.902  25.462  28.757  1.00  0.00    -0.200 F 
ATOM     83  C   UNL A   1      40.032  27.213  27.646  1.00  0.00     0.200 A 
ATOM     84  F   UNL A   1      41.174  28.987  26.587  1.00  0.00    -0.200 F 
ATOM     85  F   UNL A   1      40.027  26.514  26.504  1.00  0.00    -0.200 F 
ENDBRANCH  51  75
BRANCH  63  86
ATOM     86  C   UNL A   1      44.369  28.693  35.538  1.00  0.00     0.064 A 
ATOM     87  C   UNL A   1      44.285  27.502  36.273  1.00  0.00     0.173 A 
ATOM     88  C   UNL A   1      45.635  29.098  35.086  1.00  0.00     0.173 A 
ATOM     89  F   UNL A   1      43.102  27.078  36.741  1.00  0.00    -0.203 F 
ATOM     90  C   UNL A   1      45.428  26.762  36.568  1.00  0.00     0.198 A 
ATOM     91  C   UNL A   1      46.770  28.337  35.354  1.00  0.00     0.198 A 
ATOM     92  F   UNL A   1      45.771  30.226  34.372  1.00  0.00    -0.203 F 
ATOM     93  F   UNL A   1      45.331  25.655  37.317  1.00  0.00    -0.200 F 
ATOM     94  C   UNL A   1      46.666  27.174  36.102  1.00  0.00     0.200 A 
ATOM     95  F   UNL A   1      47.963  28.730  34.888  1.00  0.00    -0.200 F 
ATOM     96  F   UNL A   1      47.763  26.455  36.380  1.00  0.00    -0.200 F 
ENDBRANCH  63  86
ENDBRANCH  37  38
ENDBRANCH  29  32
ENDBRANCH  27  28
ENDBRANCH  26  27
ENDBRANCH  25  26
ENDBRANCH   1  25
TORSDOF 16
ENDMDL
