MODEL 1
REMARK VINA RESULT:     -10.7      0.000      0.000
REMARK SMILES COCCS(=O)(=O)CCn1cc(C(=O)NCCCCNC(=O)c2ccc(-c3c4nc(c(-c5c(F)c(F)c(F)c(F)c5F)c5ccc([nH]5)c(-c5c(F)c(F)c(F)c(F)c5F)c5nc(c(-c6c(F)c(F)c(F)c(F)c6F)c6ccc3[nH]6)C=C5)C=C4)cc2)nn1
REMARK SMILES IDX 13 1 14 2 15 3 12 5 10 6 11 7 87 8 86 9 9 10 8 11 5 12 6 13
REMARK SMILES IDX 7 14 4 15 3 16 2 17 1 18 16 19 17 20 18 21 19 22 20 23 21 24
REMARK SMILES IDX 22 26 23 27 24 28 85 29 25 30 84 31 26 32 27 33 28 34 78 35
REMARK SMILES IDX 29 36 83 37 77 38 79 39 30 40 82 41 76 42 75 43 31 45 63 46
REMARK SMILES IDX 43 47 62 48 44 49 47 50 61 51 80 52 45 53 46 54 60 56 81 57
REMARK SMILES IDX 48 58 32 59 33 60 41 61 34 62 35 63 39 64 42 65 36 66 37 67
REMARK SMILES IDX 40 68 38 69 64 70 65 71 73 72 66 73 67 74 71 75 74 76 68 77
REMARK SMILES IDX 69 78 72 79 70 80 49 81 50 82 58 83 51 84 52 85 56 86 59 87
REMARK SMILES IDX 53 88 54 89 57 90 55 91
REMARK H PARENT 15 4 20 25 79 44 47 55
REMARK Flexibility Score: inf
ROOT
ATOM      1  C   UNL A   1      34.484  29.849  27.217  1.00  0.00     0.273 C 
ATOM      2  O   UNL A   1      35.541  29.219  27.298  1.00  0.00    -0.267 OA
ATOM      3  N   UNL A   1      34.552  31.170  27.597  1.00  0.00    -0.351 N 
ATOM      4  H   UNL A   1      35.461  31.471  27.826  1.00  0.00     0.163 HD
ENDROOT
BRANCH   1   5
ATOM      5  C   UNL A   1      33.249  29.210  26.762  1.00  0.00     0.170 A 
ATOM      6  N   UNL A   1      31.557  28.352  25.700  1.00  0.00    -0.251 N 
ATOM      7  C   UNL A   1      32.485  29.350  25.617  1.00  0.00     0.145 A 
ATOM      8  N   UNL A   1      31.633  27.714  26.871  1.00  0.00    -0.067 NA
ATOM      9  N   UNL A   1      32.689  28.191  27.510  1.00  0.00    -0.125 NA
BRANCH   6  10
ATOM     10  C   UNL A   1      30.568  27.948  24.734  1.00  0.00     0.162 C 
BRANCH  10  11
ATOM     11  C   UNL A   1      30.732  28.501  23.334  1.00  0.00     0.160 C 
BRANCH  11  12
ATOM     12  S   UNL A   1      29.385  29.426  22.636  1.00  0.00     0.154 S 
ATOM     13  O   UNL A   1      28.231  28.543  22.694  1.00  0.00    -0.229 OA
ATOM     14  O   UNL A   1      29.846  29.897  21.343  1.00  0.00    -0.229 OA
BRANCH  12  15
ATOM     15  C   UNL A   1      28.986  30.862  23.613  1.00  0.00     0.165 C 
BRANCH  15  16
ATOM     16  C   UNL A   1      27.695  31.557  23.231  1.00  0.00     0.176 C 
BRANCH  16  17
ATOM     17  O   UNL A   1      27.936  32.774  22.529  1.00  0.00    -0.384 OA
ATOM     18  C   UNL A   1      28.986  33.566  23.060  1.00  0.00     0.194 C 
ENDBRANCH  16  17
ENDBRANCH  15  16
ENDBRANCH  12  15
ENDBRANCH  11  12
ENDBRANCH  10  11
ENDBRANCH   6  10
ENDBRANCH   1   5
BRANCH   3  19
ATOM     19  C   UNL A   1      33.548  32.200  27.725  1.00  0.00     0.116 C 
BRANCH  19  20
ATOM     20  C   UNL A   1      34.124  33.557  28.130  1.00  0.00     0.023 C 
BRANCH  20  21
ATOM     21  C   UNL A   1      33.125  34.549  28.746  1.00  0.00     0.023 C 
BRANCH  21  22
ATOM     22  C   UNL A   1      33.743  35.718  29.509  1.00  0.00     0.116 C 
BRANCH  22  23
ATOM     23  N   UNL A   1      33.099  35.985  30.793  1.00  0.00    -0.352 N 
ATOM     24  C   UNL A   1      33.198  35.239  31.956  1.00  0.00     0.251 C 
ATOM     25  H   UNL A   1      32.530  36.787  30.838  1.00  0.00     0.163 HD
ATOM     26  O   UNL A   1      32.345  35.302  32.828  1.00  0.00    -0.269 OA
BRANCH  24  27
ATOM     27  C   UNL A   1      34.373  34.366  32.126  1.00  0.00     0.039 A 
ATOM     28  C   UNL A   1      34.293  32.987  31.941  1.00  0.00     0.014 A 
ATOM     29  C   UNL A   1      35.589  34.978  32.423  1.00  0.00     0.014 A 
ATOM     30  C   UNL A   1      35.471  32.242  31.958  1.00  0.00     0.010 A 
ATOM     31  C   UNL A   1      36.759  34.269  32.300  1.00  0.00     0.010 A 
ATOM     32  C   UNL A   1      36.710  32.895  32.104  1.00  0.00    -0.014 A 
BRANCH  32  33
ATOM     33  C   UNL A   1      37.960  32.160  31.911  1.00  0.00     0.031 A 
ATOM     34  C   UNL A   1      38.712  31.883  33.168  1.00  0.00     0.074 A 
ATOM     35  C   UNL A   1      38.346  31.610  30.739  1.00  0.00     0.049 A 
ATOM     36  N   UNL A   1      39.848  32.385  33.521  1.00  0.00    -0.248 NA
ATOM     37  C   UNL A   1      38.075  31.064  34.211  1.00  0.00     0.031 C 
ATOM     38  C   UNL A   1      37.605  31.531  29.474  1.00  0.00     0.029 A 
ATOM     39  N   UNL A   1      39.486  30.919  30.454  1.00  0.00    -0.354 N 
ATOM     40  C   UNL A   1      40.168  31.807  34.746  1.00  0.00     0.074 A 
ATOM     41  C   UNL A   1      38.979  31.130  35.193  1.00  0.00     0.031 C 
ATOM     42  C   UNL A   1      38.209  30.651  28.643  1.00  0.00     0.029 A 
ATOM     43  C   UNL A   1      39.469  30.247  29.237  1.00  0.00     0.049 A 
ATOM     44  H   UNL A   1      40.260  30.898  31.062  1.00  0.00     0.167 HD
ATOM     45  C   UNL A   1      41.463  31.752  35.168  1.00  0.00     0.037 A 
ATOM     46  C   UNL A   1      40.426  29.422  28.744  1.00  0.00     0.037 A 
ATOM     47  C   UNL A   1      42.285  32.670  34.417  1.00  0.00     0.049 A 
ATOM     48  C   UNL A   1      41.687  29.747  29.450  1.00  0.00     0.074 A 
ATOM     49  C   UNL A   1      42.312  34.039  34.240  1.00  0.00     0.029 A 
ATOM     50  N   UNL A   1      43.039  32.151  33.395  1.00  0.00    -0.354 N 
ATOM     51  N   UNL A   1      42.331  30.869  29.299  1.00  0.00    -0.248 NA
ATOM     52  C   UNL A   1      41.997  29.002  30.659  1.00  0.00     0.031 C 
ATOM     53  C   UNL A   1      42.664  34.228  32.869  1.00  0.00     0.029 A 
ATOM     54  C   UNL A   1      42.900  32.972  32.309  1.00  0.00     0.049 A 
ATOM     55  H   UNL A   1      43.583  31.331  33.436  1.00  0.00     0.167 HD
ATOM     56  C   UNL A   1      42.763  31.192  30.576  1.00  0.00     0.074 A 
ATOM     57  C   UNL A   1      42.624  29.958  31.347  1.00  0.00     0.031 C 
ATOM     58  C   UNL A   1      42.920  32.496  30.947  1.00  0.00     0.037 A 
BRANCH  45  59
ATOM     59  C   UNL A   1      42.069  30.605  35.946  1.00  0.00     0.064 A 
ATOM     60  C   UNL A   1      42.995  30.894  36.972  1.00  0.00     0.173 A 
ATOM     61  C   UNL A   1      42.042  29.261  35.518  1.00  0.00     0.173 A 
ATOM     62  F   UNL A   1      43.113  32.139  37.457  1.00  0.00    -0.203 F 
ATOM     63  C   UNL A   1      43.897  29.937  37.446  1.00  0.00     0.198 A 
ATOM     64  C   UNL A   1      42.910  28.297  36.030  1.00  0.00     0.198 A 
ATOM     65  F   UNL A   1      41.265  28.846  34.511  1.00  0.00    -0.203 F 
ATOM     66  F   UNL A   1      44.854  30.297  38.313  1.00  0.00    -0.200 F 
ATOM     67  C   UNL A   1      43.861  28.643  36.966  1.00  0.00     0.200 A 
ATOM     68  F   UNL A   1      42.871  27.050  35.540  1.00  0.00    -0.200 F 
ATOM     69  F   UNL A   1      44.772  27.743  37.361  1.00  0.00    -0.200 F 
ENDBRANCH  45  59
BRANCH  46  70
ATOM     70  C   UNL A   1      40.288  28.209  27.907  1.00  0.00     0.064 A 
ATOM     71  C   UNL A   1      41.033  28.054  26.725  1.00  0.00     0.173 A 
ATOM     72  C   UNL A   1      39.665  27.051  28.410  1.00  0.00     0.173 A 
ATOM     73  F   UNL A   1      41.691  29.099  26.200  1.00  0.00    -0.203 F 
ATOM     74  C   UNL A   1      41.182  26.808  26.108  1.00  0.00     0.198 A 
ATOM     75  C   UNL A   1      39.811  25.808  27.791  1.00  0.00     0.198 A 
ATOM     76  F   UNL A   1      38.988  27.087  29.567  1.00  0.00    -0.203 F 
ATOM     77  F   UNL A   1      41.960  26.687  25.023  1.00  0.00    -0.200 F 
ATOM     78  C   UNL A   1      40.583  25.683  26.650  1.00  0.00     0.200 A 
ATOM     79  F   UNL A   1      39.258  24.721  28.346  1.00  0.00    -0.200 F 
ATOM     80  F   UNL A   1      40.784  24.477  26.102  1.00  0.00    -0.200 F 
ENDBRANCH  46  70
BRANCH  58  81
ATOM     81  C   UNL A   1      42.902  33.534  29.857  1.00  0.00     0.064 A 
ATOM     82  C   UNL A   1      41.756  34.240  29.447  1.00  0.00     0.173 A 
ATOM     83  C   UNL A   1      44.124  33.903  29.280  1.00  0.00     0.173 A 
ATOM     84  F   UNL A   1      40.566  34.018  30.016  1.00  0.00    -0.203 F 
ATOM     85  C   UNL A   1      41.828  35.230  28.468  1.00  0.00     0.198 A 
ATOM     86  C   UNL A   1      44.199  34.918  28.332  1.00  0.00     0.198 A 
ATOM     87  F   UNL A   1      45.258  33.302  29.669  1.00  0.00    -0.203 F 
ATOM     88  F   UNL A   1      40.718  35.874  28.079  1.00  0.00    -0.200 F 
ATOM     89  C   UNL A   1      43.051  35.572  27.916  1.00  0.00     0.200 A 
ATOM     90  F   UNL A   1      45.390  35.279  27.836  1.00  0.00    -0.200 F 
ATOM     91  F   UNL A   1      43.126  36.548  26.999  1.00  0.00    -0.200 F 
ENDBRANCH  58  81
ENDBRANCH  32  33
ENDBRANCH  24  27
ENDBRANCH  22  23
ENDBRANCH  21  22
ENDBRANCH  20  21
ENDBRANCH  19  20
ENDBRANCH   3  19
TORSDOF 17
ENDMDL
MODEL 2
REMARK VINA RESULT:     -10.4      1.584      2.353
REMARK SMILES COCCS(=O)(=O)CCn1cc(C(=O)NCCCCNC(=O)c2ccc(-c3c4nc(c(-c5c(F)c(F)c(F)c(F)c5F)c5ccc([nH]5)c(-c5c(F)c(F)c(F)c(F)c5F)c5nc(c(-c6c(F)c(F)c(F)c(F)c6F)c6ccc3[nH]6)C=C5)C=C4)cc2)nn1
REMARK SMILES IDX 13 1 14 2 15 3 12 5 10 6 11 7 87 8 86 9 9 10 8 11 5 12 6 13
REMARK SMILES IDX 7 14 4 15 3 16 2 17 1 18 16 19 17 20 18 21 19 22 20 23 21 24
REMARK SMILES IDX 22 26 23 27 24 28 85 29 25 30 84 31 26 32 27 33 28 34 78 35
REMARK SMILES IDX 29 36 83 37 77 38 79 39 30 40 82 41 76 42 75 43 31 45 63 46
REMARK SMILES IDX 43 47 62 48 44 49 47 50 61 51 80 52 45 53 46 54 60 56 81 57
REMARK SMILES IDX 48 58 32 59 33 60 41 61 34 62 35 63 39 64 42 65 36 66 37 67
REMARK SMILES IDX 40 68 38 69 64 70 65 71 73 72 66 73 67 74 71 75 74 76 68 77
REMARK SMILES IDX 69 78 72 79 70 80 49 81 50 82 58 83 51 84 52 85 56 86 59 87
REMARK SMILES IDX 53 88 54 89 57 90 55 91
REMARK H PARENT 15 4 20 25 79 44 47 55
REMARK Flexibility Score: inf
ROOT
ATOM      1  C   UNL A   1      34.500  29.814  27.262  1.00  0.00     0.273 C 
ATOM      2  O   UNL A   1      35.468  29.092  27.515  1.00  0.00    -0.267 OA
ATOM      3  N   UNL A   1      34.588  31.106  27.729  1.00  0.00    -0.351 N 
ATOM      4  H   UNL A   1      35.451  31.316  28.153  1.00  0.00     0.163 HD
ENDROOT
BRANCH   1   5
ATOM      5  C   UNL A   1      33.341  29.305  26.529  1.00  0.00     0.170 A 
ATOM      6  N   UNL A   1      31.893  28.488  25.128  1.00  0.00    -0.251 N 
ATOM      7  C   UNL A   1      33.045  29.219  25.180  1.00  0.00     0.145 A 
ATOM      8  N   UNL A   1      31.415  28.246  26.351  1.00  0.00    -0.067 NA
ATOM      9  N   UNL A   1      32.309  28.694  27.218  1.00  0.00    -0.125 NA
BRANCH   6  10
ATOM     10  C   UNL A   1      31.182  27.992  23.977  1.00  0.00     0.162 C 
BRANCH  10  11
ATOM     11  C   UNL A   1      32.000  27.791  22.719  1.00  0.00     0.160 C 
BRANCH  11  12
ATOM     12  S   UNL A   1      32.699  26.184  22.423  1.00  0.00     0.154 S 
ATOM     13  O   UNL A   1      33.626  26.358  21.316  1.00  0.00    -0.229 OA
ATOM     14  O   UNL A   1      31.577  25.278  22.266  1.00  0.00    -0.229 OA
BRANCH  12  15
ATOM     15  C   UNL A   1      33.657  25.609  23.812  1.00  0.00     0.165 C 
BRANCH  15  16
ATOM     16  C   UNL A   1      32.920  24.678  24.754  1.00  0.00     0.176 C 
BRANCH  16  17
ATOM     17  O   UNL A   1      33.597  23.433  24.905  1.00  0.00    -0.384 OA
ATOM     18  C   UNL A   1      33.669  22.651  23.723  1.00  0.00     0.194 C 
ENDBRANCH  16  17
ENDBRANCH  15  16
ENDBRANCH  12  15
ENDBRANCH  11  12
ENDBRANCH  10  11
ENDBRANCH   6  10
ENDBRANCH   1   5
BRANCH   3  19
ATOM     19  C   UNL A   1      33.660  32.212  27.716  1.00  0.00     0.116 C 
BRANCH  19  20
ATOM     20  C   UNL A   1      34.199  33.460  28.414  1.00  0.00     0.023 C 
BRANCH  20  21
ATOM     21  C   UNL A   1      33.145  34.492  28.844  1.00  0.00     0.023 C 
BRANCH  21  22
ATOM     22  C   UNL A   1      33.688  35.735  29.545  1.00  0.00     0.116 C 
BRANCH  22  23
ATOM     23  N   UNL A   1      33.044  36.011  30.828  1.00  0.00    -0.352 N 
ATOM     24  C   UNL A   1      33.157  35.283  32.001  1.00  0.00     0.251 C 
ATOM     25  H   UNL A   1      32.465  36.806  30.864  1.00  0.00     0.163 HD
ATOM     26  O   UNL A   1      32.307  35.346  32.875  1.00  0.00    -0.269 OA
BRANCH  24  27
ATOM     27  C   UNL A   1      34.344  34.428  32.179  1.00  0.00     0.039 A 
ATOM     28  C   UNL A   1      34.264  33.038  32.102  1.00  0.00     0.014 A 
ATOM     29  C   UNL A   1      35.569  35.063  32.371  1.00  0.00     0.014 A 
ATOM     30  C   UNL A   1      35.446  32.300  32.118  1.00  0.00     0.010 A 
ATOM     31  C   UNL A   1      36.736  34.350  32.245  1.00  0.00     0.010 A 
ATOM     32  C   UNL A   1      36.686  32.965  32.155  1.00  0.00    -0.014 A 
BRANCH  32  33
ATOM     33  C   UNL A   1      37.930  32.221  31.958  1.00  0.00     0.031 A 
ATOM     34  C   UNL A   1      38.683  31.937  33.212  1.00  0.00     0.074 A 
ATOM     35  C   UNL A   1      38.309  31.670  30.783  1.00  0.00     0.049 A 
ATOM     36  N   UNL A   1      39.824  32.429  33.563  1.00  0.00    -0.248 NA
ATOM     37  C   UNL A   1      38.043  31.121  34.256  1.00  0.00     0.031 C 
ATOM     38  C   UNL A   1      37.564  31.598  29.520  1.00  0.00     0.029 A 
ATOM     39  N   UNL A   1      39.443  30.971  30.495  1.00  0.00    -0.354 N 
ATOM     40  C   UNL A   1      40.143  31.847  34.786  1.00  0.00     0.074 A 
ATOM     41  C   UNL A   1      38.949  31.178  35.235  1.00  0.00     0.031 C 
ATOM     42  C   UNL A   1      38.159  30.716  28.686  1.00  0.00     0.029 A 
ATOM     43  C   UNL A   1      39.418  30.301  29.276  1.00  0.00     0.049 A 
ATOM     44  H   UNL A   1      40.218  30.943  31.101  1.00  0.00     0.167 HD
ATOM     45  C   UNL A   1      41.438  31.780  35.204  1.00  0.00     0.037 A 
ATOM     46  C   UNL A   1      40.367  29.470  28.779  1.00  0.00     0.037 A 
ATOM     47  C   UNL A   1      42.266  32.693  34.453  1.00  0.00     0.049 A 
ATOM     48  C   UNL A   1      41.632  29.783  29.483  1.00  0.00     0.074 A 
ATOM     49  C   UNL A   1      42.302  34.063  34.278  1.00  0.00     0.029 A 
ATOM     50  N   UNL A   1      43.013  32.170  33.428  1.00  0.00    -0.354 N 
ATOM     51  N   UNL A   1      42.284  30.901  29.332  1.00  0.00    -0.248 NA
ATOM     52  C   UNL A   1      41.939  29.034  30.690  1.00  0.00     0.031 C 
ATOM     53  C   UNL A   1      42.652  34.252  32.906  1.00  0.00     0.029 A 
ATOM     54  C   UNL A   1      42.878  32.994  32.344  1.00  0.00     0.049 A 
ATOM     55  H   UNL A   1      43.550  31.346  33.467  1.00  0.00     0.167 HD
ATOM     56  C   UNL A   1      42.722  31.218  30.608  1.00  0.00     0.074 A 
ATOM     57  C   UNL A   1      42.576  29.985  31.377  1.00  0.00     0.031 C 
ATOM     58  C   UNL A   1      42.889  32.521  30.981  1.00  0.00     0.037 A 
BRANCH  45  59
ATOM     59  C   UNL A   1      42.038  30.628  35.979  1.00  0.00     0.064 A 
ATOM     60  C   UNL A   1      42.979  30.907  36.994  1.00  0.00     0.173 A 
ATOM     61  C   UNL A   1      41.987  29.283  35.555  1.00  0.00     0.173 A 
ATOM     62  F   UNL A   1      43.118  32.152  37.474  1.00  0.00    -0.203 F 
ATOM     63  C   UNL A   1      43.873  29.940  37.461  1.00  0.00     0.198 A 
ATOM     64  C   UNL A   1      42.848  28.309  36.061  1.00  0.00     0.198 A 
ATOM     65  F   UNL A   1      41.194  28.876  34.559  1.00  0.00    -0.203 F 
ATOM     66  F   UNL A   1      44.844  30.290  38.316  1.00  0.00    -0.200 F 
ATOM     67  C   UNL A   1      43.814  28.645  36.985  1.00  0.00     0.200 A 
ATOM     68  F   UNL A   1      42.787  27.062  35.574  1.00  0.00    -0.200 F 
ATOM     69  F   UNL A   1      44.718  27.734  37.373  1.00  0.00    -0.200 F 
ENDBRANCH  45  59
BRANCH  46  70
ATOM     70  C   UNL A   1      40.217  28.259  27.941  1.00  0.00     0.064 A 
ATOM     71  C   UNL A   1      40.959  28.099  26.757  1.00  0.00     0.173 A 
ATOM     72  C   UNL A   1      39.587  27.105  28.444  1.00  0.00     0.173 A 
ATOM     73  F   UNL A   1      41.623  29.140  26.232  1.00  0.00    -0.203 F 
ATOM     74  C   UNL A   1      41.096  26.853  26.138  1.00  0.00     0.198 A 
ATOM     75  C   UNL A   1      39.722  25.861  27.823  1.00  0.00     0.198 A 
ATOM     76  F   UNL A   1      38.913  27.144  29.602  1.00  0.00    -0.203 F 
ATOM     77  F   UNL A   1      41.871  26.728  25.051  1.00  0.00    -0.200 F 
ATOM     78  C   UNL A   1      40.490  25.733  26.680  1.00  0.00     0.200 A 
ATOM     79  F   UNL A   1      39.161  24.778  28.377  1.00  0.00    -0.200 F 
ATOM     80  F   UNL A   1      40.681  24.526  26.129  1.00  0.00    -0.200 F 
ENDBRANCH  46  70
BRANCH  58  81
ATOM     81  C   UNL A   1      42.877  33.560  29.892  1.00  0.00     0.064 A 
ATOM     82  C   UNL A   1      41.741  34.294  29.504  1.00  0.00     0.173 A 
ATOM     83  C   UNL A   1      44.097  33.902  29.295  1.00  0.00     0.173 A 
ATOM     84  F   UNL A   1      40.556  34.099  30.094  1.00  0.00    -0.203 F 
ATOM     85  C   UNL A   1      41.819  35.283  28.525  1.00  0.00     0.198 A 
ATOM     86  C   UNL A   1      44.179  34.916  28.346  1.00  0.00     0.198 A 
ATOM     87  F   UNL A   1      45.224  33.274  29.663  1.00  0.00    -0.203 F 
ATOM     88  F   UNL A   1      40.717  35.954  28.157  1.00  0.00    -0.200 F 
ATOM     89  C   UNL A   1      43.039  35.598  27.952  1.00  0.00     0.200 A 
ATOM     90  F   UNL A   1      45.370  35.250  27.830  1.00  0.00    -0.200 F 
ATOM     91  F   UNL A   1      43.122  36.573  27.035  1.00  0.00    -0.200 F 
ENDBRANCH  58  81
ENDBRANCH  32  33
ENDBRANCH  24  27
ENDBRANCH  22  23
ENDBRANCH  21  22
ENDBRANCH  20  21
ENDBRANCH  19  20
ENDBRANCH   3  19
TORSDOF 17
ENDMDL
MODEL 3
REMARK VINA RESULT:     -10.3      3.762      8.974
REMARK SMILES COCCS(=O)(=O)CCn1cc(C(=O)NCCCCNC(=O)c2ccc(-c3c4nc(c(-c5c(F)c(F)c(F)c(F)c5F)c5ccc([nH]5)c(-c5c(F)c(F)c(F)c(F)c5F)c5nc(c(-c6c(F)c(F)c(F)c(F)c6F)c6ccc3[nH]6)C=C5)C=C4)cc2)nn1
REMARK SMILES IDX 13 1 14 2 15 3 12 5 10 6 11 7 87 8 86 9 9 10 8 11 5 12 6 13
REMARK SMILES IDX 7 14 4 15 3 16 2 17 1 18 16 19 17 20 18 21 19 22 20 23 21 24
REMARK SMILES IDX 22 26 23 27 24 28 85 29 25 30 84 31 26 32 27 33 28 34 78 35
REMARK SMILES IDX 29 36 83 37 77 38 79 39 30 40 82 41 76 42 75 43 31 45 63 46
REMARK SMILES IDX 43 47 62 48 44 49 47 50 61 51 80 52 45 53 46 54 60 56 81 57
REMARK SMILES IDX 48 58 32 59 33 60 41 61 34 62 35 63 39 64 42 65 36 66 37 67
REMARK SMILES IDX 40 68 38 69 64 70 65 71 73 72 66 73 67 74 71 75 74 76 68 77
REMARK SMILES IDX 69 78 72 79 70 80 49 81 50 82 58 83 51 84 52 85 56 86 59 87
REMARK SMILES IDX 53 88 54 89 57 90 55 91
REMARK H PARENT 15 4 20 25 79 44 47 55
REMARK Flexibility Score: inf
ROOT
ATOM      1  C   UNL A   1      32.826  20.453  25.195  1.00  0.00     0.273 C 
ATOM      2  O   UNL A   1      32.274  19.356  25.081  1.00  0.00    -0.267 OA
ATOM      3  N   UNL A   1      34.178  20.412  25.450  1.00  0.00    -0.351 N 
ATOM      4  H   UNL A   1      34.555  19.503  25.445  1.00  0.00     0.163 HD
ENDROOT
BRANCH   1   5
ATOM      5  C   UNL A   1      32.071  21.701  25.079  1.00  0.00     0.170 A 
ATOM      6  N   UNL A   1      30.999  23.499  24.493  1.00  0.00    -0.251 N 
ATOM      7  C   UNL A   1      32.024  22.685  24.107  1.00  0.00     0.145 A 
ATOM      8  N   UNL A   1      30.520  23.146  25.689  1.00  0.00    -0.067 NA
ATOM      9  N   UNL A   1      31.129  22.023  26.039  1.00  0.00    -0.125 NA
BRANCH   6  10
ATOM     10  C   UNL A   1      30.424  24.626  23.804  1.00  0.00     0.162 C 
BRANCH  10  11
ATOM     11  C   UNL A   1      30.325  25.914  24.593  1.00  0.00     0.160 C 
BRANCH  11  12
ATOM     12  S   UNL A   1      31.785  26.918  24.744  1.00  0.00     0.154 S 
ATOM     13  O   UNL A   1      32.718  26.135  25.537  1.00  0.00    -0.229 OA
ATOM     14  O   UNL A   1      31.340  28.204  25.247  1.00  0.00    -0.229 OA
BRANCH  12  15
ATOM     15  C   UNL A   1      32.561  27.205  23.165  1.00  0.00     0.165 C 
BRANCH  15  16
ATOM     16  C   UNL A   1      33.689  26.251  22.826  1.00  0.00     0.176 C 
BRANCH  16  17
ATOM     17  O   UNL A   1      33.685  25.896  21.446  1.00  0.00    -0.384 OA
ATOM     18  C   UNL A   1      32.395  25.714  20.884  1.00  0.00     0.194 C 
ENDBRANCH  16  17
ENDBRANCH  15  16
ENDBRANCH  12  15
ENDBRANCH  11  12
ENDBRANCH  10  11
ENDBRANCH   6  10
ENDBRANCH   1   5
BRANCH   3  19
ATOM     19  C   UNL A   1      35.149  21.444  25.726  1.00  0.00     0.116 C 
BRANCH  19  20
ATOM     20  C   UNL A   1      35.861  21.952  24.472  1.00  0.00     0.023 C 
BRANCH  20  21
ATOM     21  C   UNL A   1      37.374  22.184  24.611  1.00  0.00     0.023 C 
BRANCH  21  22
ATOM     22  C   UNL A   1      37.831  22.772  25.943  1.00  0.00     0.116 C 
BRANCH  22  23
ATOM     23  N   UNL A   1      38.859  21.977  26.612  1.00  0.00    -0.352 N 
ATOM     24  C   UNL A   1      40.119  22.393  27.009  1.00  0.00     0.251 C 
ATOM     25  H   UNL A   1      38.629  21.040  26.804  1.00  0.00     0.163 HD
ATOM     26  O   UNL A   1      41.026  21.596  27.188  1.00  0.00    -0.269 OA
BRANCH  24  27
ATOM     27  C   UNL A   1      40.341  23.834  27.225  1.00  0.00     0.039 A 
ATOM     28  C   UNL A   1      39.500  24.795  26.667  1.00  0.00     0.014 A 
ATOM     29  C   UNL A   1      41.394  24.203  28.059  1.00  0.00     0.014 A 
ATOM     30  C   UNL A   1      39.669  26.128  27.041  1.00  0.00     0.010 A 
ATOM     31  C   UNL A   1      41.471  25.489  28.535  1.00  0.00     0.010 A 
ATOM     32  C   UNL A   1      40.637  26.466  28.006  1.00  0.00    -0.014 A 
BRANCH  32  33
ATOM     33  C   UNL A   1      40.683  27.818  28.563  1.00  0.00     0.031 A 
ATOM     34  C   UNL A   1      41.782  28.669  28.025  1.00  0.00     0.074 A 
ATOM     35  C   UNL A   1      39.730  28.343  29.364  1.00  0.00     0.049 A 
ATOM     36  N   UNL A   1      42.819  29.097  28.664  1.00  0.00    -0.248 NA
ATOM     37  C   UNL A   1      41.806  28.970  26.585  1.00  0.00     0.031 C 
ATOM     38  C   UNL A   1      38.444  27.760  29.764  1.00  0.00     0.029 A 
ATOM     39  N   UNL A   1      39.684  29.578  29.939  1.00  0.00    -0.354 N 
ATOM     40  C   UNL A   1      43.538  29.879  27.766  1.00  0.00     0.074 A 
ATOM     41  C   UNL A   1      42.957  29.639  26.470  1.00  0.00     0.031 C 
ATOM     42  C   UNL A   1      37.661  28.713  30.320  1.00  0.00     0.029 A 
ATOM     43  C   UNL A   1      38.450  29.920  30.483  1.00  0.00     0.049 A 
ATOM     44  H   UNL A   1      40.462  30.180  29.968  1.00  0.00     0.167 HD
ATOM     45  C   UNL A   1      44.403  30.832  28.215  1.00  0.00     0.037 A 
ATOM     46  C   UNL A   1      38.100  31.107  31.036  1.00  0.00     0.037 A 
ATOM     47  C   UNL A   1      44.725  30.615  29.605  1.00  0.00     0.049 A 
ATOM     48  C   UNL A   1      39.353  31.790  31.431  1.00  0.00     0.074 A 
ATOM     49  C   UNL A   1      45.332  29.603  30.323  1.00  0.00     0.029 A 
ATOM     50  N   UNL A   1      44.064  31.380  30.532  1.00  0.00    -0.354 N 
ATOM     51  N   UNL A   1      40.131  31.375  32.389  1.00  0.00    -0.248 NA
ATOM     52  C   UNL A   1      39.968  32.686  30.466  1.00  0.00     0.031 C 
ATOM     53  C   UNL A   1      44.610  29.538  31.554  1.00  0.00     0.029 A 
ATOM     54  C   UNL A   1      43.656  30.556  31.546  1.00  0.00     0.049 A 
ATOM     55  H   UNL A   1      43.910  32.351  30.477  1.00  0.00     0.167 HD
ATOM     56  C   UNL A   1      41.413  31.574  31.903  1.00  0.00     0.074 A 
ATOM     57  C   UNL A   1      41.252  32.480  30.768  1.00  0.00     0.031 C 
ATOM     58  C   UNL A   1      42.438  30.760  32.292  1.00  0.00     0.037 A 
BRANCH  45  59
ATOM     59  C   UNL A   1      44.634  32.171  27.551  1.00  0.00     0.064 A 
ATOM     60  C   UNL A   1      45.810  32.361  26.793  1.00  0.00     0.173 A 
ATOM     61  C   UNL A   1      43.939  33.351  27.895  1.00  0.00     0.173 A 
ATOM     62  F   UNL A   1      46.554  31.312  26.411  1.00  0.00    -0.203 F 
ATOM     63  C   UNL A   1      46.307  33.635  26.504  1.00  0.00     0.198 A 
ATOM     64  C   UNL A   1      44.413  34.619  27.561  1.00  0.00     0.198 A 
ATOM     65  F   UNL A   1      42.846  33.339  28.664  1.00  0.00    -0.203 F 
ATOM     66  F   UNL A   1      47.502  33.764  25.911  1.00  0.00    -0.200 F 
ATOM     67  C   UNL A   1      45.614  34.763  26.899  1.00  0.00     0.200 A 
ATOM     68  F   UNL A   1      43.735  35.702  27.967  1.00  0.00    -0.200 F 
ATOM     69  F   UNL A   1      46.124  35.984  26.692  1.00  0.00    -0.200 F 
ENDBRANCH  45  59
BRANCH  46  70
ATOM     70  C   UNL A   1      36.798  31.811  31.016  1.00  0.00     0.064 A 
ATOM     71  C   UNL A   1      36.055  31.996  32.195  1.00  0.00     0.173 A 
ATOM     72  C   UNL A   1      36.412  32.585  29.906  1.00  0.00     0.173 A 
ATOM     73  F   UNL A   1      36.382  31.326  33.311  1.00  0.00    -0.203 F 
ATOM     74  C   UNL A   1      35.017  32.930  32.271  1.00  0.00     0.198 A 
ATOM     75  C   UNL A   1      35.373  33.515  29.981  1.00  0.00     0.198 A 
ATOM     76  F   UNL A   1      37.101  32.526  28.757  1.00  0.00    -0.203 F 
ATOM     77  F   UNL A   1      34.380  33.130  33.434  1.00  0.00    -0.200 F 
ATOM     78  C   UNL A   1      34.686  33.699  31.168  1.00  0.00     0.200 A 
ATOM     79  F   UNL A   1      35.087  34.280  28.918  1.00  0.00    -0.200 F 
ATOM     80  F   UNL A   1      33.742  34.645  31.260  1.00  0.00    -0.200 F 
ENDBRANCH  46  70
BRANCH  58  81
ATOM     81  C   UNL A   1      42.195  29.856  33.471  1.00  0.00     0.064 A 
ATOM     82  C   UNL A   1      41.719  28.536  33.379  1.00  0.00     0.173 A 
ATOM     83  C   UNL A   1      42.569  30.316  34.741  1.00  0.00     0.173 A 
ATOM     84  F   UNL A   1      41.432  27.985  32.194  1.00  0.00    -0.203 F 
ATOM     85  C   UNL A   1      41.574  27.738  34.513  1.00  0.00     0.198 A 
ATOM     86  C   UNL A   1      42.460  29.505  35.866  1.00  0.00     0.198 A 
ATOM     87  F   UNL A   1      43.081  31.548  34.884  1.00  0.00    -0.203 F 
ATOM     88  F   UNL A   1      41.096  26.490  34.401  1.00  0.00    -0.200 F 
ATOM     89  C   UNL A   1      41.950  28.222  35.755  1.00  0.00     0.200 A 
ATOM     90  F   UNL A   1      42.871  29.960  37.057  1.00  0.00    -0.200 F 
ATOM     91  F   UNL A   1      41.843  27.443  36.841  1.00  0.00    -0.200 F 
ENDBRANCH  58  81
ENDBRANCH  32  33
ENDBRANCH  24  27
ENDBRANCH  22  23
ENDBRANCH  21  22
ENDBRANCH  20  21
ENDBRANCH  19  20
ENDBRANCH   3  19
TORSDOF 17
ENDMDL
