MODEL 1
REMARK VINA RESULT:     -13.9      0.000      0.000
REMARK SMILES O=C(NC1(C(=O)NCCCCNC(=O)c2ccc(-c3c4nc(c(-c5c(F)c(F)c(F)c(F)c5F)c5ccc([nH]5)c(-c5c(F)c(F)c(F)c(F)c5F)c5nc(c(-c6c(F)c(F)c(F)c(F)c6F)c6ccc3[nH]6)C=C5)C=C4)cc2)CC[NH2+]CC1)OCC1c2ccccc2-c2ccccc21
REMARK SMILES IDX 8 1 7 2 5 3 6 4 4 6 78 7 82 8 79 9 81 10 80 11 3 14 1 15
REMARK SMILES IDX 2 16 83 18 84 19 85 20 86 21 97 22 87 23 91 24 92 25 96 26
REMARK SMILES IDX 88 27 90 28 93 29 95 30 89 31 94 32 9 33 10 34 11 35 12 36
REMARK SMILES IDX 13 37 14 39 15 40 16 41 77 42 17 43 76 44 18 45 19 46 20 47
REMARK SMILES IDX 70 48 21 49 75 50 69 51 71 52 22 53 74 54 68 55 67 56 23 58
REMARK SMILES IDX 55 59 35 60 54 61 36 62 39 63 53 64 72 65 37 66 38 67 52 69
REMARK SMILES IDX 73 70 40 71 24 72 25 73 33 74 26 75 27 76 31 77 34 78 28 79
REMARK SMILES IDX 29 80 32 81 30 82 56 83 57 84 65 85 58 86 59 87 63 88 66 89
REMARK SMILES IDX 60 90 61 91 64 92 62 93 41 94 42 95 50 96 43 97 44 98 48 99
REMARK SMILES IDX 51 100 45 101 46 102 49 103 47 104
REMARK H PARENT 7 5 80 12 80 13 3 17 12 38 71 57 39 68
REMARK Flexibility Score: inf
ROOT
ATOM      1  C   UNL A   1      36.393  22.007  25.362  1.00  0.00     0.116 C 
ENDROOT
BRANCH   1   2
ATOM      2  N   UNL A   1      35.651  22.209  26.581  1.00  0.00    -0.354 N 
ATOM      3  C   UNL A   1      34.318  22.247  26.825  1.00  0.00     0.246 C 
ATOM      4  O   UNL A   1      34.018  22.425  28.016  1.00  0.00    -0.272 OA
ATOM      5  H   UNL A   1      36.212  22.344  27.378  1.00  0.00     0.163 HD
BRANCH   3   6
ATOM      6  C   UNL A   1      33.208  21.928  25.770  1.00  0.00     0.132 C 
ATOM      7  C   UNL A   1      33.163  22.710  24.449  1.00  0.00     0.100 C 
ATOM      8  C   UNL A   1      33.358  20.439  25.375  1.00  0.00     0.100 C 
ATOM      9  C   UNL A   1      31.988  22.251  23.591  1.00  0.00     0.263 C 
ATOM     10  C   UNL A   1      32.310  19.984  24.350  1.00  0.00     0.263 C 
ATOM     11  N   UNL A   1      32.216  20.867  23.188  1.00  0.00    -0.346 N 
ATOM     12  H   UNL A   1      33.088  20.815  22.660  1.00  0.00     0.346 HD
ATOM     13  H   UNL A   1      31.428  20.564  22.617  1.00  0.00     0.346 HD
BRANCH   6  14
ATOM     14  N   UNL A   1      31.954  22.126  26.548  1.00  0.00    -0.307 N 
ATOM     15  O   UNL A   1      30.208  23.286  27.385  1.00  0.00    -0.225 OA
ATOM     16  C   UNL A   1      31.277  23.289  26.782  1.00  0.00     0.408 C 
ATOM     17  H   UNL A   1      31.561  21.314  26.943  1.00  0.00     0.168 HD
BRANCH  16  18
ATOM     18  O   UNL A   1      31.819  24.383  26.181  1.00  0.00    -0.449 OA
BRANCH  18  19
ATOM     19  C   UNL A   1      30.829  25.336  25.780  1.00  0.00     0.248 C 
BRANCH  19  20
ATOM     20  C   UNL A   1      31.361  26.582  25.049  1.00  0.00     0.088 C 
ATOM     21  C   UNL A   1      32.254  27.612  25.742  1.00  0.00    -0.029 A 
ATOM     22  C   UNL A   1      30.327  27.472  24.373  1.00  0.00    -0.029 A 
ATOM     23  C   UNL A   1      33.375  27.433  26.536  1.00  0.00     0.005 A 
ATOM     24  C   UNL A   1      31.869  28.915  25.351  1.00  0.00    -0.014 A 
ATOM     25  C   UNL A   1      30.733  28.822  24.460  1.00  0.00    -0.014 A 
ATOM     26  C   UNL A   1      29.218  27.105  23.627  1.00  0.00     0.005 A 
ATOM     27  C   UNL A   1      34.051  28.561  27.020  1.00  0.00     0.000 A 
ATOM     28  C   UNL A   1      32.550  30.036  25.809  1.00  0.00     0.009 A 
ATOM     29  C   UNL A   1      30.099  29.800  23.713  1.00  0.00     0.009 A 
ATOM     30  C   UNL A   1      28.556  28.098  22.901  1.00  0.00     0.000 A 
ATOM     31  C   UNL A   1      33.637  29.853  26.665  1.00  0.00     0.001 A 
ATOM     32  C   UNL A   1      29.013  29.426  22.918  1.00  0.00     0.001 A 
ENDBRANCH  19  20
ENDBRANCH  18  19
ENDBRANCH  16  18
ENDBRANCH   6  14
ENDBRANCH   3   6
ENDBRANCH   1   2
BRANCH   1  33
ATOM     33  C   UNL A   1      36.701  20.526  25.144  1.00  0.00     0.023 C 
BRANCH  33  34
ATOM     34  C   UNL A   1      38.148  20.242  24.736  1.00  0.00     0.023 C 
BRANCH  34  35
ATOM     35  C   UNL A   1      39.146  20.302  25.885  1.00  0.00     0.116 C 
BRANCH  35  36
ATOM     36  N   UNL A   1      40.103  19.205  25.893  1.00  0.00    -0.352 N 
ATOM     37  C   UNL A   1      41.461  19.257  26.095  1.00  0.00     0.251 C 
ATOM     38  H   UNL A   1      39.727  18.309  25.732  1.00  0.00     0.163 HD
ATOM     39  O   UNL A   1      42.143  18.245  25.977  1.00  0.00    -0.269 OA
BRANCH  37  40
ATOM     40  C   UNL A   1      42.105  20.556  26.392  1.00  0.00     0.039 A 
ATOM     41  C   UNL A   1      42.509  21.365  25.327  1.00  0.00     0.014 A 
ATOM     42  C   UNL A   1      42.278  20.995  27.707  1.00  0.00     0.014 A 
ATOM     43  C   UNL A   1      43.016  22.642  25.579  1.00  0.00     0.010 A 
ATOM     44  C   UNL A   1      42.697  22.297  27.953  1.00  0.00     0.010 A 
ATOM     45  C   UNL A   1      43.077  23.133  26.894  1.00  0.00    -0.014 A 
BRANCH  45  46
ATOM     46  C   UNL A   1      43.545  24.511  27.185  1.00  0.00     0.031 A 
ATOM     47  C   UNL A   1      42.589  25.530  27.742  1.00  0.00     0.074 A 
ATOM     48  C   UNL A   1      44.807  24.868  26.875  1.00  0.00     0.049 A 
ATOM     49  N   UNL A   1      42.783  26.799  27.996  1.00  0.00    -0.248 NA
ATOM     50  C   UNL A   1      41.218  25.068  28.013  1.00  0.00     0.031 C 
ATOM     51  C   UNL A   1      45.810  23.993  26.269  1.00  0.00     0.029 A 
ATOM     52  N   UNL A   1      45.459  26.066  27.023  1.00  0.00    -0.354 N 
ATOM     53  C   UNL A   1      41.557  27.290  28.423  1.00  0.00     0.074 A 
ATOM     54  C   UNL A   1      40.612  26.197  28.343  1.00  0.00     0.031 C 
ATOM     55  C   UNL A   1      46.962  24.672  26.131  1.00  0.00     0.029 A 
ATOM     56  C   UNL A   1      46.767  26.037  26.608  1.00  0.00     0.049 A 
ATOM     57  H   UNL A   1      45.029  26.871  27.393  1.00  0.00     0.167 HD
ATOM     58  C   UNL A   1      41.251  28.532  28.869  1.00  0.00     0.037 A 
ATOM     59  C   UNL A   1      47.705  27.002  26.620  1.00  0.00     0.037 A 
ATOM     60  C   UNL A   1      42.206  29.601  28.997  1.00  0.00     0.049 A 
ATOM     61  C   UNL A   1      47.352  28.362  27.160  1.00  0.00     0.074 A 
ATOM     62  C   UNL A   1      42.019  30.868  29.518  1.00  0.00     0.029 A 
ATOM     63  N   UNL A   1      43.534  29.519  28.606  1.00  0.00    -0.354 N 
ATOM     64  N   UNL A   1      46.210  28.792  27.638  1.00  0.00    -0.248 NA
ATOM     65  C   UNL A   1      48.424  29.367  27.172  1.00  0.00     0.031 C 
ATOM     66  C   UNL A   1      43.226  31.567  29.410  1.00  0.00     0.029 A 
ATOM     67  C   UNL A   1      44.175  30.721  28.861  1.00  0.00     0.049 A 
ATOM     68  H   UNL A   1      43.958  28.726  28.206  1.00  0.00     0.167 HD
ATOM     69  C   UNL A   1      46.433  30.103  28.037  1.00  0.00     0.074 A 
ATOM     70  C   UNL A   1      47.824  30.393  27.755  1.00  0.00     0.031 C 
ATOM     71  C   UNL A   1      45.564  30.985  28.588  1.00  0.00     0.037 A 
BRANCH  58  72
ATOM     72  C   UNL A   1      39.824  28.795  29.257  1.00  0.00     0.064 A 
ATOM     73  C   UNL A   1      39.355  28.539  30.555  1.00  0.00     0.173 A 
ATOM     74  C   UNL A   1      38.919  29.323  28.325  1.00  0.00     0.173 A 
ATOM     75  F   UNL A   1      40.177  28.021  31.480  1.00  0.00    -0.203 F 
ATOM     76  C   UNL A   1      38.024  28.763  30.893  1.00  0.00     0.198 A 
ATOM     77  C   UNL A   1      37.595  29.576  28.676  1.00  0.00     0.198 A 
ATOM     78  F   UNL A   1      39.316  29.591  27.072  1.00  0.00    -0.203 F 
ATOM     79  F   UNL A   1      37.584  28.453  32.121  1.00  0.00    -0.200 F 
ATOM     80  C   UNL A   1      37.146  29.287  29.955  1.00  0.00     0.200 A 
ATOM     81  F   UNL A   1      36.751  30.093  27.773  1.00  0.00    -0.200 F 
ATOM     82  F   UNL A   1      35.865  29.504  30.283  1.00  0.00    -0.200 F 
ENDBRANCH  58  72
BRANCH  59  83
ATOM     83  C   UNL A   1      49.085  26.704  26.160  1.00  0.00     0.064 A 
ATOM     84  C   UNL A   1      49.482  27.015  24.851  1.00  0.00     0.173 A 
ATOM     85  C   UNL A   1      50.031  26.108  27.004  1.00  0.00     0.173 A 
ATOM     86  F   UNL A   1      48.607  27.570  24.000  1.00  0.00    -0.203 F 
ATOM     87  C   UNL A   1      50.767  26.720  24.398  1.00  0.00     0.198 A 
ATOM     88  C   UNL A   1      51.323  25.835  26.558  1.00  0.00     0.198 A 
ATOM     89  F   UNL A   1      49.702  25.797  28.266  1.00  0.00    -0.203 F 
ATOM     90  F   UNL A   1      51.106  26.988  23.130  1.00  0.00    -0.200 F 
ATOM     91  C   UNL A   1      51.687  26.135  25.254  1.00  0.00     0.200 A 
ATOM     92  F   UNL A   1      52.215  25.281  27.391  1.00  0.00    -0.200 F 
ATOM     93  F   UNL A   1      52.922  25.853  24.819  1.00  0.00    -0.200 F 
ENDBRANCH  59  83
BRANCH  71  94
ATOM     94  C   UNL A   1      46.105  32.334  28.965  1.00  0.00     0.064 A 
ATOM     95  C   UNL A   1      46.077  33.413  28.072  1.00  0.00     0.173 A 
ATOM     96  C   UNL A   1      46.628  32.552  30.248  1.00  0.00     0.173 A 
ATOM     97  F   UNL A   1      45.600  33.250  26.829  1.00  0.00    -0.203 F 
ATOM     98  C   UNL A   1      46.577  34.659  28.443  1.00  0.00     0.198 A 
ATOM     99  C   UNL A   1      47.102  33.805  30.624  1.00  0.00     0.198 A 
ATOM    100  F   UNL A   1      46.672  31.551  31.140  1.00  0.00    -0.203 F 
ATOM    101  F   UNL A   1      46.585  35.666  27.558  1.00  0.00    -0.200 F 
ATOM    102  C   UNL A   1      47.083  34.856  29.719  1.00  0.00     0.200 A 
ATOM    103  F   UNL A   1      47.579  33.996  31.862  1.00  0.00    -0.200 F 
ATOM    104  F   UNL A   1      47.560  36.056  30.075  1.00  0.00    -0.200 F 
ENDBRANCH  71  94
ENDBRANCH  45  46
ENDBRANCH  37  40
ENDBRANCH  35  36
ENDBRANCH  34  35
ENDBRANCH  33  34
ENDBRANCH   1  33
TORSDOF 15
ENDMDL
MODEL 2
REMARK VINA RESULT:     -13.9      5.452     11.015
REMARK SMILES O=C(NC1(C(=O)NCCCCNC(=O)c2ccc(-c3c4nc(c(-c5c(F)c(F)c(F)c(F)c5F)c5ccc([nH]5)c(-c5c(F)c(F)c(F)c(F)c5F)c5nc(c(-c6c(F)c(F)c(F)c(F)c6F)c6ccc3[nH]6)C=C5)C=C4)cc2)CC[NH2+]CC1)OCC1c2ccccc2-c2ccccc21
REMARK SMILES IDX 8 1 7 2 5 3 6 4 4 6 78 7 82 8 79 9 81 10 80 11 3 14 1 15
REMARK SMILES IDX 2 16 83 18 84 19 85 20 86 21 97 22 87 23 91 24 92 25 96 26
REMARK SMILES IDX 88 27 90 28 93 29 95 30 89 31 94 32 9 33 10 34 11 35 12 36
REMARK SMILES IDX 13 37 14 39 15 40 16 41 77 42 17 43 76 44 18 45 19 46 20 47
REMARK SMILES IDX 70 48 21 49 75 50 69 51 71 52 22 53 74 54 68 55 67 56 23 58
REMARK SMILES IDX 55 59 35 60 54 61 36 62 39 63 53 64 72 65 37 66 38 67 52 69
REMARK SMILES IDX 73 70 40 71 24 72 25 73 33 74 26 75 27 76 31 77 34 78 28 79
REMARK SMILES IDX 29 80 32 81 30 82 56 83 57 84 65 85 58 86 59 87 63 88 66 89
REMARK SMILES IDX 60 90 61 91 64 92 62 93 41 94 42 95 50 96 43 97 44 98 48 99
REMARK SMILES IDX 51 100 45 101 46 102 49 103 47 104
REMARK H PARENT 7 5 80 12 80 13 3 17 12 38 71 57 39 68
REMARK Flexibility Score: inf
ROOT
ATOM      1  C   UNL A   1      32.561  29.595  25.999  1.00  0.00     0.116 C 
ENDROOT
BRANCH   1   2
ATOM      2  N   UNL A   1      33.440  29.389  24.876  1.00  0.00    -0.354 N 
ATOM      3  C   UNL A   1      33.303  28.636  23.756  1.00  0.00     0.246 C 
ATOM      4  O   UNL A   1      34.262  28.705  22.971  1.00  0.00    -0.272 OA
ATOM      5  H   UNL A   1      34.289  29.883  24.930  1.00  0.00     0.163 HD
BRANCH   3   6
ATOM      6  C   UNL A   1      32.005  27.865  23.352  1.00  0.00     0.132 C 
ATOM      7  C   UNL A   1      31.425  26.801  24.295  1.00  0.00     0.100 C 
ATOM      8  C   UNL A   1      30.884  28.914  23.158  1.00  0.00     0.100 C 
ATOM      9  C   UNL A   1      30.179  26.163  23.686  1.00  0.00     0.263 C 
ATOM     10  C   UNL A   1      29.546  28.289  22.738  1.00  0.00     0.263 C 
ATOM     11  N   UNL A   1      29.134  27.177  23.593  1.00  0.00    -0.346 N 
ATOM     12  H   UNL A   1      28.934  27.534  24.528  1.00  0.00     0.346 HD
ATOM     13  H   UNL A   1      28.305  26.748  23.184  1.00  0.00     0.346 HD
BRANCH   6  14
ATOM     14  N   UNL A   1      32.377  27.266  22.040  1.00  0.00    -0.307 N 
ATOM     15  O   UNL A   1      33.212  25.693  20.655  1.00  0.00    -0.225 OA
ATOM     16  C   UNL A   1      33.039  26.096  21.800  1.00  0.00     0.408 C 
ATOM     17  H   UNL A   1      32.111  27.780  21.244  1.00  0.00     0.168 HD
BRANCH  16  18
ATOM     18  O   UNL A   1      33.349  25.388  22.920  1.00  0.00    -0.449 OA
BRANCH  18  19
ATOM     19  C   UNL A   1      33.394  23.977  22.683  1.00  0.00     0.248 C 
BRANCH  19  20
ATOM     20  C   UNL A   1      33.744  23.107  23.904  1.00  0.00     0.088 C 
ATOM     21  C   UNL A   1      35.143  23.095  24.519  1.00  0.00    -0.029 A 
ATOM     22  C   UNL A   1      33.440  21.619  23.793  1.00  0.00    -0.029 A 
ATOM     23  C   UNL A   1      35.980  24.146  24.859  1.00  0.00     0.005 A 
ATOM     24  C   UNL A   1      35.497  21.772  24.872  1.00  0.00    -0.014 A 
ATOM     25  C   UNL A   1      34.424  20.881  24.487  1.00  0.00    -0.014 A 
ATOM     26  C   UNL A   1      32.323  20.997  23.258  1.00  0.00     0.005 A 
ATOM     27  C   UNL A   1      37.213  23.863  25.461  1.00  0.00     0.000 A 
ATOM     28  C   UNL A   1      36.708  21.489  25.489  1.00  0.00     0.009 A 
ATOM     29  C   UNL A   1      34.242  19.533  24.747  1.00  0.00     0.009 A 
ATOM     30  C   UNL A   1      32.157  19.630  23.491  1.00  0.00     0.000 A 
ATOM     31  C   UNL A   1      37.578  22.544  25.767  1.00  0.00     0.001 A 
ATOM     32  C   UNL A   1      33.091  18.912  24.256  1.00  0.00     0.001 A 
ENDBRANCH  19  20
ENDBRANCH  18  19
ENDBRANCH  16  18
ENDBRANCH   6  14
ENDBRANCH   3   6
ENDBRANCH   1   2
BRANCH   1  33
ATOM     33  C   UNL A   1      31.697  30.841  25.802  1.00  0.00     0.023 C 
BRANCH  33  34
ATOM     34  C   UNL A   1      31.593  31.732  27.042  1.00  0.00     0.023 C 
BRANCH  34  35
ATOM     35  C   UNL A   1      32.782  32.662  27.247  1.00  0.00     0.116 C 
BRANCH  35  36
ATOM     36  N   UNL A   1      32.411  34.025  27.596  1.00  0.00    -0.352 N 
ATOM     37  C   UNL A   1      32.969  34.846  28.546  1.00  0.00     0.251 C 
ATOM     38  H   UNL A   1      31.661  34.408  27.085  1.00  0.00     0.163 HD
ATOM     39  O   UNL A   1      32.476  35.944  28.782  1.00  0.00    -0.269 OA
BRANCH  37  40
ATOM     40  C   UNL A   1      34.132  34.371  29.328  1.00  0.00     0.039 A 
ATOM     41  C   UNL A   1      33.903  33.704  30.535  1.00  0.00     0.014 A 
ATOM     42  C   UNL A   1      35.438  34.546  28.864  1.00  0.00     0.014 A 
ATOM     43  C   UNL A   1      34.976  33.149  31.235  1.00  0.00     0.010 A 
ATOM     44  C   UNL A   1      36.494  33.916  29.513  1.00  0.00     0.010 A 
ATOM     45  C   UNL A   1      36.277  33.216  30.709  1.00  0.00    -0.014 A 
BRANCH  45  46
ATOM     46  C   UNL A   1      37.425  32.574  31.396  1.00  0.00     0.031 A 
ATOM     47  C   UNL A   1      38.145  31.424  30.746  1.00  0.00     0.074 A 
ATOM     48  C   UNL A   1      37.769  32.972  32.636  1.00  0.00     0.049 A 
ATOM     49  N   UNL A   1      39.120  30.686  31.211  1.00  0.00    -0.248 NA
ATOM     50  C   UNL A   1      37.679  31.026  29.408  1.00  0.00     0.031 C 
ATOM     51  C   UNL A   1      37.107  34.029  33.401  1.00  0.00     0.029 A 
ATOM     52  N   UNL A   1      38.761  32.528  33.474  1.00  0.00    -0.354 N 
ATOM     53  C   UNL A   1      39.360  29.723  30.241  1.00  0.00     0.074 A 
ATOM     54  C   UNL A   1      38.393  29.935  29.186  1.00  0.00     0.031 C 
ATOM     55  C   UNL A   1      37.734  34.177  34.581  1.00  0.00     0.029 A 
ATOM     56  C   UNL A   1      38.818  33.204  34.667  1.00  0.00     0.049 A 
ATOM     57  H   UNL A   1      39.373  31.793  33.242  1.00  0.00     0.167 HD
ATOM     58  C   UNL A   1      40.317  28.765  30.217  1.00  0.00     0.037 A 
ATOM     59  C   UNL A   1      39.658  33.061  35.709  1.00  0.00     0.037 A 
ATOM     60  C   UNL A   1      41.310  28.591  31.243  1.00  0.00     0.049 A 
ATOM     61  C   UNL A   1      40.741  32.017  35.640  1.00  0.00     0.074 A 
ATOM     62  C   UNL A   1      42.375  27.709  31.275  1.00  0.00     0.029 A 
ATOM     63  N   UNL A   1      41.362  29.326  32.419  1.00  0.00    -0.354 N 
ATOM     64  N   UNL A   1      41.010  31.164  34.682  1.00  0.00    -0.248 NA
ATOM     65  C   UNL A   1      41.643  31.925  36.796  1.00  0.00     0.031 C 
ATOM     66  C   UNL A   1      43.052  27.885  32.487  1.00  0.00     0.029 A 
ATOM     67  C   UNL A   1      42.434  28.906  33.190  1.00  0.00     0.049 A 
ATOM     68  H   UNL A   1      40.731  30.039  32.668  1.00  0.00     0.167 HD
ATOM     69  C   UNL A   1      42.128  30.459  35.102  1.00  0.00     0.074 A 
ATOM     70  C   UNL A   1      42.495  30.991  36.398  1.00  0.00     0.031 C 
ATOM     71  C   UNL A   1      42.793  29.460  34.470  1.00  0.00     0.037 A 
BRANCH  58  72
ATOM     72  C   UNL A   1      40.337  27.836  29.037  1.00  0.00     0.064 A 
ATOM     73  C   UNL A   1      41.085  28.123  27.886  1.00  0.00     0.173 A 
ATOM     74  C   UNL A   1      39.609  26.637  29.062  1.00  0.00     0.173 A 
ATOM     75  F   UNL A   1      41.789  29.263  27.805  1.00  0.00    -0.203 F 
ATOM     76  C   UNL A   1      41.074  27.266  26.789  1.00  0.00     0.198 A 
ATOM     77  C   UNL A   1      39.624  25.766  27.976  1.00  0.00     0.198 A 
ATOM     78  F   UNL A   1      38.880  26.311  30.140  1.00  0.00    -0.203 F 
ATOM     79  F   UNL A   1      41.749  27.592  25.677  1.00  0.00    -0.200 F 
ATOM     80  C   UNL A   1      40.348  26.085  26.837  1.00  0.00     0.200 A 
ATOM     81  F   UNL A   1      38.932  24.620  28.028  1.00  0.00    -0.200 F 
ATOM     82  F   UNL A   1      40.338  25.260  25.781  1.00  0.00    -0.200 F 
ENDBRANCH  58  72
BRANCH  59  83
ATOM     83  C   UNL A   1      39.550  33.965  36.883  1.00  0.00     0.064 A 
ATOM     84  C   UNL A   1      38.806  33.584  38.009  1.00  0.00     0.173 A 
ATOM     85  C   UNL A   1      40.178  35.217  36.908  1.00  0.00     0.173 A 
ATOM     86  F   UNL A   1      38.172  32.402  38.023  1.00  0.00    -0.203 F 
ATOM     87  C   UNL A   1      38.677  34.431  39.107  1.00  0.00     0.198 A 
ATOM     88  C   UNL A   1      40.068  36.054  38.018  1.00  0.00     0.198 A 
ATOM     89  F   UNL A   1      40.905  35.625  35.859  1.00  0.00    -0.203 F 
ATOM     90  F   UNL A   1      37.924  34.059  40.152  1.00  0.00    -0.200 F 
ATOM     91  C   UNL A   1      39.312  35.663  39.112  1.00  0.00     0.200 A 
ATOM     92  F   UNL A   1      40.693  37.239  38.025  1.00  0.00    -0.200 F 
ATOM     93  F   UNL A   1      39.188  36.477  40.169  1.00  0.00    -0.200 F 
ENDBRANCH  59  83
BRANCH  71  94
ATOM     94  C   UNL A   1      44.011  28.910  35.152  1.00  0.00     0.064 A 
ATOM     95  C   UNL A   1      43.935  27.819  36.028  1.00  0.00     0.173 A 
ATOM     96  C   UNL A   1      45.274  29.465  34.898  1.00  0.00     0.173 A 
ATOM     97  F   UNL A   1      42.748  27.264  36.314  1.00  0.00    -0.203 F 
ATOM     98  C   UNL A   1      45.078  27.318  36.646  1.00  0.00     0.198 A 
ATOM     99  C   UNL A   1      46.418  28.945  35.496  1.00  0.00     0.198 A 
ATOM    100  F   UNL A   1      45.400  30.507  34.063  1.00  0.00    -0.203 F 
ATOM    101  F   UNL A   1      44.976  26.305  37.518  1.00  0.00    -0.200 F 
ATOM    102  C   UNL A   1      46.318  27.877  36.375  1.00  0.00     0.200 A 
ATOM    103  F   UNL A   1      47.616  29.478  35.223  1.00  0.00    -0.200 F 
ATOM    104  F   UNL A   1      47.418  27.391  36.967  1.00  0.00    -0.200 F 
ENDBRANCH  71  94
ENDBRANCH  45  46
ENDBRANCH  37  40
ENDBRANCH  35  36
ENDBRANCH  34  35
ENDBRANCH  33  34
ENDBRANCH   1  33
TORSDOF 15
ENDMDL
MODEL 3
REMARK VINA RESULT:     -13.8      5.460     10.953
REMARK SMILES O=C(NC1(C(=O)NCCCCNC(=O)c2ccc(-c3c4nc(c(-c5c(F)c(F)c(F)c(F)c5F)c5ccc([nH]5)c(-c5c(F)c(F)c(F)c(F)c5F)c5nc(c(-c6c(F)c(F)c(F)c(F)c6F)c6ccc3[nH]6)C=C5)C=C4)cc2)CC[NH2+]CC1)OCC1c2ccccc2-c2ccccc21
REMARK SMILES IDX 8 1 7 2 5 3 6 4 4 6 78 7 82 8 79 9 81 10 80 11 3 14 1 15
REMARK SMILES IDX 2 16 83 18 84 19 85 20 86 21 97 22 87 23 91 24 92 25 96 26
REMARK SMILES IDX 88 27 90 28 93 29 95 30 89 31 94 32 9 33 10 34 11 35 12 36
REMARK SMILES IDX 13 37 14 39 15 40 16 41 77 42 17 43 76 44 18 45 19 46 20 47
REMARK SMILES IDX 70 48 21 49 75 50 69 51 71 52 22 53 74 54 68 55 67 56 23 58
REMARK SMILES IDX 55 59 35 60 54 61 36 62 39 63 53 64 72 65 37 66 38 67 52 69
REMARK SMILES IDX 73 70 40 71 24 72 25 73 33 74 26 75 27 76 31 77 34 78 28 79
REMARK SMILES IDX 29 80 32 81 30 82 56 83 57 84 65 85 58 86 59 87 63 88 66 89
REMARK SMILES IDX 60 90 61 91 64 92 62 93 41 94 42 95 50 96 43 97 44 98 48 99
REMARK SMILES IDX 51 100 45 101 46 102 49 103 47 104
REMARK H PARENT 7 5 80 12 80 13 3 17 12 38 71 57 39 68
REMARK Flexibility Score: inf
ROOT
ATOM      1  C   UNL A   1      32.568  29.586  26.011  1.00  0.00     0.116 C 
ENDROOT
BRANCH   1   2
ATOM      2  N   UNL A   1      33.470  29.345  24.912  1.00  0.00    -0.354 N 
ATOM      3  C   UNL A   1      33.352  28.566  23.809  1.00  0.00     0.246 C 
ATOM      4  O   UNL A   1      34.329  28.607  23.044  1.00  0.00    -0.272 OA
ATOM      5  H   UNL A   1      34.322  29.833  24.974  1.00  0.00     0.163 HD
BRANCH   3   6
ATOM      6  C   UNL A   1      32.056  27.794  23.395  1.00  0.00     0.132 C 
ATOM      7  C   UNL A   1      31.463  26.737  24.337  1.00  0.00     0.100 C 
ATOM      8  C   UNL A   1      30.940  28.845  23.182  1.00  0.00     0.100 C 
ATOM      9  C   UNL A   1      30.223  26.099  23.718  1.00  0.00     0.263 C 
ATOM     10  C   UNL A   1      29.606  28.221  22.751  1.00  0.00     0.263 C 
ATOM     11  N   UNL A   1      29.181  27.115  23.608  1.00  0.00    -0.346 N 
ATOM     12  H   UNL A   1      28.971  27.477  24.538  1.00  0.00     0.346 HD
ATOM     13  H   UNL A   1      28.356  26.685  23.192  1.00  0.00     0.346 HD
BRANCH   6  14
ATOM     14  N   UNL A   1      32.442  27.187  22.091  1.00  0.00    -0.307 N 
ATOM     15  O   UNL A   1      33.278  25.600  20.723  1.00  0.00    -0.225 OA
ATOM     16  C   UNL A   1      33.092  26.008  21.864  1.00  0.00     0.408 C 
ATOM     17  H   UNL A   1      32.195  27.703  21.289  1.00  0.00     0.168 HD
BRANCH  16  18
ATOM     18  O   UNL A   1      33.374  25.299  22.991  1.00  0.00    -0.449 OA
BRANCH  18  19
ATOM     19  C   UNL A   1      33.353  23.885  22.769  1.00  0.00     0.248 C 
BRANCH  19  20
ATOM     20  C   UNL A   1      33.736  23.015  23.980  1.00  0.00     0.088 C 
ATOM     21  C   UNL A   1      35.151  23.008  24.560  1.00  0.00    -0.029 A 
ATOM     22  C   UNL A   1      33.435  21.526  23.875  1.00  0.00    -0.029 A 
ATOM     23  C   UNL A   1      35.991  24.061  24.881  1.00  0.00     0.005 A 
ATOM     24  C   UNL A   1      35.518  21.686  24.903  1.00  0.00    -0.014 A 
ATOM     25  C   UNL A   1      34.439  20.791  24.544  1.00  0.00    -0.014 A 
ATOM     26  C   UNL A   1      32.308  20.901  23.368  1.00  0.00     0.005 A 
ATOM     27  C   UNL A   1      37.241  23.783  25.452  1.00  0.00     0.000 A 
ATOM     28  C   UNL A   1      36.745  21.407  25.490  1.00  0.00     0.009 A 
ATOM     29  C   UNL A   1      34.268  19.442  24.808  1.00  0.00     0.009 A 
ATOM     30  C   UNL A   1      32.153  19.533  23.603  1.00  0.00     0.000 A 
ATOM     31  C   UNL A   1      37.618  22.464  25.748  1.00  0.00     0.001 A 
ATOM     32  C   UNL A   1      33.108  18.817  24.344  1.00  0.00     0.001 A 
ENDBRANCH  19  20
ENDBRANCH  18  19
ENDBRANCH  16  18
ENDBRANCH   6  14
ENDBRANCH   3   6
ENDBRANCH   1   2
BRANCH   1  33
ATOM     33  C   UNL A   1      31.724  30.837  25.767  1.00  0.00     0.023 C 
BRANCH  33  34
ATOM     34  C   UNL A   1      31.581  31.743  26.991  1.00  0.00     0.023 C 
BRANCH  34  35
ATOM     35  C   UNL A   1      32.784  32.640  27.251  1.00  0.00     0.116 C 
BRANCH  35  36
ATOM     36  N   UNL A   1      32.435  34.013  27.585  1.00  0.00    -0.352 N 
ATOM     37  C   UNL A   1      33.003  34.834  28.528  1.00  0.00     0.251 C 
ATOM     38  H   UNL A   1      31.694  34.404  27.066  1.00  0.00     0.163 HD
ATOM     39  O   UNL A   1      32.528  35.943  28.751  1.00  0.00    -0.269 OA
BRANCH  37  40
ATOM     40  C   UNL A   1      34.155  34.348  29.320  1.00  0.00     0.039 A 
ATOM     41  C   UNL A   1      33.909  33.677  30.522  1.00  0.00     0.014 A 
ATOM     42  C   UNL A   1      35.466  34.515  28.870  1.00  0.00     0.014 A 
ATOM     43  C   UNL A   1      34.971  33.112  31.230  1.00  0.00     0.010 A 
ATOM     44  C   UNL A   1      36.511  33.876  29.527  1.00  0.00     0.010 A 
ATOM     45  C   UNL A   1      36.277  33.172  30.717  1.00  0.00    -0.014 A 
BRANCH  45  46
ATOM     46  C   UNL A   1      37.414  32.519  31.413  1.00  0.00     0.031 A 
ATOM     47  C   UNL A   1      38.137  31.373  30.762  1.00  0.00     0.074 A 
ATOM     48  C   UNL A   1      37.744  32.904  32.661  1.00  0.00     0.049 A 
ATOM     49  N   UNL A   1      39.104  30.626  31.233  1.00  0.00    -0.248 NA
ATOM     50  C   UNL A   1      37.687  30.988  29.414  1.00  0.00     0.031 C 
ATOM     51  C   UNL A   1      37.076  33.957  33.428  1.00  0.00     0.029 A 
ATOM     52  N   UNL A   1      38.723  32.448  33.508  1.00  0.00    -0.354 N 
ATOM     53  C   UNL A   1      39.352  29.670  30.257  1.00  0.00     0.074 A 
ATOM     54  C   UNL A   1      38.400  29.896  29.192  1.00  0.00     0.031 C 
ATOM     55  C   UNL A   1      37.688  34.092  34.617  1.00  0.00     0.029 A 
ATOM     56  C   UNL A   1      38.767  33.114  34.708  1.00  0.00     0.049 A 
ATOM     57  H   UNL A   1      39.335  31.713  33.277  1.00  0.00     0.167 HD
ATOM     58  C   UNL A   1      40.305  28.709  30.238  1.00  0.00     0.037 A 
ATOM     59  C   UNL A   1      39.593  32.958  35.760  1.00  0.00     0.037 A 
ATOM     60  C   UNL A   1      41.285  28.522  31.275  1.00  0.00     0.049 A 
ATOM     61  C   UNL A   1      40.672  31.910  35.695  1.00  0.00     0.074 A 
ATOM     62  C   UNL A   1      42.345  27.635  31.312  1.00  0.00     0.029 A 
ATOM     63  N   UNL A   1      41.325  29.246  32.458  1.00  0.00    -0.354 N 
ATOM     64  N   UNL A   1      40.950  31.065  34.733  1.00  0.00    -0.248 NA
ATOM     65  C   UNL A   1      41.559  31.803  36.861  1.00  0.00     0.031 C 
ATOM     66  C   UNL A   1      43.007  27.797  32.534  1.00  0.00     0.029 A 
ATOM     67  C   UNL A   1      42.385  28.815  33.239  1.00  0.00     0.049 A 
ATOM     68  H   UNL A   1      40.693  29.959  32.705  1.00  0.00     0.167 HD
ATOM     69  C   UNL A   1      42.060  30.351  35.161  1.00  0.00     0.074 A 
ATOM     70  C   UNL A   1      42.412  30.870  36.466  1.00  0.00     0.031 C 
ATOM     71  C   UNL A   1      42.729  29.355  34.528  1.00  0.00     0.037 A 
BRANCH  58  72
ATOM     72  C   UNL A   1      40.337  27.790  29.049  1.00  0.00     0.064 A 
ATOM     73  C   UNL A   1      39.621  26.584  29.032  1.00  0.00     0.173 A 
ATOM     74  C   UNL A   1      41.081  28.127  27.909  1.00  0.00     0.173 A 
ATOM     75  F   UNL A   1      38.903  26.209  30.102  1.00  0.00    -0.203 F 
ATOM     76  C   UNL A   1      39.679  25.730  27.934  1.00  0.00     0.198 A 
ATOM     77  C   UNL A   1      41.113  27.285  26.799  1.00  0.00     0.198 A 
ATOM     78  F   UNL A   1      41.780  29.271  27.871  1.00  0.00    -0.203 F 
ATOM     79  F   UNL A   1      39.035  24.554  27.965  1.00  0.00    -0.200 F 
ATOM     80  C   UNL A   1      40.421  26.084  26.817  1.00  0.00     0.200 A 
ATOM     81  F   UNL A   1      41.820  27.634  25.716  1.00  0.00    -0.200 F 
ATOM     82  F   UNL A   1      40.476  25.262  25.760  1.00  0.00    -0.200 F 
ENDBRANCH  58  72
BRANCH  59  83
ATOM     83  C   UNL A   1      39.473  33.851  36.939  1.00  0.00     0.064 A 
ATOM     84  C   UNL A   1      40.124  35.093  36.961  1.00  0.00     0.173 A 
ATOM     85  C   UNL A   1      38.716  33.491  38.062  1.00  0.00     0.173 A 
ATOM     86  F   UNL A   1      40.875  35.473  35.917  1.00  0.00    -0.203 F 
ATOM     87  C   UNL A   1      40.040  35.931  38.071  1.00  0.00     0.198 A 
ATOM     88  C   UNL A   1      38.612  34.341  39.162  1.00  0.00     0.198 A 
ATOM     89  F   UNL A   1      38.070  32.317  38.088  1.00  0.00    -0.203 F 
ATOM     90  F   UNL A   1      40.707  37.094  38.082  1.00  0.00    -0.200 F 
ATOM     91  C   UNL A   1      39.279  35.557  39.168  1.00  0.00     0.200 A 
ATOM     92  F   UNL A   1      37.867  33.982  40.216  1.00  0.00    -0.200 F 
ATOM     93  F   UNL A   1      39.197  36.364  40.234  1.00  0.00    -0.200 F 
ENDBRANCH  59  83
BRANCH  71  94
ATOM     94  C   UNL A   1      43.936  28.794  35.221  1.00  0.00     0.064 A 
ATOM     95  C   UNL A   1      45.218  29.319  35.007  1.00  0.00     0.173 A 
ATOM     96  C   UNL A   1      43.800  27.738  36.134  1.00  0.00     0.173 A 
ATOM     97  F   UNL A   1      45.401  30.319  34.131  1.00  0.00    -0.203 F 
ATOM     98  C   UNL A   1      46.325  28.790  35.664  1.00  0.00     0.198 A 
ATOM     99  C   UNL A   1      44.905  27.230  36.810  1.00  0.00     0.198 A 
ATOM    100  F   UNL A   1      42.593  27.206  36.378  1.00  0.00    -0.203 F 
ATOM    101  F   UNL A   1      47.549  29.274  35.408  1.00  0.00    -0.200 F 
ATOM    102  C   UNL A   1      46.167  27.750  36.569  1.00  0.00     0.200 A 
ATOM    103  F   UNL A   1      44.748  26.234  37.693  1.00  0.00    -0.200 F 
ATOM    104  F   UNL A   1      47.233  27.245  37.204  1.00  0.00    -0.200 F 
ENDBRANCH  71  94
ENDBRANCH  45  46
ENDBRANCH  37  40
ENDBRANCH  35  36
ENDBRANCH  34  35
ENDBRANCH  33  34
ENDBRANCH   1  33
TORSDOF 15
ENDMDL
