MODEL 1
REMARK VINA RESULT:     -13.4      0.000      0.000
REMARK SMILES O=C(NCCCCNC(=O)[C@H]1[C@@H](C(=O)Nc2ccccc2-c2ccccc2)[C@@H]2C=C[C@H]1O2)c1ccc(-c2c3nc(c(-c4c(F)c(F)c(F)c(F)c4F)c4ccc([nH]4)c(-c4c(F)c(F)c(F)c(F)c4F)c4nc(c(-c5c(F)c(F)c(F)c(F)c5F)c5ccc2[nH]5)C=C4)C=C3)cc1
REMARK SMILES IDX 6 1 5 2 4 3 3 4 1 5 2 6 33 8 34 9 95 10 35 11 94 12 36 13
REMARK SMILES IDX 37 14 38 15 88 16 39 17 93 18 87 19 89 20 40 21 92 22 86 23
REMARK SMILES IDX 85 24 41 26 73 27 53 28 72 29 54 30 57 31 71 32 90 33 55 34
REMARK SMILES IDX 56 35 70 37 91 38 58 39 42 40 43 41 51 42 44 43 45 44 49 45
REMARK SMILES IDX 52 46 46 47 47 48 50 49 48 50 74 51 75 52 83 53 76 54 77 55
REMARK SMILES IDX 81 56 84 57 78 58 79 59 82 60 80 61 59 62 60 63 68 64 61 65
REMARK SMILES IDX 62 66 66 67 69 68 63 69 64 70 67 71 65 72 7 73 8 74 9 75
REMARK SMILES IDX 10 77 11 78 12 79 31 80 28 81 30 82 32 83 29 84 13 85 14 86
REMARK SMILES IDX 15 87 16 89 17 90 21 91 18 92 20 93 19 94 22 95 23 96 27 97
REMARK SMILES IDX 24 98 26 99 25 100
REMARK H PARENT 3 7 89 25 57 36 8 76 15 88
REMARK Flexibility Score: inf
ROOT
ATOM      1  C   UNL A   1      31.409  30.598  25.795  1.00  0.00     0.023 C 
ENDROOT
BRANCH   1   2
ATOM      2  C   UNL A   1      31.171  31.938  26.493  1.00  0.00     0.023 C 
BRANCH   2   3
ATOM      3  C   UNL A   1      32.429  32.544  27.084  1.00  0.00     0.116 C 
BRANCH   3   4
ATOM      4  N   UNL A   1      32.261  33.928  27.498  1.00  0.00    -0.352 N 
ATOM      5  O   UNL A   1      32.732  35.742  28.775  1.00  0.00    -0.269 OA
ATOM      6  C   UNL A   1      33.030  34.616  28.409  1.00  0.00     0.251 C 
ATOM      7  H   UNL A   1      31.519  34.424  27.084  1.00  0.00     0.163 HD
BRANCH   6   8
ATOM      8  C   UNL A   1      34.206  33.926  28.973  1.00  0.00     0.039 A 
ATOM      9  C   UNL A   1      34.028  32.865  29.864  1.00  0.00     0.014 A 
ATOM     10  C   UNL A   1      35.484  34.399  28.668  1.00  0.00     0.014 A 
ATOM     11  C   UNL A   1      35.118  32.365  30.557  1.00  0.00     0.010 A 
ATOM     12  C   UNL A   1      36.591  33.825  29.294  1.00  0.00     0.010 A 
ATOM     13  C   UNL A   1      36.412  32.820  30.257  1.00  0.00    -0.014 A 
BRANCH  13  14
ATOM     14  C   UNL A   1      37.573  32.152  30.891  1.00  0.00     0.031 A 
ATOM     15  C   UNL A   1      38.338  31.076  30.182  1.00  0.00     0.074 A 
ATOM     16  C   UNL A   1      37.920  32.539  32.133  1.00  0.00     0.049 A 
ATOM     17  N   UNL A   1      39.345  30.361  30.615  1.00  0.00    -0.248 NA
ATOM     18  C   UNL A   1      37.914  30.748  28.813  1.00  0.00     0.031 C 
ATOM     19  C   UNL A   1      37.227  33.568  32.914  1.00  0.00     0.029 A 
ATOM     20  N   UNL A   1      38.934  32.127  32.954  1.00  0.00    -0.354 N 
ATOM     21  C   UNL A   1      39.658  29.481  29.589  1.00  0.00     0.074 A 
ATOM     22  C   UNL A   1      38.724  29.740  28.514  1.00  0.00     0.031 C 
ATOM     23  C   UNL A   1      37.854  33.729  34.085  1.00  0.00     0.029 A 
ATOM     24  C   UNL A   1      38.942  32.764  34.169  1.00  0.00     0.049 A 
ATOM     25  H   UNL A   1      39.592  31.441  32.699  1.00  0.00     0.167 HD
ATOM     26  C   UNL A   1      40.638  28.545  29.556  1.00  0.00     0.037 A 
ATOM     27  C   UNL A   1      39.717  32.569  35.251  1.00  0.00     0.037 A 
ATOM     28  C   UNL A   1      41.567  28.313  30.635  1.00  0.00     0.049 A 
ATOM     29  C   UNL A   1      40.784  31.519  35.191  1.00  0.00     0.074 A 
ATOM     30  C   UNL A   1      42.627  27.425  30.686  1.00  0.00     0.029 A 
ATOM     31  N   UNL A   1      41.540  28.973  31.857  1.00  0.00    -0.354 N 
ATOM     32  N   UNL A   1      41.092  30.715  34.203  1.00  0.00    -0.248 NA
ATOM     33  C   UNL A   1      41.606  31.346  36.392  1.00  0.00     0.031 C 
ATOM     34  C   UNL A   1      43.208  27.509  31.957  1.00  0.00     0.029 A 
ATOM     35  C   UNL A   1      42.546  28.489  32.679  1.00  0.00     0.049 A 
ATOM     36  H   UNL A   1      40.900  29.679  32.104  1.00  0.00     0.167 HD
ATOM     37  C   UNL A   1      42.149  29.943  34.658  1.00  0.00     0.074 A 
ATOM     38  C   UNL A   1      42.444  30.394  36.005  1.00  0.00     0.031 C 
ATOM     39  C   UNL A   1      42.813  28.947  34.021  1.00  0.00     0.037 A 
BRANCH  26  40
ATOM     40  C   UNL A   1      40.736  27.678  28.333  1.00  0.00     0.064 A 
ATOM     41  C   UNL A   1      41.513  28.045  27.224  1.00  0.00     0.173 A 
ATOM     42  C   UNL A   1      40.069  26.444  28.285  1.00  0.00     0.173 A 
ATOM     43  F   UNL A   1      42.163  29.218  27.212  1.00  0.00    -0.203 F 
ATOM     44  C   UNL A   1      41.595  27.222  26.101  1.00  0.00     0.198 A 
ATOM     45  C   UNL A   1      40.176  25.611  27.173  1.00  0.00     0.198 A 
ATOM     46  F   UNL A   1      39.318  26.040  29.320  1.00  0.00    -0.203 F 
ATOM     47  F   UNL A   1      42.305  27.616  25.034  1.00  0.00    -0.200 F 
ATOM     48  C   UNL A   1      40.932  26.004  26.080  1.00  0.00     0.200 A 
ATOM     49  F   UNL A   1      39.544  24.430  27.159  1.00  0.00    -0.200 F 
ATOM     50  F   UNL A   1      41.014  25.213  25.001  1.00  0.00    -0.200 F 
ENDBRANCH  26  40
BRANCH  27  51
ATOM     51  C   UNL A   1      39.475  33.379  36.471  1.00  0.00     0.064 A 
ATOM     52  C   UNL A   1      40.047  34.649  36.622  1.00  0.00     0.173 A 
ATOM     53  C   UNL A   1      38.617  32.923  37.484  1.00  0.00     0.173 A 
ATOM     54  F   UNL A   1      40.883  35.122  35.686  1.00  0.00    -0.203 F 
ATOM     55  C   UNL A   1      39.774  35.430  37.743  1.00  0.00     0.198 A 
ATOM     56  C   UNL A   1      38.320  33.717  38.588  1.00  0.00     0.198 A 
ATOM     57  F   UNL A   1      38.035  31.720  37.378  1.00  0.00    -0.203 F 
ATOM     58  F   UNL A   1      40.354  36.630  37.877  1.00  0.00    -0.200 F 
ATOM     59  C   UNL A   1      38.903  34.968  38.719  1.00  0.00     0.200 A 
ATOM     60  F   UNL A   1      37.459  33.277  39.514  1.00  0.00    -0.200 F 
ATOM     61  F   UNL A   1      38.624  35.729  39.786  1.00  0.00    -0.200 F 
ENDBRANCH  27  51
BRANCH  39  62
ATOM     62  C   UNL A   1      43.932  28.292  34.774  1.00  0.00     0.064 A 
ATOM     63  C   UNL A   1      45.235  28.811  34.747  1.00  0.00     0.173 A 
ATOM     64  C   UNL A   1      43.691  27.149  35.551  1.00  0.00     0.173 A 
ATOM     65  F   UNL A   1      45.518  29.890  34.002  1.00  0.00    -0.203 F 
ATOM     66  C   UNL A   1      46.263  28.193  35.454  1.00  0.00     0.198 A 
ATOM     67  C   UNL A   1      44.715  26.552  36.279  1.00  0.00     0.198 A 
ATOM     68  F   UNL A   1      42.461  26.618  35.610  1.00  0.00    -0.203 F 
ATOM     69  F   UNL A   1      47.511  28.676  35.376  1.00  0.00    -0.200 F 
ATOM     70  C   UNL A   1      46.002  27.069  36.225  1.00  0.00     0.200 A 
ATOM     71  F   UNL A   1      44.459  25.473  37.032  1.00  0.00    -0.200 F 
ATOM     72  F   UNL A   1      46.991  26.479  36.908  1.00  0.00    -0.200 F 
ENDBRANCH  39  62
ENDBRANCH  13  14
ENDBRANCH   6   8
ENDBRANCH   3   4
ENDBRANCH   2   3
ENDBRANCH   1   2
BRANCH   1  73
ATOM     73  C   UNL A   1      32.706  29.906  26.219  1.00  0.00     0.116 C 
BRANCH  73  74
ATOM     74  N   UNL A   1      33.546  29.652  25.073  1.00  0.00    -0.356 N 
ATOM     75  C   UNL A   1      33.956  28.487  24.510  1.00  0.00     0.227 C 
ATOM     76  H   UNL A   1      33.879  30.462  24.623  1.00  0.00     0.163 HD
ATOM     77  O   UNL A   1      34.648  28.594  23.492  1.00  0.00    -0.275 OA
BRANCH  75  78
ATOM     78  C   UNL A   1      33.418  27.140  24.929  1.00  0.00     0.127 C 
ATOM     79  C   UNL A   1      32.081  26.740  24.241  1.00  0.00     0.127 C 
ATOM     80  C   UNL A   1      34.206  25.829  24.791  1.00  0.00     0.155 C 
ATOM     81  C   UNL A   1      32.270  25.244  24.003  1.00  0.00     0.155 C 
ATOM     82  C   UNL A   1      33.654  24.823  25.762  1.00  0.00     0.004 C 
ATOM     83  O   UNL A   1      33.650  25.270  23.596  1.00  0.00    -0.365 OA
ATOM     84  C   UNL A   1      32.445  24.484  25.288  1.00  0.00     0.004 C 
BRANCH  79  85
ATOM     85  C   UNL A   1      31.547  27.378  22.960  1.00  0.00     0.231 C 
ATOM     86  O   UNL A   1      32.338  27.439  21.999  1.00  0.00    -0.274 OA
ATOM     87  N   UNL A   1      30.364  28.010  22.736  1.00  0.00    -0.325 N 
ATOM     88  H   UNL A   1      30.413  28.670  22.007  1.00  0.00     0.169 HD
BRANCH  87  89
ATOM     89  C   UNL A   1      29.084  27.927  23.317  1.00  0.00     0.049 A 
ATOM     90  C   UNL A   1      28.728  26.646  23.784  1.00  0.00     0.027 A 
ATOM     91  C   UNL A   1      28.076  28.913  23.167  1.00  0.00     0.005 A 
ATOM     92  C   UNL A   1      27.431  26.347  24.197  1.00  0.00     0.002 A 
ATOM     93  C   UNL A   1      26.767  28.578  23.596  1.00  0.00     0.011 A 
ATOM     94  C   UNL A   1      26.447  27.319  24.107  1.00  0.00     0.001 A 
BRANCH  91  95
ATOM     95  C   UNL A   1      28.281  30.248  22.562  1.00  0.00    -0.016 A 
ATOM     96  C   UNL A   1      28.028  30.453  21.188  1.00  0.00     0.009 A 
ATOM     97  C   UNL A   1      28.675  31.361  23.319  1.00  0.00     0.009 A 
ATOM     98  C   UNL A   1      28.069  31.729  20.621  1.00  0.00     0.001 A 
ATOM     99  C   UNL A   1      28.726  32.638  22.751  1.00  0.00     0.001 A 
ATOM    100  C   UNL A   1      28.402  32.824  21.410  1.00  0.00     0.000 A 
ENDBRANCH  91  95
ENDBRANCH  87  89
ENDBRANCH  79  85
ENDBRANCH  75  78
ENDBRANCH  73  74
ENDBRANCH   1  73
TORSDOF 14
ENDMDL
MODEL 2
REMARK VINA RESULT:     -13.1      0.460      7.121
REMARK SMILES O=C(NCCCCNC(=O)[C@H]1[C@@H](C(=O)Nc2ccccc2-c2ccccc2)[C@@H]2C=C[C@H]1O2)c1ccc(-c2c3nc(c(-c4c(F)c(F)c(F)c(F)c4F)c4ccc([nH]4)c(-c4c(F)c(F)c(F)c(F)c4F)c4nc(c(-c5c(F)c(F)c(F)c(F)c5F)c5ccc2[nH]5)C=C4)C=C3)cc1
REMARK SMILES IDX 6 1 5 2 4 3 3 4 1 5 2 6 33 8 34 9 95 10 35 11 94 12 36 13
REMARK SMILES IDX 37 14 38 15 88 16 39 17 93 18 87 19 89 20 40 21 92 22 86 23
REMARK SMILES IDX 85 24 41 26 73 27 53 28 72 29 54 30 57 31 71 32 90 33 55 34
REMARK SMILES IDX 56 35 70 37 91 38 58 39 42 40 43 41 51 42 44 43 45 44 49 45
REMARK SMILES IDX 52 46 46 47 47 48 50 49 48 50 74 51 75 52 83 53 76 54 77 55
REMARK SMILES IDX 81 56 84 57 78 58 79 59 82 60 80 61 59 62 60 63 68 64 61 65
REMARK SMILES IDX 62 66 66 67 69 68 63 69 64 70 67 71 65 72 7 73 8 74 9 75
REMARK SMILES IDX 10 77 11 78 12 79 31 80 28 81 30 82 32 83 29 84 13 85 14 86
REMARK SMILES IDX 15 87 16 89 17 90 21 91 18 92 20 93 19 94 22 95 23 96 27 97
REMARK SMILES IDX 24 98 26 99 25 100
REMARK H PARENT 3 7 89 25 57 36 8 76 15 88
REMARK Flexibility Score: inf
ROOT
ATOM      1  C   UNL A   1      32.028  30.611  26.853  1.00  0.00     0.023 C 
ENDROOT
BRANCH   1   2
ATOM      2  C   UNL A   1      31.677  32.099  26.892  1.00  0.00     0.023 C 
BRANCH   2   3
ATOM      3  C   UNL A   1      32.872  32.996  27.151  1.00  0.00     0.116 C 
BRANCH   3   4
ATOM      4  N   UNL A   1      32.504  34.315  27.643  1.00  0.00    -0.352 N 
ATOM      5  O   UNL A   1      32.584  36.029  29.125  1.00  0.00    -0.269 OA
ATOM      6  C   UNL A   1      33.045  34.972  28.724  1.00  0.00     0.251 C 
ATOM      7  H   UNL A   1      31.793  34.786  27.151  1.00  0.00     0.163 HD
BRANCH   6   8
ATOM      8  C   UNL A   1      34.177  34.330  29.420  1.00  0.00     0.039 A 
ATOM      9  C   UNL A   1      35.485  34.604  29.017  1.00  0.00     0.014 A 
ATOM     10  C   UNL A   1      33.916  33.391  30.420  1.00  0.00     0.014 A 
ATOM     11  C   UNL A   1      36.528  33.842  29.518  1.00  0.00     0.010 A 
ATOM     12  C   UNL A   1      34.980  32.695  30.996  1.00  0.00     0.010 A 
ATOM     13  C   UNL A   1      36.289  32.901  30.532  1.00  0.00    -0.014 A 
BRANCH  13  14
ATOM     14  C   UNL A   1      37.441  32.220  31.167  1.00  0.00     0.031 A 
ATOM     15  C   UNL A   1      37.911  32.595  32.539  1.00  0.00     0.074 A 
ATOM     16  C   UNL A   1      38.061  31.250  30.468  1.00  0.00     0.049 A 
ATOM     17  N   UNL A   1      38.932  32.130  33.215  1.00  0.00    -0.248 NA
ATOM     18  C   UNL A   1      37.148  33.635  33.244  1.00  0.00     0.031 C 
ATOM     19  C   UNL A   1      37.689  30.824  29.116  1.00  0.00     0.029 A 
ATOM     20  N   UNL A   1      39.123  30.448  30.788  1.00  0.00    -0.354 N 
ATOM     21  C   UNL A   1      38.952  32.837  34.409  1.00  0.00     0.074 A 
ATOM     22  C   UNL A   1      37.850  33.775  34.361  1.00  0.00     0.031 C 
ATOM     23  C   UNL A   1      38.485  29.818  28.737  1.00  0.00     0.029 A 
ATOM     24  C   UNL A   1      39.472  29.582  29.782  1.00  0.00     0.049 A 
ATOM     25  H   UNL A   1      39.591  30.489  31.653  1.00  0.00     0.167 HD
ATOM     26  C   UNL A   1      39.817  32.708  35.445  1.00  0.00     0.037 A 
ATOM     27  C   UNL A   1      40.497  28.716  29.694  1.00  0.00     0.037 A 
ATOM     28  C   UNL A   1      40.901  31.757  35.476  1.00  0.00     0.049 A 
ATOM     29  C   UNL A   1      41.444  28.604  30.849  1.00  0.00     0.074 A 
ATOM     30  C   UNL A   1      41.804  31.509  36.495  1.00  0.00     0.029 A 
ATOM     31  N   UNL A   1      41.230  30.899  34.434  1.00  0.00    -0.354 N 
ATOM     32  N   UNL A   1      41.435  29.253  31.987  1.00  0.00    -0.248 NA
ATOM     33  C   UNL A   1      42.544  27.644  30.709  1.00  0.00     0.031 C 
ATOM     34  C   UNL A   1      42.711  30.541  36.051  1.00  0.00     0.029 A 
ATOM     35  C   UNL A   1      42.342  30.144  34.776  1.00  0.00     0.049 A 
ATOM     36  H   UNL A   1      40.747  30.837  33.579  1.00  0.00     0.167 HD
ATOM     37  C   UNL A   1      42.521  28.779  32.704  1.00  0.00     0.074 A 
ATOM     38  C   UNL A   1      43.153  27.767  31.879  1.00  0.00     0.031 C 
ATOM     39  C   UNL A   1      42.960  29.150  33.933  1.00  0.00     0.037 A 
BRANCH  26  40
ATOM     40  C   UNL A   1      39.651  33.637  36.614  1.00  0.00     0.064 A 
ATOM     41  C   UNL A   1      40.263  34.899  36.652  1.00  0.00     0.173 A 
ATOM     42  C   UNL A   1      38.838  33.272  37.698  1.00  0.00     0.173 A 
ATOM     43  F   UNL A   1      41.059  35.294  35.647  1.00  0.00    -0.203 F 
ATOM     44  C   UNL A   1      40.089  35.748  37.744  1.00  0.00     0.198 A 
ATOM     45  C   UNL A   1      38.644  34.135  38.775  1.00  0.00     0.198 A 
ATOM     46  F   UNL A   1      38.223  32.080  37.712  1.00  0.00    -0.203 F 
ATOM     47  F   UNL A   1      40.723  36.929  37.779  1.00  0.00    -0.200 F 
ATOM     48  C   UNL A   1      39.276  35.368  38.801  1.00  0.00     0.200 A 
ATOM     49  F   UNL A   1      37.847  33.770  39.789  1.00  0.00    -0.200 F 
ATOM     50  F   UNL A   1      39.108  36.187  39.849  1.00  0.00    -0.200 F 
ENDBRANCH  26  40
BRANCH  27  51
ATOM     51  C   UNL A   1      40.670  27.923  28.451  1.00  0.00     0.064 A 
ATOM     52  C   UNL A   1      41.452  28.399  27.392  1.00  0.00     0.173 A 
ATOM     53  C   UNL A   1      40.105  26.644  28.325  1.00  0.00     0.173 A 
ATOM     54  F   UNL A   1      42.003  29.620  27.463  1.00  0.00    -0.203 F 
ATOM     55  C   UNL A   1      41.659  27.628  26.250  1.00  0.00     0.198 A 
ATOM     56  C   UNL A   1      40.338  25.862  27.198  1.00  0.00     0.198 A 
ATOM     57  F   UNL A   1      39.360  26.139  29.318  1.00  0.00    -0.203 F 
ATOM     58  F   UNL A   1      42.390  28.116  25.239  1.00  0.00    -0.200 F 
ATOM     59  C   UNL A   1      41.111  26.357  26.158  1.00  0.00     0.200 A 
ATOM     60  F   UNL A   1      39.827  24.626  27.125  1.00  0.00    -0.200 F 
ATOM     61  F   UNL A   1      41.327  25.608  25.069  1.00  0.00    -0.200 F 
ENDBRANCH  27  51
BRANCH  39  62
ATOM     62  C   UNL A   1      44.173  28.443  34.458  1.00  0.00     0.064 A 
ATOM     63  C   UNL A   1      44.068  27.238  35.170  1.00  0.00     0.173 A 
ATOM     64  C   UNL A   1      45.454  28.963  34.225  1.00  0.00     0.173 A 
ATOM     65  F   UNL A   1      42.863  26.713  35.436  1.00  0.00    -0.203 F 
ATOM     66  C   UNL A   1      45.203  26.592  35.650  1.00  0.00     0.198 A 
ATOM     67  C   UNL A   1      46.589  28.298  34.680  1.00  0.00     0.198 A 
ATOM     68  F   UNL A   1      45.606  30.110  33.547  1.00  0.00    -0.203 F 
ATOM     69  F   UNL A   1      45.079  25.468  36.369  1.00  0.00    -0.200 F 
ATOM     70  C   UNL A   1      46.463  27.118  35.399  1.00  0.00     0.200 A 
ATOM     71  F   UNL A   1      47.805  28.802  34.428  1.00  0.00    -0.200 F 
ATOM     72  F   UNL A   1      47.555  26.492  35.857  1.00  0.00    -0.200 F 
ENDBRANCH  39  62
ENDBRANCH  13  14
ENDBRANCH   6   8
ENDBRANCH   3   4
ENDBRANCH   2   3
ENDBRANCH   1   2
BRANCH   1  73
ATOM     73  C   UNL A   1      31.684  29.933  25.526  1.00  0.00     0.116 C 
BRANCH  73  74
ATOM     74  N   UNL A   1      32.870  29.755  24.721  1.00  0.00    -0.356 N 
ATOM     75  C   UNL A   1      33.619  28.651  24.470  1.00  0.00     0.227 C 
ATOM     76  H   UNL A   1      33.191  30.574  24.279  1.00  0.00     0.163 HD
ATOM     77  O   UNL A   1      34.566  28.807  23.694  1.00  0.00    -0.275 OA
BRANCH  75  78
ATOM     78  C   UNL A   1      33.202  27.264  24.898  1.00  0.00     0.127 C 
ATOM     79  C   UNL A   1      31.934  26.723  24.178  1.00  0.00     0.127 C 
ATOM     80  C   UNL A   1      34.120  26.036  24.809  1.00  0.00     0.155 C 
ATOM     81  C   UNL A   1      32.277  25.249  23.974  1.00  0.00     0.155 C 
ATOM     82  C   UNL A   1      33.639  24.995  25.782  1.00  0.00     0.004 C 
ATOM     83  O   UNL A   1      33.661  25.405  23.609  1.00  0.00    -0.365 OA
ATOM     84  C   UNL A   1      32.485  24.531  25.278  1.00  0.00     0.004 C 
BRANCH  79  85
ATOM     85  C   UNL A   1      31.381  27.285  22.869  1.00  0.00     0.231 C 
ATOM     86  O   UNL A   1      32.155  27.278  21.892  1.00  0.00    -0.274 OA
ATOM     87  N   UNL A   1      30.200  27.913  22.628  1.00  0.00    -0.325 N 
ATOM     88  H   UNL A   1      30.240  28.526  21.859  1.00  0.00     0.169 HD
BRANCH  87  89
ATOM     89  C   UNL A   1      28.930  27.880  23.237  1.00  0.00     0.049 A 
ATOM     90  C   UNL A   1      28.527  26.609  23.695  1.00  0.00     0.027 A 
ATOM     91  C   UNL A   1      27.965  28.911  23.123  1.00  0.00     0.005 A 
ATOM     92  C   UNL A   1      27.228  26.363  24.134  1.00  0.00     0.002 A 
ATOM     93  C   UNL A   1      26.652  28.629  23.577  1.00  0.00     0.011 A 
ATOM     94  C   UNL A   1      26.287  27.379  24.079  1.00  0.00     0.001 A 
BRANCH  91  95
ATOM     95  C   UNL A   1      28.217  30.245  22.531  1.00  0.00    -0.016 A 
ATOM     96  C   UNL A   1      27.989  30.467  21.155  1.00  0.00     0.009 A 
ATOM     97  C   UNL A   1      28.632  31.340  23.302  1.00  0.00     0.009 A 
ATOM     98  C   UNL A   1      28.074  31.745  20.599  1.00  0.00     0.001 A 
ATOM     99  C   UNL A   1      28.727  32.620  22.745  1.00  0.00     0.001 A 
ATOM    100  C   UNL A   1      28.428  32.824  21.401  1.00  0.00     0.000 A 
ENDBRANCH  91  95
ENDBRANCH  87  89
ENDBRANCH  79  85
ENDBRANCH  75  78
ENDBRANCH  73  74
ENDBRANCH   1  73
TORSDOF 14
ENDMDL
MODEL 3
REMARK VINA RESULT:     -12.7      1.764      4.464
REMARK SMILES O=C(NCCCCNC(=O)[C@H]1[C@@H](C(=O)Nc2ccccc2-c2ccccc2)[C@@H]2C=C[C@H]1O2)c1ccc(-c2c3nc(c(-c4c(F)c(F)c(F)c(F)c4F)c4ccc([nH]4)c(-c4c(F)c(F)c(F)c(F)c4F)c4nc(c(-c5c(F)c(F)c(F)c(F)c5F)c5ccc2[nH]5)C=C4)C=C3)cc1
REMARK SMILES IDX 6 1 5 2 4 3 3 4 1 5 2 6 33 8 34 9 95 10 35 11 94 12 36 13
REMARK SMILES IDX 37 14 38 15 88 16 39 17 93 18 87 19 89 20 40 21 92 22 86 23
REMARK SMILES IDX 85 24 41 26 73 27 53 28 72 29 54 30 57 31 71 32 90 33 55 34
REMARK SMILES IDX 56 35 70 37 91 38 58 39 42 40 43 41 51 42 44 43 45 44 49 45
REMARK SMILES IDX 52 46 46 47 47 48 50 49 48 50 74 51 75 52 83 53 76 54 77 55
REMARK SMILES IDX 81 56 84 57 78 58 79 59 82 60 80 61 59 62 60 63 68 64 61 65
REMARK SMILES IDX 62 66 66 67 69 68 63 69 64 70 67 71 65 72 7 73 8 74 9 75
REMARK SMILES IDX 10 77 11 78 12 79 31 80 28 81 30 82 32 83 29 84 13 85 14 86
REMARK SMILES IDX 15 87 16 89 17 90 21 91 18 92 20 93 19 94 22 95 23 96 27 97
REMARK SMILES IDX 24 98 26 99 25 100
REMARK H PARENT 3 7 89 25 57 36 8 76 15 88
REMARK Flexibility Score: inf
ROOT
ATOM      1  C   UNL A   1      31.550  30.443  25.707  1.00  0.00     0.023 C 
ENDROOT
BRANCH   1   2
ATOM      2  C   UNL A   1      31.307  31.700  26.543  1.00  0.00     0.023 C 
BRANCH   2   3
ATOM      3  C   UNL A   1      32.576  32.459  26.876  1.00  0.00     0.116 C 
BRANCH   3   4
ATOM      4  N   UNL A   1      32.328  33.810  27.356  1.00  0.00    -0.352 N 
ATOM      5  O   UNL A   1      32.660  35.567  28.750  1.00  0.00    -0.269 OA
ATOM      6  C   UNL A   1      33.023  34.477  28.339  1.00  0.00     0.251 C 
ATOM      7  H   UNL A   1      31.584  34.298  26.934  1.00  0.00     0.163 HD
BRANCH   6   8
ATOM      8  C   UNL A   1      34.202  33.805  28.920  1.00  0.00     0.039 A 
ATOM      9  C   UNL A   1      34.028  32.709  29.768  1.00  0.00     0.014 A 
ATOM     10  C   UNL A   1      35.472  34.329  28.677  1.00  0.00     0.014 A 
ATOM     11  C   UNL A   1      35.110  32.220  30.482  1.00  0.00     0.010 A 
ATOM     12  C   UNL A   1      36.576  33.770  29.322  1.00  0.00     0.010 A 
ATOM     13  C   UNL A   1      36.398  32.726  30.244  1.00  0.00    -0.014 A 
BRANCH  13  14
ATOM     14  C   UNL A   1      37.558  32.074  30.895  1.00  0.00     0.031 A 
ATOM     15  C   UNL A   1      38.360  31.023  30.191  1.00  0.00     0.074 A 
ATOM     16  C   UNL A   1      37.869  32.453  32.150  1.00  0.00     0.049 A 
ATOM     17  N   UNL A   1      39.372  30.323  30.638  1.00  0.00    -0.248 NA
ATOM     18  C   UNL A   1      37.973  30.703  28.809  1.00  0.00     0.031 C 
ATOM     19  C   UNL A   1      37.137  33.457  32.928  1.00  0.00     0.029 A 
ATOM     20  N   UNL A   1      38.872  32.050  32.989  1.00  0.00    -0.354 N 
ATOM     21  C   UNL A   1      39.725  29.463  29.608  1.00  0.00     0.074 A 
ATOM     22  C   UNL A   1      38.810  29.716  28.516  1.00  0.00     0.031 C 
ATOM     23  C   UNL A   1      37.734  33.615  34.114  1.00  0.00     0.029 A 
ATOM     24  C   UNL A   1      38.840  32.672  34.211  1.00  0.00     0.049 A 
ATOM     25  H   UNL A   1      39.550  31.381  32.740  1.00  0.00     0.167 HD
ATOM     26  C   UNL A   1      40.725  28.547  29.587  1.00  0.00     0.037 A 
ATOM     27  C   UNL A   1      39.595  32.479  35.308  1.00  0.00     0.037 A 
ATOM     28  C   UNL A   1      41.633  28.320  30.683  1.00  0.00     0.049 A 
ATOM     29  C   UNL A   1      40.684  31.452  35.260  1.00  0.00     0.074 A 
ATOM     30  C   UNL A   1      42.711  27.453  30.748  1.00  0.00     0.029 A 
ATOM     31  N   UNL A   1      41.566  28.963  31.913  1.00  0.00    -0.354 N 
ATOM     32  N   UNL A   1      41.031  30.667  34.269  1.00  0.00    -0.248 NA
ATOM     33  C   UNL A   1      41.483  31.280  36.477  1.00  0.00     0.031 C 
ATOM     34  C   UNL A   1      43.261  27.533  32.032  1.00  0.00     0.029 A 
ATOM     35  C   UNL A   1      42.563  28.490  32.751  1.00  0.00     0.049 A 
ATOM     36  H   UNL A   1      40.907  29.654  32.153  1.00  0.00     0.167 HD
ATOM     37  C   UNL A   1      42.092  29.910  34.738  1.00  0.00     0.074 A 
ATOM     38  C   UNL A   1      42.348  30.350  36.096  1.00  0.00     0.031 C 
ATOM     39  C   UNL A   1      42.791  28.936  34.104  1.00  0.00     0.037 A 
BRANCH  26  40
ATOM     40  C   UNL A   1      40.868  27.698  28.356  1.00  0.00     0.064 A 
ATOM     41  C   UNL A   1      41.697  28.072  27.288  1.00  0.00     0.173 A 
ATOM     42  C   UNL A   1      40.190  26.472  28.258  1.00  0.00     0.173 A 
ATOM     43  F   UNL A   1      42.360  29.237  27.324  1.00  0.00    -0.203 F 
ATOM     44  C   UNL A   1      41.820  27.265  26.158  1.00  0.00     0.198 A 
ATOM     45  C   UNL A   1      40.337  25.655  27.140  1.00  0.00     0.198 A 
ATOM     46  F   UNL A   1      39.389  26.061  29.253  1.00  0.00    -0.203 F 
ATOM     47  F   UNL A   1      42.581  27.667  25.129  1.00  0.00    -0.200 F 
ATOM     48  C   UNL A   1      41.145  26.056  26.087  1.00  0.00     0.200 A 
ATOM     49  F   UNL A   1      39.693  24.481  27.079  1.00  0.00    -0.200 F 
ATOM     50  F   UNL A   1      41.267  25.280  25.001  1.00  0.00    -0.200 F 
ENDBRANCH  26  40
BRANCH  27  51
ATOM     51  C   UNL A   1      39.309  33.269  36.532  1.00  0.00     0.064 A 
ATOM     52  C   UNL A   1      38.486  32.762  37.545  1.00  0.00     0.173 A 
ATOM     53  C   UNL A   1      39.906  34.523  36.739  1.00  0.00     0.173 A 
ATOM     54  F   UNL A   1      37.886  31.573  37.387  1.00  0.00    -0.203 F 
ATOM     55  C   UNL A   1      38.265  33.481  38.717  1.00  0.00     0.198 A 
ATOM     56  C   UNL A   1      39.709  35.227  37.923  1.00  0.00     0.198 A 
ATOM     57  F   UNL A   1      40.713  35.045  35.804  1.00  0.00    -0.203 F 
ATOM     58  F   UNL A   1      37.452  32.986  39.660  1.00  0.00    -0.200 F 
ATOM     59  C   UNL A   1      38.884  34.708  38.910  1.00  0.00     0.200 A 
ATOM     60  F   UNL A   1      40.329  36.398  38.115  1.00  0.00    -0.200 F 
ATOM     61  F   UNL A   1      38.688  35.389  40.046  1.00  0.00    -0.200 F 
ENDBRANCH  27  51
BRANCH  39  62
ATOM     62  C   UNL A   1      43.906  28.294  34.874  1.00  0.00     0.064 A 
ATOM     63  C   UNL A   1      43.704  27.119  35.612  1.00  0.00     0.173 A 
ATOM     64  C   UNL A   1      45.194  28.847  34.852  1.00  0.00     0.173 A 
ATOM     65  F   UNL A   1      42.485  26.564  35.681  1.00  0.00    -0.203 F 
ATOM     66  C   UNL A   1      44.749  26.533  36.321  1.00  0.00     0.198 A 
ATOM     67  C   UNL A   1      46.244  28.243  35.537  1.00  0.00     0.198 A 
ATOM     68  F   UNL A   1      45.437  29.969  34.158  1.00  0.00    -0.203 F 
ATOM     69  F   UNL A   1      44.525  25.437  37.059  1.00  0.00    -0.200 F 
ATOM     70  C   UNL A   1      46.019  27.091  36.277  1.00  0.00     0.200 A 
ATOM     71  F   UNL A   1      47.472  28.777  35.485  1.00  0.00    -0.200 F 
ATOM     72  F   UNL A   1      47.025  26.523  36.955  1.00  0.00    -0.200 F 
ENDBRANCH  39  62
ENDBRANCH  13  14
ENDBRANCH   6   8
ENDBRANCH   3   4
ENDBRANCH   2   3
ENDBRANCH   1   2
BRANCH   1  73
ATOM     73  C   UNL A   1      32.772  29.637  26.150  1.00  0.00     0.116 C 
BRANCH  73  74
ATOM     74  N   UNL A   1      32.368  28.392  26.760  1.00  0.00    -0.356 N 
ATOM     75  C   UNL A   1      31.895  27.243  26.212  1.00  0.00     0.227 C 
ATOM     76  H   UNL A   1      32.449  28.372  27.741  1.00  0.00     0.163 HD
ATOM     77  O   UNL A   1      31.674  26.320  27.002  1.00  0.00    -0.275 OA
BRANCH  75  78
ATOM     78  C   UNL A   1      31.867  26.997  24.722  1.00  0.00     0.127 C 
ATOM     79  C   UNL A   1      32.043  25.507  24.314  1.00  0.00     0.127 C 
ATOM     80  C   UNL A   1      30.693  27.399  23.817  1.00  0.00     0.155 C 
ATOM     81  C   UNL A   1      31.080  25.374  23.136  1.00  0.00     0.155 C 
ATOM     82  C   UNL A   1      31.189  27.528  22.403  1.00  0.00     0.004 C 
ATOM     83  O   UNL A   1      29.995  26.159  23.664  1.00  0.00    -0.365 OA
ATOM     84  C   UNL A   1      31.455  26.278  21.994  1.00  0.00     0.004 C 
BRANCH  79  85
ATOM     85  C   UNL A   1      31.831  24.324  25.258  1.00  0.00     0.231 C 
ATOM     86  O   UNL A   1      30.652  24.060  25.560  1.00  0.00    -0.274 OA
ATOM     87  N   UNL A   1      32.749  23.576  25.927  1.00  0.00    -0.325 N 
ATOM     88  H   UNL A   1      32.389  23.175  26.751  1.00  0.00     0.169 HD
BRANCH  87  89
ATOM     89  C   UNL A   1      34.100  23.250  25.701  1.00  0.00     0.049 A 
ATOM     90  C   UNL A   1      35.021  24.245  26.088  1.00  0.00     0.027 A 
ATOM     91  C   UNL A   1      34.536  22.194  24.862  1.00  0.00     0.005 A 
ATOM     92  C   UNL A   1      36.370  24.169  25.751  1.00  0.00     0.002 A 
ATOM     93  C   UNL A   1      35.914  22.145  24.537  1.00  0.00     0.011 A 
ATOM     94  C   UNL A   1      36.820  23.113  24.976  1.00  0.00     0.001 A 
BRANCH  91  95
ATOM     95  C   UNL A   1      33.652  21.164  24.270  1.00  0.00    -0.016 A 
ATOM     96  C   UNL A   1      32.876  21.462  23.129  1.00  0.00     0.009 A 
ATOM     97  C   UNL A   1      33.587  19.856  24.772  1.00  0.00     0.009 A 
ATOM     98  C   UNL A   1      32.150  20.473  22.462  1.00  0.00     0.001 A 
ATOM     99  C   UNL A   1      32.852  18.866  24.111  1.00  0.00     0.001 A 
ATOM    100  C   UNL A   1      32.153  19.170  22.946  1.00  0.00     0.000 A 
ENDBRANCH  91  95
ENDBRANCH  87  89
ENDBRANCH  79  85
ENDBRANCH  75  78
ENDBRANCH  73  74
ENDBRANCH   1  73
TORSDOF 14
ENDMDL
