MODEL 1
REMARK VINA RESULT:     -13.7      0.000      0.000
REMARK SMILES O=C(CN1C(=O)/C(=C\c2c(F)cccc2Cl)Oc2ccccc21)NCCCCNC(=O)c1ccc(-c2c3nc(c(-c4c(F)c(F)c(F)c(F)c4F)c4ccc([nH]4)c(-c4c(F)c(F)c(F)c(F)c4F)c4nc(c(-c5c(F)c(F)c(F)c(F)c5F)c5ccc2[nH]5)C=C4)C=C3)cc1
REMARK SMILES IDX 26 1 25 2 24 3 1 4 2 5 3 7 4 8 5 9 23 10 6 11 7 12 18 13
REMARK SMILES IDX 22 14 8 15 17 16 19 17 21 18 20 19 9 20 10 21 15 22 11 23
REMARK SMILES IDX 12 24 14 25 16 26 13 27 27 28 28 29 29 30 30 31 31 33 32 34
REMARK SMILES IDX 33 35 94 36 34 37 93 38 35 39 36 40 37 41 87 42 38 43 92 44
REMARK SMILES IDX 86 45 88 46 39 47 91 48 85 49 84 50 40 52 72 53 52 54 71 55
REMARK SMILES IDX 53 56 56 57 70 58 89 59 54 60 55 61 69 63 90 64 57 65 41 66
REMARK SMILES IDX 42 67 50 68 43 69 44 70 48 71 51 72 45 73 46 74 49 75 47 76
REMARK SMILES IDX 73 77 74 78 82 79 75 80 76 81 80 82 83 83 77 84 78 85 81 86
REMARK SMILES IDX 79 87 58 88 59 89 67 90 60 91 61 92 65 93 68 94 62 95 63 96
REMARK SMILES IDX 66 97 64 98
REMARK H PARENT 24 6 29 32 88 51 56 62
REMARK Flexibility Score: inf
ROOT
ATOM      1  C   UNL A   1      34.857  31.393  27.779  1.00  0.00     0.023 C 
ENDROOT
BRANCH   1   2
ATOM      2  C   UNL A   1      34.703  29.888  27.587  1.00  0.00     0.116 C 
BRANCH   2   3
ATOM      3  N   UNL A   1      34.281  29.489  26.258  1.00  0.00    -0.355 N 
ATOM      4  O   UNL A   1      32.075  29.355  26.866  1.00  0.00    -0.273 OA
ATOM      5  C   UNL A   1      32.935  29.337  25.986  1.00  0.00     0.240 C 
ATOM      6  H   UNL A   1      34.950  29.328  25.554  1.00  0.00     0.163 HD
BRANCH   5   7
ATOM      7  C   UNL A   1      32.573  29.102  24.523  1.00  0.00     0.226 C 
BRANCH   7   8
ATOM      8  N   UNL A   1      31.369  28.388  24.081  1.00  0.00    -0.293 N 
ATOM      9  C   UNL A   1      31.495  26.998  24.101  1.00  0.00     0.294 C 
ATOM     10  C   UNL A   1      30.120  28.995  23.764  1.00  0.00     0.088 A 
ATOM     11  O   UNL A   1      32.524  26.454  24.503  1.00  0.00    -0.265 OA
ATOM     12  C   UNL A   1      30.320  26.197  23.611  1.00  0.00     0.193 C 
ATOM     13  C   UNL A   1      29.067  28.186  23.323  1.00  0.00     0.151 A 
ATOM     14  C   UNL A   1      29.865  30.369  23.856  1.00  0.00     0.030 A 
ATOM     15  C   UNL A   1      30.389  24.865  23.418  1.00  0.00     0.065 C 
ATOM     16  O   UNL A   1      29.126  26.819  23.289  1.00  0.00    -0.449 OA
ATOM     17  C   UNL A   1      27.854  28.730  22.884  1.00  0.00     0.049 A 
ATOM     18  C   UNL A   1      28.660  30.923  23.401  1.00  0.00     0.002 A 
ATOM     19  C   UNL A   1      27.660  30.105  22.895  1.00  0.00     0.004 A 
BRANCH  15  20
ATOM     20  C   UNL A   1      31.599  24.040  23.535  1.00  0.00     0.033 A 
ATOM     21  C   UNL A   1      32.552  24.045  22.512  1.00  0.00     0.132 A 
ATOM     22  C   UNL A   1      31.795  23.172  24.622  1.00  0.00     0.051 A 
ATOM     23  F   UNL A   1      32.407  24.861  21.456  1.00  0.00    -0.206 F 
ATOM     24  C   UNL A   1      33.659  23.198  22.548  1.00  0.00     0.040 A 
ATOM     25  C   UNL A   1      32.906  22.325  24.667  1.00  0.00     0.021 A 
ATOM     26  Cl  UNL A   1      30.673  23.099  25.941  1.00  0.00    -0.084 Cl
ATOM     27  C   UNL A   1      33.834  22.331  23.626  1.00  0.00     0.005 A 
ENDBRANCH  15  20
ENDBRANCH   7   8
ENDBRANCH   5   7
ENDBRANCH   2   3
ENDBRANCH   1   2
BRANCH   1  28
ATOM     28  C   UNL A   1      33.599  32.139  28.220  1.00  0.00     0.023 C 
BRANCH  28  29
ATOM     29  C   UNL A   1      32.973  33.063  27.179  1.00  0.00     0.116 C 
BRANCH  29  30
ATOM     30  N   UNL A   1      32.549  34.344  27.723  1.00  0.00    -0.352 N 
ATOM     31  C   UNL A   1      33.057  35.078  28.773  1.00  0.00     0.251 C 
ATOM     32  H   UNL A   1      31.775  34.751  27.270  1.00  0.00     0.163 HD
ATOM     33  O   UNL A   1      32.482  36.089  29.149  1.00  0.00    -0.269 OA
BRANCH  31  34
ATOM     34  C   UNL A   1      34.277  34.623  29.483  1.00  0.00     0.039 A 
ATOM     35  C   UNL A   1      35.546  34.791  28.926  1.00  0.00     0.014 A 
ATOM     36  C   UNL A   1      34.141  34.005  30.731  1.00  0.00     0.014 A 
ATOM     37  C   UNL A   1      36.647  34.176  29.518  1.00  0.00     0.010 A 
ATOM     38  C   UNL A   1      35.261  33.457  31.364  1.00  0.00     0.010 A 
ATOM     39  C   UNL A   1      36.514  33.484  30.733  1.00  0.00    -0.014 A 
BRANCH  39  40
ATOM     40  C   UNL A   1      37.685  32.760  31.298  1.00  0.00     0.031 A 
ATOM     41  C   UNL A   1      38.181  33.074  32.686  1.00  0.00     0.074 A 
ATOM     42  C   UNL A   1      38.259  31.766  30.592  1.00  0.00     0.049 A 
ATOM     43  N   UNL A   1      39.164  32.525  33.357  1.00  0.00    -0.248 NA
ATOM     44  C   UNL A   1      37.484  34.143  33.420  1.00  0.00     0.031 C 
ATOM     45  C   UNL A   1      37.863  31.351  29.246  1.00  0.00     0.029 A 
ATOM     46  N   UNL A   1      39.277  30.905  30.920  1.00  0.00    -0.354 N 
ATOM     47  C   UNL A   1      39.210  33.186  34.578  1.00  0.00     0.074 A 
ATOM     48  C   UNL A   1      38.177  34.198  34.549  1.00  0.00     0.031 C 
ATOM     49  C   UNL A   1      38.591  30.285  28.884  1.00  0.00     0.029 A 
ATOM     50  C   UNL A   1      39.540  29.970  29.949  1.00  0.00     0.049 A 
ATOM     51  H   UNL A   1      39.772  30.954  31.770  1.00  0.00     0.167 HD
ATOM     52  C   UNL A   1      40.026  32.957  35.633  1.00  0.00     0.037 A 
ATOM     53  C   UNL A   1      40.445  28.975  29.917  1.00  0.00     0.037 A 
ATOM     54  C   UNL A   1      41.036  31.933  35.680  1.00  0.00     0.049 A 
ATOM     55  C   UNL A   1      41.367  28.773  31.087  1.00  0.00     0.074 A 
ATOM     56  C   UNL A   1      41.904  31.625  36.715  1.00  0.00     0.029 A 
ATOM     57  N   UNL A   1      41.308  31.045  34.652  1.00  0.00    -0.354 N 
ATOM     58  N   UNL A   1      41.399  29.409  32.231  1.00  0.00    -0.248 NA
ATOM     59  C   UNL A   1      42.384  27.720  30.956  1.00  0.00     0.031 C 
ATOM     60  C   UNL A   1      42.720  30.568  36.301  1.00  0.00     0.029 A 
ATOM     61  C   UNL A   1      42.338  30.198  35.023  1.00  0.00     0.049 A 
ATOM     62  H   UNL A   1      40.839  31.021  33.786  1.00  0.00     0.167 HD
ATOM     63  C   UNL A   1      42.428  28.829  32.959  1.00  0.00     0.074 A 
ATOM     64  C   UNL A   1      42.984  27.775  32.137  1.00  0.00     0.031 C 
ATOM     65  C   UNL A   1      42.877  29.149  34.197  1.00  0.00     0.037 A 
BRANCH  52  66
ATOM     66  C   UNL A   1      39.866  33.825  36.846  1.00  0.00     0.064 A 
ATOM     67  C   UNL A   1      40.498  35.072  36.938  1.00  0.00     0.173 A 
ATOM     68  C   UNL A   1      38.998  33.446  37.882  1.00  0.00     0.173 A 
ATOM     69  F   UNL A   1      41.343  35.473  35.977  1.00  0.00    -0.203 F 
ATOM     70  C   UNL A   1      40.270  35.910  38.027  1.00  0.00     0.198 A 
ATOM     71  C   UNL A   1      38.758  34.295  38.959  1.00  0.00     0.198 A 
ATOM     72  F   UNL A   1      38.365  32.265  37.836  1.00  0.00    -0.203 F 
ATOM     73  F   UNL A   1      40.898  37.092  38.104  1.00  0.00    -0.200 F 
ATOM     74  C   UNL A   1      39.393  35.526  39.031  1.00  0.00     0.200 A 
ATOM     75  F   UNL A   1      37.900  33.928  39.922  1.00  0.00    -0.200 F 
ATOM     76  F   UNL A   1      39.160  36.342  40.068  1.00  0.00    -0.200 F 
ENDBRANCH  52  66
BRANCH  53  77
ATOM     77  C   UNL A   1      40.520  28.083  28.731  1.00  0.00     0.064 A 
ATOM     78  C   UNL A   1      41.292  28.436  27.616  1.00  0.00     0.173 A 
ATOM     79  C   UNL A   1      39.826  26.865  28.689  1.00  0.00     0.173 A 
ATOM     80  F   UNL A   1      41.955  29.601  27.602  1.00  0.00    -0.203 F 
ATOM     81  C   UNL A   1      41.360  27.607  26.499  1.00  0.00     0.198 A 
ATOM     82  C   UNL A   1      39.915  26.026  27.582  1.00  0.00     0.198 A 
ATOM     83  F   UNL A   1      39.073  26.485  29.732  1.00  0.00    -0.203 F 
ATOM     84  F   UNL A   1      42.076  27.982  25.431  1.00  0.00    -0.200 F 
ATOM     85  C   UNL A   1      40.677  26.400  26.485  1.00  0.00     0.200 A 
ATOM     86  F   UNL A   1      39.263  24.855  27.577  1.00  0.00    -0.200 F 
ATOM     87  F   UNL A   1      40.747  25.600  25.413  1.00  0.00    -0.200 F 
ENDBRANCH  53  77
BRANCH  65  88
ATOM     88  C   UNL A   1      44.015  28.346  34.749  1.00  0.00     0.064 A 
ATOM     89  C   UNL A   1      45.343  28.772  34.602  1.00  0.00     0.173 A 
ATOM     90  C   UNL A   1      43.773  27.177  35.484  1.00  0.00     0.173 A 
ATOM     91  F   UNL A   1      45.624  29.877  33.896  1.00  0.00    -0.203 F 
ATOM     92  C   UNL A   1      46.391  28.047  35.164  1.00  0.00     0.198 A 
ATOM     93  C   UNL A   1      44.822  26.467  36.062  1.00  0.00     0.198 A 
ATOM     94  F   UNL A   1      42.519  26.734  35.656  1.00  0.00    -0.203 F 
ATOM     95  F   UNL A   1      47.655  28.455  34.988  1.00  0.00    -0.200 F 
ATOM     96  C   UNL A   1      46.129  26.900  35.899  1.00  0.00     0.200 A 
ATOM     97  F   UNL A   1      44.566  25.365  36.782  1.00  0.00    -0.200 F 
ATOM     98  F   UNL A   1      47.138  26.211  36.448  1.00  0.00    -0.200 F 
ENDBRANCH  65  88
ENDBRANCH  39  40
ENDBRANCH  31  34
ENDBRANCH  29  30
ENDBRANCH  28  29
ENDBRANCH   1  28
TORSDOF 13
ENDMDL
MODEL 2
REMARK VINA RESULT:     -13.6      0.111      1.553
REMARK SMILES O=C(CN1C(=O)/C(=C\c2c(F)cccc2Cl)Oc2ccccc21)NCCCCNC(=O)c1ccc(-c2c3nc(c(-c4c(F)c(F)c(F)c(F)c4F)c4ccc([nH]4)c(-c4c(F)c(F)c(F)c(F)c4F)c4nc(c(-c5c(F)c(F)c(F)c(F)c5F)c5ccc2[nH]5)C=C4)C=C3)cc1
REMARK SMILES IDX 26 1 25 2 24 3 1 4 2 5 3 7 4 8 5 9 23 10 6 11 7 12 18 13
REMARK SMILES IDX 22 14 8 15 17 16 19 17 21 18 20 19 9 20 10 21 15 22 11 23
REMARK SMILES IDX 12 24 14 25 16 26 13 27 27 28 28 29 29 30 30 31 31 33 32 34
REMARK SMILES IDX 33 35 94 36 34 37 93 38 35 39 36 40 37 41 87 42 38 43 92 44
REMARK SMILES IDX 86 45 88 46 39 47 91 48 85 49 84 50 40 52 72 53 52 54 71 55
REMARK SMILES IDX 53 56 56 57 70 58 89 59 54 60 55 61 69 63 90 64 57 65 41 66
REMARK SMILES IDX 42 67 50 68 43 69 44 70 48 71 51 72 45 73 46 74 49 75 47 76
REMARK SMILES IDX 73 77 74 78 82 79 75 80 76 81 80 82 83 83 77 84 78 85 81 86
REMARK SMILES IDX 79 87 58 88 59 89 67 90 60 91 61 92 65 93 68 94 62 95 63 96
REMARK SMILES IDX 66 97 64 98
REMARK H PARENT 24 6 29 32 88 51 56 62
REMARK Flexibility Score: inf
ROOT
ATOM      1  C   UNL A   1      34.818  31.361  27.873  1.00  0.00     0.023 C 
ENDROOT
BRANCH   1   2
ATOM      2  C   UNL A   1      34.691  29.867  27.599  1.00  0.00     0.116 C 
BRANCH   2   3
ATOM      3  N   UNL A   1      34.249  29.535  26.258  1.00  0.00    -0.355 N 
ATOM      4  O   UNL A   1      32.074  29.233  26.916  1.00  0.00    -0.273 OA
ATOM      5  C   UNL A   1      32.905  29.324  26.014  1.00  0.00     0.240 C 
ATOM      6  H   UNL A   1      34.904  29.460  25.526  1.00  0.00     0.163 HD
BRANCH   5   7
ATOM      7  C   UNL A   1      32.511  29.167  24.548  1.00  0.00     0.226 C 
BRANCH   7   8
ATOM      8  N   UNL A   1      31.320  28.439  24.094  1.00  0.00    -0.293 N 
ATOM      9  C   UNL A   1      31.462  27.050  24.120  1.00  0.00     0.294 C 
ATOM     10  C   UNL A   1      30.069  29.030  23.758  1.00  0.00     0.088 A 
ATOM     11  O   UNL A   1      32.492  26.519  24.538  1.00  0.00    -0.265 OA
ATOM     12  C   UNL A   1      30.303  26.234  23.618  1.00  0.00     0.193 C 
ATOM     13  C   UNL A   1      29.032  28.207  23.307  1.00  0.00     0.151 A 
ATOM     14  C   UNL A   1      29.797  30.401  23.842  1.00  0.00     0.030 A 
ATOM     15  C   UNL A   1      30.389  24.902  23.431  1.00  0.00     0.065 C 
ATOM     16  O   UNL A   1      29.106  26.841  23.279  1.00  0.00    -0.449 OA
ATOM     17  C   UNL A   1      27.817  28.736  22.850  1.00  0.00     0.049 A 
ATOM     18  C   UNL A   1      28.592  30.940  23.369  1.00  0.00     0.002 A 
ATOM     19  C   UNL A   1      27.608  30.109  22.854  1.00  0.00     0.004 A 
BRANCH  15  20
ATOM     20  C   UNL A   1      31.607  24.091  23.567  1.00  0.00     0.033 A 
ATOM     21  C   UNL A   1      32.548  24.061  22.533  1.00  0.00     0.132 A 
ATOM     22  C   UNL A   1      31.822  23.270  24.686  1.00  0.00     0.051 A 
ATOM     23  F   UNL A   1      32.384  24.833  21.446  1.00  0.00    -0.206 F 
ATOM     24  C   UNL A   1      33.662  23.225  22.590  1.00  0.00     0.040 A 
ATOM     25  C   UNL A   1      32.941  22.433  24.752  1.00  0.00     0.021 A 
ATOM     26  Cl  UNL A   1      30.717  23.243  26.020  1.00  0.00    -0.084 Cl
ATOM     27  C   UNL A   1      33.856  22.404  23.700  1.00  0.00     0.005 A 
ENDBRANCH  15  20
ENDBRANCH   7   8
ENDBRANCH   5   7
ENDBRANCH   2   3
ENDBRANCH   1   2
BRANCH   1  28
ATOM     28  C   UNL A   1      33.518  32.090  28.210  1.00  0.00     0.023 C 
BRANCH  28  29
ATOM     29  C   UNL A   1      33.033  33.100  27.175  1.00  0.00     0.116 C 
BRANCH  29  30
ATOM     30  N   UNL A   1      32.578  34.353  27.759  1.00  0.00    -0.352 N 
ATOM     31  C   UNL A   1      33.067  35.064  28.834  1.00  0.00     0.251 C 
ATOM     32  H   UNL A   1      31.797  34.757  27.316  1.00  0.00     0.163 HD
ATOM     33  O   UNL A   1      32.468  36.049  29.241  1.00  0.00    -0.269 OA
BRANCH  31  34
ATOM     34  C   UNL A   1      34.294  34.614  29.533  1.00  0.00     0.039 A 
ATOM     35  C   UNL A   1      35.557  34.783  28.965  1.00  0.00     0.014 A 
ATOM     36  C   UNL A   1      34.171  33.998  30.784  1.00  0.00     0.014 A 
ATOM     37  C   UNL A   1      36.666  34.172  29.548  1.00  0.00     0.010 A 
ATOM     38  C   UNL A   1      35.299  33.454  31.409  1.00  0.00     0.010 A 
ATOM     39  C   UNL A   1      36.545  33.482  30.765  1.00  0.00    -0.014 A 
BRANCH  39  40
ATOM     40  C   UNL A   1      37.724  32.762  31.321  1.00  0.00     0.031 A 
ATOM     41  C   UNL A   1      38.231  33.081  32.704  1.00  0.00     0.074 A 
ATOM     42  C   UNL A   1      38.294  31.768  30.612  1.00  0.00     0.049 A 
ATOM     43  N   UNL A   1      39.222  32.535  33.367  1.00  0.00    -0.248 NA
ATOM     44  C   UNL A   1      37.539  34.149  33.442  1.00  0.00     0.031 C 
ATOM     45  C   UNL A   1      37.887  31.351  29.270  1.00  0.00     0.029 A 
ATOM     46  N   UNL A   1      39.317  30.911  30.932  1.00  0.00    -0.354 N 
ATOM     47  C   UNL A   1      39.277  33.198  34.586  1.00  0.00     0.074 A 
ATOM     48  C   UNL A   1      38.242  34.208  34.565  1.00  0.00     0.031 C 
ATOM     49  C   UNL A   1      38.614  30.285  28.903  1.00  0.00     0.029 A 
ATOM     50  C   UNL A   1      39.573  29.974  29.960  1.00  0.00     0.049 A 
ATOM     51  H   UNL A   1      39.820  30.963  31.778  1.00  0.00     0.167 HD
ATOM     52  C   UNL A   1      40.103  32.974  35.634  1.00  0.00     0.037 A 
ATOM     53  C   UNL A   1      40.481  28.982  29.922  1.00  0.00     0.037 A 
ATOM     54  C   UNL A   1      41.116  31.953  35.674  1.00  0.00     0.049 A 
ATOM     55  C   UNL A   1      41.413  28.785  31.084  1.00  0.00     0.074 A 
ATOM     56  C   UNL A   1      41.994  31.648  36.701  1.00  0.00     0.029 A 
ATOM     57  N   UNL A   1      41.382  31.063  34.645  1.00  0.00    -0.354 N 
ATOM     58  N   UNL A   1      41.455  29.423  32.227  1.00  0.00    -0.248 NA
ATOM     59  C   UNL A   1      42.432  27.734  30.946  1.00  0.00     0.031 C 
ATOM     60  C   UNL A   1      42.810  30.593  36.282  1.00  0.00     0.029 A 
ATOM     61  C   UNL A   1      42.417  30.219  35.008  1.00  0.00     0.049 A 
ATOM     62  H   UNL A   1      40.905  31.036  33.783  1.00  0.00     0.167 HD
ATOM     63  C   UNL A   1      42.492  28.847  32.946  1.00  0.00     0.074 A 
ATOM     64  C   UNL A   1      43.043  27.793  32.121  1.00  0.00     0.031 C 
ATOM     65  C   UNL A   1      42.951  29.170  34.180  1.00  0.00     0.037 A 
BRANCH  52  66
ATOM     66  C   UNL A   1      39.952  33.843  36.847  1.00  0.00     0.064 A 
ATOM     67  C   UNL A   1      40.619  35.071  36.951  1.00  0.00     0.173 A 
ATOM     68  C   UNL A   1      39.059  33.489  37.870  1.00  0.00     0.173 A 
ATOM     69  F   UNL A   1      41.490  35.449  36.003  1.00  0.00    -0.203 F 
ATOM     70  C   UNL A   1      40.401  35.913  38.039  1.00  0.00     0.198 A 
ATOM     71  C   UNL A   1      38.829  34.342  38.946  1.00  0.00     0.198 A 
ATOM     72  F   UNL A   1      38.392  32.327  37.812  1.00  0.00    -0.203 F 
ATOM     73  F   UNL A   1      41.063  37.076  38.127  1.00  0.00    -0.200 F 
ATOM     74  C   UNL A   1      39.499  35.553  39.030  1.00  0.00     0.200 A 
ATOM     75  F   UNL A   1      37.948  33.999  39.896  1.00  0.00    -0.200 F 
ATOM     76  F   UNL A   1      39.276  36.374  40.065  1.00  0.00    -0.200 F 
ENDBRANCH  52  66
BRANCH  53  77
ATOM     77  C   UNL A   1      40.547  28.088  28.738  1.00  0.00     0.064 A 
ATOM     78  C   UNL A   1      39.832  26.883  28.707  1.00  0.00     0.173 A 
ATOM     79  C   UNL A   1      41.322  28.418  27.616  1.00  0.00     0.173 A 
ATOM     80  F   UNL A   1      39.096  26.514  29.766  1.00  0.00    -0.203 F 
ATOM     81  C   UNL A   1      39.896  26.037  27.603  1.00  0.00     0.198 A 
ATOM     82  C   UNL A   1      41.365  27.584  26.503  1.00  0.00     0.198 A 
ATOM     83  F   UNL A   1      42.024  29.560  27.599  1.00  0.00    -0.203 F 
ATOM     84  F   UNL A   1      39.231  24.874  27.612  1.00  0.00    -0.200 F 
ATOM     85  C   UNL A   1      40.657  26.391  26.499  1.00  0.00     0.200 A 
ATOM     86  F   UNL A   1      42.092  27.935  25.433  1.00  0.00    -0.200 F 
ATOM     87  F   UNL A   1      40.714  25.581  25.433  1.00  0.00    -0.200 F 
ENDBRANCH  53  77
BRANCH  65  88
ATOM     88  C   UNL A   1      44.096  28.372  34.722  1.00  0.00     0.064 A 
ATOM     89  C   UNL A   1      43.881  27.173  35.418  1.00  0.00     0.173 A 
ATOM     90  C   UNL A   1      45.420  28.773  34.491  1.00  0.00     0.173 A 
ATOM     91  F   UNL A   1      42.633  26.756  35.674  1.00  0.00    -0.203 F 
ATOM     92  C   UNL A   1      44.954  26.410  35.873  1.00  0.00     0.198 A 
ATOM     93  C   UNL A   1      46.489  27.996  34.928  1.00  0.00     0.198 A 
ATOM     94  F   UNL A   1      45.674  29.909  33.825  1.00  0.00    -0.203 F 
ATOM     95  F   UNL A   1      44.726  25.283  36.560  1.00  0.00    -0.200 F 
ATOM     96  C   UNL A   1      46.255  26.818  35.622  1.00  0.00     0.200 A 
ATOM     97  F   UNL A   1      47.746  28.386  34.675  1.00  0.00    -0.200 F 
ATOM     98  F   UNL A   1      47.285  26.076  36.050  1.00  0.00    -0.200 F 
ENDBRANCH  65  88
ENDBRANCH  39  40
ENDBRANCH  31  34
ENDBRANCH  29  30
ENDBRANCH  28  29
ENDBRANCH   1  28
TORSDOF 13
ENDMDL
MODEL 3
REMARK VINA RESULT:     -13.6      1.205      2.311
REMARK SMILES O=C(CN1C(=O)/C(=C\c2c(F)cccc2Cl)Oc2ccccc21)NCCCCNC(=O)c1ccc(-c2c3nc(c(-c4c(F)c(F)c(F)c(F)c4F)c4ccc([nH]4)c(-c4c(F)c(F)c(F)c(F)c4F)c4nc(c(-c5c(F)c(F)c(F)c(F)c5F)c5ccc2[nH]5)C=C4)C=C3)cc1
REMARK SMILES IDX 26 1 25 2 24 3 1 4 2 5 3 7 4 8 5 9 23 10 6 11 7 12 18 13
REMARK SMILES IDX 22 14 8 15 17 16 19 17 21 18 20 19 9 20 10 21 15 22 11 23
REMARK SMILES IDX 12 24 14 25 16 26 13 27 27 28 28 29 29 30 30 31 31 33 32 34
REMARK SMILES IDX 33 35 94 36 34 37 93 38 35 39 36 40 37 41 87 42 38 43 92 44
REMARK SMILES IDX 86 45 88 46 39 47 91 48 85 49 84 50 40 52 72 53 52 54 71 55
REMARK SMILES IDX 53 56 56 57 70 58 89 59 54 60 55 61 69 63 90 64 57 65 41 66
REMARK SMILES IDX 42 67 50 68 43 69 44 70 48 71 51 72 45 73 46 74 49 75 47 76
REMARK SMILES IDX 73 77 74 78 82 79 75 80 76 81 80 82 83 83 77 84 78 85 81 86
REMARK SMILES IDX 79 87 58 88 59 89 67 90 60 91 61 92 65 93 68 94 62 95 63 96
REMARK SMILES IDX 66 97 64 98
REMARK H PARENT 24 6 29 32 88 51 56 62
REMARK Flexibility Score: inf
ROOT
ATOM      1  C   UNL A   1      31.745  30.613  26.448  1.00  0.00     0.023 C 
ENDROOT
BRANCH   1   2
ATOM      2  C   UNL A   1      32.920  29.981  27.187  1.00  0.00     0.116 C 
BRANCH   2   3
ATOM      3  N   UNL A   1      33.165  28.591  26.855  1.00  0.00    -0.355 N 
ATOM      4  O   UNL A   1      31.316  27.864  27.999  1.00  0.00    -0.273 OA
ATOM      5  C   UNL A   1      32.251  27.627  27.236  1.00  0.00     0.240 C 
ATOM      6  H   UNL A   1      33.978  28.336  26.362  1.00  0.00     0.163 HD
BRANCH   5   7
ATOM      7  C   UNL A   1      32.493  26.225  26.685  1.00  0.00     0.226 C 
BRANCH   7   8
ATOM      8  N   UNL A   1      32.362  25.868  25.267  1.00  0.00    -0.293 N 
ATOM      9  C   UNL A   1      32.959  24.651  24.932  1.00  0.00     0.294 C 
ATOM     10  C   UNL A   1      31.609  26.593  24.300  1.00  0.00     0.088 A 
ATOM     11  O   UNL A   1      33.498  23.946  25.786  1.00  0.00    -0.265 OA
ATOM     12  C   UNL A   1      32.915  24.242  23.485  1.00  0.00     0.193 C 
ATOM     13  C   UNL A   1      31.606  26.147  22.973  1.00  0.00     0.151 A 
ATOM     14  C   UNL A   1      30.863  27.743  24.582  1.00  0.00     0.030 A 
ATOM     15  C   UNL A   1      33.605  23.184  23.017  1.00  0.00     0.065 C 
ATOM     16  O   UNL A   1      32.191  24.980  22.565  1.00  0.00    -0.449 OA
ATOM     17  C   UNL A   1      30.983  26.877  21.953  1.00  0.00     0.049 A 
ATOM     18  C   UNL A   1      30.253  28.489  23.564  1.00  0.00     0.002 A 
ATOM     19  C   UNL A   1      30.330  28.068  22.245  1.00  0.00     0.004 A 
BRANCH  15  20
ATOM     20  C   UNL A   1      34.561  22.372  23.782  1.00  0.00     0.033 A 
ATOM     21  C   UNL A   1      35.917  22.712  23.795  1.00  0.00     0.132 A 
ATOM     22  C   UNL A   1      34.163  21.200  24.447  1.00  0.00     0.051 A 
ATOM     23  F   UNL A   1      36.341  23.826  23.176  1.00  0.00    -0.206 F 
ATOM     24  C   UNL A   1      36.861  21.906  24.429  1.00  0.00     0.040 A 
ATOM     25  C   UNL A   1      35.104  20.390  25.090  1.00  0.00     0.021 A 
ATOM     26  Cl  UNL A   1      32.505  20.699  24.492  1.00  0.00    -0.084 Cl
ATOM     27  C   UNL A   1      36.455  20.738  25.073  1.00  0.00     0.005 A 
ENDBRANCH  15  20
ENDBRANCH   7   8
ENDBRANCH   5   7
ENDBRANCH   2   3
ENDBRANCH   1   2
BRANCH   1  28
ATOM     28  C   UNL A   1      31.510  32.098  26.718  1.00  0.00     0.023 C 
BRANCH  28  29
ATOM     29  C   UNL A   1      32.698  32.869  27.285  1.00  0.00     0.116 C 
BRANCH  29  30
ATOM     30  N   UNL A   1      32.370  34.232  27.675  1.00  0.00    -0.352 N 
ATOM     31  C   UNL A   1      32.956  35.056  28.611  1.00  0.00     0.251 C 
ATOM     32  H   UNL A   1      31.608  34.629  27.193  1.00  0.00     0.163 HD
ATOM     33  O   UNL A   1      32.456  36.141  28.871  1.00  0.00    -0.269 OA
BRANCH  31  34
ATOM     34  C   UNL A   1      34.168  34.616  29.341  1.00  0.00     0.039 A 
ATOM     35  C   UNL A   1      35.441  34.745  28.782  1.00  0.00     0.014 A 
ATOM     36  C   UNL A   1      34.022  34.049  30.613  1.00  0.00     0.014 A 
ATOM     37  C   UNL A   1      36.533  34.142  29.401  1.00  0.00     0.010 A 
ATOM     38  C   UNL A   1      35.134  33.513  31.271  1.00  0.00     0.010 A 
ATOM     39  C   UNL A   1      36.388  33.500  30.642  1.00  0.00    -0.014 A 
BRANCH  39  40
ATOM     40  C   UNL A   1      37.550  32.785  31.239  1.00  0.00     0.031 A 
ATOM     41  C   UNL A   1      38.022  33.122  32.629  1.00  0.00     0.074 A 
ATOM     42  C   UNL A   1      38.135  31.779  30.560  1.00  0.00     0.049 A 
ATOM     43  N   UNL A   1      38.993  32.584  33.326  1.00  0.00    -0.248 NA
ATOM     44  C   UNL A   1      37.314  34.204  33.334  1.00  0.00     0.031 C 
ATOM     45  C   UNL A   1      37.761  31.342  29.214  1.00  0.00     0.029 A 
ATOM     46  N   UNL A   1      39.146  30.923  30.919  1.00  0.00    -0.354 N 
ATOM     47  C   UNL A   1      39.019  33.265  34.537  1.00  0.00     0.074 A 
ATOM     48  C   UNL A   1      37.988  34.277  34.474  1.00  0.00     0.031 C 
ATOM     49  C   UNL A   1      38.495  30.270  28.882  1.00  0.00     0.029 A 
ATOM     50  C   UNL A   1      39.425  29.972  29.968  1.00  0.00     0.049 A 
ATOM     51  H   UNL A   1      39.627  30.986  31.776  1.00  0.00     0.167 HD
ATOM     52  C   UNL A   1      39.817  33.054  35.609  1.00  0.00     0.037 A 
ATOM     53  C   UNL A   1      40.330  28.976  29.968  1.00  0.00     0.037 A 
ATOM     54  C   UNL A   1      40.825  32.030  35.690  1.00  0.00     0.049 A 
ATOM     55  C   UNL A   1      41.231  28.794  31.157  1.00  0.00     0.074 A 
ATOM     56  C   UNL A   1      41.675  31.738  36.744  1.00  0.00     0.029 A 
ATOM     57  N   UNL A   1      41.114  31.125  34.681  1.00  0.00    -0.354 N 
ATOM     58  N   UNL A   1      41.245  29.448  32.290  1.00  0.00    -0.248 NA
ATOM     59  C   UNL A   1      42.250  27.738  31.061  1.00  0.00     0.031 C 
ATOM     60  C   UNL A   1      42.498  30.675  36.362  1.00  0.00     0.029 A 
ATOM     61  C   UNL A   1      42.137  30.283  35.084  1.00  0.00     0.049 A 
ATOM     62  H   UNL A   1      40.660  31.086  33.808  1.00  0.00     0.167 HD
ATOM     63  C   UNL A   1      42.261  28.880  33.045  1.00  0.00     0.074 A 
ATOM     64  C   UNL A   1      42.830  27.813  32.250  1.00  0.00     0.031 C 
ATOM     65  C   UNL A   1      42.690  29.221  34.285  1.00  0.00     0.037 A 
BRANCH  52  66
ATOM     66  C   UNL A   1      39.637  33.941  36.805  1.00  0.00     0.064 A 
ATOM     67  C   UNL A   1      38.846  33.546  37.892  1.00  0.00     0.173 A 
ATOM     68  C   UNL A   1      40.336  35.154  36.903  1.00  0.00     0.173 A 
ATOM     69  F   UNL A   1      38.151  32.400  37.841  1.00  0.00    -0.203 F 
ATOM     70  C   UNL A   1      38.759  34.335  39.036  1.00  0.00     0.198 A 
ATOM     71  C   UNL A   1      40.262  35.930  38.057  1.00  0.00     0.198 A 
ATOM     72  F   UNL A   1      41.111  35.571  35.892  1.00  0.00    -0.203 F 
ATOM     73  F   UNL A   1      37.982  33.947  40.058  1.00  0.00    -0.200 F 
ATOM     74  C   UNL A   1      39.474  35.521  39.122  1.00  0.00     0.200 A 
ATOM     75  F   UNL A   1      40.963  37.069  38.143  1.00  0.00    -0.200 F 
ATOM     76  F   UNL A   1      39.403  36.269  40.231  1.00  0.00    -0.200 F 
ENDBRANCH  52  66
BRANCH  53  77
ATOM     77  C   UNL A   1      40.424  28.064  28.799  1.00  0.00     0.064 A 
ATOM     78  C   UNL A   1      39.730  26.846  28.782  1.00  0.00     0.173 A 
ATOM     79  C   UNL A   1      41.204  28.390  27.680  1.00  0.00     0.173 A 
ATOM     80  F   UNL A   1      38.990  26.482  29.839  1.00  0.00    -0.203 F 
ATOM     81  C   UNL A   1      39.821  25.984  27.692  1.00  0.00     0.198 A 
ATOM     82  C   UNL A   1      41.273  27.539  26.581  1.00  0.00     0.198 A 
ATOM     83  F   UNL A   1      41.886  29.544  27.651  1.00  0.00    -0.203 F 
ATOM     84  F   UNL A   1      39.177  24.810  27.713  1.00  0.00    -0.200 F 
ATOM     85  C   UNL A   1      40.587  26.334  26.589  1.00  0.00     0.200 A 
ATOM     86  F   UNL A   1      42.004  27.886  25.512  1.00  0.00    -0.200 F 
ATOM     87  F   UNL A   1      40.668  25.508  25.538  1.00  0.00    -0.200 F 
ENDBRANCH  53  77
BRANCH  65  88
ATOM     88  C   UNL A   1      43.818  28.427  34.869  1.00  0.00     0.064 A 
ATOM     89  C   UNL A   1      45.148  28.846  34.732  1.00  0.00     0.173 A 
ATOM     90  C   UNL A   1      43.562  27.274  35.626  1.00  0.00     0.173 A 
ATOM     91  F   UNL A   1      45.442  29.934  34.006  1.00  0.00    -0.203 F 
ATOM     92  C   UNL A   1      46.186  28.129  35.322  1.00  0.00     0.198 A 
ATOM     93  C   UNL A   1      44.600  26.574  36.233  1.00  0.00     0.198 A 
ATOM     94  F   UNL A   1      42.304  26.839  35.790  1.00  0.00    -0.203 F 
ATOM     95  F   UNL A   1      47.454  28.531  35.155  1.00  0.00    -0.200 F 
ATOM     96  C   UNL A   1      45.911  27.000  36.078  1.00  0.00     0.200 A 
ATOM     97  F   UNL A   1      44.332  25.488  36.973  1.00  0.00    -0.200 F 
ATOM     98  F   UNL A   1      46.910  26.320  36.656  1.00  0.00    -0.200 F 
ENDBRANCH  65  88
ENDBRANCH  39  40
ENDBRANCH  31  34
ENDBRANCH  29  30
ENDBRANCH  28  29
ENDBRANCH   1  28
TORSDOF 13
ENDMDL
