MODEL 1
REMARK VINA RESULT:     -13.0      0.000      0.000
REMARK SMILES O=C(NCCCCNC(=O)[C@@H]1[C@H](C(=O)Nc2cccc(Cl)c2F)[C@@H]2C=C[C@H]1C2)c1ccc(-c2c3nc(c(-c4c(F)c(F)c(F)c(F)c4F)c4ccc([nH]4)c(-c4c(F)c(F)c(F)c(F)c4F)c4nc(c(-c5c(F)c(F)c(F)c(F)c5F)c5ccc2[nH]5)C=C4)C=C3)cc1
REMARK SMILES IDX 5 1 4 2 3 3 1 4 2 5 29 7 30 8 91 9 31 10 90 11 32 12 33 13
REMARK SMILES IDX 34 14 84 15 35 16 89 17 83 18 85 19 36 20 88 21 82 22 81 23
REMARK SMILES IDX 37 25 69 26 49 27 68 28 50 29 53 30 67 31 86 32 51 33 52 34
REMARK SMILES IDX 66 36 87 37 54 38 38 39 39 40 47 41 40 42 41 43 45 44 48 45
REMARK SMILES IDX 42 46 43 47 46 48 44 49 70 50 71 51 79 52 72 53 73 54 77 55
REMARK SMILES IDX 80 56 74 57 75 58 78 59 76 60 55 61 56 62 64 63 57 64 58 65
REMARK SMILES IDX 62 66 65 67 59 68 60 69 63 70 61 71 6 72 7 73 8 74 9 75
REMARK SMILES IDX 10 77 11 78 12 79 27 80 24 81 26 82 28 83 25 84 13 85 14 86
REMARK SMILES IDX 15 87 16 89 17 90 22 91 18 92 20 93 23 94 19 95 21 96
REMARK H PARENT 3 6 85 24 53 35 8 76 15 88
REMARK Flexibility Score: inf
ROOT
ATOM      1  C   UNL A   1      31.746  28.946  27.235  1.00  0.00     0.023 C 
ENDROOT
BRANCH   1   2
ATOM      2  C   UNL A   1      32.742  29.737  26.394  1.00  0.00     0.116 C 
BRANCH   2   3
ATOM      3  N   UNL A   1      32.602  31.172  26.582  1.00  0.00    -0.352 N 
ATOM      4  O   UNL A   1      32.967  33.181  27.537  1.00  0.00    -0.269 OA
ATOM      5  C   UNL A   1      33.351  32.034  27.350  1.00  0.00     0.251 C 
ATOM      6  H   UNL A   1      31.860  31.589  26.087  1.00  0.00     0.163 HD
BRANCH   5   7
ATOM      7  C   UNL A   1      34.612  31.568  27.969  1.00  0.00     0.039 A 
ATOM      8  C   UNL A   1      34.757  30.245  28.388  1.00  0.00     0.014 A 
ATOM      9  C   UNL A   1      35.670  32.470  28.116  1.00  0.00     0.014 A 
ATOM     10  C   UNL A   1      35.897  29.864  29.090  1.00  0.00     0.010 A 
ATOM     11  C   UNL A   1      36.850  32.062  28.748  1.00  0.00     0.010 A 
ATOM     12  C   UNL A   1      36.957  30.766  29.276  1.00  0.00    -0.014 A 
BRANCH  12  13
ATOM     13  C   UNL A   1      38.172  30.317  30.005  1.00  0.00     0.031 A 
ATOM     14  C   UNL A   1      38.424  30.733  31.428  1.00  0.00     0.074 A 
ATOM     15  C   UNL A   1      39.032  29.486  29.385  1.00  0.00     0.049 A 
ATOM     16  N   UNL A   1      39.401  30.385  32.230  1.00  0.00    -0.248 NA
ATOM     17  C   UNL A   1      37.464  31.670  32.030  1.00  0.00     0.031 C 
ATOM     18  C   UNL A   1      38.905  29.026  28.001  1.00  0.00     0.029 A 
ATOM     19  N   UNL A   1      40.164  28.860  29.841  1.00  0.00    -0.354 N 
ATOM     20  C   UNL A   1      39.185  31.074  33.417  1.00  0.00     0.074 A 
ATOM     21  C   UNL A   1      37.999  31.881  33.224  1.00  0.00     0.031 C 
ATOM     22  C   UNL A   1      39.884  28.149  27.738  1.00  0.00     0.029 A 
ATOM     23  C   UNL A   1      40.737  28.022  28.915  1.00  0.00     0.049 A 
ATOM     24  H   UNL A   1      40.530  28.998  30.745  1.00  0.00     0.167 HD
ATOM     25  C   UNL A   1      39.906  31.029  34.563  1.00  0.00     0.037 A 
ATOM     26  C   UNL A   1      41.828  27.239  29.004  1.00  0.00     0.037 A 
ATOM     27  C   UNL A   1      41.068  30.200  34.762  1.00  0.00     0.049 A 
ATOM     28  C   UNL A   1      42.602  27.204  30.290  1.00  0.00     0.074 A 
ATOM     29  C   UNL A   1      41.837  30.051  35.905  1.00  0.00     0.029 A 
ATOM     30  N   UNL A   1      41.630  29.381  33.795  1.00  0.00    -0.354 N 
ATOM     31  N   UNL A   1      42.362  27.828  31.418  1.00  0.00    -0.248 NA
ATOM     32  C   UNL A   1      43.800  26.354  30.315  1.00  0.00     0.031 C 
ATOM     33  C   UNL A   1      42.887  29.173  35.615  1.00  0.00     0.029 A 
ATOM     34  C   UNL A   1      42.746  28.739  34.307  1.00  0.00     0.049 A 
ATOM     35  H   UNL A   1      41.287  29.272  32.878  1.00  0.00     0.167 HD
ATOM     36  C   UNL A   1      43.363  27.430  32.293  1.00  0.00     0.074 A 
ATOM     37  C   UNL A   1      44.202  26.497  31.570  1.00  0.00     0.031 C 
ATOM     38  C   UNL A   1      43.569  27.807  33.578  1.00  0.00     0.037 A 
BRANCH  25  39
ATOM     39  C   UNL A   1      39.472  31.915  35.696  1.00  0.00     0.064 A 
ATOM     40  C   UNL A   1      39.976  33.214  35.854  1.00  0.00     0.173 A 
ATOM     41  C   UNL A   1      38.501  31.472  36.608  1.00  0.00     0.173 A 
ATOM     42  F   UNL A   1      40.912  33.681  35.015  1.00  0.00    -0.203 F 
ATOM     43  C   UNL A   1      39.541  34.028  36.898  1.00  0.00     0.198 A 
ATOM     44  C   UNL A   1      38.050  32.299  37.634  1.00  0.00     0.198 A 
ATOM     45  F   UNL A   1      37.982  30.240  36.498  1.00  0.00    -0.203 F 
ATOM     46  F   UNL A   1      40.066  35.252  37.053  1.00  0.00    -0.200 F 
ATOM     47  C   UNL A   1      38.575  33.573  37.782  1.00  0.00     0.200 A 
ATOM     48  F   UNL A   1      37.107  31.862  38.480  1.00  0.00    -0.200 F 
ATOM     49  F   UNL A   1      38.153  34.362  38.779  1.00  0.00    -0.200 F 
ENDBRANCH  25  39
BRANCH  26  50
ATOM     50  C   UNL A   1      42.234  26.408  27.843  1.00  0.00     0.064 A 
ATOM     51  C   UNL A   1      43.221  26.852  26.951  1.00  0.00     0.173 A 
ATOM     52  C   UNL A   1      41.657  25.153  27.609  1.00  0.00     0.173 A 
ATOM     53  F   UNL A   1      43.788  28.054  27.125  1.00  0.00    -0.203 F 
ATOM     54  C   UNL A   1      43.604  26.075  25.860  1.00  0.00     0.198 A 
ATOM     55  C   UNL A   1      42.061  24.365  26.532  1.00  0.00     0.198 A 
ATOM     56  F   UNL A   1      40.713  24.681  28.436  1.00  0.00    -0.203 F 
ATOM     57  F   UNL A   1      44.520  26.539  25.000  1.00  0.00    -0.200 F 
ATOM     58  C   UNL A   1      43.028  24.830  25.655  1.00  0.00     0.200 A 
ATOM     59  F   UNL A   1      41.514  23.156  26.348  1.00  0.00    -0.200 F 
ATOM     60  F   UNL A   1      43.403  24.081  24.609  1.00  0.00    -0.200 F 
ENDBRANCH  26  50
BRANCH  38  61
ATOM     61  C   UNL A   1      44.729  27.182  34.294  1.00  0.00     0.064 A 
ATOM     62  C   UNL A   1      45.994  27.788  34.315  1.00  0.00     0.173 A 
ATOM     63  C   UNL A   1      44.569  25.968  34.979  1.00  0.00     0.173 A 
ATOM     64  F   UNL A   1      46.201  28.941  33.661  1.00  0.00    -0.203 F 
ATOM     65  C   UNL A   1      47.064  27.187  34.974  1.00  0.00     0.198 A 
ATOM     66  C   UNL A   1      45.634  25.384  35.659  1.00  0.00     0.198 A 
ATOM     67  F   UNL A   1      43.378  25.351  34.992  1.00  0.00    -0.203 F 
ATOM     68  F   UNL A   1      48.276  27.758  34.937  1.00  0.00    -0.200 F 
ATOM     69  C   UNL A   1      46.881  25.989  35.648  1.00  0.00     0.200 A 
ATOM     70  F   UNL A   1      45.454  24.232  36.319  1.00  0.00    -0.200 F 
ATOM     71  F   UNL A   1      47.913  25.412  36.280  1.00  0.00    -0.200 F 
ENDBRANCH  38  61
ENDBRANCH  12  13
ENDBRANCH   5   7
ENDBRANCH   2   3
ENDBRANCH   1   2
BRANCH   1  72
ATOM     72  C   UNL A   1      31.408  27.552  26.698  1.00  0.00     0.023 C 
BRANCH  72  73
ATOM     73  C   UNL A   1      32.610  26.703  26.278  1.00  0.00     0.116 C 
BRANCH  73  74
ATOM     74  N   UNL A   1      32.238  25.315  26.142  1.00  0.00    -0.356 N 
ATOM     75  C   UNL A   1      32.946  24.249  25.699  1.00  0.00     0.224 C 
ATOM     76  H   UNL A   1      31.315  25.108  26.417  1.00  0.00     0.163 HD
ATOM     77  O   UNL A   1      32.291  23.316  25.229  1.00  0.00    -0.275 OA
BRANCH  75  78
ATOM     78  C   UNL A   1      34.453  24.264  25.657  1.00  0.00     0.098 C 
ATOM     79  C   UNL A   1      35.074  24.266  24.229  1.00  0.00     0.099 C 
ATOM     80  C   UNL A   1      35.353  23.232  26.390  1.00  0.00     0.025 C 
ATOM     81  C   UNL A   1      36.362  23.411  24.392  1.00  0.00     0.025 C 
ATOM     82  C   UNL A   1      35.370  21.864  25.755  1.00  0.00    -0.027 C 
ATOM     83  C   UNL A   1      36.725  23.701  25.858  1.00  0.00     0.017 C 
ATOM     84  C   UNL A   1      36.014  21.965  24.582  1.00  0.00    -0.027 C 
BRANCH  79  85
ATOM     85  C   UNL A   1      34.264  24.056  22.940  1.00  0.00     0.228 C 
ATOM     86  O   UNL A   1      34.400  22.953  22.376  1.00  0.00    -0.274 OA
ATOM     87  N   UNL A   1      33.278  24.819  22.403  1.00  0.00    -0.323 N 
ATOM     88  H   UNL A   1      32.813  24.336  21.682  1.00  0.00     0.170 HD
BRANCH  87  89
ATOM     89  C   UNL A   1      32.730  26.102  22.581  1.00  0.00     0.078 A 
ATOM     90  C   UNL A   1      33.653  27.159  22.608  1.00  0.00     0.029 A 
ATOM     91  C   UNL A   1      31.392  26.413  22.830  1.00  0.00     0.165 A 
ATOM     92  C   UNL A   1      33.233  28.487  22.754  1.00  0.00     0.004 A 
ATOM     93  C   UNL A   1      30.966  27.737  22.977  1.00  0.00     0.078 A 
ATOM     94  F   UNL A   1      30.489  25.458  23.036  1.00  0.00    -0.203 F 
ATOM     95  C   UNL A   1      31.883  28.780  22.918  1.00  0.00     0.024 A 
ATOM     96  Cl  UNL A   1      29.298  28.092  23.241  1.00  0.00    -0.081 Cl
ENDBRANCH  87  89
ENDBRANCH  79  85
ENDBRANCH  75  78
ENDBRANCH  73  74
ENDBRANCH  72  73
ENDBRANCH   1  72
TORSDOF 13
ENDMDL
MODEL 2
REMARK VINA RESULT:     -13.0      0.261      1.144
REMARK SMILES O=C(NCCCCNC(=O)[C@@H]1[C@H](C(=O)Nc2cccc(Cl)c2F)[C@@H]2C=C[C@H]1C2)c1ccc(-c2c3nc(c(-c4c(F)c(F)c(F)c(F)c4F)c4ccc([nH]4)c(-c4c(F)c(F)c(F)c(F)c4F)c4nc(c(-c5c(F)c(F)c(F)c(F)c5F)c5ccc2[nH]5)C=C4)C=C3)cc1
REMARK SMILES IDX 5 1 4 2 3 3 1 4 2 5 29 7 30 8 91 9 31 10 90 11 32 12 33 13
REMARK SMILES IDX 34 14 84 15 35 16 89 17 83 18 85 19 36 20 88 21 82 22 81 23
REMARK SMILES IDX 37 25 69 26 49 27 68 28 50 29 53 30 67 31 86 32 51 33 52 34
REMARK SMILES IDX 66 36 87 37 54 38 38 39 39 40 47 41 40 42 41 43 45 44 48 45
REMARK SMILES IDX 42 46 43 47 46 48 44 49 70 50 71 51 79 52 72 53 73 54 77 55
REMARK SMILES IDX 80 56 74 57 75 58 78 59 76 60 55 61 56 62 64 63 57 64 58 65
REMARK SMILES IDX 62 66 65 67 59 68 60 69 63 70 61 71 6 72 7 73 8 74 9 75
REMARK SMILES IDX 10 77 11 78 12 79 27 80 24 81 26 82 28 83 25 84 13 85 14 86
REMARK SMILES IDX 15 87 16 89 17 90 22 91 18 92 20 93 23 94 19 95 21 96
REMARK H PARENT 3 6 85 24 53 35 8 76 15 88
REMARK Flexibility Score: inf
ROOT
ATOM      1  C   UNL A   1      31.743  28.683  27.103  1.00  0.00     0.023 C 
ENDROOT
BRANCH   1   2
ATOM      2  C   UNL A   1      32.771  29.483  26.313  1.00  0.00     0.116 C 
BRANCH   2   3
ATOM      3  N   UNL A   1      32.603  30.917  26.485  1.00  0.00    -0.352 N 
ATOM      4  O   UNL A   1      32.922  32.942  27.423  1.00  0.00    -0.269 OA
ATOM      5  C   UNL A   1      33.329  31.801  27.251  1.00  0.00     0.251 C 
ATOM      6  H   UNL A   1      31.857  31.315  25.980  1.00  0.00     0.163 HD
BRANCH   5   7
ATOM      7  C   UNL A   1      34.594  31.365  27.885  1.00  0.00     0.039 A 
ATOM      8  C   UNL A   1      34.756  30.052  28.329  1.00  0.00     0.014 A 
ATOM      9  C   UNL A   1      35.637  32.285  28.021  1.00  0.00     0.014 A 
ATOM     10  C   UNL A   1      35.897  29.701  29.043  1.00  0.00     0.010 A 
ATOM     11  C   UNL A   1      36.819  31.906  28.667  1.00  0.00     0.010 A 
ATOM     12  C   UNL A   1      36.943  30.622  29.219  1.00  0.00    -0.014 A 
BRANCH  12  13
ATOM     13  C   UNL A   1      38.160  30.204  29.962  1.00  0.00     0.031 A 
ATOM     14  C   UNL A   1      38.383  30.623  31.389  1.00  0.00     0.074 A 
ATOM     15  C   UNL A   1      39.051  29.399  29.350  1.00  0.00     0.049 A 
ATOM     16  N   UNL A   1      39.358  30.299  32.202  1.00  0.00    -0.248 NA
ATOM     17  C   UNL A   1      37.390  31.532  31.981  1.00  0.00     0.031 C 
ATOM     18  C   UNL A   1      38.955  28.940  27.964  1.00  0.00     0.029 A 
ATOM     19  N   UNL A   1      40.194  28.803  29.819  1.00  0.00    -0.354 N 
ATOM     20  C   UNL A   1      39.109  30.979  33.388  1.00  0.00     0.074 A 
ATOM     21  C   UNL A   1      37.904  31.753  33.182  1.00  0.00     0.031 C 
ATOM     22  C   UNL A   1      39.960  28.090  27.711  1.00  0.00     0.029 A 
ATOM     23  C   UNL A   1      40.801  27.984  28.899  1.00  0.00     0.049 A 
ATOM     24  H   UNL A   1      40.545  28.948  30.728  1.00  0.00     0.167 HD
ATOM     25  C   UNL A   1      39.816  30.951  34.543  1.00  0.00     0.037 A 
ATOM     26  C   UNL A   1      41.912  27.231  28.999  1.00  0.00     0.037 A 
ATOM     27  C   UNL A   1      40.998  30.153  34.755  1.00  0.00     0.049 A 
ATOM     28  C   UNL A   1      42.671  27.213  30.295  1.00  0.00     0.074 A 
ATOM     29  C   UNL A   1      41.756  30.021  35.907  1.00  0.00     0.029 A 
ATOM     30  N   UNL A   1      41.594  29.352  33.792  1.00  0.00    -0.354 N 
ATOM     31  N   UNL A   1      42.399  27.827  31.421  1.00  0.00    -0.248 NA
ATOM     32  C   UNL A   1      43.891  26.397  30.333  1.00  0.00     0.031 C 
ATOM     33  C   UNL A   1      42.834  29.174  35.629  1.00  0.00     0.029 A 
ATOM     34  C   UNL A   1      42.722  28.740  34.318  1.00  0.00     0.049 A 
ATOM     35  H   UNL A   1      41.266  29.237  32.872  1.00  0.00     0.167 HD
ATOM     36  C   UNL A   1      43.400  27.454  32.308  1.00  0.00     0.074 A 
ATOM     37  C   UNL A   1      44.274  26.546  31.593  1.00  0.00     0.031 C 
ATOM     38  C   UNL A   1      43.579  27.833  33.596  1.00  0.00     0.037 A 
BRANCH  25  39
ATOM     39  C   UNL A   1      39.343  31.820  35.673  1.00  0.00     0.064 A 
ATOM     40  C   UNL A   1      38.402  31.369  36.609  1.00  0.00     0.173 A 
ATOM     41  C   UNL A   1      39.876  33.107  35.846  1.00  0.00     0.173 A 
ATOM     42  F   UNL A   1      37.856  30.150  36.483  1.00  0.00    -0.203 F 
ATOM     43  C   UNL A   1      37.995  32.182  37.664  1.00  0.00     0.198 A 
ATOM     44  C   UNL A   1      39.486  33.907  36.918  1.00  0.00     0.198 A 
ATOM     45  F   UNL A   1      40.785  33.585  34.982  1.00  0.00    -0.203 F 
ATOM     46  F   UNL A   1      37.065  31.745  38.524  1.00  0.00    -0.200 F 
ATOM     47  C   UNL A   1      38.541  33.447  37.821  1.00  0.00     0.200 A 
ATOM     48  F   UNL A   1      40.025  35.124  37.074  1.00  0.00    -0.200 F 
ATOM     49  F   UNL A   1      38.154  34.224  38.842  1.00  0.00    -0.200 F 
ENDBRANCH  25  39
BRANCH  26  50
ATOM     50  C   UNL A   1      42.356  26.415  27.841  1.00  0.00     0.064 A 
ATOM     51  C   UNL A   1      43.324  26.898  26.950  1.00  0.00     0.173 A 
ATOM     52  C   UNL A   1      41.834  25.135  27.610  1.00  0.00     0.173 A 
ATOM     53  F   UNL A   1      43.839  28.124  27.121  1.00  0.00    -0.203 F 
ATOM     54  C   UNL A   1      43.742  26.135  25.862  1.00  0.00     0.198 A 
ATOM     55  C   UNL A   1      42.273  24.362  26.536  1.00  0.00     0.198 A 
ATOM     56  F   UNL A   1      40.909  24.626  28.437  1.00  0.00    -0.203 F 
ATOM     57  F   UNL A   1      44.640  26.636  25.002  1.00  0.00    -0.200 F 
ATOM     58  C   UNL A   1      43.221  24.866  25.660  1.00  0.00     0.200 A 
ATOM     59  F   UNL A   1      41.779  23.131  26.354  1.00  0.00    -0.200 F 
ATOM     60  F   UNL A   1      43.630  24.130  24.617  1.00  0.00    -0.200 F 
ENDBRANCH  26  50
BRANCH  38  61
ATOM     61  C   UNL A   1      44.746  27.238  34.325  1.00  0.00     0.064 A 
ATOM     62  C   UNL A   1      45.995  27.877  34.361  1.00  0.00     0.173 A 
ATOM     63  C   UNL A   1      44.610  26.021  35.009  1.00  0.00     0.173 A 
ATOM     64  F   UNL A   1      46.179  29.035  33.709  1.00  0.00    -0.203 F 
ATOM     65  C   UNL A   1      47.072  27.304  35.032  1.00  0.00     0.198 A 
ATOM     66  C   UNL A   1      45.682  25.464  35.701  1.00  0.00     0.198 A 
ATOM     67  F   UNL A   1      43.436  25.373  35.008  1.00  0.00    -0.203 F 
ATOM     68  F   UNL A   1      48.270  27.906  35.009  1.00  0.00    -0.200 F 
ATOM     69  C   UNL A   1      46.914  26.101  35.704  1.00  0.00     0.200 A 
ATOM     70  F   UNL A   1      45.525  24.308  36.359  1.00  0.00    -0.200 F 
ATOM     71  F   UNL A   1      47.952  25.550  36.348  1.00  0.00    -0.200 F 
ENDBRANCH  38  61
ENDBRANCH  12  13
ENDBRANCH   5   7
ENDBRANCH   2   3
ENDBRANCH   1   2
BRANCH   1  72
ATOM     72  C   UNL A   1      31.434  27.292  26.542  1.00  0.00     0.023 C 
BRANCH  72  73
ATOM     73  C   UNL A   1      32.656  26.456  26.155  1.00  0.00     0.116 C 
BRANCH  73  74
ATOM     74  N   UNL A   1      32.426  25.055  26.414  1.00  0.00    -0.356 N 
ATOM     75  C   UNL A   1      33.149  23.962  26.072  1.00  0.00     0.224 C 
ATOM     76  H   UNL A   1      31.606  24.861  26.924  1.00  0.00     0.163 HD
ATOM     77  O   UNL A   1      32.525  22.903  25.976  1.00  0.00    -0.275 OA
BRANCH  75  78
ATOM     78  C   UNL A   1      34.605  24.063  25.699  1.00  0.00     0.098 C 
ATOM     79  C   UNL A   1      34.893  24.116  24.170  1.00  0.00     0.099 C 
ATOM     80  C   UNL A   1      35.700  23.077  26.191  1.00  0.00     0.025 C 
ATOM     81  C   UNL A   1      36.229  23.335  24.024  1.00  0.00     0.025 C 
ATOM     82  C   UNL A   1      35.649  21.719  25.535  1.00  0.00    -0.027 C 
ATOM     83  C   UNL A   1      36.892  23.629  25.379  1.00  0.00     0.017 C 
ATOM     84  C   UNL A   1      36.009  21.869  24.252  1.00  0.00    -0.027 C 
BRANCH  79  85
ATOM     85  C   UNL A   1      33.829  23.874  23.087  1.00  0.00     0.228 C 
ATOM     86  O   UNL A   1      33.697  22.698  22.696  1.00  0.00    -0.274 OA
ATOM     87  N   UNL A   1      32.876  24.713  22.606  1.00  0.00    -0.323 N 
ATOM     88  H   UNL A   1      32.218  24.223  22.062  1.00  0.00     0.170 HD
BRANCH  87  89
ATOM     89  C   UNL A   1      32.560  26.082  22.662  1.00  0.00     0.078 A 
ATOM     90  C   UNL A   1      33.652  26.962  22.617  1.00  0.00     0.029 A 
ATOM     91  C   UNL A   1      31.295  26.641  22.857  1.00  0.00     0.165 A 
ATOM     92  C   UNL A   1      33.470  28.350  22.639  1.00  0.00     0.004 A 
ATOM     93  C   UNL A   1      31.106  28.027  22.880  1.00  0.00     0.078 A 
ATOM     94  F   UNL A   1      30.239  25.879  23.126  1.00  0.00    -0.203 F 
ATOM     95  C   UNL A   1      32.190  28.886  22.751  1.00  0.00     0.024 A 
ATOM     96  Cl  UNL A   1      29.524  28.687  23.080  1.00  0.00    -0.081 Cl
ENDBRANCH  87  89
ENDBRANCH  79  85
ENDBRANCH  75  78
ENDBRANCH  73  74
ENDBRANCH  72  73
ENDBRANCH   1  72
TORSDOF 13
ENDMDL
MODEL 3
REMARK VINA RESULT:     -12.9      4.315      9.683
REMARK SMILES O=C(NCCCCNC(=O)[C@@H]1[C@H](C(=O)Nc2cccc(Cl)c2F)[C@@H]2C=C[C@H]1C2)c1ccc(-c2c3nc(c(-c4c(F)c(F)c(F)c(F)c4F)c4ccc([nH]4)c(-c4c(F)c(F)c(F)c(F)c4F)c4nc(c(-c5c(F)c(F)c(F)c(F)c5F)c5ccc2[nH]5)C=C4)C=C3)cc1
REMARK SMILES IDX 5 1 4 2 3 3 1 4 2 5 29 7 30 8 91 9 31 10 90 11 32 12 33 13
REMARK SMILES IDX 34 14 84 15 35 16 89 17 83 18 85 19 36 20 88 21 82 22 81 23
REMARK SMILES IDX 37 25 69 26 49 27 68 28 50 29 53 30 67 31 86 32 51 33 52 34
REMARK SMILES IDX 66 36 87 37 54 38 38 39 39 40 47 41 40 42 41 43 45 44 48 45
REMARK SMILES IDX 42 46 43 47 46 48 44 49 70 50 71 51 79 52 72 53 73 54 77 55
REMARK SMILES IDX 80 56 74 57 75 58 78 59 76 60 55 61 56 62 64 63 57 64 58 65
REMARK SMILES IDX 62 66 65 67 59 68 60 69 63 70 61 71 6 72 7 73 8 74 9 75
REMARK SMILES IDX 10 77 11 78 12 79 27 80 24 81 26 82 28 83 25 84 13 85 14 86
REMARK SMILES IDX 15 87 16 89 17 90 22 91 18 92 20 93 23 94 19 95 21 96
REMARK H PARENT 3 6 85 24 53 35 8 76 15 88
REMARK Flexibility Score: inf
ROOT
ATOM      1  C   UNL A   1      36.802  22.240  23.876  1.00  0.00     0.023 C 
ENDROOT
BRANCH   1   2
ATOM      2  C   UNL A   1      37.050  22.135  25.375  1.00  0.00     0.116 C 
BRANCH   2   3
ATOM      3  N   UNL A   1      37.979  21.066  25.706  1.00  0.00    -0.352 N 
ATOM      4  O   UNL A   1      39.965  20.135  26.222  1.00  0.00    -0.269 OA
ATOM      5  C   UNL A   1      39.267  21.139  26.184  1.00  0.00     0.251 C 
ATOM      6  H   UNL A   1      37.635  20.154  25.565  1.00  0.00     0.163 HD
BRANCH   5   7
ATOM      7  C   UNL A   1      39.817  22.438  26.634  1.00  0.00     0.039 A 
ATOM      8  C   UNL A   1      39.331  23.639  26.115  1.00  0.00     0.014 A 
ATOM      9  C   UNL A   1      40.824  22.449  27.603  1.00  0.00     0.014 A 
ATOM     10  C   UNL A   1      39.954  24.837  26.449  1.00  0.00     0.010 A 
ATOM     11  C   UNL A   1      41.393  23.664  28.001  1.00  0.00     0.010 A 
ATOM     12  C   UNL A   1      40.990  24.865  27.397  1.00  0.00    -0.014 A 
BRANCH  12  13
ATOM     13  C   UNL A   1      41.614  26.166  27.752  1.00  0.00     0.031 A 
ATOM     14  C   UNL A   1      42.999  26.519  27.285  1.00  0.00     0.074 A 
ATOM     15  C   UNL A   1      40.898  27.057  28.467  1.00  0.00     0.049 A 
ATOM     16  N   UNL A   1      43.670  27.632  27.453  1.00  0.00    -0.248 NA
ATOM     17  C   UNL A   1      43.736  25.486  26.541  1.00  0.00     0.031 C 
ATOM     18  C   UNL A   1      39.552  26.825  28.991  1.00  0.00     0.029 A 
ATOM     19  N   UNL A   1      41.188  28.341  28.852  1.00  0.00    -0.354 N 
ATOM     20  C   UNL A   1      44.909  27.426  26.859  1.00  0.00     0.074 A 
ATOM     21  C   UNL A   1      44.909  26.073  26.347  1.00  0.00     0.031 C 
ATOM     22  C   UNL A   1      39.110  27.945  29.578  1.00  0.00     0.029 A 
ATOM     23  C   UNL A   1      40.158  28.958  29.518  1.00  0.00     0.049 A 
ATOM     24  H   UNL A   1      42.051  28.778  28.668  1.00  0.00     0.167 HD
ATOM     25  C   UNL A   1      45.945  28.291  26.745  1.00  0.00     0.037 A 
ATOM     26  C   UNL A   1      40.068  30.201  30.025  1.00  0.00     0.037 A 
ATOM     27  C   UNL A   1      45.930  29.649  27.228  1.00  0.00     0.049 A 
ATOM     28  C   UNL A   1      41.230  31.140  29.876  1.00  0.00     0.074 A 
ATOM     29  C   UNL A   1      46.915  30.617  27.115  1.00  0.00     0.029 A 
ATOM     30  N   UNL A   1      44.876  30.231  27.916  1.00  0.00    -0.354 N 
ATOM     31  N   UNL A   1      42.378  30.946  29.274  1.00  0.00    -0.248 NA
ATOM     32  C   UNL A   1      41.082  32.472  30.477  1.00  0.00     0.031 C 
ATOM     33  C   UNL A   1      46.473  31.770  27.772  1.00  0.00     0.029 A 
ATOM     34  C   UNL A   1      45.194  31.538  28.252  1.00  0.00     0.049 A 
ATOM     35  H   UNL A   1      44.028  29.782  28.134  1.00  0.00     0.167 HD
ATOM     36  C   UNL A   1      43.080  32.136  29.403  1.00  0.00     0.074 A 
ATOM     37  C   UNL A   1      42.221  33.052  30.125  1.00  0.00     0.031 C 
ATOM     38  C   UNL A   1      44.326  32.440  28.966  1.00  0.00     0.037 A 
BRANCH  25  39
ATOM     39  C   UNL A   1      47.198  27.795  26.082  1.00  0.00     0.064 A 
ATOM     40  C   UNL A   1      48.285  27.310  26.824  1.00  0.00     0.173 A 
ATOM     41  C   UNL A   1      47.293  27.761  24.682  1.00  0.00     0.173 A 
ATOM     42  F   UNL A   1      48.249  27.329  28.165  1.00  0.00    -0.203 F 
ATOM     43  C   UNL A   1      49.429  26.830  26.190  1.00  0.00     0.198 A 
ATOM     44  C   UNL A   1      48.428  27.256  24.051  1.00  0.00     0.198 A 
ATOM     45  F   UNL A   1      46.279  28.206  23.925  1.00  0.00    -0.203 F 
ATOM     46  F   UNL A   1      50.471  26.409  26.920  1.00  0.00    -0.200 F 
ATOM     47  C   UNL A   1      49.497  26.798  24.805  1.00  0.00     0.200 A 
ATOM     48  F   UNL A   1      48.486  27.214  22.713  1.00  0.00    -0.200 F 
ATOM     49  F   UNL A   1      50.595  26.328  24.198  1.00  0.00    -0.200 F 
ENDBRANCH  25  39
BRANCH  26  50
ATOM     50  C   UNL A   1      38.818  30.632  30.701  1.00  0.00     0.064 A 
ATOM     51  C   UNL A   1      38.689  30.550  32.095  1.00  0.00     0.173 A 
ATOM     52  C   UNL A   1      37.735  31.144  29.973  1.00  0.00     0.173 A 
ATOM     53  F   UNL A   1      39.691  30.050  32.832  1.00  0.00    -0.203 F 
ATOM     54  C   UNL A   1      37.517  30.952  32.732  1.00  0.00     0.198 A 
ATOM     55  C   UNL A   1      36.575  31.572  30.614  1.00  0.00     0.198 A 
ATOM     56  F   UNL A   1      37.812  31.247  28.638  1.00  0.00    -0.203 F 
ATOM     57  F   UNL A   1      37.404  30.827  34.061  1.00  0.00    -0.200 F 
ATOM     58  C   UNL A   1      36.464  31.468  31.992  1.00  0.00     0.200 A 
ATOM     59  F   UNL A   1      35.566  32.084  29.897  1.00  0.00    -0.200 F 
ATOM     60  F   UNL A   1      35.340  31.862  32.607  1.00  0.00    -0.200 F 
ENDBRANCH  26  50
BRANCH  38  61
ATOM     61  C   UNL A   1      44.818  33.832  29.226  1.00  0.00     0.064 A 
ATOM     62  C   UNL A   1      45.555  34.149  30.378  1.00  0.00     0.173 A 
ATOM     63  C   UNL A   1      44.564  34.859  28.305  1.00  0.00     0.173 A 
ATOM     64  F   UNL A   1      45.810  33.205  31.296  1.00  0.00    -0.203 F 
ATOM     65  C   UNL A   1      45.993  35.450  30.612  1.00  0.00     0.198 A 
ATOM     66  C   UNL A   1      45.027  36.153  28.529  1.00  0.00     0.198 A 
ATOM     67  F   UNL A   1      43.868  34.607  27.187  1.00  0.00    -0.203 F 
ATOM     68  F   UNL A   1      46.649  35.740  31.744  1.00  0.00    -0.200 F 
ATOM     69  C   UNL A   1      45.733  36.448  29.685  1.00  0.00     0.200 A 
ATOM     70  F   UNL A   1      44.785  37.115  27.628  1.00  0.00    -0.200 F 
ATOM     71  F   UNL A   1      46.155  37.700  29.912  1.00  0.00    -0.200 F 
ENDBRANCH  38  61
ENDBRANCH  12  13
ENDBRANCH   5   7
ENDBRANCH   2   3
ENDBRANCH   1   2
BRANCH   1  72
ATOM     72  C   UNL A   1      35.461  22.867  23.482  1.00  0.00     0.023 C 
BRANCH  72  73
ATOM     73  C   UNL A   1      35.066  24.117  24.273  1.00  0.00     0.116 C 
BRANCH  73  74
ATOM     74  N   UNL A   1      34.020  24.846  23.595  1.00  0.00    -0.356 N 
ATOM     75  C   UNL A   1      33.221  25.850  24.027  1.00  0.00     0.224 C 
ATOM     76  H   UNL A   1      33.861  24.566  22.665  1.00  0.00     0.163 HD
ATOM     77  O   UNL A   1      32.130  25.959  23.463  1.00  0.00    -0.275 OA
BRANCH  75  78
ATOM     78  C   UNL A   1      33.588  26.696  25.219  1.00  0.00     0.098 C 
ATOM     79  C   UNL A   1      32.685  26.499  26.472  1.00  0.00     0.099 C 
ATOM     80  C   UNL A   1      33.734  28.242  25.176  1.00  0.00     0.025 C 
ATOM     81  C   UNL A   1      32.615  27.921  27.097  1.00  0.00     0.025 C 
ATOM     82  C   UNL A   1      32.424  28.985  25.080  1.00  0.00    -0.027 C 
ATOM     83  C   UNL A   1      33.979  28.494  26.680  1.00  0.00     0.017 C 
ATOM     84  C   UNL A   1      31.778  28.828  26.245  1.00  0.00    -0.027 C 
BRANCH  79  85
ATOM     85  C   UNL A   1      31.385  25.679  26.474  1.00  0.00     0.228 C 
ATOM     86  O   UNL A   1      30.322  26.328  26.501  1.00  0.00    -0.274 OA
ATOM     87  N   UNL A   1      31.200  24.349  26.271  1.00  0.00    -0.323 N 
ATOM     88  H   UNL A   1      30.247  24.143  26.136  1.00  0.00     0.170 HD
BRANCH  87  89
ATOM     89  C   UNL A   1      31.980  23.181  26.198  1.00  0.00     0.078 A 
ATOM     90  C   UNL A   1      32.863  22.972  27.268  1.00  0.00     0.029 A 
ATOM     91  C   UNL A   1      32.035  22.276  25.136  1.00  0.00     0.165 A 
ATOM     92  C   UNL A   1      33.677  21.833  27.328  1.00  0.00     0.004 A 
ATOM     93  C   UNL A   1      32.845  21.138  25.189  1.00  0.00     0.078 A 
ATOM     94  F   UNL A   1      31.395  22.514  23.995  1.00  0.00    -0.203 F 
ATOM     95  C   UNL A   1      33.653  20.901  26.294  1.00  0.00     0.024 A 
ATOM     96  Cl  UNL A   1      32.858  20.016  23.878  1.00  0.00    -0.081 Cl
ENDBRANCH  87  89
ENDBRANCH  79  85
ENDBRANCH  75  78
ENDBRANCH  73  74
ENDBRANCH  72  73
ENDBRANCH   1  72
TORSDOF 13
ENDMDL
