MODEL 1
REMARK VINA RESULT:     -14.3      0.000      0.000
REMARK SMILES Cc1ccc(N2C(=O)N[C@@H]3CCN(C(=O)CC4(CC(=O)NCCCCNC(=O)c5ccc(-c6c7nc(c(-c8c(F)c(F)c(F)c(F)c8F)c8ccc([nH]8)c(-c8c(F)c(F)c(F)c(F)c8F)c8nc(c(-c9c(F)c(F)c(F)c(F)c9F)c9ccc6[nH]9)C=C8)C=C7)cc5)CCCC4)[C@@H]3C2=O)cc1
REMARK SMILES IDX 22 1 21 2 19 3 20 4 18 6 17 7 92 8 95 9 93 10 94 11 16 12
REMARK SMILES IDX 14 13 15 14 13 15 6 16 7 17 97 18 8 19 9 20 96 21 98 22
REMARK SMILES IDX 10 23 11 25 12 26 5 27 1 28 2 29 3 30 100 31 4 32 99 33
REMARK SMILES IDX 23 34 24 35 25 36 26 37 27 38 28 40 29 41 30 42 91 43 31 44
REMARK SMILES IDX 90 45 32 46 33 47 34 48 84 49 35 50 89 51 83 52 85 53 36 54
REMARK SMILES IDX 88 55 82 56 81 57 37 59 69 60 49 61 68 62 50 63 53 64 67 65
REMARK SMILES IDX 86 66 51 67 52 68 66 70 87 71 54 72 38 73 39 74 47 75 40 76
REMARK SMILES IDX 41 77 45 78 48 79 42 80 43 81 46 82 44 83 70 84 71 85 79 86
REMARK SMILES IDX 72 87 73 88 77 89 80 90 74 91 75 92 78 93 76 94 55 95 56 96
REMARK SMILES IDX 64 97 57 98 58 99 62 100 65 101 59 102 60 103 63 104 61 105
REMARK H PARENT 21 5 9 24 26 39 85 58 53 69
REMARK Flexibility Score: inf
ROOT
ATOM      1  C   UNL A   1      31.914  30.396  25.957  1.00  0.00     0.116 C 
ENDROOT
BRANCH   1   2
ATOM      2  N   UNL A   1      32.757  29.986  24.852  1.00  0.00    -0.356 N 
ATOM      3  C   UNL A   1      32.746  28.882  24.061  1.00  0.00     0.220 C 
ATOM      4  O   UNL A   1      33.625  28.816  23.196  1.00  0.00    -0.275 OA
ATOM      5  H   UNL A   1      33.471  30.628  24.634  1.00  0.00     0.163 HD
BRANCH   3   6
ATOM      6  C   UNL A   1      31.701  27.774  24.185  1.00  0.00     0.107 C 
BRANCH   6   7
ATOM      7  C   UNL A   1      30.741  27.507  22.966  1.00  0.00    -0.012 C 
ATOM      8  C   UNL A   1      30.393  28.862  22.292  1.00  0.00     0.008 C 
ATOM      9  C   UNL A   1      29.363  27.066  23.537  1.00  0.00     0.008 C 
ATOM     10  C   UNL A   1      29.217  29.417  23.083  1.00  0.00     0.001 C 
ATOM     11  C   UNL A   1      28.360  28.191  23.309  1.00  0.00     0.001 C 
BRANCH   7  12
ATOM     12  C   UNL A   1      31.392  26.492  21.970  1.00  0.00     0.107 C 
BRANCH  12  13
ATOM     13  C   UNL A   1      32.471  25.506  22.448  1.00  0.00     0.223 C 
ATOM     14  O   UNL A   1      33.605  25.553  21.965  1.00  0.00    -0.275 OA
BRANCH  13  15
ATOM     15  N   UNL A   1      32.174  24.614  23.453  1.00  0.00    -0.328 N 
ATOM     16  N   UNL A   1      34.735  23.195  25.677  1.00  0.00    -0.230 N 
ATOM     17  C   UNL A   1      33.926  22.701  26.692  1.00  0.00     0.329 C 
ATOM     18  C   UNL A   1      34.285  23.964  24.599  1.00  0.00     0.260 C 
ATOM     19  O   UNL A   1      34.269  21.935  27.592  1.00  0.00    -0.248 OA
ATOM     20  N   UNL A   1      32.639  23.136  26.722  1.00  0.00    -0.332 N 
ATOM     21  C   UNL A   1      32.903  24.622  24.734  1.00  0.00     0.197 C 
ATOM     22  O   UNL A   1      34.964  24.133  23.580  1.00  0.00    -0.271 OA
ATOM     23  C   UNL A   1      31.983  23.860  25.678  1.00  0.00     0.118 C 
ATOM     24  H   UNL A   1      32.113  22.934  27.530  1.00  0.00     0.165 HD
ATOM     25  C   UNL A   1      31.210  22.911  24.771  1.00  0.00     0.049 C 
ATOM     26  C   UNL A   1      31.081  23.674  23.474  1.00  0.00     0.122 C 
BRANCH  16  27
ATOM     27  C   UNL A   1      36.132  22.873  25.714  1.00  0.00     0.054 A 
ATOM     28  C   UNL A   1      40.313  21.885  26.143  1.00  0.00     0.044 C 
ATOM     29  C   UNL A   1      38.864  22.237  25.984  1.00  0.00    -0.051 A 
ATOM     30  C   UNL A   1      37.973  21.318  25.419  1.00  0.00     0.005 A 
ATOM     31  C   UNL A   1      38.391  23.494  26.370  1.00  0.00     0.005 A 
ATOM     32  C   UNL A   1      36.612  21.624  25.305  1.00  0.00     0.027 A 
ATOM     33  C   UNL A   1      37.040  23.815  26.223  1.00  0.00     0.027 A 
ENDBRANCH  16  27
ENDBRANCH  13  15
ENDBRANCH  12  13
ENDBRANCH   7  12
ENDBRANCH   6   7
ENDBRANCH   3   6
ENDBRANCH   1   2
BRANCH   1  34
ATOM     34  C   UNL A   1      32.335  29.715  27.270  1.00  0.00     0.023 C 
BRANCH  34  35
ATOM     35  C   UNL A   1      33.824  29.382  27.374  1.00  0.00     0.023 C 
BRANCH  35  36
ATOM     36  C   UNL A   1      34.706  30.619  27.372  1.00  0.00     0.116 C 
BRANCH  36  37
ATOM     37  N   UNL A   1      34.977  31.193  28.685  1.00  0.00    -0.352 N 
ATOM     38  C   UNL A   1      35.907  30.777  29.641  1.00  0.00     0.251 C 
ATOM     39  H   UNL A   1      34.434  31.976  28.930  1.00  0.00     0.163 HD
ATOM     40  O   UNL A   1      35.977  31.311  30.718  1.00  0.00    -0.269 OA
BRANCH  38  41
ATOM     41  C   UNL A   1      36.896  29.743  29.238  1.00  0.00     0.039 A 
ATOM     42  C   UNL A   1      37.249  28.777  30.186  1.00  0.00     0.014 A 
ATOM     43  C   UNL A   1      37.654  29.907  28.083  1.00  0.00     0.014 A 
ATOM     44  C   UNL A   1      38.504  28.177  30.104  1.00  0.00     0.010 A 
ATOM     45  C   UNL A   1      38.944  29.413  28.068  1.00  0.00     0.010 A 
ATOM     46  C   UNL A   1      39.392  28.599  29.113  1.00  0.00    -0.014 A 
BRANCH  46  47
ATOM     47  C   UNL A   1      40.826  28.326  29.172  1.00  0.00     0.031 A 
ATOM     48  C   UNL A   1      41.385  27.114  28.536  1.00  0.00     0.074 A 
ATOM     49  C   UNL A   1      41.663  29.187  29.796  1.00  0.00     0.049 A 
ATOM     50  N   UNL A   1      42.421  26.484  28.981  1.00  0.00    -0.248 NA
ATOM     51  C   UNL A   1      40.802  26.498  27.351  1.00  0.00     0.031 C 
ATOM     52  C   UNL A   1      43.124  29.148  29.792  1.00  0.00     0.029 A 
ATOM     53  N   UNL A   1      41.344  30.173  30.748  1.00  0.00    -0.354 N 
ATOM     54  C   UNL A   1      42.791  25.562  28.029  1.00  0.00     0.074 A 
ATOM     55  C   UNL A   1      41.721  25.574  27.058  1.00  0.00     0.031 C 
ATOM     56  C   UNL A   1      43.575  29.792  30.879  1.00  0.00     0.029 A 
ATOM     57  C   UNL A   1      42.419  30.175  31.667  1.00  0.00     0.049 A 
ATOM     58  H   UNL A   1      40.541  30.742  30.769  1.00  0.00     0.167 HD
ATOM     59  C   UNL A   1      44.024  24.980  28.095  1.00  0.00     0.037 A 
ATOM     60  C   UNL A   1      42.239  29.902  32.990  1.00  0.00     0.037 A 
ATOM     61  C   UNL A   1      44.782  25.462  29.244  1.00  0.00     0.049 A 
ATOM     62  C   UNL A   1      43.037  28.723  33.490  1.00  0.00     0.074 A 
ATOM     63  C   UNL A   1      45.757  26.437  29.373  1.00  0.00     0.029 A 
ATOM     64  N   UNL A   1      44.363  25.152  30.532  1.00  0.00    -0.354 N 
ATOM     65  N   UNL A   1      43.591  27.840  32.707  1.00  0.00    -0.248 NA
ATOM     66  C   UNL A   1      43.239  28.415  34.903  1.00  0.00     0.031 C 
ATOM     67  C   UNL A   1      45.908  26.732  30.748  1.00  0.00     0.029 A 
ATOM     68  C   UNL A   1      45.034  25.928  31.455  1.00  0.00     0.049 A 
ATOM     69  H   UNL A   1      43.683  24.474  30.754  1.00  0.00     0.167 HD
ATOM     70  C   UNL A   1      44.179  26.858  33.462  1.00  0.00     0.074 A 
ATOM     71  C   UNL A   1      43.953  27.277  34.832  1.00  0.00     0.031 C 
ATOM     72  C   UNL A   1      44.788  25.781  32.882  1.00  0.00     0.037 A 
BRANCH  59  73
ATOM     73  C   UNL A   1      44.640  24.211  26.948  1.00  0.00     0.064 A 
ATOM     74  C   UNL A   1      44.338  22.849  26.732  1.00  0.00     0.173 A 
ATOM     75  C   UNL A   1      45.580  24.754  26.053  1.00  0.00     0.173 A 
ATOM     76  F   UNL A   1      43.371  22.226  27.419  1.00  0.00    -0.203 F 
ATOM     77  C   UNL A   1      45.023  22.066  25.801  1.00  0.00     0.198 A 
ATOM     78  C   UNL A   1      46.309  23.961  25.161  1.00  0.00     0.198 A 
ATOM     79  F   UNL A   1      45.787  26.077  25.988  1.00  0.00    -0.203 F 
ATOM     80  F   UNL A   1      44.702  20.774  25.653  1.00  0.00    -0.200 F 
ATOM     81  C   UNL A   1      46.041  22.611  25.046  1.00  0.00     0.200 A 
ATOM     82  F   UNL A   1      47.276  24.515  24.416  1.00  0.00    -0.200 F 
ATOM     83  F   UNL A   1      46.740  21.848  24.196  1.00  0.00    -0.200 F 
ENDBRANCH  59  73
BRANCH  60  84
ATOM     84  C   UNL A   1      40.914  30.331  33.501  1.00  0.00     0.064 A 
ATOM     85  C   UNL A   1      40.706  31.706  33.727  1.00  0.00     0.173 A 
ATOM     86  C   UNL A   1      39.784  29.514  33.402  1.00  0.00     0.173 A 
ATOM     87  F   UNL A   1      41.758  32.536  33.823  1.00  0.00    -0.203 F 
ATOM     88  C   UNL A   1      39.427  32.256  33.729  1.00  0.00     0.198 A 
ATOM     89  C   UNL A   1      38.500  30.067  33.422  1.00  0.00     0.198 A 
ATOM     90  F   UNL A   1      39.915  28.201  33.166  1.00  0.00    -0.203 F 
ATOM     91  F   UNL A   1      39.272  33.585  33.822  1.00  0.00    -0.200 F 
ATOM     92  C   UNL A   1      38.326  31.438  33.548  1.00  0.00     0.200 A 
ATOM     93  F   UNL A   1      37.434  29.280  33.221  1.00  0.00    -0.200 F 
ATOM     94  F   UNL A   1      37.102  31.975  33.453  1.00  0.00    -0.200 F 
ENDBRANCH  60  84
BRANCH  72  95
ATOM     95  C   UNL A   1      45.299  24.539  33.575  1.00  0.00     0.064 A 
ATOM     96  C   UNL A   1      44.539  23.376  33.779  1.00  0.00     0.173 A 
ATOM     97  C   UNL A   1      46.668  24.437  33.937  1.00  0.00     0.173 A 
ATOM     98  F   UNL A   1      43.264  23.297  33.377  1.00  0.00    -0.203 F 
ATOM     99  C   UNL A   1      45.088  22.224  34.353  1.00  0.00     0.198 A 
ATOM    100  C   UNL A   1      47.225  23.268  34.453  1.00  0.00     0.198 A 
ATOM    101  F   UNL A   1      47.517  25.464  33.776  1.00  0.00    -0.203 F 
ATOM    102  F   UNL A   1      44.309  21.154  34.562  1.00  0.00    -0.200 F 
ATOM    103  C   UNL A   1      46.431  22.165  34.676  1.00  0.00     0.200 A 
ATOM    104  F   UNL A   1      48.539  23.214  34.711  1.00  0.00    -0.200 F 
ATOM    105  F   UNL A   1      46.961  21.042  35.179  1.00  0.00    -0.200 F 
ENDBRANCH  72  95
ENDBRANCH  46  47
ENDBRANCH  38  41
ENDBRANCH  36  37
ENDBRANCH  35  36
ENDBRANCH  34  35
ENDBRANCH   1  34
TORSDOF 16
ENDMDL
MODEL 2
REMARK VINA RESULT:     -14.1      2.102      2.755
REMARK SMILES Cc1ccc(N2C(=O)N[C@@H]3CCN(C(=O)CC4(CC(=O)NCCCCNC(=O)c5ccc(-c6c7nc(c(-c8c(F)c(F)c(F)c(F)c8F)c8ccc([nH]8)c(-c8c(F)c(F)c(F)c(F)c8F)c8nc(c(-c9c(F)c(F)c(F)c(F)c9F)c9ccc6[nH]9)C=C8)C=C7)cc5)CCCC4)[C@@H]3C2=O)cc1
REMARK SMILES IDX 22 1 21 2 19 3 20 4 18 6 17 7 92 8 95 9 93 10 94 11 16 12
REMARK SMILES IDX 14 13 15 14 13 15 6 16 7 17 97 18 8 19 9 20 96 21 98 22
REMARK SMILES IDX 10 23 11 25 12 26 5 27 1 28 2 29 3 30 100 31 4 32 99 33
REMARK SMILES IDX 23 34 24 35 25 36 26 37 27 38 28 40 29 41 30 42 91 43 31 44
REMARK SMILES IDX 90 45 32 46 33 47 34 48 84 49 35 50 89 51 83 52 85 53 36 54
REMARK SMILES IDX 88 55 82 56 81 57 37 59 69 60 49 61 68 62 50 63 53 64 67 65
REMARK SMILES IDX 86 66 51 67 52 68 66 70 87 71 54 72 38 73 39 74 47 75 40 76
REMARK SMILES IDX 41 77 45 78 48 79 42 80 43 81 46 82 44 83 70 84 71 85 79 86
REMARK SMILES IDX 72 87 73 88 77 89 80 90 74 91 75 92 78 93 76 94 55 95 56 96
REMARK SMILES IDX 64 97 57 98 58 99 62 100 65 101 59 102 60 103 63 104 61 105
REMARK H PARENT 21 5 9 24 26 39 85 58 53 69
REMARK Flexibility Score: inf
ROOT
ATOM      1  C   UNL A   1      31.697  30.219  25.496  1.00  0.00     0.116 C 
ENDROOT
BRANCH   1   2
ATOM      2  N   UNL A   1      32.699  29.363  24.894  1.00  0.00    -0.356 N 
ATOM      3  C   UNL A   1      32.739  28.022  24.677  1.00  0.00     0.220 C 
ATOM      4  O   UNL A   1      33.761  27.581  24.142  1.00  0.00    -0.275 OA
ATOM      5  H   UNL A   1      33.501  29.842  24.583  1.00  0.00     0.163 HD
BRANCH   3   6
ATOM      6  C   UNL A   1      31.587  27.082  25.032  1.00  0.00     0.107 C 
BRANCH   6   7
ATOM      7  C   UNL A   1      30.755  26.437  23.861  1.00  0.00    -0.012 C 
ATOM      8  C   UNL A   1      30.700  27.435  22.672  1.00  0.00     0.008 C 
ATOM      9  C   UNL A   1      29.268  26.387  24.311  1.00  0.00     0.008 C 
ATOM     10  C   UNL A   1      29.533  28.362  22.976  1.00  0.00     0.001 C 
ATOM     11  C   UNL A   1      28.480  27.410  23.502  1.00  0.00     0.001 C 
BRANCH   7  12
ATOM     12  C   UNL A   1      31.364  25.054  23.457  1.00  0.00     0.107 C 
BRANCH  12  13
ATOM     13  C   UNL A   1      31.643  23.978  24.519  1.00  0.00     0.223 C 
ATOM     14  O   UNL A   1      30.707  23.359  25.029  1.00  0.00    -0.275 OA
BRANCH  13  15
ATOM     15  N   UNL A   1      32.945  23.679  24.853  1.00  0.00    -0.328 N 
ATOM     16  N   UNL A   1      34.288  20.258  24.762  1.00  0.00    -0.230 N 
ATOM     17  C   UNL A   1      35.649  20.533  24.797  1.00  0.00     0.329 C 
ATOM     18  C   UNL A   1      33.281  21.223  24.651  1.00  0.00     0.260 C 
ATOM     19  O   UNL A   1      36.553  19.723  25.002  1.00  0.00    -0.248 OA
ATOM     20  N   UNL A   1      36.027  21.813  24.541  1.00  0.00    -0.332 N 
ATOM     21  C   UNL A   1      33.695  22.619  24.159  1.00  0.00     0.197 C 
ATOM     22  O   UNL A   1      32.098  20.976  24.915  1.00  0.00    -0.271 OA
ATOM     23  C   UNL A   1      35.150  22.940  24.474  1.00  0.00     0.118 C 
ATOM     24  H   UNL A   1      36.986  21.978  24.389  1.00  0.00     0.165 HD
ATOM     25  C   UNL A   1      35.098  23.658  25.817  1.00  0.00     0.049 C 
ATOM     26  C   UNL A   1      33.782  24.399  25.781  1.00  0.00     0.122 C 
BRANCH  16  27
ATOM     27  C   UNL A   1      33.875  18.890  24.877  1.00  0.00     0.054 A 
ATOM     28  C   UNL A   1      32.905  14.713  25.377  1.00  0.00     0.044 C 
ATOM     29  C   UNL A   1      33.237  16.163  25.191  1.00  0.00    -0.051 A 
ATOM     30  C   UNL A   1      32.531  17.145  25.896  1.00  0.00     0.005 A 
ATOM     31  C   UNL A   1      34.231  16.556  24.292  1.00  0.00     0.005 A 
ATOM     32  C   UNL A   1      32.862  18.497  25.758  1.00  0.00     0.027 A 
ATOM     33  C   UNL A   1      34.539  17.908  24.125  1.00  0.00     0.027 A 
ENDBRANCH  16  27
ENDBRANCH  13  15
ENDBRANCH  12  13
ENDBRANCH   7  12
ENDBRANCH   6   7
ENDBRANCH   3   6
ENDBRANCH   1   2
BRANCH   1  34
ATOM     34  C   UNL A   1      32.012  30.499  26.975  1.00  0.00     0.023 C 
BRANCH  34  35
ATOM     35  C   UNL A   1      33.241  31.375  27.217  1.00  0.00     0.023 C 
BRANCH  35  36
ATOM     36  C   UNL A   1      34.357  30.639  27.939  1.00  0.00     0.116 C 
BRANCH  36  37
ATOM     37  N   UNL A   1      35.075  31.422  28.938  1.00  0.00    -0.352 N 
ATOM     38  C   UNL A   1      36.212  31.069  29.668  1.00  0.00     0.251 C 
ATOM     39  H   UNL A   1      34.712  32.319  29.120  1.00  0.00     0.163 HD
ATOM     40  O   UNL A   1      36.663  31.797  30.513  1.00  0.00    -0.269 OA
BRANCH  38  41
ATOM     41  C   UNL A   1      36.925  29.824  29.276  1.00  0.00     0.039 A 
ATOM     42  C   UNL A   1      37.276  28.930  30.292  1.00  0.00     0.014 A 
ATOM     43  C   UNL A   1      37.478  29.702  28.006  1.00  0.00     0.014 A 
ATOM     44  C   UNL A   1      38.377  28.096  30.108  1.00  0.00     0.010 A 
ATOM     45  C   UNL A   1      38.643  28.972  27.865  1.00  0.00     0.010 A 
ATOM     46  C   UNL A   1      39.130  28.219  28.937  1.00  0.00    -0.014 A 
BRANCH  46  47
ATOM     47  C   UNL A   1      40.484  27.687  28.813  1.00  0.00     0.031 A 
ATOM     48  C   UNL A   1      40.703  26.270  28.452  1.00  0.00     0.074 A 
ATOM     49  C   UNL A   1      41.557  28.487  29.012  1.00  0.00     0.049 A 
ATOM     50  N   UNL A   1      41.708  25.572  28.862  1.00  0.00    -0.248 NA
ATOM     51  C   UNL A   1      39.784  25.514  27.610  1.00  0.00     0.031 C 
ATOM     52  C   UNL A   1      42.958  28.157  28.757  1.00  0.00     0.029 A 
ATOM     53  N   UNL A   1      41.608  29.718  29.691  1.00  0.00    -0.354 N 
ATOM     54  C   UNL A   1      41.716  24.392  28.156  1.00  0.00     0.074 A 
ATOM     55  C   UNL A   1      40.468  24.381  27.428  1.00  0.00     0.031 C 
ATOM     56  C   UNL A   1      43.732  28.941  29.523  1.00  0.00     0.029 A 
ATOM     57  C   UNL A   1      42.852  29.728  30.366  1.00  0.00     0.049 A 
ATOM     58  H   UNL A   1      40.922  30.425  29.696  1.00  0.00     0.167 HD
ATOM     59  C   UNL A   1      42.833  23.608  28.160  1.00  0.00     0.037 A 
ATOM     60  C   UNL A   1      42.937  29.827  31.723  1.00  0.00     0.037 A 
ATOM     61  C   UNL A   1      43.893  24.192  28.974  1.00  0.00     0.049 A 
ATOM     62  C   UNL A   1      43.647  28.669  32.381  1.00  0.00     0.074 A 
ATOM     63  C   UNL A   1      45.004  24.954  28.649  1.00  0.00     0.029 A 
ATOM     64  N   UNL A   1      43.735  24.295  30.350  1.00  0.00    -0.354 N 
ATOM     65  N   UNL A   1      43.874  27.530  31.789  1.00  0.00    -0.248 NA
ATOM     66  C   UNL A   1      44.115  28.680  33.764  1.00  0.00     0.031 C 
ATOM     67  C   UNL A   1      45.503  25.537  29.837  1.00  0.00     0.029 A 
ATOM     68  C   UNL A   1      44.703  25.121  30.885  1.00  0.00     0.049 A 
ATOM     69  H   UNL A   1      43.032  23.842  30.871  1.00  0.00     0.167 HD
ATOM     70  C   UNL A   1      44.468  26.663  32.671  1.00  0.00     0.074 A 
ATOM     71  C   UNL A   1      44.621  27.439  33.887  1.00  0.00     0.031 C 
ATOM     72  C   UNL A   1      44.767  25.378  32.315  1.00  0.00     0.037 A 
BRANCH  59  73
ATOM     73  C   UNL A   1      43.056  22.476  27.182  1.00  0.00     0.064 A 
ATOM     74  C   UNL A   1      42.316  21.277  27.269  1.00  0.00     0.173 A 
ATOM     75  C   UNL A   1      44.027  22.496  26.164  1.00  0.00     0.173 A 
ATOM     76  F   UNL A   1      41.275  21.152  28.101  1.00  0.00    -0.203 F 
ATOM     77  C   UNL A   1      42.621  20.149  26.503  1.00  0.00     0.198 A 
ATOM     78  C   UNL A   1      44.373  21.353  25.438  1.00  0.00     0.198 A 
ATOM     79  F   UNL A   1      44.637  23.637  25.815  1.00  0.00    -0.203 F 
ATOM     80  F   UNL A   1      41.891  19.034  26.641  1.00  0.00    -0.200 F 
ATOM     81  C   UNL A   1      43.679  20.172  25.619  1.00  0.00     0.200 A 
ATOM     82  F   UNL A   1      45.387  21.402  24.562  1.00  0.00    -0.200 F 
ATOM     83  F   UNL A   1      44.011  19.075  24.927  1.00  0.00    -0.200 F 
ENDBRANCH  59  73
BRANCH  60  84
ATOM     84  C   UNL A   1      41.838  30.624  32.322  1.00  0.00     0.064 A 
ATOM     85  C   UNL A   1      41.920  32.028  32.241  1.00  0.00     0.173 A 
ATOM     86  C   UNL A   1      40.589  30.064  32.605  1.00  0.00     0.173 A 
ATOM     87  F   UNL A   1      43.097  32.616  31.964  1.00  0.00    -0.203 F 
ATOM     88  C   UNL A   1      40.782  32.827  32.316  1.00  0.00     0.198 A 
ATOM     89  C   UNL A   1      39.451  30.871  32.698  1.00  0.00     0.198 A 
ATOM     90  F   UNL A   1      40.442  28.733  32.674  1.00  0.00    -0.203 F 
ATOM     91  F   UNL A   1      40.880  34.149  32.110  1.00  0.00    -0.200 F 
ATOM     92  C   UNL A   1      39.544  32.244  32.517  1.00  0.00     0.200 A 
ATOM     93  F   UNL A   1      38.247  30.305  32.867  1.00  0.00    -0.200 F 
ATOM     94  F   UNL A   1      38.437  32.999  32.493  1.00  0.00    -0.200 F 
ENDBRANCH  60  84
BRANCH  72  95
ATOM     95  C   UNL A   1      45.234  24.264  33.225  1.00  0.00     0.064 A 
ATOM     96  C   UNL A   1      44.449  23.162  33.596  1.00  0.00     0.173 A 
ATOM     97  C   UNL A   1      46.589  24.210  33.646  1.00  0.00     0.173 A 
ATOM     98  F   UNL A   1      43.186  23.030  33.169  1.00  0.00    -0.203 F 
ATOM     99  C   UNL A   1      44.960  22.117  34.374  1.00  0.00     0.198 A 
ATOM    100  C   UNL A   1      47.109  23.139  34.371  1.00  0.00     0.198 A 
ATOM    101  F   UNL A   1      47.460  25.185  33.344  1.00  0.00    -0.203 F 
ATOM    102  F   UNL A   1      44.155  21.107  34.733  1.00  0.00    -0.200 F 
ATOM    103  C   UNL A   1      46.290  22.098  34.749  1.00  0.00     0.200 A 
ATOM    104  F   UNL A   1      48.413  23.114  34.679  1.00  0.00    -0.200 F 
ATOM    105  F   UNL A   1      46.784  21.071  35.451  1.00  0.00    -0.200 F 
ENDBRANCH  72  95
ENDBRANCH  46  47
ENDBRANCH  38  41
ENDBRANCH  36  37
ENDBRANCH  35  36
ENDBRANCH  34  35
ENDBRANCH   1  34
TORSDOF 16
ENDMDL
MODEL 3
REMARK VINA RESULT:     -14.1      3.683     10.104
REMARK SMILES Cc1ccc(N2C(=O)N[C@@H]3CCN(C(=O)CC4(CC(=O)NCCCCNC(=O)c5ccc(-c6c7nc(c(-c8c(F)c(F)c(F)c(F)c8F)c8ccc([nH]8)c(-c8c(F)c(F)c(F)c(F)c8F)c8nc(c(-c9c(F)c(F)c(F)c(F)c9F)c9ccc6[nH]9)C=C8)C=C7)cc5)CCCC4)[C@@H]3C2=O)cc1
REMARK SMILES IDX 22 1 21 2 19 3 20 4 18 6 17 7 92 8 95 9 93 10 94 11 16 12
REMARK SMILES IDX 14 13 15 14 13 15 6 16 7 17 97 18 8 19 9 20 96 21 98 22
REMARK SMILES IDX 10 23 11 25 12 26 5 27 1 28 2 29 3 30 100 31 4 32 99 33
REMARK SMILES IDX 23 34 24 35 25 36 26 37 27 38 28 40 29 41 30 42 91 43 31 44
REMARK SMILES IDX 90 45 32 46 33 47 34 48 84 49 35 50 89 51 83 52 85 53 36 54
REMARK SMILES IDX 88 55 82 56 81 57 37 59 69 60 49 61 68 62 50 63 53 64 67 65
REMARK SMILES IDX 86 66 51 67 52 68 66 70 87 71 54 72 38 73 39 74 47 75 40 76
REMARK SMILES IDX 41 77 45 78 48 79 42 80 43 81 46 82 44 83 70 84 71 85 79 86
REMARK SMILES IDX 72 87 73 88 77 89 80 90 74 91 75 92 78 93 76 94 55 95 56 96
REMARK SMILES IDX 64 97 57 98 58 99 62 100 65 101 59 102 60 103 63 104 61 105
REMARK H PARENT 21 5 9 24 26 39 85 58 53 69
REMARK Flexibility Score: inf
ROOT
ATOM      1  C   UNL A   1      36.507  20.883  25.319  1.00  0.00     0.116 C 
ENDROOT
BRANCH   1   2
ATOM      2  N   UNL A   1      35.726  21.448  26.401  1.00  0.00    -0.356 N 
ATOM      3  C   UNL A   1      34.523  22.078  26.422  1.00  0.00     0.220 C 
ATOM      4  O   UNL A   1      34.123  22.464  27.524  1.00  0.00    -0.275 OA
ATOM      5  H   UNL A   1      36.147  21.359  27.287  1.00  0.00     0.163 HD
BRANCH   3   6
ATOM      6  C   UNL A   1      33.666  22.287  25.174  1.00  0.00     0.107 C 
BRANCH   6   7
ATOM      7  C   UNL A   1      32.373  21.406  24.993  1.00  0.00    -0.012 C 
ATOM      8  C   UNL A   1      32.670  19.966  25.495  1.00  0.00     0.008 C 
ATOM      9  C   UNL A   1      32.164  21.181  23.469  1.00  0.00     0.008 C 
ATOM     10  C   UNL A   1      33.310  19.251  24.315  1.00  0.00     0.001 C 
ATOM     11  C   UNL A   1      32.474  19.724  23.146  1.00  0.00     0.001 C 
BRANCH   7  12
ATOM     12  C   UNL A   1      31.159  22.061  25.731  1.00  0.00     0.107 C 
BRANCH  12  13
ATOM     13  C   UNL A   1      31.051  23.589  25.861  1.00  0.00     0.223 C 
ATOM     14  O   UNL A   1      30.820  24.099  26.960  1.00  0.00    -0.275 OA
BRANCH  13  15
ATOM     15  N   UNL A   1      31.266  24.378  24.754  1.00  0.00    -0.328 N 
ATOM     16  N   UNL A   1      32.935  27.649  24.935  1.00  0.00    -0.230 N 
ATOM     17  C   UNL A   1      33.238  27.840  23.593  1.00  0.00     0.329 C 
ATOM     18  C   UNL A   1      32.388  26.479  25.473  1.00  0.00     0.260 C 
ATOM     19  O   UNL A   1      33.616  28.888  23.072  1.00  0.00    -0.248 OA
ATOM     20  N   UNL A   1      33.147  26.754  22.780  1.00  0.00    -0.332 N 
ATOM     21  C   UNL A   1      32.478  25.204  24.619  1.00  0.00     0.197 C 
ATOM     22  O   UNL A   1      31.867  26.448  26.593  1.00  0.00    -0.271 OA
ATOM     23  C   UNL A   1      32.546  25.504  23.128  1.00  0.00     0.118 C 
ATOM     24  H   UNL A   1      33.526  26.836  21.875  1.00  0.00     0.165 HD
ATOM     25  C   UNL A   1      31.095  25.460  22.665  1.00  0.00     0.049 C 
ATOM     26  C   UNL A   1      30.462  24.421  23.558  1.00  0.00     0.122 C 
BRANCH  16  27
ATOM     27  C   UNL A   1      33.170  28.737  25.839  1.00  0.00     0.054 A 
ATOM     28  C   UNL A   1      34.083  32.133  28.345  1.00  0.00     0.044 C 
ATOM     29  C   UNL A   1      33.766  30.945  27.485  1.00  0.00    -0.051 A 
ATOM     30  C   UNL A   1      32.511  30.830  26.877  1.00  0.00     0.005 A 
ATOM     31  C   UNL A   1      34.704  29.927  27.304  1.00  0.00     0.005 A 
ATOM     32  C   UNL A   1      32.222  29.746  26.041  1.00  0.00     0.027 A 
ATOM     33  C   UNL A   1      34.405  28.825  26.500  1.00  0.00     0.027 A 
ENDBRANCH  16  27
ENDBRANCH  13  15
ENDBRANCH  12  13
ENDBRANCH   7  12
ENDBRANCH   6   7
ENDBRANCH   3   6
ENDBRANCH   1   2
BRANCH   1  34
ATOM     34  C   UNL A   1      37.717  21.768  24.976  1.00  0.00     0.023 C 
BRANCH  34  35
ATOM     35  C   UNL A   1      38.931  21.579  25.886  1.00  0.00     0.023 C 
BRANCH  35  36
ATOM     36  C   UNL A   1      39.432  22.884  26.479  1.00  0.00     0.116 C 
BRANCH  36  37
ATOM     37  N   UNL A   1      40.812  23.226  26.157  1.00  0.00    -0.352 N 
ATOM     38  C   UNL A   1      41.419  24.484  26.155  1.00  0.00     0.251 C 
ATOM     39  H   UNL A   1      41.392  22.472  25.908  1.00  0.00     0.163 HD
ATOM     40  O   UNL A   1      42.561  24.626  25.802  1.00  0.00    -0.269 OA
BRANCH  38  41
ATOM     41  C   UNL A   1      40.654  25.621  26.731  1.00  0.00     0.039 A 
ATOM     42  C   UNL A   1      40.804  26.876  26.132  1.00  0.00     0.014 A 
ATOM     43  C   UNL A   1      40.056  25.504  27.982  1.00  0.00     0.014 A 
ATOM     44  C   UNL A   1      40.609  28.020  26.901  1.00  0.00     0.010 A 
ATOM     45  C   UNL A   1      39.984  26.628  28.783  1.00  0.00     0.010 A 
ATOM     46  C   UNL A   1      40.323  27.880  28.262  1.00  0.00    -0.014 A 
BRANCH  46  47
ATOM     47  C   UNL A   1      40.478  28.975  29.215  1.00  0.00     0.031 A 
ATOM     48  C   UNL A   1      39.388  29.955  29.414  1.00  0.00     0.074 A 
ATOM     49  C   UNL A   1      41.613  29.099  29.941  1.00  0.00     0.049 A 
ATOM     50  N   UNL A   1      39.585  31.193  29.725  1.00  0.00    -0.248 NA
ATOM     51  C   UNL A   1      37.979  29.619  29.254  1.00  0.00     0.031 C 
ATOM     52  C   UNL A   1      41.851  30.023  31.048  1.00  0.00     0.029 A 
ATOM     53  N   UNL A   1      42.876  28.536  29.680  1.00  0.00    -0.354 N 
ATOM     54  C   UNL A   1      38.367  31.741  30.054  1.00  0.00     0.074 A 
ATOM     55  C   UNL A   1      37.393  30.736  29.693  1.00  0.00     0.031 C 
ATOM     56  C   UNL A   1      43.172  30.224  31.165  1.00  0.00     0.029 A 
ATOM     57  C   UNL A   1      43.817  29.517  30.075  1.00  0.00     0.049 A 
ATOM     58  H   UNL A   1      43.065  27.647  29.302  1.00  0.00     0.167 HD
ATOM     59  C   UNL A   1      38.318  32.934  30.716  1.00  0.00     0.037 A 
ATOM     60  C   UNL A   1      44.706  30.059  29.197  1.00  0.00     0.037 A 
ATOM     61  C   UNL A   1      39.655  33.460  30.969  1.00  0.00     0.049 A 
ATOM     62  C   UNL A   1      44.601  31.559  29.060  1.00  0.00     0.074 A 
ATOM     63  C   UNL A   1      40.478  33.415  32.083  1.00  0.00     0.029 A 
ATOM     64  N   UNL A   1      40.452  33.870  29.907  1.00  0.00    -0.354 N 
ATOM     65  N   UNL A   1      43.573  32.251  29.468  1.00  0.00    -0.248 NA
ATOM     66  C   UNL A   1      45.612  32.392  28.418  1.00  0.00     0.031 C 
ATOM     67  C   UNL A   1      41.784  33.778  31.682  1.00  0.00     0.029 A 
ATOM     68  C   UNL A   1      41.754  34.056  30.328  1.00  0.00     0.049 A 
ATOM     69  H   UNL A   1      40.133  34.009  28.986  1.00  0.00     0.167 HD
ATOM     70  C   UNL A   1      43.746  33.570  29.137  1.00  0.00     0.074 A 
ATOM     71  C   UNL A   1      45.050  33.612  28.503  1.00  0.00     0.031 C 
ATOM     72  C   UNL A   1      42.786  34.504  29.406  1.00  0.00     0.037 A 
BRANCH  59  73
ATOM     73  C   UNL A   1      37.071  33.457  31.391  1.00  0.00     0.064 A 
ATOM     74  C   UNL A   1      36.876  33.315  32.782  1.00  0.00     0.173 A 
ATOM     75  C   UNL A   1      36.003  34.066  30.706  1.00  0.00     0.173 A 
ATOM     76  F   UNL A   1      37.850  32.871  33.586  1.00  0.00    -0.203 F 
ATOM     77  C   UNL A   1      35.664  33.620  33.405  1.00  0.00     0.198 A 
ATOM     78  C   UNL A   1      34.770  34.318  31.316  1.00  0.00     0.198 A 
ATOM     79  F   UNL A   1      36.140  34.475  29.438  1.00  0.00    -0.203 F 
ATOM     80  F   UNL A   1      35.535  33.449  34.729  1.00  0.00    -0.200 F 
ATOM     81  C   UNL A   1      34.595  34.079  32.665  1.00  0.00     0.200 A 
ATOM     82  F   UNL A   1      33.750  34.790  30.585  1.00  0.00    -0.200 F 
ATOM     83  F   UNL A   1      33.414  34.315  33.251  1.00  0.00    -0.200 F 
ENDBRANCH  59  73
BRANCH  60  84
ATOM     84  C   UNL A   1      45.121  29.119  28.127  1.00  0.00     0.064 A 
ATOM     85  C   UNL A   1      46.070  28.128  28.449  1.00  0.00     0.173 A 
ATOM     86  C   UNL A   1      44.358  28.933  26.970  1.00  0.00     0.173 A 
ATOM     87  F   UNL A   1      46.824  28.256  29.554  1.00  0.00    -0.203 F 
ATOM     88  C   UNL A   1      46.162  26.947  27.717  1.00  0.00     0.198 A 
ATOM     89  C   UNL A   1      44.466  27.753  26.228  1.00  0.00     0.198 A 
ATOM     90  F   UNL A   1      43.424  29.829  26.623  1.00  0.00    -0.203 F 
ATOM     91  F   UNL A   1      46.989  25.972  28.125  1.00  0.00    -0.200 F 
ATOM     92  C   UNL A   1      45.340  26.749  26.623  1.00  0.00     0.200 A 
ATOM     93  F   UNL A   1      43.652  27.549  25.183  1.00  0.00    -0.200 F 
ATOM     94  F   UNL A   1      45.358  25.576  25.975  1.00  0.00    -0.200 F 
ENDBRANCH  60  84
BRANCH  72  95
ATOM     95  C   UNL A   1      42.749  35.939  28.931  1.00  0.00     0.064 A 
ATOM     96  C   UNL A   1      41.964  36.401  27.863  1.00  0.00     0.173 A 
ATOM     97  C   UNL A   1      43.427  36.949  29.664  1.00  0.00     0.173 A 
ATOM     98  F   UNL A   1      41.184  35.568  27.161  1.00  0.00    -0.203 F 
ATOM     99  C   UNL A   1      41.905  37.756  27.518  1.00  0.00     0.198 A 
ATOM    100  C   UNL A   1      43.318  38.304  29.354  1.00  0.00     0.198 A 
ATOM    101  F   UNL A   1      44.195  36.655  30.723  1.00  0.00    -0.203 F 
ATOM    102  F   UNL A   1      41.170  38.138  26.465  1.00  0.00    -0.200 F 
ATOM    103  C   UNL A   1      42.569  38.707  28.270  1.00  0.00     0.200 A 
ATOM    104  F   UNL A   1      43.927  39.215  30.126  1.00  0.00    -0.200 F 
ATOM    105  F   UNL A   1      42.468  40.007  27.964  1.00  0.00    -0.200 F 
ENDBRANCH  72  95
ENDBRANCH  46  47
ENDBRANCH  38  41
ENDBRANCH  36  37
ENDBRANCH  35  36
ENDBRANCH  34  35
ENDBRANCH   1  34
TORSDOF 16
ENDMDL
