MODEL 1
REMARK VINA RESULT:     -12.6      0.000      0.000
REMARK SMILES CC[C@@](C)(NC(=O)c1cccc2ccccc12)C(=O)NCCCCNC(=O)c1ccc(-c2c3nc(c(-c4c(F)c(F)c(F)c(F)c4F)c4ccc([nH]4)c(-c4c(F)c(F)c(F)c(F)c4F)c4nc(c(-c5c(F)c(F)c(F)c(F)c5F)c5ccc2[nH]5)C=C4)C=C3)cc1
REMARK SMILES IDX 22 1 21 2 20 3 18 4 19 5 3 7 4 8 2 9 1 10 5 11 6 12 7 14
REMARK SMILES IDX 8 15 9 16 17 17 10 18 12 19 16 20 11 21 13 22 15 23 14 24
REMARK SMILES IDX 23 25 24 26 25 27 26 28 27 30 28 31 29 32 90 33 30 34 89 35
REMARK SMILES IDX 31 36 32 37 33 38 83 39 34 40 88 41 82 42 84 43 35 44 87 45
REMARK SMILES IDX 81 46 80 47 36 49 68 50 48 51 67 52 49 53 52 54 66 55 85 56
REMARK SMILES IDX 50 57 51 58 65 60 86 61 53 62 37 63 38 64 46 65 39 66 40 67
REMARK SMILES IDX 44 68 47 69 41 70 42 71 45 72 43 73 69 74 70 75 78 76 71 77
REMARK SMILES IDX 72 78 76 79 79 80 73 81 74 82 77 83 75 84 54 85 55 86 63 87
REMARK SMILES IDX 56 88 57 89 61 90 64 91 58 92 59 93 62 94 60 95
REMARK H PARENT 20 6 5 13 25 29 84 48 52 59
REMARK Flexibility Score: inf
ROOT
ATOM      1  C   UNL A   1      31.337  30.672  25.751  1.00  0.00     0.023 C 
ENDROOT
BRANCH   1   2
ATOM      2  C   UNL A   1      32.660  29.913  25.867  1.00  0.00     0.116 C 
BRANCH   2   3
ATOM      3  N   UNL A   1      33.413  29.650  24.653  1.00  0.00    -0.354 N 
ATOM      4  C   UNL A   1      33.451  28.598  23.777  1.00  0.00     0.245 C 
ATOM      5  O   UNL A   1      33.960  28.851  22.679  1.00  0.00    -0.272 OA
ATOM      6  H   UNL A   1      34.025  30.382  24.408  1.00  0.00     0.163 HD
BRANCH   4   7
ATOM      7  C   UNL A   1      32.840  27.197  24.090  1.00  0.00     0.116 C 
ATOM      8  C   UNL A   1      33.788  26.599  25.164  1.00  0.00     0.045 C 
BRANCH   7   9
ATOM      9  C   UNL A   1      31.404  27.219  24.691  1.00  0.00     0.035 C 
ATOM     10  C   UNL A   1      31.165  26.503  26.016  1.00  0.00     0.007 C 
ENDBRANCH   7   9
BRANCH   7  11
ATOM     11  N   UNL A   1      32.801  26.264  22.926  1.00  0.00    -0.338 N 
ATOM     12  C   UNL A   1      33.094  24.931  22.685  1.00  0.00     0.252 C 
ATOM     13  H   UNL A   1      32.480  26.716  22.112  1.00  0.00     0.164 HD
ATOM     14  O   UNL A   1      33.280  24.690  21.488  1.00  0.00    -0.269 OA
BRANCH  12  15
ATOM     15  C   UNL A   1      33.094  23.787  23.683  1.00  0.00     0.047 A 
ATOM     16  C   UNL A   1      31.887  23.312  24.199  1.00  0.00     0.014 A 
ATOM     17  C   UNL A   1      34.279  23.028  23.988  1.00  0.00    -0.006 A 
ATOM     18  C   UNL A   1      31.774  22.156  24.964  1.00  0.00     0.001 A 
ATOM     19  C   UNL A   1      34.144  21.833  24.766  1.00  0.00    -0.018 A 
ATOM     20  C   UNL A   1      35.604  23.336  23.578  1.00  0.00     0.009 A 
ATOM     21  C   UNL A   1      32.901  21.417  25.241  1.00  0.00     0.009 A 
ATOM     22  C   UNL A   1      35.247  21.021  25.063  1.00  0.00     0.009 A 
ATOM     23  C   UNL A   1      36.699  22.513  23.880  1.00  0.00     0.001 A 
ATOM     24  C   UNL A   1      36.518  21.353  24.617  1.00  0.00     0.001 A 
ENDBRANCH  12  15
ENDBRANCH   7  11
ENDBRANCH   4   7
ENDBRANCH   2   3
ENDBRANCH   1   2
BRANCH   1  25
ATOM     25  C   UNL A   1      31.184  31.992  26.502  1.00  0.00     0.023 C 
BRANCH  25  26
ATOM     26  C   UNL A   1      32.447  32.571  27.113  1.00  0.00     0.116 C 
BRANCH  26  27
ATOM     27  N   UNL A   1      32.293  33.960  27.504  1.00  0.00    -0.352 N 
ATOM     28  C   UNL A   1      32.965  34.673  28.461  1.00  0.00     0.251 C 
ATOM     29  H   UNL A   1      31.605  34.464  27.012  1.00  0.00     0.163 HD
ATOM     30  O   UNL A   1      32.582  35.809  28.759  1.00  0.00    -0.269 OA
BRANCH  28  31
ATOM     31  C   UNL A   1      34.134  34.093  29.157  1.00  0.00     0.039 A 
ATOM     32  C   UNL A   1      33.917  33.250  30.251  1.00  0.00     0.014 A 
ATOM     33  C   UNL A   1      35.441  34.395  28.760  1.00  0.00     0.014 A 
ATOM     34  C   UNL A   1      35.002  32.678  30.917  1.00  0.00     0.010 A 
ATOM     35  C   UNL A   1      36.518  33.762  29.374  1.00  0.00     0.010 A 
ATOM     36  C   UNL A   1      36.312  32.910  30.468  1.00  0.00    -0.014 A 
BRANCH  36  37
ATOM     37  C   UNL A   1      37.479  32.296  31.150  1.00  0.00     0.031 A 
ATOM     38  C   UNL A   1      38.231  31.173  30.490  1.00  0.00     0.074 A 
ATOM     39  C   UNL A   1      37.828  32.708  32.384  1.00  0.00     0.049 A 
ATOM     40  N   UNL A   1      39.229  30.459  30.947  1.00  0.00    -0.248 NA
ATOM     41  C   UNL A   1      37.783  30.779  29.144  1.00  0.00     0.031 C 
ATOM     42  C   UNL A   1      37.150  33.756  33.147  1.00  0.00     0.029 A 
ATOM     43  N   UNL A   1      38.833  32.287  33.219  1.00  0.00    -0.354 N 
ATOM     44  C   UNL A   1      39.515  29.528  29.957  1.00  0.00     0.074 A 
ATOM     45  C   UNL A   1      38.548  29.727  28.899  1.00  0.00     0.031 C 
ATOM     46  C   UNL A   1      37.769  33.910  34.329  1.00  0.00     0.029 A 
ATOM     47  C   UNL A   1      38.863  32.948  34.422  1.00  0.00     0.049 A 
ATOM     48  H   UNL A   1      39.472  31.578  32.976  1.00  0.00     0.167 HD
ATOM     49  C   UNL A   1      40.507  28.607  29.922  1.00  0.00     0.037 A 
ATOM     50  C   UNL A   1      39.677  32.789  35.483  1.00  0.00     0.037 A 
ATOM     51  C   UNL A   1      41.482  28.431  30.966  1.00  0.00     0.049 A 
ATOM     52  C   UNL A   1      40.772  31.760  35.420  1.00  0.00     0.074 A 
ATOM     53  C   UNL A   1      42.561  27.566  31.003  1.00  0.00     0.029 A 
ATOM     54  N   UNL A   1      41.493  29.136  32.161  1.00  0.00    -0.354 N 
ATOM     55  N   UNL A   1      41.072  30.928  34.451  1.00  0.00    -0.248 NA
ATOM     56  C   UNL A   1      41.647  31.650  36.595  1.00  0.00     0.031 C 
ATOM     57  C   UNL A   1      43.198  27.714  32.239  1.00  0.00     0.029 A 
ATOM     58  C   UNL A   1      42.549  28.710  32.951  1.00  0.00     0.049 A 
ATOM     59  H   UNL A   1      40.847  29.835  32.411  1.00  0.00     0.167 HD
ATOM     60  C   UNL A   1      42.183  30.219  34.887  1.00  0.00     0.074 A 
ATOM     61  C   UNL A   1      42.514  30.729  36.201  1.00  0.00     0.031 C 
ATOM     62  C   UNL A   1      42.868  29.233  34.255  1.00  0.00     0.037 A 
BRANCH  49  63
ATOM     63  C   UNL A   1      40.592  27.725  28.710  1.00  0.00     0.064 A 
ATOM     64  C   UNL A   1      41.380  28.069  27.600  1.00  0.00     0.173 A 
ATOM     65  C   UNL A   1      39.902  26.504  28.667  1.00  0.00     0.173 A 
ATOM     66  F   UNL A   1      42.053  29.230  27.584  1.00  0.00    -0.203 F 
ATOM     67  C   UNL A   1      41.447  27.242  26.482  1.00  0.00     0.198 A 
ATOM     68  C   UNL A   1      39.996  25.664  27.560  1.00  0.00     0.198 A 
ATOM     69  F   UNL A   1      39.138  26.121  29.701  1.00  0.00    -0.203 F 
ATOM     70  F   UNL A   1      42.163  27.619  25.414  1.00  0.00    -0.200 F 
ATOM     71  C   UNL A   1      40.762  26.037  26.466  1.00  0.00     0.200 A 
ATOM     72  F   UNL A   1      39.343  24.493  27.552  1.00  0.00    -0.200 F 
ATOM     73  F   UNL A   1      40.831  25.239  25.392  1.00  0.00    -0.200 F 
ENDBRANCH  49  63
BRANCH  50  74
ATOM     74  C   UNL A   1      39.501  33.644  36.686  1.00  0.00     0.064 A 
ATOM     75  C   UNL A   1      40.123  34.897  36.778  1.00  0.00     0.173 A 
ATOM     76  C   UNL A   1      38.710  33.228  37.768  1.00  0.00     0.173 A 
ATOM     77  F   UNL A   1      40.905  35.330  35.779  1.00  0.00    -0.203 F 
ATOM     78  C   UNL A   1      39.978  35.692  37.913  1.00  0.00     0.198 A 
ATOM     79  C   UNL A   1      38.542  34.037  38.891  1.00  0.00     0.198 A 
ATOM     80  F   UNL A   1      38.089  32.040  37.729  1.00  0.00    -0.203 F 
ATOM     81  F   UNL A   1      40.622  36.865  37.994  1.00  0.00    -0.200 F 
ATOM     82  C   UNL A   1      39.184  35.264  38.966  1.00  0.00     0.200 A 
ATOM     83  F   UNL A   1      37.762  33.625  39.899  1.00  0.00    -0.200 F 
ATOM     84  F   UNL A   1      39.041  36.030  40.055  1.00  0.00    -0.200 F 
ENDBRANCH  50  74
BRANCH  62  85
ATOM     85  C   UNL A   1      44.064  28.665  34.961  1.00  0.00     0.064 A 
ATOM     86  C   UNL A   1      45.340  29.230  34.819  1.00  0.00     0.173 A 
ATOM     87  C   UNL A   1      43.924  27.566  35.822  1.00  0.00     0.173 A 
ATOM     88  F   UNL A   1      45.530  30.273  33.997  1.00  0.00    -0.203 F 
ATOM     89  C   UNL A   1      46.436  28.699  35.495  1.00  0.00     0.198 A 
ATOM     90  C   UNL A   1      45.016  27.058  36.520  1.00  0.00     0.198 A 
ATOM     91  F   UNL A   1      42.724  26.993  35.998  1.00  0.00    -0.203 F 
ATOM     92  F   UNL A   1      47.654  29.226  35.307  1.00  0.00    -0.200 F 
ATOM     93  C   UNL A   1      46.272  27.620  36.350  1.00  0.00     0.200 A 
ATOM     94  F   UNL A   1      44.852  26.024  37.356  1.00  0.00    -0.200 F 
ATOM     95  F   UNL A   1      47.327  27.116  37.005  1.00  0.00    -0.200 F 
ENDBRANCH  62  85
ENDBRANCH  36  37
ENDBRANCH  28  31
ENDBRANCH  26  27
ENDBRANCH  25  26
ENDBRANCH   1  25
TORSDOF 14
ENDMDL
MODEL 2
REMARK VINA RESULT:     -12.6      0.436      1.651
REMARK SMILES CC[C@@](C)(NC(=O)c1cccc2ccccc12)C(=O)NCCCCNC(=O)c1ccc(-c2c3nc(c(-c4c(F)c(F)c(F)c(F)c4F)c4ccc([nH]4)c(-c4c(F)c(F)c(F)c(F)c4F)c4nc(c(-c5c(F)c(F)c(F)c(F)c5F)c5ccc2[nH]5)C=C4)C=C3)cc1
REMARK SMILES IDX 22 1 21 2 20 3 18 4 19 5 3 7 4 8 2 9 1 10 5 11 6 12 7 14
REMARK SMILES IDX 8 15 9 16 17 17 10 18 12 19 16 20 11 21 13 22 15 23 14 24
REMARK SMILES IDX 23 25 24 26 25 27 26 28 27 30 28 31 29 32 90 33 30 34 89 35
REMARK SMILES IDX 31 36 32 37 33 38 83 39 34 40 88 41 82 42 84 43 35 44 87 45
REMARK SMILES IDX 81 46 80 47 36 49 68 50 48 51 67 52 49 53 52 54 66 55 85 56
REMARK SMILES IDX 50 57 51 58 65 60 86 61 53 62 37 63 38 64 46 65 39 66 40 67
REMARK SMILES IDX 44 68 47 69 41 70 42 71 45 72 43 73 69 74 70 75 78 76 71 77
REMARK SMILES IDX 72 78 76 79 79 80 73 81 74 82 77 83 75 84 54 85 55 86 63 87
REMARK SMILES IDX 56 88 57 89 61 90 64 91 58 92 59 93 62 94 60 95
REMARK H PARENT 20 6 5 13 25 29 84 48 52 59
REMARK Flexibility Score: inf
ROOT
ATOM      1  C   UNL A   1      31.401  30.526  25.756  1.00  0.00     0.023 C 
ENDROOT
BRANCH   1   2
ATOM      2  C   UNL A   1      32.736  29.779  25.788  1.00  0.00     0.116 C 
BRANCH   2   3
ATOM      3  N   UNL A   1      33.427  29.550  24.530  1.00  0.00    -0.354 N 
ATOM      4  C   UNL A   1      33.451  28.505  23.646  1.00  0.00     0.245 C 
ATOM      5  O   UNL A   1      33.888  28.782  22.523  1.00  0.00    -0.272 OA
ATOM      6  H   UNL A   1      33.999  30.305  24.257  1.00  0.00     0.163 HD
BRANCH   4   7
ATOM      7  C   UNL A   1      32.907  27.082  23.982  1.00  0.00     0.116 C 
ATOM      8  C   UNL A   1      33.931  26.513  25.002  1.00  0.00     0.045 C 
BRANCH   7   9
ATOM      9  C   UNL A   1      31.505  27.050  24.658  1.00  0.00     0.035 C 
ATOM     10  C   UNL A   1      30.299  27.496  23.839  1.00  0.00     0.007 C 
ENDBRANCH   7   9
BRANCH   7  11
ATOM     11  N   UNL A   1      32.839  26.152  22.817  1.00  0.00    -0.338 N 
ATOM     12  C   UNL A   1      33.112  24.817  22.567  1.00  0.00     0.252 C 
ATOM     13  H   UNL A   1      32.513  26.611  22.008  1.00  0.00     0.164 HD
ATOM     14  O   UNL A   1      33.278  24.577  21.367  1.00  0.00    -0.269 OA
BRANCH  12  15
ATOM     15  C   UNL A   1      33.113  23.671  23.562  1.00  0.00     0.047 A 
ATOM     16  C   UNL A   1      31.902  23.153  24.030  1.00  0.00     0.014 A 
ATOM     17  C   UNL A   1      34.310  22.950  23.912  1.00  0.00    -0.006 A 
ATOM     18  C   UNL A   1      31.799  21.992  24.788  1.00  0.00     0.001 A 
ATOM     19  C   UNL A   1      34.184  21.748  24.681  1.00  0.00    -0.018 A 
ATOM     20  C   UNL A   1      35.638  23.304  23.555  1.00  0.00     0.009 A 
ATOM     21  C   UNL A   1      32.939  21.289  25.107  1.00  0.00     0.009 A 
ATOM     22  C   UNL A   1      35.302  20.974  25.019  1.00  0.00     0.009 A 
ATOM     23  C   UNL A   1      36.748  22.518  23.897  1.00  0.00     0.001 A 
ATOM     24  C   UNL A   1      36.578  21.350  24.624  1.00  0.00     0.001 A 
ENDBRANCH  12  15
ENDBRANCH   7  11
ENDBRANCH   4   7
ENDBRANCH   2   3
ENDBRANCH   1   2
BRANCH   1  25
ATOM     25  C   UNL A   1      31.292  31.857  26.496  1.00  0.00     0.023 C 
BRANCH  25  26
ATOM     26  C   UNL A   1      32.591  32.460  26.997  1.00  0.00     0.116 C 
BRANCH  26  27
ATOM     27  N   UNL A   1      32.442  33.842  27.415  1.00  0.00    -0.352 N 
ATOM     28  C   UNL A   1      33.107  34.529  28.395  1.00  0.00     0.251 C 
ATOM     29  H   UNL A   1      31.765  34.361  26.925  1.00  0.00     0.163 HD
ATOM     30  O   UNL A   1      32.728  35.662  28.712  1.00  0.00    -0.269 OA
BRANCH  28  31
ATOM     31  C   UNL A   1      34.263  33.926  29.094  1.00  0.00     0.039 A 
ATOM     32  C   UNL A   1      34.029  32.925  30.042  1.00  0.00     0.014 A 
ATOM     33  C   UNL A   1      35.569  34.358  28.846  1.00  0.00     0.014 A 
ATOM     34  C   UNL A   1      35.102  32.329  30.705  1.00  0.00     0.010 A 
ATOM     35  C   UNL A   1      36.643  33.709  29.449  1.00  0.00     0.010 A 
ATOM     36  C   UNL A   1      36.421  32.699  30.397  1.00  0.00    -0.014 A 
BRANCH  36  37
ATOM     37  C   UNL A   1      37.578  32.064  31.077  1.00  0.00     0.031 A 
ATOM     38  C   UNL A   1      38.373  30.999  30.373  1.00  0.00     0.074 A 
ATOM     39  C   UNL A   1      37.879  32.404  32.345  1.00  0.00     0.049 A 
ATOM     40  N   UNL A   1      39.370  30.275  30.817  1.00  0.00    -0.248 NA
ATOM     41  C   UNL A   1      37.975  30.683  28.991  1.00  0.00     0.031 C 
ATOM     42  C   UNL A   1      37.156  33.389  33.150  1.00  0.00     0.029 A 
ATOM     43  N   UNL A   1      38.866  31.949  33.184  1.00  0.00    -0.354 N 
ATOM     44  C   UNL A   1      39.705  29.414  29.780  1.00  0.00     0.074 A 
ATOM     45  C   UNL A   1      38.769  29.662  28.705  1.00  0.00     0.031 C 
ATOM     46  C   UNL A   1      37.735  33.479  34.358  1.00  0.00     0.029 A 
ATOM     47  C   UNL A   1      38.844  32.533  34.427  1.00  0.00     0.049 A 
ATOM     48  H   UNL A   1      39.526  31.268  32.920  1.00  0.00     0.167 HD
ATOM     49  C   UNL A   1      40.717  28.515  29.720  1.00  0.00     0.037 A 
ATOM     50  C   UNL A   1      39.627  32.322  35.502  1.00  0.00     0.037 A 
ATOM     51  C   UNL A   1      41.661  28.291  30.783  1.00  0.00     0.049 A 
ATOM     52  C   UNL A   1      40.743  31.318  35.411  1.00  0.00     0.074 A 
ATOM     53  C   UNL A   1      42.755  27.444  30.802  1.00  0.00     0.029 A 
ATOM     54  N   UNL A   1      41.620  28.919  32.020  1.00  0.00    -0.354 N 
ATOM     55  N   UNL A   1      41.091  30.555  34.403  1.00  0.00    -0.248 NA
ATOM     56  C   UNL A   1      41.583  31.150  36.605  1.00  0.00     0.031 C 
ATOM     57  C   UNL A   1      43.349  27.525  32.065  1.00  0.00     0.029 A 
ATOM     58  C   UNL A   1      42.659  28.462  32.816  1.00  0.00     0.049 A 
ATOM     59  H   UNL A   1      40.953  29.589  32.291  1.00  0.00     0.167 HD
ATOM     60  C   UNL A   1      42.202  29.839  34.829  1.00  0.00     0.074 A 
ATOM     61  C   UNL A   1      42.481  30.271  36.183  1.00  0.00     0.031 C 
ATOM     62  C   UNL A   1      42.925  28.908  34.160  1.00  0.00     0.037 A 
BRANCH  49  63
ATOM     63  C   UNL A   1      40.857  27.713  28.459  1.00  0.00     0.064 A 
ATOM     64  C   UNL A   1      41.669  28.143  27.397  1.00  0.00     0.173 A 
ATOM     65  C   UNL A   1      40.197  26.482  28.319  1.00  0.00     0.173 A 
ATOM     66  F   UNL A   1      42.315  29.317  27.475  1.00  0.00    -0.203 F 
ATOM     67  C   UNL A   1      41.788  27.389  26.233  1.00  0.00     0.198 A 
ATOM     68  C   UNL A   1      40.343  25.716  27.165  1.00  0.00     0.198 A 
ATOM     69  F   UNL A   1      39.413  26.019  29.304  1.00  0.00    -0.203 F 
ATOM     70  F   UNL A   1      42.525  27.849  25.212  1.00  0.00    -0.200 F 
ATOM     71  C   UNL A   1      41.132  26.174  26.121  1.00  0.00     0.200 A 
ATOM     72  F   UNL A   1      39.719  24.534  27.064  1.00  0.00    -0.200 F 
ATOM     73  F   UNL A   1      41.251  25.447  25.001  1.00  0.00    -0.200 F 
ENDBRANCH  49  63
BRANCH  50  74
ATOM     74  C   UNL A   1      39.396  33.095  36.750  1.00  0.00     0.064 A 
ATOM     75  C   UNL A   1      38.473  32.657  37.710  1.00  0.00     0.173 A 
ATOM     76  C   UNL A   1      40.089  34.288  37.010  1.00  0.00     0.173 A 
ATOM     77  F   UNL A   1      37.770  31.535  37.498  1.00  0.00    -0.203 F 
ATOM     78  C   UNL A   1      38.237  33.390  38.871  1.00  0.00     0.198 A 
ATOM     79  C   UNL A   1      39.873  35.005  38.185  1.00  0.00     0.198 A 
ATOM     80  F   UNL A   1      40.987  34.749  36.126  1.00  0.00    -0.203 F 
ATOM     81  F   UNL A   1      37.315  32.972  39.749  1.00  0.00    -0.200 F 
ATOM     82  C   UNL A   1      38.941  34.561  39.110  1.00  0.00     0.200 A 
ATOM     83  F   UNL A   1      40.568  36.128  38.418  1.00  0.00    -0.200 F 
ATOM     84  F   UNL A   1      38.717  35.263  40.228  1.00  0.00    -0.200 F 
ENDBRANCH  50  74
BRANCH  62  85
ATOM     85  C   UNL A   1      44.110  28.318  34.868  1.00  0.00     0.064 A 
ATOM     86  C   UNL A   1      44.010  27.127  35.603  1.00  0.00     0.173 A 
ATOM     87  C   UNL A   1      45.369  28.930  34.775  1.00  0.00     0.173 A 
ATOM     88  F   UNL A   1      42.826  26.512  35.735  1.00  0.00    -0.203 F 
ATOM     89  C   UNL A   1      45.124  26.586  36.240  1.00  0.00     0.198 A 
ATOM     90  C   UNL A   1      46.486  28.368  35.386  1.00  0.00     0.198 A 
ATOM     91  F   UNL A   1      45.519  30.066  34.078  1.00  0.00    -0.203 F 
ATOM     92  F   UNL A   1      44.996  25.474  36.976  1.00  0.00    -0.200 F 
ATOM     93  C   UNL A   1      46.361  27.202  36.125  1.00  0.00     0.200 A 
ATOM     94  F   UNL A   1      47.683  28.957  35.262  1.00  0.00    -0.200 F 
ATOM     95  F   UNL A   1      47.433  26.674  36.732  1.00  0.00    -0.200 F 
ENDBRANCH  62  85
ENDBRANCH  36  37
ENDBRANCH  28  31
ENDBRANCH  26  27
ENDBRANCH  25  26
ENDBRANCH   1  25
TORSDOF 14
ENDMDL
MODEL 3
REMARK VINA RESULT:     -12.6      5.289     10.821
REMARK SMILES CC[C@@](C)(NC(=O)c1cccc2ccccc12)C(=O)NCCCCNC(=O)c1ccc(-c2c3nc(c(-c4c(F)c(F)c(F)c(F)c4F)c4ccc([nH]4)c(-c4c(F)c(F)c(F)c(F)c4F)c4nc(c(-c5c(F)c(F)c(F)c(F)c5F)c5ccc2[nH]5)C=C4)C=C3)cc1
REMARK SMILES IDX 22 1 21 2 20 3 18 4 19 5 3 7 4 8 2 9 1 10 5 11 6 12 7 14
REMARK SMILES IDX 8 15 9 16 17 17 10 18 12 19 16 20 11 21 13 22 15 23 14 24
REMARK SMILES IDX 23 25 24 26 25 27 26 28 27 30 28 31 29 32 90 33 30 34 89 35
REMARK SMILES IDX 31 36 32 37 33 38 83 39 34 40 88 41 82 42 84 43 35 44 87 45
REMARK SMILES IDX 81 46 80 47 36 49 68 50 48 51 67 52 49 53 52 54 66 55 85 56
REMARK SMILES IDX 50 57 51 58 65 60 86 61 53 62 37 63 38 64 46 65 39 66 40 67
REMARK SMILES IDX 44 68 47 69 41 70 42 71 45 72 43 73 69 74 70 75 78 76 71 77
REMARK SMILES IDX 72 78 76 79 79 80 73 81 74 82 77 83 75 84 54 85 55 86 63 87
REMARK SMILES IDX 56 88 57 89 61 90 64 91 58 92 59 93 62 94 60 95
REMARK H PARENT 20 6 5 13 25 29 84 48 52 59
REMARK Flexibility Score: inf
ROOT
ATOM      1  C   UNL A   1      36.449  20.387  24.990  1.00  0.00     0.023 C 
ENDROOT
BRANCH   1   2
ATOM      2  C   UNL A   1      36.350  21.765  25.647  1.00  0.00     0.116 C 
BRANCH   2   3
ATOM      3  N   UNL A   1      35.459  21.925  26.783  1.00  0.00    -0.354 N 
ATOM      4  C   UNL A   1      34.183  22.404  26.919  1.00  0.00     0.245 C 
ATOM      5  O   UNL A   1      33.617  22.088  27.972  1.00  0.00    -0.272 OA
ATOM      6  H   UNL A   1      35.855  21.626  27.634  1.00  0.00     0.163 HD
BRANCH   4   7
ATOM      7  C   UNL A   1      33.452  23.228  25.815  1.00  0.00     0.116 C 
ATOM      8  C   UNL A   1      34.208  24.585  25.788  1.00  0.00     0.045 C 
BRANCH   7   9
ATOM      9  C   UNL A   1      33.521  22.624  24.382  1.00  0.00     0.035 C 
ATOM     10  C   UNL A   1      34.049  23.502  23.253  1.00  0.00     0.007 C 
ENDBRANCH   7   9
BRANCH   7  11
ATOM     11  N   UNL A   1      32.011  23.499  26.094  1.00  0.00    -0.338 N 
ATOM     12  C   UNL A   1      31.146  24.578  26.004  1.00  0.00     0.252 C 
ATOM     13  H   UNL A   1      31.553  22.697  26.434  1.00  0.00     0.164 HD
ATOM     14  O   UNL A   1      30.140  24.446  26.708  1.00  0.00    -0.269 OA
BRANCH  12  15
ATOM     15  C   UNL A   1      31.260  25.782  25.086  1.00  0.00     0.047 A 
ATOM     16  C   UNL A   1      30.965  25.652  23.727  1.00  0.00     0.014 A 
ATOM     17  C   UNL A   1      31.476  27.116  25.583  1.00  0.00    -0.006 A 
ATOM     18  C   UNL A   1      30.857  26.728  22.852  1.00  0.00     0.001 A 
ATOM     19  C   UNL A   1      31.347  28.214  24.672  1.00  0.00    -0.018 A 
ATOM     20  C   UNL A   1      31.798  27.473  26.920  1.00  0.00     0.009 A 
ATOM     21  C   UNL A   1      31.043  28.006  23.328  1.00  0.00     0.009 A 
ATOM     22  C   UNL A   1      31.500  29.541  25.097  1.00  0.00     0.009 A 
ATOM     23  C   UNL A   1      31.944  28.805  27.331  1.00  0.00     0.001 A 
ATOM     24  C   UNL A   1      31.789  29.838  26.421  1.00  0.00     0.001 A 
ENDBRANCH  12  15
ENDBRANCH   7  11
ENDBRANCH   4   7
ENDBRANCH   2   3
ENDBRANCH   1   2
BRANCH   1  25
ATOM     25  C   UNL A   1      37.833  19.779  24.776  1.00  0.00     0.023 C 
BRANCH  25  26
ATOM     26  C   UNL A   1      38.915  20.202  25.752  1.00  0.00     0.116 C 
BRANCH  26  27
ATOM     27  N   UNL A   1      39.972  19.215  25.879  1.00  0.00    -0.352 N 
ATOM     28  C   UNL A   1      41.308  19.398  26.115  1.00  0.00     0.251 C 
ATOM     29  H   UNL A   1      39.688  18.278  25.780  1.00  0.00     0.163 HD
ATOM     30  O   UNL A   1      42.080  18.438  26.031  1.00  0.00    -0.269 OA
BRANCH  28  31
ATOM     31  C   UNL A   1      41.842  20.736  26.451  1.00  0.00     0.039 A 
ATOM     32  C   UNL A   1      42.046  21.658  25.421  1.00  0.00     0.014 A 
ATOM     33  C   UNL A   1      42.172  21.078  27.766  1.00  0.00     0.014 A 
ATOM     34  C   UNL A   1      42.535  22.932  25.712  1.00  0.00     0.010 A 
ATOM     35  C   UNL A   1      42.584  22.374  28.066  1.00  0.00     0.010 A 
ATOM     36  C   UNL A   1      42.786  23.309  27.041  1.00  0.00    -0.014 A 
BRANCH  36  37
ATOM     37  C   UNL A   1      43.289  24.666  27.374  1.00  0.00     0.031 A 
ATOM     38  C   UNL A   1      42.357  25.690  27.961  1.00  0.00     0.074 A 
ATOM     39  C   UNL A   1      44.565  24.994  27.099  1.00  0.00     0.049 A 
ATOM     40  N   UNL A   1      42.581  26.947  28.254  1.00  0.00    -0.248 NA
ATOM     41  C   UNL A   1      40.977  25.253  28.226  1.00  0.00     0.031 C 
ATOM     42  C   UNL A   1      45.554  24.103  26.489  1.00  0.00     0.029 A 
ATOM     43  N   UNL A   1      45.249  26.170  27.285  1.00  0.00    -0.354 N 
ATOM     44  C   UNL A   1      41.373  27.448  28.722  1.00  0.00     0.074 A 
ATOM     45  C   UNL A   1      40.403  26.380  28.618  1.00  0.00     0.031 C 
ATOM     46  C   UNL A   1      46.720  24.758  26.370  1.00  0.00     0.029 A 
ATOM     47  C   UNL A   1      46.553  26.123  26.859  1.00  0.00     0.049 A 
ATOM     48  H   UNL A   1      44.841  26.972  27.686  1.00  0.00     0.167 HD
ATOM     49  C   UNL A   1      41.103  28.681  29.216  1.00  0.00     0.037 A 
ATOM     50  C   UNL A   1      47.504  27.077  26.856  1.00  0.00     0.037 A 
ATOM     51  C   UNL A   1      42.078  29.732  29.341  1.00  0.00     0.049 A 
ATOM     52  C   UNL A   1      47.179  28.437  27.409  1.00  0.00     0.074 A 
ATOM     53  C   UNL A   1      41.921  30.996  29.880  1.00  0.00     0.029 A 
ATOM     54  N   UNL A   1      43.397  29.638  28.919  1.00  0.00    -0.354 N 
ATOM     55  N   UNL A   1      46.050  28.881  27.908  1.00  0.00    -0.248 NA
ATOM     56  C   UNL A   1      48.263  29.429  27.407  1.00  0.00     0.031 C 
ATOM     57  C   UNL A   1      43.130  31.684  29.742  1.00  0.00     0.029 A 
ATOM     58  C   UNL A   1      44.058  30.830  29.167  1.00  0.00     0.049 A 
ATOM     59  H   UNL A   1      43.803  28.843  28.505  1.00  0.00     0.167 HD
ATOM     60  C   UNL A   1      46.295  30.189  28.303  1.00  0.00     0.074 A 
ATOM     61  C   UNL A   1      47.684  30.463  28.001  1.00  0.00     0.031 C 
ATOM     62  C   UNL A   1      45.444  31.084  28.865  1.00  0.00     0.037 A 
BRANCH  49  63
ATOM     63  C   UNL A   1      39.697  28.955  29.665  1.00  0.00     0.064 A 
ATOM     64  C   UNL A   1      39.280  28.702  30.982  1.00  0.00     0.173 A 
ATOM     65  C   UNL A   1      38.759  29.505  28.777  1.00  0.00     0.173 A 
ATOM     66  F   UNL A   1      40.134  28.167  31.868  1.00  0.00    -0.203 F 
ATOM     67  C   UNL A   1      37.972  28.959  31.383  1.00  0.00     0.198 A 
ATOM     68  C   UNL A   1      37.460  29.790  29.191  1.00  0.00     0.198 A 
ATOM     69  F   UNL A   1      39.103  29.772  27.509  1.00  0.00    -0.203 F 
ATOM     70  F   UNL A   1      37.585  28.658  32.630  1.00  0.00    -0.200 F 
ATOM     71  C   UNL A   1      37.066  29.510  30.491  1.00  0.00     0.200 A 
ATOM     72  F   UNL A   1      36.589  30.335  28.330  1.00  0.00    -0.200 F 
ATOM     73  F   UNL A   1      35.808  29.761  30.879  1.00  0.00    -0.200 F 
ENDBRANCH  49  63
BRANCH  50  74
ATOM     74  C   UNL A   1      48.860  26.769  26.332  1.00  0.00     0.064 A 
ATOM     75  C   UNL A   1      49.178  26.983  24.984  1.00  0.00     0.173 A 
ATOM     76  C   UNL A   1      49.866  26.255  27.165  1.00  0.00     0.173 A 
ATOM     77  F   UNL A   1      48.245  27.453  24.143  1.00  0.00    -0.203 F 
ATOM     78  C   UNL A   1      50.441  26.675  24.483  1.00  0.00     0.198 A 
ATOM     79  C   UNL A   1      51.138  25.975  26.670  1.00  0.00     0.198 A 
ATOM     80  F   UNL A   1      49.615  26.037  28.465  1.00  0.00    -0.203 F 
ATOM     81  F   UNL A   1      50.704  26.845  23.180  1.00  0.00    -0.200 F 
ATOM     82  C   UNL A   1      51.422  26.177  25.328  1.00  0.00     0.200 A 
ATOM     83  F   UNL A   1      52.087  25.508  27.494  1.00  0.00    -0.200 F 
ATOM     84  F   UNL A   1      52.638  25.886  24.848  1.00  0.00    -0.200 F 
ENDBRANCH  50  74
BRANCH  62  85
ATOM     85  C   UNL A   1      46.000  32.431  29.223  1.00  0.00     0.064 A 
ATOM     86  C   UNL A   1      45.911  33.521  28.345  1.00  0.00     0.173 A 
ATOM     87  C   UNL A   1      46.594  32.644  30.476  1.00  0.00     0.173 A 
ATOM     88  F   UNL A   1      45.366  33.367  27.129  1.00  0.00    -0.203 F 
ATOM     89  C   UNL A   1      46.418  34.769  28.700  1.00  0.00     0.198 A 
ATOM     90  C   UNL A   1      47.071  33.900  30.841  1.00  0.00     0.198 A 
ATOM     91  F   UNL A   1      46.697  31.635  31.356  1.00  0.00    -0.203 F 
ATOM     92  F   UNL A   1      46.365  35.784  27.827  1.00  0.00    -0.200 F 
ATOM     93  C   UNL A   1      46.990  34.959  29.949  1.00  0.00     0.200 A 
ATOM     94  F   UNL A   1      47.610  34.084  32.053  1.00  0.00    -0.200 F 
ATOM     95  F   UNL A   1      47.471  36.162  30.292  1.00  0.00    -0.200 F 
ENDBRANCH  62  85
ENDBRANCH  36  37
ENDBRANCH  28  31
ENDBRANCH  26  27
ENDBRANCH  25  26
ENDBRANCH   1  25
TORSDOF 14
ENDMDL
