MODEL 1
REMARK VINA RESULT:     -14.3      0.000      0.000
REMARK SMILES Cc1cccc(-n2ncc(C(=O)Nc3cccc(C(=O)NCCCCNC(=O)c4ccc(-c5c6nc(c(-c7c(F)c(F)c(F)c(F)c7F)c7ccc([nH]7)c(-c7c(F)c(F)c(F)c(F)c7F)c7nc(c(-c8c(F)c(F)c(F)c(F)c8F)c8ccc5[nH]8)C=C7)C=C6)cc4)c3C)c2C)c1
REMARK SMILES IDX 23 1 22 2 21 3 19 4 20 5 18 7 14 8 15 9 92 10 16 11 93 12
REMARK SMILES IDX 17 13 13 14 11 15 12 16 10 18 7 19 8 20 94 21 9 22 95 23
REMARK SMILES IDX 6 24 1 25 2 26 3 27 96 28 4 29 5 30 24 31 25 32 26 33 27 34
REMARK SMILES IDX 28 36 29 37 30 38 91 39 31 40 90 41 32 42 33 43 34 44 84 45
REMARK SMILES IDX 35 46 89 47 83 48 85 49 36 50 88 51 82 52 81 53 37 55 69 56
REMARK SMILES IDX 49 57 68 58 50 59 53 60 67 61 86 62 51 63 52 64 66 66 87 67
REMARK SMILES IDX 54 68 38 69 39 70 47 71 40 72 41 73 45 74 48 75 42 76 43 77
REMARK SMILES IDX 46 78 44 79 70 80 71 81 79 82 72 83 73 84 77 85 80 86 74 87
REMARK SMILES IDX 75 88 78 89 76 90 55 91 56 92 64 93 57 94 58 95 62 96 65 97
REMARK SMILES IDX 59 98 60 99 63 100 61 101
REMARK H PARENT 21 6 13 17 26 35 85 54 53 65
REMARK Flexibility Score: inf
ROOT
ATOM      1  C   UNL A   1      36.497  21.329  25.085  1.00  0.00     0.023 C 
ENDROOT
BRANCH   1   2
ATOM      2  C   UNL A   1      35.392  21.656  26.088  1.00  0.00     0.116 C 
BRANCH   2   3
ATOM      3  N   UNL A   1      34.118  20.999  25.819  1.00  0.00    -0.352 N 
ATOM      4  C   UNL A   1      33.005  21.239  25.047  1.00  0.00     0.251 C 
ATOM      5  O   UNL A   1      32.185  20.318  25.026  1.00  0.00    -0.269 OA
ATOM      6  H   UNL A   1      34.033  20.158  26.324  1.00  0.00     0.163 HD
BRANCH   4   7
ATOM      7  C   UNL A   1      32.733  22.486  24.246  1.00  0.00     0.044 A 
ATOM      8  C   UNL A   1      31.252  24.295  23.560  1.00  0.00     0.045 A 
ATOM      9  C   UNL A   1      32.152  24.675  22.562  1.00  0.00     0.026 A 
ATOM     10  C   UNL A   1      31.591  23.301  24.510  1.00  0.00    -0.015 A 
ATOM     11  C   UNL A   1      33.283  23.917  22.337  1.00  0.00     0.003 A 
ATOM     12  C   UNL A   1      30.650  23.033  25.662  1.00  0.00     0.047 C 
ATOM     13  C   UNL A   1      33.507  22.786  23.116  1.00  0.00     0.014 A 
BRANCH   8  14
ATOM     14  N   UNL A   1      29.951  24.830  23.514  1.00  0.00    -0.322 N 
ATOM     15  C   UNL A   1      29.528  26.056  24.010  1.00  0.00     0.259 C 
ATOM     16  O   UNL A   1      28.320  26.236  24.161  1.00  0.00    -0.269 OA
ATOM     17  H   UNL A   1      29.264  24.273  23.081  1.00  0.00     0.170 HD
BRANCH  15  18
ATOM     18  C   UNL A   1      30.504  27.131  24.238  1.00  0.00     0.081 A 
ATOM     19  N   UNL A   1      32.027  28.491  25.156  1.00  0.00    -0.237 N 
ATOM     20  N   UNL A   1      31.733  29.047  23.955  1.00  0.00    -0.175 NA
ATOM     21  C   UNL A   1      31.200  27.402  25.417  1.00  0.00     0.054 A 
ATOM     22  C   UNL A   1      30.841  28.226  23.413  1.00  0.00     0.149 A 
ATOM     23  C   UNL A   1      31.019  26.781  26.758  1.00  0.00     0.068 C 
BRANCH  19  24
ATOM     24  C   UNL A   1      33.039  29.090  25.958  1.00  0.00     0.065 A 
ATOM     25  C   UNL A   1      33.497  32.355  27.876  1.00  0.00     0.044 C 
ATOM     26  C   UNL A   1      33.764  30.999  27.291  1.00  0.00    -0.049 A 
ATOM     27  C   UNL A   1      34.922  30.296  27.640  1.00  0.00     0.003 A 
ATOM     28  C   UNL A   1      32.839  30.401  26.425  1.00  0.00     0.031 A 
ATOM     29  C   UNL A   1      35.154  29.018  27.129  1.00  0.00     0.002 A 
ATOM     30  C   UNL A   1      34.215  28.411  26.291  1.00  0.00     0.028 A 
ENDBRANCH  19  24
ENDBRANCH  15  18
ENDBRANCH   8  14
ENDBRANCH   4   7
ENDBRANCH   2   3
ENDBRANCH   1   2
BRANCH   1  31
ATOM     31  C   UNL A   1      37.405  22.500  24.716  1.00  0.00     0.023 C 
BRANCH  31  32
ATOM     32  C   UNL A   1      37.923  23.323  25.892  1.00  0.00     0.116 C 
BRANCH  32  33
ATOM     33  N   UNL A   1      39.293  23.049  26.302  1.00  0.00    -0.352 N 
ATOM     34  C   UNL A   1      40.242  23.911  26.845  1.00  0.00     0.251 C 
ATOM     35  H   UNL A   1      39.591  22.120  26.177  1.00  0.00     0.163 HD
ATOM     36  O   UNL A   1      41.369  23.523  27.064  1.00  0.00    -0.269 OA
BRANCH  34  37
ATOM     37  C   UNL A   1      39.826  25.275  27.281  1.00  0.00     0.039 A 
ATOM     38  C   UNL A   1      40.232  26.366  26.502  1.00  0.00     0.014 A 
ATOM     39  C   UNL A   1      39.228  25.490  28.518  1.00  0.00     0.014 A 
ATOM     40  C   UNL A   1      40.291  27.633  27.080  1.00  0.00     0.010 A 
ATOM     41  C   UNL A   1      39.380  26.720  29.127  1.00  0.00     0.010 A 
ATOM     42  C   UNL A   1      39.991  27.770  28.433  1.00  0.00    -0.014 A 
BRANCH  42  43
ATOM     43  C   UNL A   1      40.425  28.902  29.245  1.00  0.00     0.031 A 
ATOM     44  C   UNL A   1      39.501  30.004  29.578  1.00  0.00     0.074 A 
ATOM     45  C   UNL A   1      41.654  28.864  29.811  1.00  0.00     0.049 A 
ATOM     46  N   UNL A   1      39.887  31.122  30.093  1.00  0.00    -0.248 NA
ATOM     47  C   UNL A   1      38.066  29.969  29.302  1.00  0.00     0.031 C 
ATOM     48  C   UNL A   1      42.158  29.688  30.910  1.00  0.00     0.029 A 
ATOM     49  N   UNL A   1      42.798  28.196  29.335  1.00  0.00    -0.354 N 
ATOM     50  C   UNL A   1      38.767  31.793  30.510  1.00  0.00     0.074 A 
ATOM     51  C   UNL A   1      37.669  31.119  29.863  1.00  0.00     0.031 C 
ATOM     52  C   UNL A   1      43.495  29.744  30.830  1.00  0.00     0.029 A 
ATOM     53  C   UNL A   1      43.875  29.084  29.596  1.00  0.00     0.049 A 
ATOM     54  H   UNL A   1      42.842  27.306  28.914  1.00  0.00     0.167 HD
ATOM     55  C   UNL A   1      38.900  32.752  31.467  1.00  0.00     0.037 A 
ATOM     56  C   UNL A   1      44.569  29.664  28.573  1.00  0.00     0.037 A 
ATOM     57  C   UNL A   1      40.294  33.171  31.616  1.00  0.00     0.049 A 
ATOM     58  C   UNL A   1      44.513  31.179  28.539  1.00  0.00     0.074 A 
ATOM     59  C   UNL A   1      41.267  33.070  32.594  1.00  0.00     0.029 A 
ATOM     60  N   UNL A   1      40.938  33.660  30.491  1.00  0.00    -0.354 N 
ATOM     61  N   UNL A   1      43.830  31.911  29.374  1.00  0.00    -0.248 NA
ATOM     62  C   UNL A   1      45.140  31.981  27.485  1.00  0.00     0.031 C 
ATOM     63  C   UNL A   1      42.519  33.441  32.007  1.00  0.00     0.029 A 
ATOM     64  C   UNL A   1      42.293  33.800  30.690  1.00  0.00     0.049 A 
ATOM     65  H   UNL A   1      40.480  33.881  29.648  1.00  0.00     0.167 HD
ATOM     66  C   UNL A   1      43.844  33.213  28.952  1.00  0.00     0.074 A 
ATOM     67  C   UNL A   1      44.688  33.213  27.773  1.00  0.00     0.031 C 
ATOM     68  C   UNL A   1      43.120  34.193  29.561  1.00  0.00     0.037 A 
BRANCH  55  69
ATOM     69  C   UNL A   1      37.785  33.247  32.359  1.00  0.00     0.064 A 
ATOM     70  C   UNL A   1      36.725  34.005  31.816  1.00  0.00     0.173 A 
ATOM     71  C   UNL A   1      37.762  33.122  33.766  1.00  0.00     0.173 A 
ATOM     72  F   UNL A   1      36.633  34.223  30.496  1.00  0.00    -0.203 F 
ATOM     73  C   UNL A   1      35.733  34.586  32.616  1.00  0.00     0.198 A 
ATOM     74  C   UNL A   1      36.738  33.650  34.555  1.00  0.00     0.198 A 
ATOM     75  F   UNL A   1      38.759  32.548  34.447  1.00  0.00    -0.203 F 
ATOM     76  F   UNL A   1      34.786  35.348  32.053  1.00  0.00    -0.200 F 
ATOM     77  C   UNL A   1      35.731  34.395  33.983  1.00  0.00     0.200 A 
ATOM     78  F   UNL A   1      36.759  33.455  35.882  1.00  0.00    -0.200 F 
ATOM     79  F   UNL A   1      34.779  34.944  34.749  1.00  0.00    -0.200 F 
ENDBRANCH  55  69
BRANCH  56  80
ATOM     80  C   UNL A   1      44.661  28.785  27.377  1.00  0.00     0.064 A 
ATOM     81  C   UNL A   1      45.520  27.670  27.433  1.00  0.00     0.173 A 
ATOM     82  C   UNL A   1      43.680  28.798  26.380  1.00  0.00     0.173 A 
ATOM     83  F   UNL A   1      46.475  27.603  28.375  1.00  0.00    -0.203 F 
ATOM     84  C   UNL A   1      45.323  26.563  26.610  1.00  0.00     0.198 A 
ATOM     85  C   UNL A   1      43.500  27.697  25.543  1.00  0.00     0.198 A 
ATOM     86  F   UNL A   1      42.814  29.818  26.292  1.00  0.00    -0.203 F 
ATOM     87  F   UNL A   1      46.075  25.465  26.776  1.00  0.00    -0.200 F 
ATOM     88  C   UNL A   1      44.295  26.568  25.683  1.00  0.00     0.200 A 
ATOM     89  F   UNL A   1      42.486  27.689  24.666  1.00  0.00    -0.200 F 
ATOM     90  F   UNL A   1      44.039  25.471  24.959  1.00  0.00    -0.200 F 
ENDBRANCH  56  80
BRANCH  68  91
ATOM     91  C   UNL A   1      43.119  35.617  29.093  1.00  0.00     0.064 A 
ATOM     92  C   UNL A   1      43.730  36.642  29.832  1.00  0.00     0.173 A 
ATOM     93  C   UNL A   1      42.400  36.011  27.947  1.00  0.00     0.173 A 
ATOM     94  F   UNL A   1      44.415  36.362  30.950  1.00  0.00    -0.203 F 
ATOM     95  C   UNL A   1      43.638  37.978  29.439  1.00  0.00     0.198 A 
ATOM     96  C   UNL A   1      42.269  37.351  27.584  1.00  0.00     0.198 A 
ATOM     97  F   UNL A   1      41.831  35.106  27.138  1.00  0.00    -0.203 F 
ATOM     98  F   UNL A   1      44.269  38.925  30.146  1.00  0.00    -0.200 F 
ATOM     99  C   UNL A   1      42.892  38.334  28.326  1.00  0.00     0.200 A 
ATOM    100  F   UNL A   1      41.538  37.680  26.509  1.00  0.00    -0.200 F 
ATOM    101  F   UNL A   1      42.783  39.619  27.967  1.00  0.00    -0.200 F 
ENDBRANCH  68  91
ENDBRANCH  42  43
ENDBRANCH  34  37
ENDBRANCH  32  33
ENDBRANCH  31  32
ENDBRANCH   1  31
TORSDOF 14
ENDMDL
MODEL 2
REMARK VINA RESULT:     -13.9      3.613      9.839
REMARK SMILES Cc1cccc(-n2ncc(C(=O)Nc3cccc(C(=O)NCCCCNC(=O)c4ccc(-c5c6nc(c(-c7c(F)c(F)c(F)c(F)c7F)c7ccc([nH]7)c(-c7c(F)c(F)c(F)c(F)c7F)c7nc(c(-c8c(F)c(F)c(F)c(F)c8F)c8ccc5[nH]8)C=C7)C=C6)cc4)c3C)c2C)c1
REMARK SMILES IDX 23 1 22 2 21 3 19 4 20 5 18 7 14 8 15 9 92 10 16 11 93 12
REMARK SMILES IDX 17 13 13 14 11 15 12 16 10 18 7 19 8 20 94 21 9 22 95 23
REMARK SMILES IDX 6 24 1 25 2 26 3 27 96 28 4 29 5 30 24 31 25 32 26 33 27 34
REMARK SMILES IDX 28 36 29 37 30 38 91 39 31 40 90 41 32 42 33 43 34 44 84 45
REMARK SMILES IDX 35 46 89 47 83 48 85 49 36 50 88 51 82 52 81 53 37 55 69 56
REMARK SMILES IDX 49 57 68 58 50 59 53 60 67 61 86 62 51 63 52 64 66 66 87 67
REMARK SMILES IDX 54 68 38 69 39 70 47 71 40 72 41 73 45 74 48 75 42 76 43 77
REMARK SMILES IDX 46 78 44 79 70 80 71 81 79 82 72 83 73 84 77 85 80 86 74 87
REMARK SMILES IDX 75 88 78 89 76 90 55 91 56 92 64 93 57 94 58 95 62 96 65 97
REMARK SMILES IDX 59 98 60 99 63 100 61 101
REMARK H PARENT 21 6 13 17 26 35 85 54 53 65
REMARK Flexibility Score: inf
ROOT
ATOM      1  C   UNL A   1      33.232  28.405  27.210  1.00  0.00     0.023 C 
ENDROOT
BRANCH   1   2
ATOM      2  C   UNL A   1      33.980  27.910  25.974  1.00  0.00     0.116 C 
BRANCH   2   3
ATOM      3  N   UNL A   1      33.501  28.468  24.715  1.00  0.00    -0.352 N 
ATOM      4  C   UNL A   1      32.766  28.033  23.636  1.00  0.00     0.251 C 
ATOM      5  O   UNL A   1      32.481  28.912  22.820  1.00  0.00    -0.269 OA
ATOM      6  H   UNL A   1      33.776  29.407  24.609  1.00  0.00     0.163 HD
BRANCH   4   7
ATOM      7  C   UNL A   1      32.291  26.622  23.398  1.00  0.00     0.044 A 
ATOM      8  C   UNL A   1      31.001  24.668  24.073  1.00  0.00     0.045 A 
ATOM      9  C   UNL A   1      31.605  23.904  23.072  1.00  0.00     0.026 A 
ATOM     10  C   UNL A   1      31.217  26.065  24.156  1.00  0.00    -0.015 A 
ATOM     11  C   UNL A   1      32.610  24.455  22.304  1.00  0.00     0.003 A 
ATOM     12  C   UNL A   1      30.424  26.874  25.156  1.00  0.00     0.047 C 
ATOM     13  C   UNL A   1      33.001  25.770  22.541  1.00  0.00     0.014 A 
BRANCH   8  14
ATOM     14  N   UNL A   1      30.281  23.992  25.076  1.00  0.00    -0.322 N 
ATOM     15  C   UNL A   1      30.734  22.959  25.884  1.00  0.00     0.259 C 
ATOM     16  O   UNL A   1      29.900  22.284  26.487  1.00  0.00    -0.269 OA
ATOM     17  H   UNL A   1      29.352  24.285  25.220  1.00  0.00     0.170 HD
BRANCH  15  18
ATOM     18  C   UNL A   1      32.177  22.764  26.087  1.00  0.00     0.081 A 
ATOM     19  N   UNL A   1      34.280  22.005  25.971  1.00  0.00    -0.237 N 
ATOM     20  N   UNL A   1      34.290  22.928  26.964  1.00  0.00    -0.175 NA
ATOM     21  C   UNL A   1      32.984  21.784  25.509  1.00  0.00     0.054 A 
ATOM     22  C   UNL A   1      33.044  23.383  27.014  1.00  0.00     0.149 A 
ATOM     23  C   UNL A   1      32.569  20.617  24.683  1.00  0.00     0.068 C 
BRANCH  19  24
ATOM     24  C   UNL A   1      35.506  21.387  25.597  1.00  0.00     0.065 A 
ATOM     25  C   UNL A   1      39.225  22.160  25.930  1.00  0.00     0.044 C 
ATOM     26  C   UNL A   1      37.943  21.470  25.570  1.00  0.00    -0.049 A 
ATOM     27  C   UNL A   1      37.965  20.193  25.001  1.00  0.00     0.003 A 
ATOM     28  C   UNL A   1      36.708  22.074  25.839  1.00  0.00     0.031 A 
ATOM     29  C   UNL A   1      36.773  19.531  24.702  1.00  0.00     0.002 A 
ATOM     30  C   UNL A   1      35.542  20.123  25.000  1.00  0.00     0.028 A 
ENDBRANCH  19  24
ENDBRANCH  15  18
ENDBRANCH   8  14
ENDBRANCH   4   7
ENDBRANCH   2   3
ENDBRANCH   1   2
BRANCH   1  31
ATOM     31  C   UNL A   1      32.969  29.909  27.251  1.00  0.00     0.023 C 
BRANCH  31  32
ATOM     32  C   UNL A   1      34.204  30.794  27.096  1.00  0.00     0.116 C 
BRANCH  32  33
ATOM     33  N   UNL A   1      34.575  31.573  28.269  1.00  0.00    -0.352 N 
ATOM     34  C   UNL A   1      35.473  31.262  29.287  1.00  0.00     0.251 C 
ATOM     35  H   UNL A   1      34.128  32.444  28.354  1.00  0.00     0.163 HD
ATOM     36  O   UNL A   1      35.609  32.005  30.233  1.00  0.00    -0.269 OA
BRANCH  34  37
ATOM     37  C   UNL A   1      36.365  30.076  29.137  1.00  0.00     0.039 A 
ATOM     38  C   UNL A   1      36.662  29.328  30.284  1.00  0.00     0.014 A 
ATOM     39  C   UNL A   1      37.046  29.825  27.951  1.00  0.00     0.014 A 
ATOM     40  C   UNL A   1      37.812  28.541  30.308  1.00  0.00     0.010 A 
ATOM     41  C   UNL A   1      38.239  29.131  28.001  1.00  0.00     0.010 A 
ATOM     42  C   UNL A   1      38.662  28.560  29.206  1.00  0.00    -0.014 A 
BRANCH  42  43
ATOM     43  C   UNL A   1      40.064  28.159  29.262  1.00  0.00     0.031 A 
ATOM     44  C   UNL A   1      40.488  26.799  28.873  1.00  0.00     0.074 A 
ATOM     45  C   UNL A   1      40.999  29.097  29.543  1.00  0.00     0.049 A 
ATOM     46  N   UNL A   1      41.664  26.326  29.115  1.00  0.00    -0.248 NA
ATOM     47  C   UNL A   1      39.603  25.827  28.235  1.00  0.00     0.031 C 
ATOM     48  C   UNL A   1      42.442  29.016  29.319  1.00  0.00     0.029 A 
ATOM     49  N   UNL A   1      40.840  30.262  30.317  1.00  0.00    -0.354 N 
ATOM     50  C   UNL A   1      41.797  25.165  28.399  1.00  0.00     0.074 A 
ATOM     51  C   UNL A   1      40.455  24.820  28.001  1.00  0.00     0.031 C 
ATOM     52  C   UNL A   1      43.059  29.847  30.171  1.00  0.00     0.029 A 
ATOM     53  C   UNL A   1      42.044  30.371  31.063  1.00  0.00     0.049 A 
ATOM     54  H   UNL A   1      40.064  30.869  30.336  1.00  0.00     0.167 HD
ATOM     55  C   UNL A   1      43.049  24.716  28.113  1.00  0.00     0.037 A 
ATOM     56  C   UNL A   1      42.041  30.235  32.422  1.00  0.00     0.037 A 
ATOM     57  C   UNL A   1      44.056  25.359  28.958  1.00  0.00     0.049 A 
ATOM     58  C   UNL A   1      42.877  29.087  32.952  1.00  0.00     0.074 A 
ATOM     59  C   UNL A   1      45.102  26.243  28.767  1.00  0.00     0.029 A 
ATOM     60  N   UNL A   1      43.909  25.238  30.331  1.00  0.00    -0.354 N 
ATOM     61  N   UNL A   1      43.529  28.242  32.203  1.00  0.00    -0.248 NA
ATOM     62  C   UNL A   1      42.952  28.739  34.373  1.00  0.00     0.031 C 
ATOM     63  C   UNL A   1      45.530  26.703  30.054  1.00  0.00     0.029 A 
ATOM     64  C   UNL A   1      44.767  26.068  31.018  1.00  0.00     0.049 A 
ATOM     65  H   UNL A   1      43.267  24.631  30.763  1.00  0.00     0.167 HD
ATOM     66  C   UNL A   1      44.020  27.230  32.983  1.00  0.00     0.074 A 
ATOM     67  C   UNL A   1      43.647  27.590  34.338  1.00  0.00     0.031 C 
ATOM     68  C   UNL A   1      44.649  26.138  32.465  1.00  0.00     0.037 A 
BRANCH  55  69
ATOM     69  C   UNL A   1      43.394  23.767  26.989  1.00  0.00     0.064 A 
ATOM     70  C   UNL A   1      42.994  22.415  27.053  1.00  0.00     0.173 A 
ATOM     71  C   UNL A   1      44.219  24.088  25.887  1.00  0.00     0.173 A 
ATOM     72  F   UNL A   1      42.228  21.965  28.057  1.00  0.00    -0.203 F 
ATOM     73  C   UNL A   1      43.390  21.470  26.098  1.00  0.00     0.198 A 
ATOM     74  C   UNL A   1      44.560  23.158  24.903  1.00  0.00     0.198 A 
ATOM     75  F   UNL A   1      44.788  25.290  25.749  1.00  0.00    -0.203 F 
ATOM     76  F   UNL A   1      43.032  20.187  26.243  1.00  0.00    -0.200 F 
ATOM     77  C   UNL A   1      44.158  21.845  25.014  1.00  0.00     0.200 A 
ATOM     78  F   UNL A   1      45.312  23.544  23.861  1.00  0.00    -0.200 F 
ATOM     79  F   UNL A   1      44.531  20.945  24.095  1.00  0.00    -0.200 F 
ENDBRANCH  55  69
BRANCH  56  80
ATOM     80  C   UNL A   1      40.784  30.735  33.041  1.00  0.00     0.064 A 
ATOM     81  C   UNL A   1      40.572  32.127  33.090  1.00  0.00     0.173 A 
ATOM     82  C   UNL A   1      39.675  29.903  33.224  1.00  0.00     0.173 A 
ATOM     83  F   UNL A   1      41.601  32.971  32.915  1.00  0.00    -0.203 F 
ATOM     84  C   UNL A   1      39.288  32.659  33.187  1.00  0.00     0.198 A 
ATOM     85  C   UNL A   1      38.393  30.441  33.344  1.00  0.00     0.198 A 
ATOM     86  F   UNL A   1      39.807  28.570  33.161  1.00  0.00    -0.203 F 
ATOM     87  F   UNL A   1      39.106  33.985  33.099  1.00  0.00    -0.200 F 
ATOM     88  C   UNL A   1      38.197  31.813  33.288  1.00  0.00     0.200 A 
ATOM     89  F   UNL A   1      37.334  29.622  33.410  1.00  0.00    -0.200 F 
ATOM     90  F   UNL A   1      36.955  32.316  33.283  1.00  0.00    -0.200 F 
ENDBRANCH  56  80
BRANCH  68  91
ATOM     91  C   UNL A   1      45.173  25.020  33.313  1.00  0.00     0.064 A 
ATOM     92  C   UNL A   1      46.534  24.910  33.638  1.00  0.00     0.173 A 
ATOM     93  C   UNL A   1      44.341  23.959  33.725  1.00  0.00     0.173 A 
ATOM     94  F   UNL A   1      47.404  25.860  33.266  1.00  0.00    -0.203 F 
ATOM     95  C   UNL A   1      47.028  23.812  34.344  1.00  0.00     0.198 A 
ATOM     96  C   UNL A   1      44.845  22.841  34.387  1.00  0.00     0.198 A 
ATOM     97  F   UNL A   1      43.016  23.995  33.519  1.00  0.00    -0.203 F 
ATOM     98  F   UNL A   1      48.326  23.760  34.672  1.00  0.00    -0.200 F 
ATOM     99  C   UNL A   1      46.188  22.769  34.702  1.00  0.00     0.200 A 
ATOM    100  F   UNL A   1      44.021  21.838  34.721  1.00  0.00    -0.200 F 
ATOM    101  F   UNL A   1      46.669  21.704  35.356  1.00  0.00    -0.200 F 
ENDBRANCH  68  91
ENDBRANCH  42  43
ENDBRANCH  34  37
ENDBRANCH  32  33
ENDBRANCH  31  32
ENDBRANCH   1  31
TORSDOF 14
ENDMDL
MODEL 3
REMARK VINA RESULT:     -13.7      0.966      1.958
REMARK SMILES Cc1cccc(-n2ncc(C(=O)Nc3cccc(C(=O)NCCCCNC(=O)c4ccc(-c5c6nc(c(-c7c(F)c(F)c(F)c(F)c7F)c7ccc([nH]7)c(-c7c(F)c(F)c(F)c(F)c7F)c7nc(c(-c8c(F)c(F)c(F)c(F)c8F)c8ccc5[nH]8)C=C7)C=C6)cc4)c3C)c2C)c1
REMARK SMILES IDX 23 1 22 2 21 3 19 4 20 5 18 7 14 8 15 9 92 10 16 11 93 12
REMARK SMILES IDX 17 13 13 14 11 15 12 16 10 18 7 19 8 20 94 21 9 22 95 23
REMARK SMILES IDX 6 24 1 25 2 26 3 27 96 28 4 29 5 30 24 31 25 32 26 33 27 34
REMARK SMILES IDX 28 36 29 37 30 38 91 39 31 40 90 41 32 42 33 43 34 44 84 45
REMARK SMILES IDX 35 46 89 47 83 48 85 49 36 50 88 51 82 52 81 53 37 55 69 56
REMARK SMILES IDX 49 57 68 58 50 59 53 60 67 61 86 62 51 63 52 64 66 66 87 67
REMARK SMILES IDX 54 68 38 69 39 70 47 71 40 72 41 73 45 74 48 75 42 76 43 77
REMARK SMILES IDX 46 78 44 79 70 80 71 81 79 82 72 83 73 84 77 85 80 86 74 87
REMARK SMILES IDX 75 88 78 89 76 90 55 91 56 92 64 93 57 94 58 95 62 96 65 97
REMARK SMILES IDX 59 98 60 99 63 100 61 101
REMARK H PARENT 21 6 13 17 26 35 85 54 53 65
REMARK Flexibility Score: inf
ROOT
ATOM      1  C   UNL A   1      36.440  21.968  24.781  1.00  0.00     0.023 C 
ENDROOT
BRANCH   1   2
ATOM      2  C   UNL A   1      35.332  21.513  25.729  1.00  0.00     0.116 C 
BRANCH   2   3
ATOM      3  N   UNL A   1      34.180  20.913  25.067  1.00  0.00    -0.352 N 
ATOM      4  C   UNL A   1      33.210  21.310  24.177  1.00  0.00     0.251 C 
ATOM      5  O   UNL A   1      32.478  20.403  23.775  1.00  0.00    -0.269 OA
ATOM      6  H   UNL A   1      34.067  19.970  25.327  1.00  0.00     0.163 HD
BRANCH   4   7
ATOM      7  C   UNL A   1      32.996  22.712  23.666  1.00  0.00     0.044 A 
ATOM      8  C   UNL A   1      31.553  24.633  23.261  1.00  0.00     0.045 A 
ATOM      9  C   UNL A   1      32.548  25.237  22.488  1.00  0.00     0.026 A 
ATOM     10  C   UNL A   1      31.812  23.442  23.983  1.00  0.00    -0.015 A 
ATOM     11  C   UNL A   1      33.715  24.553  22.221  1.00  0.00     0.003 A 
ATOM     12  C   UNL A   1      30.757  22.911  24.926  1.00  0.00     0.047 C 
ATOM     13  C   UNL A   1      33.882  23.269  22.733  1.00  0.00     0.014 A 
BRANCH   8  14
ATOM     14  N   UNL A   1      30.252  25.166  23.195  1.00  0.00    -0.322 N 
ATOM     15  C   UNL A   1      29.606  25.927  24.160  1.00  0.00     0.259 C 
ATOM     16  O   UNL A   1      28.384  26.051  24.080  1.00  0.00    -0.269 OA
ATOM     17  H   UNL A   1      29.743  24.977  22.374  1.00  0.00     0.170 HD
BRANCH  15  18
ATOM     18  C   UNL A   1      30.390  26.645  25.174  1.00  0.00     0.081 A 
ATOM     19  N   UNL A   1      31.685  28.135  26.231  1.00  0.00    -0.237 N 
ATOM     20  N   UNL A   1      31.499  27.131  27.123  1.00  0.00    -0.175 NA
ATOM     21  C   UNL A   1      31.138  27.810  24.992  1.00  0.00     0.054 A 
ATOM     22  C   UNL A   1      30.718  26.261  26.493  1.00  0.00     0.149 A 
ATOM     23  C   UNL A   1      31.450  28.515  23.719  1.00  0.00     0.068 C 
BRANCH  19  24
ATOM     24  C   UNL A   1      32.413  29.288  26.639  1.00  0.00     0.065 A 
ATOM     25  C   UNL A   1      31.775  33.039  26.886  1.00  0.00     0.044 C 
ATOM     26  C   UNL A   1      32.458  31.706  26.953  1.00  0.00    -0.049 A 
ATOM     27  C   UNL A   1      33.729  31.592  27.527  1.00  0.00     0.003 A 
ATOM     28  C   UNL A   1      31.818  30.551  26.484  1.00  0.00     0.031 A 
ATOM     29  C   UNL A   1      34.351  30.347  27.627  1.00  0.00     0.002 A 
ATOM     30  C   UNL A   1      33.697  29.192  27.187  1.00  0.00     0.028 A 
ENDBRANCH  19  24
ENDBRANCH  15  18
ENDBRANCH   8  14
ENDBRANCH   4   7
ENDBRANCH   2   3
ENDBRANCH   1   2
BRANCH   1  31
ATOM     31  C   UNL A   1      37.861  21.804  25.317  1.00  0.00     0.023 C 
BRANCH  31  32
ATOM     32  C   UNL A   1      38.409  22.998  26.095  1.00  0.00     0.116 C 
BRANCH  32  33
ATOM     33  N   UNL A   1      39.840  22.974  26.365  1.00  0.00    -0.352 N 
ATOM     34  C   UNL A   1      40.694  24.024  26.694  1.00  0.00     0.251 C 
ATOM     35  H   UNL A   1      40.264  22.089  26.308  1.00  0.00     0.163 HD
ATOM     36  O   UNL A   1      41.883  23.831  26.818  1.00  0.00    -0.269 OA
BRANCH  34  37
ATOM     37  C   UNL A   1      40.117  25.359  27.026  1.00  0.00     0.039 A 
ATOM     38  C   UNL A   1      40.578  26.471  26.308  1.00  0.00     0.014 A 
ATOM     39  C   UNL A   1      39.300  25.540  28.136  1.00  0.00     0.014 A 
ATOM     40  C   UNL A   1      40.450  27.742  26.863  1.00  0.00     0.010 A 
ATOM     41  C   UNL A   1      39.262  26.782  28.739  1.00  0.00     0.010 A 
ATOM     42  C   UNL A   1      39.912  27.868  28.141  1.00  0.00    -0.014 A 
BRANCH  42  43
ATOM     43  C   UNL A   1      40.122  29.033  28.994  1.00  0.00     0.031 A 
ATOM     44  C   UNL A   1      39.130  30.125  29.055  1.00  0.00     0.074 A 
ATOM     45  C   UNL A   1      41.176  29.038  29.843  1.00  0.00     0.049 A 
ATOM     46  N   UNL A   1      39.366  31.267  29.609  1.00  0.00    -0.248 NA
ATOM     47  C   UNL A   1      37.806  30.053  28.440  1.00  0.00     0.031 C 
ATOM     48  C   UNL A   1      41.388  29.905  31.001  1.00  0.00     0.029 A 
ATOM     49  N   UNL A   1      42.410  28.378  29.682  1.00  0.00    -0.354 N 
ATOM     50  C   UNL A   1      38.170  31.926  29.718  1.00  0.00     0.074 A 
ATOM     51  C   UNL A   1      37.271  31.210  28.848  1.00  0.00     0.031 C 
ATOM     52  C   UNL A   1      42.704  29.987  31.246  1.00  0.00     0.029 A 
ATOM     53  C   UNL A   1      43.380  29.297  30.165  1.00  0.00     0.049 A 
ATOM     54  H   UNL A   1      42.566  27.478  29.316  1.00  0.00     0.167 HD
ATOM     55  C   UNL A   1      38.054  32.917  30.644  1.00  0.00     0.037 A 
ATOM     56  C   UNL A   1      44.295  29.859  29.321  1.00  0.00     0.037 A 
ATOM     57  C   UNL A   1      39.365  33.369  31.113  1.00  0.00     0.049 A 
ATOM     58  C   UNL A   1      44.230  31.370  29.222  1.00  0.00     0.074 A 
ATOM     59  C   UNL A   1      40.072  33.318  32.300  1.00  0.00     0.029 A 
ATOM     60  N   UNL A   1      40.257  33.836  30.161  1.00  0.00    -0.354 N 
ATOM     61  N   UNL A   1      43.355  32.114  29.840  1.00  0.00    -0.248 NA
ATOM     62  C   UNL A   1      45.084  32.152  28.324  1.00  0.00     0.031 C 
ATOM     63  C   UNL A   1      41.425  33.697  32.022  1.00  0.00     0.029 A 
ATOM     64  C   UNL A   1      41.521  34.010  30.678  1.00  0.00     0.049 A 
ATOM     65  H   UNL A   1      40.014  34.022  29.225  1.00  0.00     0.167 HD
ATOM     66  C   UNL A   1      43.455  33.402  29.389  1.00  0.00     0.074 A 
ATOM     67  C   UNL A   1      44.560  33.383  28.451  1.00  0.00     0.031 C 
ATOM     68  C   UNL A   1      42.592  34.385  29.770  1.00  0.00     0.037 A 
BRANCH  55  69
ATOM     69  C   UNL A   1      36.750  33.416  31.222  1.00  0.00     0.064 A 
ATOM     70  C   UNL A   1      36.409  33.127  32.561  1.00  0.00     0.173 A 
ATOM     71  C   UNL A   1      35.738  34.069  30.482  1.00  0.00     0.173 A 
ATOM     72  F   UNL A   1      37.265  32.490  33.372  1.00  0.00    -0.203 F 
ATOM     73  C   UNL A   1      35.164  33.463  33.106  1.00  0.00     0.198 A 
ATOM     74  C   UNL A   1      34.522  34.459  31.046  1.00  0.00     0.198 A 
ATOM     75  F   UNL A   1      35.850  34.298  29.170  1.00  0.00    -0.203 F 
ATOM     76  F   UNL A   1      34.871  33.108  34.365  1.00  0.00    -0.200 F 
ATOM     77  C   UNL A   1      34.227  34.143  32.354  1.00  0.00     0.200 A 
ATOM     78  F   UNL A   1      33.624  35.114  30.295  1.00  0.00    -0.200 F 
ATOM     79  F   UNL A   1      33.038  34.472  32.877  1.00  0.00    -0.200 F 
ENDBRANCH  55  69
BRANCH  56  80
ATOM     80  C   UNL A   1      44.685  28.945  28.215  1.00  0.00     0.064 A 
ATOM     81  C   UNL A   1      45.485  27.827  28.523  1.00  0.00     0.173 A 
ATOM     82  C   UNL A   1      44.000  28.935  26.995  1.00  0.00     0.173 A 
ATOM     83  F   UNL A   1      46.160  27.782  29.683  1.00  0.00    -0.203 F 
ATOM     84  C   UNL A   1      45.496  26.699  27.707  1.00  0.00     0.198 A 
ATOM     85  C   UNL A   1      44.032  27.812  26.169  1.00  0.00     0.198 A 
ATOM     86  F   UNL A   1      43.201  29.958  26.656  1.00  0.00    -0.203 F 
ATOM     87  F   UNL A   1      46.164  25.601  28.092  1.00  0.00    -0.200 F 
ATOM     88  C   UNL A   1      44.747  26.683  26.542  1.00  0.00     0.200 A 
ATOM     89  F   UNL A   1      43.283  27.784  25.057  1.00  0.00    -0.200 F 
ATOM     90  F   UNL A   1      44.676  25.567  25.805  1.00  0.00    -0.200 F 
ENDBRANCH  56  80
BRANCH  68  91
ATOM     91  C   UNL A   1      42.688  35.794  29.267  1.00  0.00     0.064 A 
ATOM     92  C   UNL A   1      42.049  36.206  28.087  1.00  0.00     0.173 A 
ATOM     93  C   UNL A   1      43.524  36.741  29.892  1.00  0.00     0.173 A 
ATOM     94  F   UNL A   1      41.254  35.363  27.412  1.00  0.00    -0.203 F 
ATOM     95  C   UNL A   1      42.225  37.492  27.573  1.00  0.00     0.198 A 
ATOM     96  C   UNL A   1      43.737  38.008  29.351  1.00  0.00     0.198 A 
ATOM     97  F   UNL A   1      44.132  36.470  31.056  1.00  0.00    -0.203 F 
ATOM     98  F   UNL A   1      41.567  37.863  26.467  1.00  0.00    -0.200 F 
ATOM     99  C   UNL A   1      43.083  38.385  28.195  1.00  0.00     0.200 A 
ATOM    100  F   UNL A   1      44.575  38.859  29.960  1.00  0.00    -0.200 F 
ATOM    101  F   UNL A   1      43.272  39.610  27.685  1.00  0.00    -0.200 F 
ENDBRANCH  68  91
ENDBRANCH  42  43
ENDBRANCH  34  37
ENDBRANCH  32  33
ENDBRANCH  31  32
ENDBRANCH   1  31
TORSDOF 14
ENDMDL
