MODEL 1
REMARK VINA RESULT:     -11.3      0.000      0.000
REMARK SMILES Cc1csc(C[NH2+]C2(C(=O)NCCCCNC(=O)c3ccc(-c4c5nc(c(-c6c(F)c(F)c(F)c(F)c6F)c6ccc([nH]6)c(-c6c(F)c(F)c(F)c(F)c6F)c6nc(c(-c7c(F)c(F)c(F)c(F)c7F)c7ccc4[nH]7)C=C6)C=C5)cc3)CC2)n1
REMARK SMILES IDX 13 1 12 2 11 3 9 4 10 5 8 7 82 8 83 9 7 10 6 13 5 14 1 15
REMARK SMILES IDX 2 16 3 17 84 18 4 19 14 20 15 21 16 22 17 23 18 25 19 26
REMARK SMILES IDX 20 27 81 28 21 29 80 30 22 31 23 32 24 33 74 34 25 35 79 36
REMARK SMILES IDX 73 37 75 38 26 39 78 40 72 41 71 42 27 44 59 45 39 46 58 47
REMARK SMILES IDX 40 48 43 49 57 50 76 51 41 52 42 53 56 55 77 56 44 57 28 58
REMARK SMILES IDX 29 59 37 60 30 61 31 62 35 63 38 64 32 65 33 66 36 67 34 68
REMARK SMILES IDX 60 69 61 70 69 71 62 72 63 73 67 74 70 75 64 76 65 77 68 78
REMARK SMILES IDX 66 79 45 80 46 81 54 82 47 83 48 84 52 85 55 86 49 87 50 88
REMARK SMILES IDX 53 89 51 90
REMARK H PARENT 11 6 7 11 7 12 16 24 75 43 43 54
REMARK Flexibility Score: inf
ROOT
ATOM      1  C   UNL A   1      31.643  30.159  26.661  1.00  0.00     0.023 C 
ENDROOT
BRANCH   1   2
ATOM      2  C   UNL A   1      32.823  29.596  25.857  1.00  0.00     0.116 C 
BRANCH   2   3
ATOM      3  N   UNL A   1      32.690  29.769  24.426  1.00  0.00    -0.351 N 
ATOM      4  C   UNL A   1      32.791  28.731  23.532  1.00  0.00     0.281 C 
ATOM      5  O   UNL A   1      33.787  28.749  22.810  1.00  0.00    -0.268 OA
ATOM      6  H   UNL A   1      32.518  30.673  24.077  1.00  0.00     0.163 HD
BRANCH   4   7
ATOM      7  C   UNL A   1      31.663  27.687  23.391  1.00  0.00     0.176 C 
ATOM      8  C   UNL A   1      31.953  26.224  23.720  1.00  0.00     0.086 C 
ATOM      9  C   UNL A   1      31.771  26.638  22.294  1.00  0.00     0.086 C 
BRANCH   7  10
ATOM     10  N   UNL A   1      30.245  28.135  23.721  1.00  0.00    -0.328 N 
ATOM     11  H   UNL A   1      29.815  27.420  24.307  1.00  0.00     0.347 HD
ATOM     12  H   UNL A   1      30.331  29.039  24.185  1.00  0.00     0.347 HD
BRANCH  10  13
ATOM     13  C   UNL A   1      29.377  28.352  22.556  1.00  0.00     0.330 C 
BRANCH  13  14
ATOM     14  C   UNL A   1      28.805  29.732  22.364  1.00  0.00     0.147 A 
ATOM     15  C   UNL A   1      27.841  32.294  20.033  1.00  0.00     0.067 C 
ATOM     16  C   UNL A   1      28.264  31.576  21.261  1.00  0.00     0.049 A 
ATOM     17  C   UNL A   1      28.718  32.149  22.432  1.00  0.00     0.090 A 
ATOM     18  N   UNL A   1      28.273  30.190  21.249  1.00  0.00    -0.240 NA
ATOM     19  S   UNL A   1      29.128  30.935  23.562  1.00  0.00    -0.121 S 
ENDBRANCH  13  14
ENDBRANCH  10  13
ENDBRANCH   7  10
ENDBRANCH   4   7
ENDBRANCH   2   3
ENDBRANCH   1   2
BRANCH   1  20
ATOM     20  C   UNL A   1      31.460  31.682  26.660  1.00  0.00     0.023 C 
BRANCH  20  21
ATOM     21  C   UNL A   1      32.703  32.519  26.926  1.00  0.00     0.116 C 
BRANCH  21  22
ATOM     22  N   UNL A   1      32.404  33.818  27.497  1.00  0.00    -0.352 N 
ATOM     23  C   UNL A   1      33.048  34.516  28.485  1.00  0.00     0.251 C 
ATOM     24  H   UNL A   1      31.615  34.268  27.116  1.00  0.00     0.163 HD
ATOM     25  O   UNL A   1      32.576  35.578  28.878  1.00  0.00    -0.269 OA
BRANCH  23  26
ATOM     26  C   UNL A   1      34.279  33.984  29.112  1.00  0.00     0.039 A 
ATOM     27  C   UNL A   1      34.136  32.979  30.074  1.00  0.00     0.014 A 
ATOM     28  C   UNL A   1      35.552  34.465  28.793  1.00  0.00     0.014 A 
ATOM     29  C   UNL A   1      35.266  32.432  30.681  1.00  0.00     0.010 A 
ATOM     30  C   UNL A   1      36.685  33.866  29.344  1.00  0.00     0.010 A 
ATOM     31  C   UNL A   1      36.552  32.847  30.300  1.00  0.00    -0.014 A 
BRANCH  31  32
ATOM     32  C   UNL A   1      37.749  32.205  30.904  1.00  0.00     0.031 A 
ATOM     33  C   UNL A   1      38.204  32.570  32.290  1.00  0.00     0.074 A 
ATOM     34  C   UNL A   1      38.425  31.282  30.192  1.00  0.00     0.049 A 
ATOM     35  N   UNL A   1      39.179  32.060  33.000  1.00  0.00    -0.248 NA
ATOM     36  C   UNL A   1      37.485  33.663  32.961  1.00  0.00     0.031 C 
ATOM     37  C   UNL A   1      38.118  30.888  28.816  1.00  0.00     0.029 A 
ATOM     38  N   UNL A   1      39.500  30.498  30.530  1.00  0.00    -0.354 N 
ATOM     39  C   UNL A   1      39.187  32.766  34.196  1.00  0.00     0.074 A 
ATOM     40  C   UNL A   1      38.164  33.783  34.091  1.00  0.00     0.031 C 
ATOM     41  C   UNL A   1      38.953  29.905  28.444  1.00  0.00     0.029 A 
ATOM     42  C   UNL A   1      39.873  29.622  29.541  1.00  0.00     0.049 A 
ATOM     43  H   UNL A   1      39.959  30.558  31.399  1.00  0.00     0.167 HD
ATOM     44  C   UNL A   1      39.957  32.564  35.293  1.00  0.00     0.037 A 
ATOM     45  C   UNL A   1      40.842  28.687  29.523  1.00  0.00     0.037 A 
ATOM     46  C   UNL A   1      40.970  31.545  35.395  1.00  0.00     0.049 A 
ATOM     47  C   UNL A   1      41.682  28.487  30.755  1.00  0.00     0.074 A 
ATOM     48  C   UNL A   1      41.775  31.230  36.476  1.00  0.00     0.029 A 
ATOM     49  N   UNL A   1      41.322  30.676  34.371  1.00  0.00    -0.354 N 
ATOM     50  N   UNL A   1      41.624  29.104  31.911  1.00  0.00    -0.248 NA
ATOM     51  C   UNL A   1      42.714  27.444  30.685  1.00  0.00     0.031 C 
ATOM     52  C   UNL A   1      42.650  30.209  36.090  1.00  0.00     0.029 A 
ATOM     53  C   UNL A   1      42.347  29.841  34.789  1.00  0.00     0.049 A 
ATOM     54  H   UNL A   1      40.906  30.656  33.480  1.00  0.00     0.167 HD
ATOM     55  C   UNL A   1      42.589  28.507  32.712  1.00  0.00     0.074 A 
ATOM     56  C   UNL A   1      43.195  27.458  31.918  1.00  0.00     0.031 C 
ATOM     57  C   UNL A   1      42.943  28.801  33.988  1.00  0.00     0.037 A 
BRANCH  44  58
ATOM     58  C   UNL A   1      39.729  33.461  36.478  1.00  0.00     0.064 A 
ATOM     59  C   UNL A   1      40.365  34.708  36.589  1.00  0.00     0.173 A 
ATOM     60  C   UNL A   1      38.834  33.092  37.494  1.00  0.00     0.173 A 
ATOM     61  F   UNL A   1      41.239  35.107  35.652  1.00  0.00    -0.203 F 
ATOM     62  C   UNL A   1      40.134  35.537  37.685  1.00  0.00     0.198 A 
ATOM     63  C   UNL A   1      38.581  33.939  38.571  1.00  0.00     0.198 A 
ATOM     64  F   UNL A   1      38.195  31.914  37.437  1.00  0.00    -0.203 F 
ATOM     65  F   UNL A   1      40.793  36.700  37.792  1.00  0.00    -0.200 F 
ATOM     66  C   UNL A   1      39.237  35.156  38.671  1.00  0.00     0.200 A 
ATOM     67  F   UNL A   1      37.702  33.574  39.515  1.00  0.00    -0.200 F 
ATOM     68  F   UNL A   1      39.009  35.959  39.718  1.00  0.00    -0.200 F 
ENDBRANCH  44  58
BRANCH  45  69
ATOM     69  C   UNL A   1      41.048  27.846  28.315  1.00  0.00     0.064 A 
ATOM     70  C   UNL A   1      40.426  26.594  28.191  1.00  0.00     0.173 A 
ATOM     71  C   UNL A   1      41.886  28.261  27.270  1.00  0.00     0.173 A 
ATOM     72  F   UNL A   1      39.631  26.142  29.172  1.00  0.00    -0.203 F 
ATOM     73  C   UNL A   1      40.661  25.778  27.086  1.00  0.00     0.198 A 
ATOM     74  C   UNL A   1      42.092  27.460  26.149  1.00  0.00     0.198 A 
ATOM     75  F   UNL A   1      42.499  29.452  27.334  1.00  0.00    -0.203 F 
ATOM     76  F   UNL A   1      40.102  24.562  27.024  1.00  0.00    -0.200 F 
ATOM     77  C   UNL A   1      41.490  26.214  26.064  1.00  0.00     0.200 A 
ATOM     78  F   UNL A   1      42.880  27.893  25.155  1.00  0.00    -0.200 F 
ATOM     79  F   UNL A   1      41.715  25.429  25.001  1.00  0.00    -0.200 F 
ENDBRANCH  45  69
BRANCH  57  80
ATOM     80  C   UNL A   1      44.012  27.948  34.611  1.00  0.00     0.064 A 
ATOM     81  C   UNL A   1      43.711  26.740  35.262  1.00  0.00     0.173 A 
ATOM     82  C   UNL A   1      45.358  28.346  34.561  1.00  0.00     0.173 A 
ATOM     83  F   UNL A   1      42.440  26.319  35.350  1.00  0.00    -0.203 F 
ATOM     84  C   UNL A   1      44.709  25.993  35.882  1.00  0.00     0.198 A 
ATOM     85  C   UNL A   1      46.357  27.575  35.147  1.00  0.00     0.198 A 
ATOM     86  F   UNL A   1      45.703  29.485  33.942  1.00  0.00    -0.203 F 
ATOM     87  F   UNL A   1      44.386  24.885  36.563  1.00  0.00    -0.200 F 
ATOM     88  C   UNL A   1      46.030  26.409  35.821  1.00  0.00     0.200 A 
ATOM     89  F   UNL A   1      47.635  27.969  35.072  1.00  0.00    -0.200 F 
ATOM     90  F   UNL A   1      46.988  25.690  36.422  1.00  0.00    -0.200 F 
ENDBRANCH  57  80
ENDBRANCH  31  32
ENDBRANCH  23  26
ENDBRANCH  21  22
ENDBRANCH  20  21
ENDBRANCH   1  20
TORSDOF 14
ENDMDL
MODEL 2
REMARK VINA RESULT:     -11.2      1.024      2.081
REMARK SMILES Cc1csc(C[NH2+]C2(C(=O)NCCCCNC(=O)c3ccc(-c4c5nc(c(-c6c(F)c(F)c(F)c(F)c6F)c6ccc([nH]6)c(-c6c(F)c(F)c(F)c(F)c6F)c6nc(c(-c7c(F)c(F)c(F)c(F)c7F)c7ccc4[nH]7)C=C6)C=C5)cc3)CC2)n1
REMARK SMILES IDX 13 1 12 2 11 3 9 4 10 5 8 7 82 8 83 9 7 10 6 13 5 14 1 15
REMARK SMILES IDX 2 16 3 17 84 18 4 19 14 20 15 21 16 22 17 23 18 25 19 26
REMARK SMILES IDX 20 27 81 28 21 29 80 30 22 31 23 32 24 33 74 34 25 35 79 36
REMARK SMILES IDX 73 37 75 38 26 39 78 40 72 41 71 42 27 44 59 45 39 46 58 47
REMARK SMILES IDX 40 48 43 49 57 50 76 51 41 52 42 53 56 55 77 56 44 57 28 58
REMARK SMILES IDX 29 59 37 60 30 61 31 62 35 63 38 64 32 65 33 66 36 67 34 68
REMARK SMILES IDX 60 69 61 70 69 71 62 72 63 73 67 74 70 75 64 76 65 77 68 78
REMARK SMILES IDX 66 79 45 80 46 81 54 82 47 83 48 84 52 85 55 86 49 87 50 88
REMARK SMILES IDX 53 89 51 90
REMARK H PARENT 11 6 7 11 7 12 16 24 75 43 43 54
REMARK Flexibility Score: inf
ROOT
ATOM      1  C   UNL A   1      31.548  30.446  25.632  1.00  0.00     0.023 C 
ENDROOT
BRANCH   1   2
ATOM      2  C   UNL A   1      32.864  29.684  25.838  1.00  0.00     0.116 C 
BRANCH   2   3
ATOM      3  N   UNL A   1      32.759  28.575  26.762  1.00  0.00    -0.351 N 
ATOM      4  C   UNL A   1      32.015  27.449  26.502  1.00  0.00     0.281 C 
ATOM      5  O   UNL A   1      31.008  27.309  27.194  1.00  0.00    -0.268 OA
ATOM      6  H   UNL A   1      33.242  28.630  27.617  1.00  0.00     0.163 HD
BRANCH   4   7
ATOM      7  C   UNL A   1      32.492  26.397  25.479  1.00  0.00     0.176 C 
ATOM      8  C   UNL A   1      33.137  25.106  25.978  1.00  0.00     0.086 C 
ATOM      9  C   UNL A   1      33.986  26.151  25.327  1.00  0.00     0.086 C 
BRANCH   7  10
ATOM     10  N   UNL A   1      31.677  26.239  24.202  1.00  0.00    -0.328 N 
ATOM     11  H   UNL A   1      32.042  25.435  23.690  1.00  0.00     0.347 HD
ATOM     12  H   UNL A   1      30.707  26.125  24.494  1.00  0.00     0.347 HD
BRANCH  10  13
ATOM     13  C   UNL A   1      31.703  27.400  23.302  1.00  0.00     0.330 C 
BRANCH  13  14
ATOM     14  C   UNL A   1      30.379  27.934  22.822  1.00  0.00     0.147 A 
ATOM     15  C   UNL A   1      28.579  30.726  21.446  1.00  0.00     0.067 C 
ATOM     16  C   UNL A   1      28.925  29.463  22.145  1.00  0.00     0.049 A 
ATOM     17  C   UNL A   1      28.097  28.727  22.968  1.00  0.00     0.090 A 
ATOM     18  N   UNL A   1      30.217  28.975  22.030  1.00  0.00    -0.240 NA
ATOM     19  S   UNL A   1      28.933  27.370  23.583  1.00  0.00    -0.121 S 
ENDBRANCH  13  14
ENDBRANCH  10  13
ENDBRANCH   7  10
ENDBRANCH   4   7
ENDBRANCH   2   3
ENDBRANCH   1   2
BRANCH   1  20
ATOM     20  C   UNL A   1      31.331  31.708  26.477  1.00  0.00     0.023 C 
BRANCH  20  21
ATOM     21  C   UNL A   1      32.578  32.374  27.041  1.00  0.00     0.116 C 
BRANCH  21  22
ATOM     22  N   UNL A   1      32.342  33.731  27.496  1.00  0.00    -0.352 N 
ATOM     23  C   UNL A   1      33.038  34.490  28.400  1.00  0.00     0.251 C 
ATOM     24  H   UNL A   1      31.561  34.175  27.094  1.00  0.00     0.163 HD
ATOM     25  O   UNL A   1      32.617  35.601  28.704  1.00  0.00    -0.269 OA
BRANCH  23  26
ATOM     26  C   UNL A   1      34.264  33.969  29.045  1.00  0.00     0.039 A 
ATOM     27  C   UNL A   1      34.114  32.991  30.032  1.00  0.00     0.014 A 
ATOM     28  C   UNL A   1      35.541  34.437  28.718  1.00  0.00     0.014 A 
ATOM     29  C   UNL A   1      35.239  32.455  30.658  1.00  0.00     0.010 A 
ATOM     30  C   UNL A   1      36.669  33.847  29.289  1.00  0.00     0.010 A 
ATOM     31  C   UNL A   1      36.529  32.855  30.271  1.00  0.00    -0.014 A 
BRANCH  31  32
ATOM     32  C   UNL A   1      37.721  32.224  30.896  1.00  0.00     0.031 A 
ATOM     33  C   UNL A   1      38.161  32.609  32.281  1.00  0.00     0.074 A 
ATOM     34  C   UNL A   1      38.406  31.292  30.204  1.00  0.00     0.049 A 
ATOM     35  N   UNL A   1      39.131  32.111  33.007  1.00  0.00    -0.248 NA
ATOM     36  C   UNL A   1      37.434  33.711  32.929  1.00  0.00     0.031 C 
ATOM     37  C   UNL A   1      38.113  30.878  28.831  1.00  0.00     0.029 A 
ATOM     38  N   UNL A   1      39.479  30.515  30.564  1.00  0.00    -0.354 N 
ATOM     39  C   UNL A   1      39.126  32.835  34.193  1.00  0.00     0.074 A 
ATOM     40  C   UNL A   1      38.102  33.849  34.064  1.00  0.00     0.031 C 
ATOM     41  C   UNL A   1      38.953  29.891  28.481  1.00  0.00     0.029 A 
ATOM     42  C   UNL A   1      39.863  29.625  29.591  1.00  0.00     0.049 A 
ATOM     43  H   UNL A   1      39.929  30.588  31.436  1.00  0.00     0.167 HD
ATOM     44  C   UNL A   1      39.885  32.650  35.301  1.00  0.00     0.037 A 
ATOM     45  C   UNL A   1      40.833  28.692  29.596  1.00  0.00     0.037 A 
ATOM     46  C   UNL A   1      40.899  31.634  35.427  1.00  0.00     0.049 A 
ATOM     47  C   UNL A   1      41.662  28.511  30.840  1.00  0.00     0.074 A 
ATOM     48  C   UNL A   1      41.694  31.337  36.521  1.00  0.00     0.029 A 
ATOM     49  N   UNL A   1      41.262  30.752  34.419  1.00  0.00    -0.354 N 
ATOM     50  N   UNL A   1      41.592  29.145  31.985  1.00  0.00    -0.248 NA
ATOM     51  C   UNL A   1      42.696  27.469  30.794  1.00  0.00     0.031 C 
ATOM     52  C   UNL A   1      42.574  30.312  36.158  1.00  0.00     0.029 A 
ATOM     53  C   UNL A   1      42.285  29.924  34.860  1.00  0.00     0.049 A 
ATOM     54  H   UNL A   1      40.855  30.718  33.525  1.00  0.00     0.167 HD
ATOM     55  C   UNL A   1      42.549  28.561  32.804  1.00  0.00     0.074 A 
ATOM     56  C   UNL A   1      43.165  27.502  32.032  1.00  0.00     0.031 C 
ATOM     57  C   UNL A   1      42.890  28.875  34.079  1.00  0.00     0.037 A 
BRANCH  44  58
ATOM     58  C   UNL A   1      39.644  33.564  36.470  1.00  0.00     0.064 A 
ATOM     59  C   UNL A   1      38.800  33.196  37.530  1.00  0.00     0.173 A 
ATOM     60  C   UNL A   1      40.297  34.803  36.555  1.00  0.00     0.173 A 
ATOM     61  F   UNL A   1      38.142  32.027  37.495  1.00  0.00    -0.203 F 
ATOM     62  C   UNL A   1      38.596  34.046  38.615  1.00  0.00     0.198 A 
ATOM     63  C   UNL A   1      40.116  35.636  37.658  1.00  0.00     0.198 A 
ATOM     64  F   UNL A   1      41.120  35.204  35.575  1.00  0.00    -0.203 F 
ATOM     65  F   UNL A   1      37.745  33.693  39.589  1.00  0.00    -0.200 F 
ATOM     66  C   UNL A   1      39.260  35.261  38.682  1.00  0.00     0.200 A 
ATOM     67  F   UNL A   1      40.772  36.803  37.728  1.00  0.00    -0.200 F 
ATOM     68  F   UNL A   1      39.071  36.072  39.732  1.00  0.00    -0.200 F 
ENDBRANCH  44  58
BRANCH  45  69
ATOM     69  C   UNL A   1      41.053  27.833  28.403  1.00  0.00     0.064 A 
ATOM     70  C   UNL A   1      41.933  28.225  27.383  1.00  0.00     0.173 A 
ATOM     71  C   UNL A   1      40.374  26.617  28.243  1.00  0.00     0.173 A 
ATOM     72  F   UNL A   1      42.592  29.389  27.477  1.00  0.00    -0.203 F 
ATOM     73  C   UNL A   1      42.100  27.449  26.237  1.00  0.00     0.198 A 
ATOM     74  C   UNL A   1      40.568  25.825  27.114  1.00  0.00     0.198 A 
ATOM     75  F   UNL A   1      39.526  26.192  29.192  1.00  0.00    -0.203 F 
ATOM     76  F   UNL A   1      42.900  27.878  25.251  1.00  0.00    -0.200 F 
ATOM     77  C   UNL A   1      41.420  26.248  26.106  1.00  0.00     0.200 A 
ATOM     78  F   UNL A   1      39.923  24.656  26.999  1.00  0.00    -0.200 F 
ATOM     79  F   UNL A   1      41.581  25.502  25.003  1.00  0.00    -0.200 F 
ENDBRANCH  45  69
BRANCH  57  80
ATOM     80  C   UNL A   1      43.955  28.032  34.726  1.00  0.00     0.064 A 
ATOM     81  C   UNL A   1      43.647  26.845  35.409  1.00  0.00     0.173 A 
ATOM     82  C   UNL A   1      45.302  28.421  34.664  1.00  0.00     0.173 A 
ATOM     83  F   UNL A   1      42.374  26.433  35.509  1.00  0.00    -0.203 F 
ATOM     84  C   UNL A   1      44.640  26.109  36.049  1.00  0.00     0.198 A 
ATOM     85  C   UNL A   1      46.297  27.660  35.271  1.00  0.00     0.198 A 
ATOM     86  F   UNL A   1      45.655  29.540  34.014  1.00  0.00    -0.203 F 
ATOM     87  F   UNL A   1      44.311  25.022  36.760  1.00  0.00    -0.200 F 
ATOM     88  C   UNL A   1      45.964  26.515  35.976  1.00  0.00     0.200 A 
ATOM     89  F   UNL A   1      47.578  28.045  35.184  1.00  0.00    -0.200 F 
ATOM     90  F   UNL A   1      46.918  25.807  36.597  1.00  0.00    -0.200 F 
ENDBRANCH  57  80
ENDBRANCH  31  32
ENDBRANCH  23  26
ENDBRANCH  21  22
ENDBRANCH  20  21
ENDBRANCH   1  20
TORSDOF 14
ENDMDL
MODEL 3
REMARK VINA RESULT:     -11.2      0.368      1.775
REMARK SMILES Cc1csc(C[NH2+]C2(C(=O)NCCCCNC(=O)c3ccc(-c4c5nc(c(-c6c(F)c(F)c(F)c(F)c6F)c6ccc([nH]6)c(-c6c(F)c(F)c(F)c(F)c6F)c6nc(c(-c7c(F)c(F)c(F)c(F)c7F)c7ccc4[nH]7)C=C6)C=C5)cc3)CC2)n1
REMARK SMILES IDX 13 1 12 2 11 3 9 4 10 5 8 7 82 8 83 9 7 10 6 13 5 14 1 15
REMARK SMILES IDX 2 16 3 17 84 18 4 19 14 20 15 21 16 22 17 23 18 25 19 26
REMARK SMILES IDX 20 27 81 28 21 29 80 30 22 31 23 32 24 33 74 34 25 35 79 36
REMARK SMILES IDX 73 37 75 38 26 39 78 40 72 41 71 42 27 44 59 45 39 46 58 47
REMARK SMILES IDX 40 48 43 49 57 50 76 51 41 52 42 53 56 55 77 56 44 57 28 58
REMARK SMILES IDX 29 59 37 60 30 61 31 62 35 63 38 64 32 65 33 66 36 67 34 68
REMARK SMILES IDX 60 69 61 70 69 71 62 72 63 73 67 74 70 75 64 76 65 77 68 78
REMARK SMILES IDX 66 79 45 80 46 81 54 82 47 83 48 84 52 85 55 86 49 87 50 88
REMARK SMILES IDX 53 89 51 90
REMARK H PARENT 11 6 7 11 7 12 16 24 75 43 43 54
REMARK Flexibility Score: inf
ROOT
ATOM      1  C   UNL A   1      31.745  30.459  26.846  1.00  0.00     0.023 C 
ENDROOT
BRANCH   1   2
ATOM      2  C   UNL A   1      32.931  29.981  25.997  1.00  0.00     0.116 C 
BRANCH   2   3
ATOM      3  N   UNL A   1      32.596  29.735  24.611  1.00  0.00    -0.351 N 
ATOM      4  C   UNL A   1      32.494  28.474  24.075  1.00  0.00     0.281 C 
ATOM      5  O   UNL A   1      33.370  28.171  23.266  1.00  0.00    -0.268 OA
ATOM      6  H   UNL A   1      32.432  30.508  24.024  1.00  0.00     0.163 HD
BRANCH   4   7
ATOM      7  C   UNL A   1      31.293  27.562  24.404  1.00  0.00     0.176 C 
ATOM      8  C   UNL A   1      31.238  26.856  25.757  1.00  0.00     0.086 C 
ATOM      9  C   UNL A   1      31.524  26.063  24.520  1.00  0.00     0.086 C 
BRANCH   7  10
ATOM     10  N   UNL A   1      29.932  27.966  23.850  1.00  0.00    -0.328 N 
ATOM     11  H   UNL A   1      29.362  27.125  23.767  1.00  0.00     0.347 HD
ATOM     12  H   UNL A   1      29.550  28.651  24.501  1.00  0.00     0.347 HD
BRANCH  10  13
ATOM     13  C   UNL A   1      29.968  28.623  22.536  1.00  0.00     0.330 C 
BRANCH  13  14
ATOM     14  C   UNL A   1      29.146  29.873  22.364  1.00  0.00     0.147 A 
ATOM     15  C   UNL A   1      27.856  32.337  20.085  1.00  0.00     0.067 C 
ATOM     16  C   UNL A   1      28.326  31.640  21.309  1.00  0.00     0.049 A 
ATOM     17  C   UNL A   1      28.571  32.217  22.539  1.00  0.00     0.090 A 
ATOM     18  N   UNL A   1      28.614  30.287  21.231  1.00  0.00    -0.240 NA
ATOM     19  S   UNL A   1      29.135  31.039  23.640  1.00  0.00    -0.121 S 
ENDBRANCH  13  14
ENDBRANCH  10  13
ENDBRANCH   7  10
ENDBRANCH   4   7
ENDBRANCH   2   3
ENDBRANCH   1   2
BRANCH   1  20
ATOM     20  C   UNL A   1      31.441  31.962  26.837  1.00  0.00     0.023 C 
BRANCH  20  21
ATOM     21  C   UNL A   1      32.639  32.901  26.808  1.00  0.00     0.116 C 
BRANCH  21  22
ATOM     22  N   UNL A   1      32.422  34.124  27.557  1.00  0.00    -0.352 N 
ATOM     23  C   UNL A   1      33.090  34.620  28.646  1.00  0.00     0.251 C 
ATOM     24  H   UNL A   1      31.680  34.684  27.233  1.00  0.00     0.163 HD
ATOM     25  O   UNL A   1      32.689  35.648  29.181  1.00  0.00    -0.269 OA
BRANCH  23  26
ATOM     26  C   UNL A   1      34.260  33.909  29.208  1.00  0.00     0.039 A 
ATOM     27  C   UNL A   1      35.531  34.402  28.899  1.00  0.00     0.014 A 
ATOM     28  C   UNL A   1      34.132  32.766  30.003  1.00  0.00     0.014 A 
ATOM     29  C   UNL A   1      36.665  33.778  29.418  1.00  0.00     0.010 A 
ATOM     30  C   UNL A   1      35.262  32.188  30.584  1.00  0.00     0.010 A 
ATOM     31  C   UNL A   1      36.541  32.684  30.290  1.00  0.00    -0.014 A 
BRANCH  31  32
ATOM     32  C   UNL A   1      37.755  32.074  30.893  1.00  0.00     0.031 A 
ATOM     33  C   UNL A   1      38.204  32.454  32.277  1.00  0.00     0.074 A 
ATOM     34  C   UNL A   1      38.452  31.166  30.182  1.00  0.00     0.049 A 
ATOM     35  N   UNL A   1      39.193  31.971  32.986  1.00  0.00    -0.248 NA
ATOM     36  C   UNL A   1      37.459  33.532  32.946  1.00  0.00     0.031 C 
ATOM     37  C   UNL A   1      38.152  30.760  28.809  1.00  0.00     0.029 A 
ATOM     38  N   UNL A   1      39.547  30.410  30.520  1.00  0.00    -0.354 N 
ATOM     39  C   UNL A   1      39.187  32.681  34.180  1.00  0.00     0.074 A 
ATOM     40  C   UNL A   1      38.139  33.672  34.074  1.00  0.00     0.031 C 
ATOM     41  C   UNL A   1      39.009  29.797  28.437  1.00  0.00     0.029 A 
ATOM     42  C   UNL A   1      39.939  29.540  29.532  1.00  0.00     0.049 A 
ATOM     43  H   UNL A   1      40.007  30.484  31.387  1.00  0.00     0.167 HD
ATOM     44  C   UNL A   1      39.964  32.501  35.275  1.00  0.00     0.037 A 
ATOM     45  C   UNL A   1      40.931  28.630  29.515  1.00  0.00     0.037 A 
ATOM     46  C   UNL A   1      41.003  31.508  35.378  1.00  0.00     0.049 A 
ATOM     47  C   UNL A   1      41.779  28.454  30.746  1.00  0.00     0.074 A 
ATOM     48  C   UNL A   1      41.818  31.217  36.458  1.00  0.00     0.029 A 
ATOM     49  N   UNL A   1      41.374  30.645  34.356  1.00  0.00    -0.354 N 
ATOM     50  N   UNL A   1      41.709  29.074  31.900  1.00  0.00    -0.248 NA
ATOM     51  C   UNL A   1      42.836  27.438  30.676  1.00  0.00     0.031 C 
ATOM     52  C   UNL A   1      42.717  30.217  36.073  1.00  0.00     0.029 A 
ATOM     53  C   UNL A   1      42.420  29.837  34.774  1.00  0.00     0.049 A 
ATOM     54  H   UNL A   1      40.956  30.612  33.466  1.00  0.00     0.167 HD
ATOM     55  C   UNL A   1      42.690  28.503  32.700  1.00  0.00     0.074 A 
ATOM     56  C   UNL A   1      43.320  27.467  31.908  1.00  0.00     0.031 C 
ATOM     57  C   UNL A   1      43.039  28.810  33.974  1.00  0.00     0.037 A 
BRANCH  44  58
ATOM     58  C   UNL A   1      39.717  33.397  36.458  1.00  0.00     0.064 A 
ATOM     59  C   UNL A   1      38.826  33.036  37.481  1.00  0.00     0.173 A 
ATOM     60  C   UNL A   1      40.410  34.610  36.593  1.00  0.00     0.173 A 
ATOM     61  F   UNL A   1      38.129  31.892  37.397  1.00  0.00    -0.203 F 
ATOM     62  C   UNL A   1      38.617  33.867  38.579  1.00  0.00     0.198 A 
ATOM     63  C   UNL A   1      40.222  35.423  37.710  1.00  0.00     0.198 A 
ATOM     64  F   UNL A   1      41.277  35.003  35.649  1.00  0.00    -0.203 F 
ATOM     65  F   UNL A   1      37.722  33.523  39.516  1.00  0.00    -0.200 F 
ATOM     66  C   UNL A   1      39.320  35.056  38.696  1.00  0.00     0.200 A 
ATOM     67  F   UNL A   1      40.915  36.565  37.828  1.00  0.00    -0.200 F 
ATOM     68  F   UNL A   1      39.125  35.849  39.758  1.00  0.00    -0.200 F 
ENDBRANCH  44  58
BRANCH  45  69
ATOM     69  C   UNL A   1      41.155  27.790  28.309  1.00  0.00     0.064 A 
ATOM     70  C   UNL A   1      40.542  26.534  28.179  1.00  0.00     0.173 A 
ATOM     71  C   UNL A   1      42.001  28.210  27.273  1.00  0.00     0.173 A 
ATOM     72  F   UNL A   1      39.740  26.077  29.151  1.00  0.00    -0.203 F 
ATOM     73  C   UNL A   1      40.794  25.720  27.076  1.00  0.00     0.198 A 
ATOM     74  C   UNL A   1      42.224  27.411  26.155  1.00  0.00     0.198 A 
ATOM     75  F   UNL A   1      42.606  29.405  27.343  1.00  0.00    -0.203 F 
ATOM     76  F   UNL A   1      40.243  24.500  27.008  1.00  0.00    -0.200 F 
ATOM     77  C   UNL A   1      41.630  26.161  26.063  1.00  0.00     0.200 A 
ATOM     78  F   UNL A   1      43.019  27.849  25.169  1.00  0.00    -0.200 F 
ATOM     79  F   UNL A   1      41.872  25.378  25.002  1.00  0.00    -0.200 F 
ENDBRANCH  45  69
BRANCH  57  80
ATOM     80  C   UNL A   1      44.131  27.986  34.598  1.00  0.00     0.064 A 
ATOM     81  C   UNL A   1      45.480  28.371  34.532  1.00  0.00     0.173 A 
ATOM     82  C   UNL A   1      43.824  26.791  35.267  1.00  0.00     0.173 A 
ATOM     83  F   UNL A   1      45.831  29.498  33.893  1.00  0.00    -0.203 F 
ATOM     84  C   UNL A   1      46.481  27.565  35.066  1.00  0.00     0.198 A 
ATOM     85  C   UNL A   1      44.825  26.009  35.836  1.00  0.00     0.198 A 
ATOM     86  F   UNL A   1      42.551  26.381  35.370  1.00  0.00    -0.203 F 
ATOM     87  F   UNL A   1      47.767  27.916  34.923  1.00  0.00    -0.200 F 
ATOM     88  C   UNL A   1      46.153  26.388  35.721  1.00  0.00     0.200 A 
ATOM     89  F   UNL A   1      44.504  24.880  36.483  1.00  0.00    -0.200 F 
ATOM     90  F   UNL A   1      47.120  25.612  36.231  1.00  0.00    -0.200 F 
ENDBRANCH  57  80
ENDBRANCH  31  32
ENDBRANCH  23  26
ENDBRANCH  21  22
ENDBRANCH  20  21
ENDBRANCH   1  20
TORSDOF 14
ENDMDL
