MODEL 1
REMARK VINA RESULT:     -12.8      0.000      0.000
REMARK SMILES O=C(NCCCCNC(=O)c1[nH]nc2c1CCC2)c1ccc(-c2c3nc(c(-c4c(F)c(F)c(F)c(F)c4F)c4ccc([nH]4)c(-c4c(F)c(F)c(F)c(F)c4F)c4nc(c(-c5c(F)c(F)c(F)c(F)c5F)c5ccc2[nH]5)C=C4)C=C3)cc1
REMARK SMILES IDX 4 1 3 2 1 3 2 4 19 6 20 7 81 8 21 9 80 10 22 11 23 12 24 13
REMARK SMILES IDX 74 14 25 15 79 16 73 17 75 18 26 19 78 20 72 21 71 22 27 24
REMARK SMILES IDX 59 25 39 26 58 27 40 28 43 29 57 30 76 31 41 32 42 33 56 35
REMARK SMILES IDX 77 36 44 37 28 38 29 39 37 40 30 41 31 42 35 43 38 44 32 45
REMARK SMILES IDX 33 46 36 47 34 48 60 49 61 50 69 51 62 52 63 53 67 54 70 55
REMARK SMILES IDX 64 56 65 57 68 58 66 59 45 60 46 61 54 62 47 63 48 64 52 65
REMARK SMILES IDX 55 66 49 67 50 68 53 69 51 70 5 71 6 72 7 73 8 74 9 75 10 77
REMARK SMILES IDX 11 78 12 79 15 80 13 81 14 83 16 84 18 85 17 86
REMARK H PARENT 3 5 75 23 43 34 8 76 12 82
REMARK Flexibility Score: inf
ROOT
ATOM      1  C   UNL A   1      41.739  20.377  26.125  1.00  0.00     0.116 C 
ENDROOT
BRANCH   1   2
ATOM      2  N   UNL A   1      40.319  20.649  26.073  1.00  0.00    -0.352 N 
ATOM      3  O   UNL A   1      38.377  21.698  25.899  1.00  0.00    -0.269 OA
ATOM      4  C   UNL A   1      39.558  21.772  26.247  1.00  0.00     0.251 C 
ATOM      5  H   UNL A   1      39.781  19.851  25.867  1.00  0.00     0.163 HD
BRANCH   4   6
ATOM      6  C   UNL A   1      40.031  23.019  26.904  1.00  0.00     0.039 A 
ATOM      7  C   UNL A   1      41.125  23.125  27.762  1.00  0.00     0.014 A 
ATOM      8  C   UNL A   1      39.265  24.172  26.641  1.00  0.00     0.014 A 
ATOM      9  C   UNL A   1      41.383  24.317  28.430  1.00  0.00     0.010 A 
ATOM     10  C   UNL A   1      39.528  25.372  27.288  1.00  0.00     0.010 A 
ATOM     11  C   UNL A   1      40.569  25.430  28.208  1.00  0.00    -0.014 A 
BRANCH  11  12
ATOM     12  C   UNL A   1      40.997  26.715  28.759  1.00  0.00     0.031 A 
ATOM     13  C   UNL A   1      42.233  27.229  28.105  1.00  0.00     0.074 A 
ATOM     14  C   UNL A   1      40.267  27.431  29.639  1.00  0.00     0.049 A 
ATOM     15  N   UNL A   1      43.377  27.473  28.654  1.00  0.00    -0.248 NA
ATOM     16  C   UNL A   1      42.249  27.339  26.635  1.00  0.00     0.031 C 
ATOM     17  C   UNL A   1      38.917  27.118  30.112  1.00  0.00     0.029 A 
ATOM     18  N   UNL A   1      40.517  28.647  30.214  1.00  0.00    -0.354 N 
ATOM     19  C   UNL A   1      44.191  27.969  27.634  1.00  0.00     0.074 A 
ATOM     20  C   UNL A   1      43.516  27.680  26.401  1.00  0.00     0.031 C 
ATOM     21  C   UNL A   1      38.382  28.213  30.694  1.00  0.00     0.029 A 
ATOM     22  C   UNL A   1      39.384  29.265  30.737  1.00  0.00     0.049 A 
ATOM     23  H   UNL A   1      41.415  29.048  30.254  1.00  0.00     0.167 HD
ATOM     24  C   UNL A   1      45.174  28.865  27.923  1.00  0.00     0.037 A 
ATOM     25  C   UNL A   1      39.258  30.564  31.112  1.00  0.00     0.037 A 
ATOM     26  C   UNL A   1      45.495  28.812  29.329  1.00  0.00     0.049 A 
ATOM     27  C   UNL A   1      40.620  31.100  31.332  1.00  0.00     0.074 A 
ATOM     28  C   UNL A   1      46.073  27.920  30.204  1.00  0.00     0.029 A 
ATOM     29  N   UNL A   1      44.810  29.725  30.080  1.00  0.00    -0.354 N 
ATOM     30  N   UNL A   1      41.388  30.745  32.321  1.00  0.00    -0.248 NA
ATOM     31  C   UNL A   1      41.289  31.795  30.240  1.00  0.00     0.031 C 
ATOM     32  C   UNL A   1      45.500  28.201  31.483  1.00  0.00     0.029 A 
ATOM     33  C   UNL A   1      44.629  29.282  31.354  1.00  0.00     0.049 A 
ATOM     34  H   UNL A   1      44.490  30.593  29.744  1.00  0.00     0.167 HD
ATOM     35  C   UNL A   1      42.660  30.747  31.782  1.00  0.00     0.074 A 
ATOM     36  C   UNL A   1      42.559  31.573  30.583  1.00  0.00     0.031 C 
ATOM     37  C   UNL A   1      43.572  29.813  32.185  1.00  0.00     0.037 A 
BRANCH  24  38
ATOM     38  C   UNL A   1      45.386  30.165  27.140  1.00  0.00     0.064 A 
ATOM     39  C   UNL A   1      46.716  30.580  26.896  1.00  0.00     0.173 A 
ATOM     40  C   UNL A   1      44.410  31.174  26.976  1.00  0.00     0.173 A 
ATOM     41  F   UNL A   1      47.733  29.712  27.006  1.00  0.00    -0.203 F 
ATOM     42  C   UNL A   1      47.047  31.918  26.660  1.00  0.00     0.198 A 
ATOM     43  C   UNL A   1      44.743  32.500  26.697  1.00  0.00     0.198 A 
ATOM     44  F   UNL A   1      43.107  30.963  27.175  1.00  0.00    -0.203 F 
ATOM     45  F   UNL A   1      48.335  32.284  26.595  1.00  0.00    -0.200 F 
ATOM     46  C   UNL A   1      46.061  32.881  26.582  1.00  0.00     0.200 A 
ATOM     47  F   UNL A   1      43.769  33.422  26.637  1.00  0.00    -0.200 F 
ATOM     48  F   UNL A   1      46.377  34.175  26.440  1.00  0.00    -0.200 F 
ENDBRANCH  24  38
BRANCH  25  49
ATOM     49  C   UNL A   1      38.070  31.458  31.058  1.00  0.00     0.064 A 
ATOM     50  C   UNL A   1      37.537  31.888  29.829  1.00  0.00     0.173 A 
ATOM     51  C   UNL A   1      37.263  31.674  32.191  1.00  0.00     0.173 A 
ATOM     52  F   UNL A   1      38.214  31.687  28.689  1.00  0.00    -0.203 F 
ATOM     53  C   UNL A   1      36.264  32.465  29.737  1.00  0.00     0.198 A 
ATOM     54  C   UNL A   1      35.999  32.258  32.100  1.00  0.00     0.198 A 
ATOM     55  F   UNL A   1      37.641  31.234  33.399  1.00  0.00    -0.203 F 
ATOM     56  F   UNL A   1      35.763  32.795  28.539  1.00  0.00    -0.200 F 
ATOM     57  C   UNL A   1      35.491  32.638  30.872  1.00  0.00     0.200 A 
ATOM     58  F   UNL A   1      35.246  32.386  33.203  1.00  0.00    -0.200 F 
ATOM     59  F   UNL A   1      34.247  33.128  30.780  1.00  0.00    -0.200 F 
ENDBRANCH  25  49
BRANCH  37  60
ATOM     60  C   UNL A   1      43.356  29.181  33.524  1.00  0.00     0.064 A 
ATOM     61  C   UNL A   1      43.781  29.726  34.746  1.00  0.00     0.173 A 
ATOM     62  C   UNL A   1      42.619  27.989  33.563  1.00  0.00     0.173 A 
ATOM     63  F   UNL A   1      44.407  30.910  34.796  1.00  0.00    -0.203 F 
ATOM     64  C   UNL A   1      43.528  29.069  35.948  1.00  0.00     0.198 A 
ATOM     65  C   UNL A   1      42.331  27.360  34.767  1.00  0.00     0.198 A 
ATOM     66  F   UNL A   1      42.150  27.449  32.426  1.00  0.00    -0.203 F 
ATOM     67  F   UNL A   1      43.969  29.588  37.103  1.00  0.00    -0.200 F 
ATOM     68  C   UNL A   1      42.799  27.891  35.958  1.00  0.00     0.200 A 
ATOM     69  F   UNL A   1      41.584  26.247  34.773  1.00  0.00    -0.200 F 
ATOM     70  F   UNL A   1      42.527  27.276  37.117  1.00  0.00    -0.200 F 
ENDBRANCH  37  60
ENDBRANCH  11  12
ENDBRANCH   4   6
ENDBRANCH   1   2
BRANCH   1  71
ATOM     71  C   UNL A   1      42.172  19.378  27.198  1.00  0.00     0.023 C 
BRANCH  71  72
ATOM     72  C   UNL A   1      43.110  18.269  26.721  1.00  0.00     0.023 C 
BRANCH  72  73
ATOM     73  C   UNL A   1      43.776  18.512  25.371  1.00  0.00     0.116 C 
BRANCH  73  74
ATOM     74  N   UNL A   1      45.222  18.599  25.462  1.00  0.00    -0.351 N 
ATOM     75  C   UNL A   1      46.042  19.631  25.069  1.00  0.00     0.269 C 
ATOM     76  H   UNL A   1      45.674  17.819  25.856  1.00  0.00     0.163 HD
ATOM     77  O   UNL A   1      47.248  19.431  25.011  1.00  0.00    -0.268 OA
BRANCH  75  78
ATOM     78  C   UNL A   1      45.441  20.874  24.682  1.00  0.00     0.126 A 
ATOM     79  N   UNL A   1      44.883  21.065  23.431  1.00  0.00    -0.272 N 
ATOM     80  C   UNL A   1      45.275  22.083  25.305  1.00  0.00     0.006 A 
ATOM     81  N   UNL A   1      44.219  22.243  23.294  1.00  0.00    -0.180 NA
ATOM     82  H   UNL A   1      44.961  20.405  22.705  1.00  0.00     0.190 HD
ATOM     83  C   UNL A   1      44.486  22.843  24.442  1.00  0.00     0.066 A 
ATOM     84  C   UNL A   1      45.567  22.814  26.553  1.00  0.00     0.040 C 
ATOM     85  C   UNL A   1      44.075  24.135  25.023  1.00  0.00     0.059 C 
ATOM     86  C   UNL A   1      44.464  23.923  26.527  1.00  0.00     0.011 C 
ENDBRANCH  75  78
ENDBRANCH  73  74
ENDBRANCH  72  73
ENDBRANCH  71  72
ENDBRANCH   1  71
TORSDOF 11
ENDMDL
MODEL 2
REMARK VINA RESULT:     -12.4      4.015     11.424
REMARK SMILES O=C(NCCCCNC(=O)c1[nH]nc2c1CCC2)c1ccc(-c2c3nc(c(-c4c(F)c(F)c(F)c(F)c4F)c4ccc([nH]4)c(-c4c(F)c(F)c(F)c(F)c4F)c4nc(c(-c5c(F)c(F)c(F)c(F)c5F)c5ccc2[nH]5)C=C4)C=C3)cc1
REMARK SMILES IDX 4 1 3 2 1 3 2 4 19 6 20 7 81 8 21 9 80 10 22 11 23 12 24 13
REMARK SMILES IDX 74 14 25 15 79 16 73 17 75 18 26 19 78 20 72 21 71 22 27 24
REMARK SMILES IDX 59 25 39 26 58 27 40 28 43 29 57 30 76 31 41 32 42 33 56 35
REMARK SMILES IDX 77 36 44 37 28 38 29 39 37 40 30 41 31 42 35 43 38 44 32 45
REMARK SMILES IDX 33 46 36 47 34 48 60 49 61 50 69 51 62 52 63 53 67 54 70 55
REMARK SMILES IDX 64 56 65 57 68 58 66 59 45 60 46 61 54 62 47 63 48 64 52 65
REMARK SMILES IDX 55 66 49 67 50 68 53 69 51 70 5 71 6 72 7 73 8 74 9 75 10 77
REMARK SMILES IDX 11 78 12 79 15 80 13 81 14 83 16 84 18 85 17 86
REMARK H PARENT 3 5 75 23 43 34 8 76 12 82
REMARK Flexibility Score: inf
ROOT
ATOM      1  C   UNL A   1      33.888  34.051  29.082  1.00  0.00     0.116 C 
ENDROOT
BRANCH   1   2
ATOM      2  N   UNL A   1      33.570  32.983  28.159  1.00  0.00    -0.352 N 
ATOM      3  O   UNL A   1      33.464  30.997  27.187  1.00  0.00    -0.269 OA
ATOM      4  C   UNL A   1      34.134  31.769  27.878  1.00  0.00     0.251 C 
ATOM      5  H   UNL A   1      32.773  33.171  27.613  1.00  0.00     0.163 HD
BRANCH   4   6
ATOM      6  C   UNL A   1      35.511  31.367  28.264  1.00  0.00     0.039 A 
ATOM      7  C   UNL A   1      36.555  32.235  28.584  1.00  0.00     0.014 A 
ATOM      8  C   UNL A   1      35.762  29.981  28.267  1.00  0.00     0.014 A 
ATOM      9  C   UNL A   1      37.840  31.746  28.789  1.00  0.00     0.010 A 
ATOM     10  C   UNL A   1      37.038  29.482  28.491  1.00  0.00     0.010 A 
ATOM     11  C   UNL A   1      38.082  30.372  28.719  1.00  0.00    -0.014 A 
BRANCH  11  12
ATOM     12  C   UNL A   1      39.390  29.881  29.149  1.00  0.00     0.031 A 
ATOM     13  C   UNL A   1      39.596  30.026  30.618  1.00  0.00     0.074 A 
ATOM     14  C   UNL A   1      40.244  29.223  28.339  1.00  0.00     0.049 A 
ATOM     15  N   UNL A   1      40.500  30.720  31.227  1.00  0.00    -0.248 NA
ATOM     16  C   UNL A   1      38.579  29.458  31.522  1.00  0.00     0.031 C 
ATOM     17  C   UNL A   1      39.990  28.802  26.959  1.00  0.00     0.029 A 
ATOM     18  N   UNL A   1      41.474  28.684  28.601  1.00  0.00    -0.354 N 
ATOM     19  C   UNL A   1      40.293  30.501  32.590  1.00  0.00     0.074 A 
ATOM     20  C   UNL A   1      39.000  29.890  32.711  1.00  0.00     0.031 C 
ATOM     21  C   UNL A   1      40.912  27.884  26.596  1.00  0.00     0.029 A 
ATOM     22  C   UNL A   1      41.882  27.734  27.668  1.00  0.00     0.049 A 
ATOM     23  H   UNL A   1      42.021  28.943  29.377  1.00  0.00     0.167 HD
ATOM     24  C   UNL A   1      41.347  30.537  33.452  1.00  0.00     0.037 A 
ATOM     25  C   UNL A   1      42.898  26.842  27.795  1.00  0.00     0.037 A 
ATOM     26  C   UNL A   1      42.453  31.243  32.853  1.00  0.00     0.049 A 
ATOM     27  C   UNL A   1      43.801  27.342  28.855  1.00  0.00     0.074 A 
ATOM     28  C   UNL A   1      42.744  32.533  32.470  1.00  0.00     0.029 A 
ATOM     29  N   UNL A   1      43.344  30.424  32.218  1.00  0.00    -0.354 N 
ATOM     30  N   UNL A   1      44.557  28.395  28.728  1.00  0.00    -0.248 NA
ATOM     31  C   UNL A   1      43.616  26.868  30.221  1.00  0.00     0.031 C 
ATOM     32  C   UNL A   1      43.681  32.418  31.396  1.00  0.00     0.029 A 
ATOM     33  C   UNL A   1      43.965  31.069  31.193  1.00  0.00     0.049 A 
ATOM     34  H   UNL A   1      43.516  29.489  32.471  1.00  0.00     0.167 HD
ATOM     35  C   UNL A   1      44.552  28.971  29.983  1.00  0.00     0.074 A 
ATOM     36  C   UNL A   1      44.128  27.906  30.885  1.00  0.00     0.031 C 
ATOM     37  C   UNL A   1      44.571  30.332  30.107  1.00  0.00     0.037 A 
BRANCH  24  38
ATOM     38  C   UNL A   1      41.611  29.454  34.504  1.00  0.00     0.064 A 
ATOM     39  C   UNL A   1      42.280  29.836  35.690  1.00  0.00     0.173 A 
ATOM     40  C   UNL A   1      41.602  28.065  34.248  1.00  0.00     0.173 A 
ATOM     41  F   UNL A   1      42.348  31.126  36.051  1.00  0.00    -0.203 F 
ATOM     42  C   UNL A   1      43.002  28.922  36.465  1.00  0.00     0.198 A 
ATOM     43  C   UNL A   1      42.288  27.150  35.049  1.00  0.00     0.198 A 
ATOM     44  F   UNL A   1      41.025  27.528  33.170  1.00  0.00    -0.203 F 
ATOM     45  F   UNL A   1      43.750  29.359  37.486  1.00  0.00    -0.200 F 
ATOM     46  C   UNL A   1      43.022  27.582  36.131  1.00  0.00     0.200 A 
ATOM     47  F   UNL A   1      42.304  25.855  34.700  1.00  0.00    -0.200 F 
ATOM     48  F   UNL A   1      43.779  26.716  36.818  1.00  0.00    -0.200 F 
ENDBRANCH  24  38
BRANCH  25  49
ATOM     49  C   UNL A   1      43.027  25.464  27.250  1.00  0.00     0.064 A 
ATOM     50  C   UNL A   1      42.208  24.417  27.714  1.00  0.00     0.173 A 
ATOM     51  C   UNL A   1      43.749  25.207  26.069  1.00  0.00     0.173 A 
ATOM     52  F   UNL A   1      41.450  24.583  28.807  1.00  0.00    -0.203 F 
ATOM     53  C   UNL A   1      42.094  23.206  27.020  1.00  0.00     0.198 A 
ATOM     54  C   UNL A   1      43.642  23.996  25.384  1.00  0.00     0.198 A 
ATOM     55  F   UNL A   1      44.499  26.160  25.500  1.00  0.00    -0.203 F 
ATOM     56  F   UNL A   1      41.249  22.262  27.455  1.00  0.00    -0.200 F 
ATOM     57  C   UNL A   1      42.803  23.001  25.848  1.00  0.00     0.200 A 
ATOM     58  F   UNL A   1      44.307  23.826  24.231  1.00  0.00    -0.200 F 
ATOM     59  F   UNL A   1      42.645  21.870  25.147  1.00  0.00    -0.200 F 
ENDBRANCH  25  49
BRANCH  37  60
ATOM     60  C   UNL A   1      45.116  31.115  28.954  1.00  0.00     0.064 A 
ATOM     61  C   UNL A   1      44.378  31.493  27.821  1.00  0.00     0.173 A 
ATOM     62  C   UNL A   1      46.443  31.556  29.044  1.00  0.00     0.173 A 
ATOM     63  F   UNL A   1      43.077  31.190  27.709  1.00  0.00    -0.203 F 
ATOM     64  C   UNL A   1      44.967  32.231  26.797  1.00  0.00     0.198 A 
ATOM     65  C   UNL A   1      47.015  32.329  28.041  1.00  0.00     0.198 A 
ATOM     66  F   UNL A   1      47.180  31.261  30.127  1.00  0.00    -0.203 F 
ATOM     67  F   UNL A   1      44.256  32.555  25.707  1.00  0.00    -0.200 F 
ATOM     68  C   UNL A   1      46.283  32.652  26.911  1.00  0.00     0.200 A 
ATOM     69  F   UNL A   1      48.271  32.773  28.180  1.00  0.00    -0.200 F 
ATOM     70  F   UNL A   1      46.840  33.389  25.940  1.00  0.00    -0.200 F 
ENDBRANCH  37  60
ENDBRANCH  11  12
ENDBRANCH   4   6
ENDBRANCH   1   2
BRANCH   1  71
ATOM     71  C   UNL A   1      34.398  35.340  28.437  1.00  0.00     0.023 C 
BRANCH  71  72
ATOM     72  C   UNL A   1      33.676  36.618  28.866  1.00  0.00     0.023 C 
BRANCH  72  73
ATOM     73  C   UNL A   1      32.873  36.512  30.159  1.00  0.00     0.116 C 
BRANCH  73  74
ATOM     74  N   UNL A   1      33.421  37.321  31.232  1.00  0.00    -0.351 N 
ATOM     75  C   UNL A   1      33.908  36.907  32.450  1.00  0.00     0.269 C 
ATOM     76  H   UNL A   1      33.448  38.290  31.066  1.00  0.00     0.163 HD
ATOM     77  O   UNL A   1      34.112  37.749  33.314  1.00  0.00    -0.268 OA
BRANCH  75  78
ATOM     78  C   UNL A   1      34.090  35.503  32.674  1.00  0.00     0.126 A 
ATOM     79  N   UNL A   1      33.042  34.668  33.012  1.00  0.00    -0.272 N 
ATOM     80  C   UNL A   1      35.181  34.673  32.658  1.00  0.00     0.006 A 
ATOM     81  N   UNL A   1      33.366  33.347  33.027  1.00  0.00    -0.180 NA
ATOM     82  H   UNL A   1      32.139  35.001  33.222  1.00  0.00     0.190 HD
ATOM     83  C   UNL A   1      34.672  33.385  32.822  1.00  0.00     0.066 A 
ATOM     84  C   UNL A   1      36.643  34.655  32.466  1.00  0.00     0.040 C 
ATOM     85  C   UNL A   1      35.699  32.336  32.676  1.00  0.00     0.059 C 
ATOM     86  C   UNL A   1      36.884  33.162  32.066  1.00  0.00     0.011 C 
ENDBRANCH  75  78
ENDBRANCH  73  74
ENDBRANCH  72  73
ENDBRANCH  71  72
ENDBRANCH   1  71
TORSDOF 11
ENDMDL
MODEL 3
REMARK VINA RESULT:     -11.5      4.006     10.804
REMARK SMILES O=C(NCCCCNC(=O)c1[nH]nc2c1CCC2)c1ccc(-c2c3nc(c(-c4c(F)c(F)c(F)c(F)c4F)c4ccc([nH]4)c(-c4c(F)c(F)c(F)c(F)c4F)c4nc(c(-c5c(F)c(F)c(F)c(F)c5F)c5ccc2[nH]5)C=C4)C=C3)cc1
REMARK SMILES IDX 4 1 3 2 1 3 2 4 19 6 20 7 81 8 21 9 80 10 22 11 23 12 24 13
REMARK SMILES IDX 74 14 25 15 79 16 73 17 75 18 26 19 78 20 72 21 71 22 27 24
REMARK SMILES IDX 59 25 39 26 58 27 40 28 43 29 57 30 76 31 41 32 42 33 56 35
REMARK SMILES IDX 77 36 44 37 28 38 29 39 37 40 30 41 31 42 35 43 38 44 32 45
REMARK SMILES IDX 33 46 36 47 34 48 60 49 61 50 69 51 62 52 63 53 67 54 70 55
REMARK SMILES IDX 64 56 65 57 68 58 66 59 45 60 46 61 54 62 47 63 48 64 52 65
REMARK SMILES IDX 55 66 49 67 50 68 53 69 51 70 5 71 6 72 7 73 8 74 9 75 10 77
REMARK SMILES IDX 11 78 12 79 15 80 13 81 14 83 16 84 18 85 17 86
REMARK H PARENT 3 5 75 23 43 34 8 76 12 82
REMARK Flexibility Score: inf
ROOT
ATOM      1  C   UNL A   1      34.109  34.595  28.831  1.00  0.00     0.116 C 
ENDROOT
BRANCH   1   2
ATOM      2  N   UNL A   1      33.657  33.425  28.109  1.00  0.00    -0.352 N 
ATOM      3  O   UNL A   1      33.345  31.327  27.477  1.00  0.00    -0.269 OA
ATOM      4  C   UNL A   1      34.111  32.139  28.000  1.00  0.00     0.251 C 
ATOM      5  H   UNL A   1      32.843  33.590  27.581  1.00  0.00     0.163 HD
BRANCH   4   6
ATOM      6  C   UNL A   1      35.477  31.691  28.377  1.00  0.00     0.039 A 
ATOM      7  C   UNL A   1      36.546  32.523  28.707  1.00  0.00     0.014 A 
ATOM      8  C   UNL A   1      35.686  30.298  28.357  1.00  0.00     0.014 A 
ATOM      9  C   UNL A   1      37.817  31.992  28.901  1.00  0.00     0.010 A 
ATOM     10  C   UNL A   1      36.947  29.758  28.570  1.00  0.00     0.010 A 
ATOM     11  C   UNL A   1      38.018  30.613  28.809  1.00  0.00    -0.014 A 
BRANCH  11  12
ATOM     12  C   UNL A   1      39.311  30.078  29.228  1.00  0.00     0.031 A 
ATOM     13  C   UNL A   1      39.529  30.203  30.697  1.00  0.00     0.074 A 
ATOM     14  C   UNL A   1      40.140  29.399  28.408  1.00  0.00     0.049 A 
ATOM     15  N   UNL A   1      40.457  30.862  31.307  1.00  0.00    -0.248 NA
ATOM     16  C   UNL A   1      38.499  29.659  31.601  1.00  0.00     0.031 C 
ATOM     17  C   UNL A   1      39.867  29.000  27.026  1.00  0.00     0.029 A 
ATOM     18  N   UNL A   1      41.354  28.820  28.658  1.00  0.00    -0.354 N 
ATOM     19  C   UNL A   1      40.251  30.637  32.670  1.00  0.00     0.074 A 
ATOM     20  C   UNL A   1      38.940  30.067  32.792  1.00  0.00     0.031 C 
ATOM     21  C   UNL A   1      40.757  28.056  26.649  1.00  0.00     0.029 A 
ATOM     22  C   UNL A   1      41.727  27.865  27.715  1.00  0.00     0.049 A 
ATOM     23  H   UNL A   1      41.912  29.055  29.434  1.00  0.00     0.167 HD
ATOM     24  C   UNL A   1      41.309  30.632  33.526  1.00  0.00     0.037 A 
ATOM     25  C   UNL A   1      42.715  26.941  27.829  1.00  0.00     0.037 A 
ATOM     26  C   UNL A   1      42.434  31.308  32.928  1.00  0.00     0.049 A 
ATOM     27  C   UNL A   1      43.638  27.403  28.889  1.00  0.00     0.074 A 
ATOM     28  C   UNL A   1      42.764  32.592  32.555  1.00  0.00     0.029 A 
ATOM     29  N   UNL A   1      43.296  30.467  32.281  1.00  0.00    -0.354 N 
ATOM     30  N   UNL A   1      44.427  28.432  28.767  1.00  0.00    -0.248 NA
ATOM     31  C   UNL A   1      43.445  26.922  30.251  1.00  0.00     0.031 C 
ATOM     32  C   UNL A   1      43.693  32.457  31.475  1.00  0.00     0.029 A 
ATOM     33  C   UNL A   1      43.932  31.101  31.258  1.00  0.00     0.049 A 
ATOM     34  H   UNL A   1      43.440  29.524  32.524  1.00  0.00     0.167 HD
ATOM     35  C   UNL A   1      44.446  28.997  30.027  1.00  0.00     0.074 A 
ATOM     36  C   UNL A   1      43.993  27.938  30.922  1.00  0.00     0.031 C 
ATOM     37  C   UNL A   1      44.509  30.355  30.163  1.00  0.00     0.037 A 
BRANCH  24  38
ATOM     38  C   UNL A   1      41.544  29.532  34.567  1.00  0.00     0.064 A 
ATOM     39  C   UNL A   1      42.219  29.885  35.759  1.00  0.00     0.173 A 
ATOM     40  C   UNL A   1      41.502  28.146  34.297  1.00  0.00     0.173 A 
ATOM     41  F   UNL A   1      42.317  31.168  36.135  1.00  0.00    -0.203 F 
ATOM     42  C   UNL A   1      42.917  28.945  36.526  1.00  0.00     0.198 A 
ATOM     43  C   UNL A   1      42.164  27.207  35.089  1.00  0.00     0.198 A 
ATOM     44  F   UNL A   1      40.916  27.635  33.211  1.00  0.00    -0.203 F 
ATOM     45  F   UNL A   1      43.672  29.353  37.554  1.00  0.00    -0.200 F 
ATOM     46  C   UNL A   1      42.905  27.609  36.177  1.00  0.00     0.200 A 
ATOM     47  F   UNL A   1      42.149  25.915  34.726  1.00  0.00    -0.200 F 
ATOM     48  F   UNL A   1      43.638  26.718  36.857  1.00  0.00    -0.200 F 
ENDBRANCH  24  38
BRANCH  25  49
ATOM     49  C   UNL A   1      42.797  25.564  27.271  1.00  0.00     0.064 A 
ATOM     50  C   UNL A   1      41.908  24.555  27.685  1.00  0.00     0.173 A 
ATOM     51  C   UNL A   1      43.555  25.285  26.118  1.00  0.00     0.173 A 
ATOM     52  F   UNL A   1      41.112  24.748  28.748  1.00  0.00    -0.203 F 
ATOM     53  C   UNL A   1      41.762  23.360  26.971  1.00  0.00     0.198 A 
ATOM     54  C   UNL A   1      43.417  24.088  25.412  1.00  0.00     0.198 A 
ATOM     55  F   UNL A   1      44.376  26.205  25.594  1.00  0.00    -0.203 F 
ATOM     56  F   UNL A   1      40.852  22.455  27.357  1.00  0.00    -0.200 F 
ATOM     57  C   UNL A   1      42.509  23.132  25.828  1.00  0.00     0.200 A 
ATOM     58  F   UNL A   1      44.121  23.898  24.287  1.00  0.00    -0.200 F 
ATOM     59  F   UNL A   1      42.324  22.020  25.105  1.00  0.00    -0.200 F 
ENDBRANCH  25  49
BRANCH  37  60
ATOM     60  C   UNL A   1      45.073  31.131  29.014  1.00  0.00     0.064 A 
ATOM     61  C   UNL A   1      46.438  31.391  28.816  1.00  0.00     0.173 A 
ATOM     62  C   UNL A   1      44.176  31.574  28.033  1.00  0.00     0.173 A 
ATOM     63  F   UNL A   1      47.364  30.916  29.661  1.00  0.00    -0.203 F 
ATOM     64  C   UNL A   1      46.874  32.117  27.710  1.00  0.00     0.198 A 
ATOM     65  C   UNL A   1      44.619  32.260  26.910  1.00  0.00     0.198 A 
ATOM     66  F   UNL A   1      42.864  31.312  28.152  1.00  0.00    -0.203 F 
ATOM     67  F   UNL A   1      48.179  32.384  27.553  1.00  0.00    -0.200 F 
ATOM     68  C   UNL A   1      45.965  32.546  26.756  1.00  0.00     0.200 A 
ATOM     69  F   UNL A   1      43.740  32.629  25.967  1.00  0.00    -0.200 F 
ATOM     70  F   UNL A   1      46.388  33.216  25.675  1.00  0.00    -0.200 F 
ENDBRANCH  37  60
ENDBRANCH  11  12
ENDBRANCH   4   6
ENDBRANCH   1   2
BRANCH   1  71
ATOM     71  C   UNL A   1      33.289  34.952  30.072  1.00  0.00     0.023 C 
BRANCH  71  72
ATOM     72  C   UNL A   1      34.101  35.409  31.284  1.00  0.00     0.023 C 
BRANCH  72  73
ATOM     73  C   UNL A   1      34.048  34.481  32.493  1.00  0.00     0.116 C 
BRANCH  73  74
ATOM     74  N   UNL A   1      34.261  33.088  32.146  1.00  0.00    -0.351 N 
ATOM     75  C   UNL A   1      35.406  32.339  32.283  1.00  0.00     0.269 C 
ATOM     76  H   UNL A   1      33.485  32.619  31.764  1.00  0.00     0.163 HD
ATOM     77  O   UNL A   1      35.464  31.252  31.724  1.00  0.00    -0.268 OA
BRANCH  75  78
ATOM     78  C   UNL A   1      36.503  32.893  33.020  1.00  0.00     0.126 A 
ATOM     79  N   UNL A   1      36.617  32.755  34.391  1.00  0.00    -0.272 N 
ATOM     80  C   UNL A   1      37.599  33.640  32.673  1.00  0.00     0.006 A 
ATOM     81  N   UNL A   1      37.797  33.201  34.899  1.00  0.00    -0.180 NA
ATOM     82  H   UNL A   1      35.905  32.366  34.949  1.00  0.00     0.190 HD
ATOM     83  C   UNL A   1      38.364  33.744  33.834  1.00  0.00     0.066 A 
ATOM     84  C   UNL A   1      38.266  34.289  31.528  1.00  0.00     0.040 C 
ATOM     85  C   UNL A   1      39.670  34.392  33.609  1.00  0.00     0.059 C 
ATOM     86  C   UNL A   1      39.740  34.385  32.043  1.00  0.00     0.011 C 
ENDBRANCH  75  78
ENDBRANCH  73  74
ENDBRANCH  72  73
ENDBRANCH  71  72
ENDBRANCH   1  71
TORSDOF 11
ENDMDL
