MODEL 1
REMARK VINA RESULT:     -13.1      0.000      0.000
REMARK SMILES CC[C@@H]1CCC[C@@](Cc2cccc(O)c2)(C(=O)NCCCCNC(=O)c2ccc(-c3c4nc(c(-c5c(F)c(F)c(F)c(F)c5F)c5ccc([nH]5)c(-c5c(F)c(F)c(F)c(F)c5F)c5nc(c(-c6c(F)c(F)c(F)c(F)c6F)c6ccc3[nH]6)C=C5)C=C4)cc2)C1
REMARK SMILES IDX 20 1 19 2 18 3 16 4 17 5 7 7 3 8 4 9 89 10 5 11 6 12 2 13
REMARK SMILES IDX 1 14 8 15 9 16 10 17 15 18 11 19 13 20 12 21 14 22 21 24
REMARK SMILES IDX 22 25 23 26 24 27 25 29 26 30 27 31 88 32 28 33 87 34 29 35
REMARK SMILES IDX 30 36 31 37 81 38 32 39 86 40 80 41 82 42 33 43 85 44 79 45
REMARK SMILES IDX 78 46 34 48 66 49 46 50 65 51 47 52 50 53 64 54 83 55 48 56
REMARK SMILES IDX 49 57 63 59 84 60 51 61 35 62 36 63 44 64 37 65 38 66 42 67
REMARK SMILES IDX 45 68 39 69 40 70 43 71 41 72 67 73 68 74 76 75 69 76 70 77
REMARK SMILES IDX 74 78 77 79 71 80 72 81 75 82 73 83 52 84 53 85 61 86 54 87
REMARK SMILES IDX 55 88 59 89 62 90 56 91 57 92 60 93 58 94
REMARK H PARENT 18 6 14 23 23 28 82 47 50 58
REMARK Flexibility Score: inf
ROOT
ATOM      1  C   UNL A   1      31.907  30.616  26.662  1.00  0.00     0.023 C 
ENDROOT
BRANCH   1   2
ATOM      2  C   UNL A   1      31.582  30.057  25.285  1.00  0.00     0.116 C 
BRANCH   2   3
ATOM      3  N   UNL A   1      32.743  29.616  24.542  1.00  0.00    -0.356 N 
ATOM      4  C   UNL A   1      32.949  28.524  23.753  1.00  0.00     0.226 C 
ATOM      5  O   UNL A   1      33.918  28.613  22.990  1.00  0.00    -0.274 OA
ATOM      6  H   UNL A   1      33.523  30.210  24.620  1.00  0.00     0.163 HD
BRANCH   4   7
ATOM      7  C   UNL A   1      32.049  27.257  23.752  1.00  0.00     0.053 C 
ATOM      8  C   UNL A   1      33.975  25.663  24.562  1.00  0.00    -0.010 C 
ATOM      9  C   UNL A   1      33.287  25.529  25.927  1.00  0.00     0.003 C 
ATOM     10  C   UNL A   1      32.968  26.014  23.447  1.00  0.00     0.020 C 
ATOM     11  C   UNL A   1      32.386  26.719  26.229  1.00  0.00     0.001 C 
ATOM     12  C   UNL A   1      31.372  26.934  25.106  1.00  0.00     0.017 C 
BRANCH   8  13
ATOM     13  C   UNL A   1      34.812  24.411  24.226  1.00  0.00     0.000 C 
ATOM     14  C   UNL A   1      34.086  23.322  23.442  1.00  0.00     0.004 C 
ENDBRANCH   8  13
BRANCH   7  15
ATOM     15  C   UNL A   1      31.039  27.301  22.559  1.00  0.00     0.052 C 
BRANCH  15  16
ATOM     16  C   UNL A   1      29.913  28.304  22.569  1.00  0.00    -0.043 A 
ATOM     17  C   UNL A   1      28.674  27.971  23.139  1.00  0.00     0.004 A 
ATOM     18  C   UNL A   1      30.076  29.578  22.008  1.00  0.00     0.049 A 
ATOM     19  C   UNL A   1      27.608  28.875  23.108  1.00  0.00     0.004 A 
ATOM     20  C   UNL A   1      29.003  30.467  21.970  1.00  0.00     0.115 A 
ATOM     21  C   UNL A   1      27.768  30.125  22.508  1.00  0.00     0.046 A 
BRANCH  20  22
ATOM     22  O   UNL A   1      29.202  31.673  21.365  1.00  0.00    -0.508 OA
ATOM     23  H   UNL A   1      29.138  31.746  20.433  1.00  0.00     0.293 HD
ENDBRANCH  20  22
ENDBRANCH  15  16
ENDBRANCH   7  15
ENDBRANCH   4   7
ENDBRANCH   2   3
ENDBRANCH   1   2
BRANCH   1  24
ATOM     24  C   UNL A   1      31.627  32.108  26.832  1.00  0.00     0.023 C 
BRANCH  24  25
ATOM     25  C   UNL A   1      32.762  32.943  27.422  1.00  0.00     0.116 C 
BRANCH  25  26
ATOM     26  N   UNL A   1      32.385  34.303  27.787  1.00  0.00    -0.352 N 
ATOM     27  C   UNL A   1      32.988  35.138  28.699  1.00  0.00     0.251 C 
ATOM     28  H   UNL A   1      31.599  34.670  27.322  1.00  0.00     0.163 HD
ATOM     29  O   UNL A   1      32.553  36.264  28.910  1.00  0.00    -0.269 OA
BRANCH  27  30
ATOM     30  C   UNL A   1      34.151  34.636  29.457  1.00  0.00     0.039 A 
ATOM     31  C   UNL A   1      33.942  34.061  30.712  1.00  0.00     0.014 A 
ATOM     32  C   UNL A   1      35.426  34.657  28.885  1.00  0.00     0.014 A 
ATOM     33  C   UNL A   1      35.002  33.423  31.360  1.00  0.00     0.010 A 
ATOM     34  C   UNL A   1      36.467  33.971  29.504  1.00  0.00     0.010 A 
ATOM     35  C   UNL A   1      36.260  33.333  30.738  1.00  0.00    -0.014 A 
BRANCH  35  36
ATOM     36  C   UNL A   1      37.363  32.548  31.344  1.00  0.00     0.031 A 
ATOM     37  C   UNL A   1      37.883  32.901  32.706  1.00  0.00     0.074 A 
ATOM     38  C   UNL A   1      37.954  31.570  30.628  1.00  0.00     0.049 A 
ATOM     39  N   UNL A   1      38.892  32.390  33.366  1.00  0.00    -0.248 NA
ATOM     40  C   UNL A   1      37.193  33.991  33.412  1.00  0.00     0.031 C 
ATOM     41  C   UNL A   1      37.576  31.169  29.272  1.00  0.00     0.029 A 
ATOM     42  N   UNL A   1      39.009  30.748  30.937  1.00  0.00    -0.354 N 
ATOM     43  C   UNL A   1      38.968  33.107  34.551  1.00  0.00     0.074 A 
ATOM     44  C   UNL A   1      37.932  34.117  34.504  1.00  0.00     0.031 C 
ATOM     45  C   UNL A   1      38.377  30.168  28.871  1.00  0.00     0.029 A 
ATOM     46  C   UNL A   1      39.343  29.879  29.928  1.00  0.00     0.049 A 
ATOM     47  H   UNL A   1      39.481  30.779  31.800  1.00  0.00     0.167 HD
ATOM     48  C   UNL A   1      39.811  32.925  35.595  1.00  0.00     0.037 A 
ATOM     49  C   UNL A   1      40.322  28.957  29.859  1.00  0.00     0.037 A 
ATOM     50  C   UNL A   1      40.823  31.903  35.653  1.00  0.00     0.049 A 
ATOM     51  C   UNL A   1      41.241  28.769  31.035  1.00  0.00     0.074 A 
ATOM     52  C   UNL A   1      41.683  31.597  36.694  1.00  0.00     0.029 A 
ATOM     53  N   UNL A   1      41.112  31.020  34.624  1.00  0.00    -0.354 N 
ATOM     54  N   UNL A   1      41.257  29.405  32.181  1.00  0.00    -0.248 NA
ATOM     55  C   UNL A   1      42.274  27.732  30.911  1.00  0.00     0.031 C 
ATOM     56  C   UNL A   1      42.516  30.552  36.281  1.00  0.00     0.029 A 
ATOM     57  C   UNL A   1      42.148  30.180  34.998  1.00  0.00     0.049 A 
ATOM     58  H   UNL A   1      40.650  30.994  33.755  1.00  0.00     0.167 HD
ATOM     59  C   UNL A   1      42.279  28.828  32.923  1.00  0.00     0.074 A 
ATOM     60  C   UNL A   1      42.854  27.784  32.102  1.00  0.00     0.031 C 
ATOM     61  C   UNL A   1      42.703  29.138  34.172  1.00  0.00     0.037 A 
BRANCH  48  62
ATOM     62  C   UNL A   1      39.670  33.850  36.767  1.00  0.00     0.064 A 
ATOM     63  C   UNL A   1      40.319  35.093  36.800  1.00  0.00     0.173 A 
ATOM     64  C   UNL A   1      38.851  33.506  37.852  1.00  0.00     0.173 A 
ATOM     65  F   UNL A   1      41.123  35.462  35.792  1.00  0.00    -0.203 F 
ATOM     66  C   UNL A   1      40.177  35.946  37.891  1.00  0.00     0.198 A 
ATOM     67  C   UNL A   1      38.690  34.373  38.930  1.00  0.00     0.198 A 
ATOM     68  F   UNL A   1      38.205  32.330  37.868  1.00  0.00    -0.203 F 
ATOM     69  F   UNL A   1      40.844  37.108  37.924  1.00  0.00    -0.200 F 
ATOM     70  C   UNL A   1      39.357  35.589  38.952  1.00  0.00     0.200 A 
ATOM     71  F   UNL A   1      37.889  34.032  39.949  1.00  0.00    -0.200 F 
ATOM     72  F   UNL A   1      39.217  36.413  39.999  1.00  0.00    -0.200 F 
ENDBRANCH  48  62
BRANCH  49  73
ATOM     73  C   UNL A   1      40.468  28.119  28.641  1.00  0.00     0.064 A 
ATOM     74  C   UNL A   1      39.824  26.878  28.545  1.00  0.00     0.173 A 
ATOM     75  C   UNL A   1      41.253  28.534  27.557  1.00  0.00     0.173 A 
ATOM     76  F   UNL A   1      39.080  26.429  29.568  1.00  0.00    -0.203 F 
ATOM     77  C   UNL A   1      39.974  26.075  27.417  1.00  0.00     0.198 A 
ATOM     78  C   UNL A   1      41.383  27.741  26.418  1.00  0.00     0.198 A 
ATOM     79  F   UNL A   1      41.886  29.715  27.600  1.00  0.00    -0.203 F 
ATOM     80  F   UNL A   1      39.379  24.875  27.368  1.00  0.00    -0.200 F 
ATOM     81  C   UNL A   1      40.748  26.509  26.352  1.00  0.00     0.200 A 
ATOM     82  F   UNL A   1      42.122  28.169  25.387  1.00  0.00    -0.200 F 
ATOM     83  F   UNL A   1      40.890  25.738  25.266  1.00  0.00    -0.200 F 
ENDBRANCH  49  73
BRANCH  61  84
ATOM     84  C   UNL A   1      43.821  28.317  34.741  1.00  0.00     0.064 A 
ATOM     85  C   UNL A   1      45.160  28.714  34.620  1.00  0.00     0.173 A 
ATOM     86  C   UNL A   1      43.545  27.140  35.455  1.00  0.00     0.173 A 
ATOM     87  F   UNL A   1      45.474  29.823  33.933  1.00  0.00    -0.203 F 
ATOM     88  C   UNL A   1      46.184  27.952  35.175  1.00  0.00     0.198 A 
ATOM     89  C   UNL A   1      44.569  26.395  36.030  1.00  0.00     0.198 A 
ATOM     90  F   UNL A   1      42.279  26.721  35.603  1.00  0.00    -0.203 F 
ATOM     91  F   UNL A   1      47.460  28.329  35.012  1.00  0.00    -0.200 F 
ATOM     92  C   UNL A   1      45.888  26.799  35.885  1.00  0.00     0.200 A 
ATOM     93  F   UNL A   1      44.280  25.286  36.725  1.00  0.00    -0.200 F 
ATOM     94  F   UNL A   1      46.875  26.070  36.424  1.00  0.00    -0.200 F 
ENDBRANCH  61  84
ENDBRANCH  35  36
ENDBRANCH  27  30
ENDBRANCH  25  26
ENDBRANCH  24  25
ENDBRANCH   1  24
TORSDOF 15
ENDMDL
MODEL 2
REMARK VINA RESULT:     -13.1      0.086      1.595
REMARK SMILES CC[C@@H]1CCC[C@@](Cc2cccc(O)c2)(C(=O)NCCCCNC(=O)c2ccc(-c3c4nc(c(-c5c(F)c(F)c(F)c(F)c5F)c5ccc([nH]5)c(-c5c(F)c(F)c(F)c(F)c5F)c5nc(c(-c6c(F)c(F)c(F)c(F)c6F)c6ccc3[nH]6)C=C5)C=C4)cc2)C1
REMARK SMILES IDX 20 1 19 2 18 3 16 4 17 5 7 7 3 8 4 9 89 10 5 11 6 12 2 13
REMARK SMILES IDX 1 14 8 15 9 16 10 17 15 18 11 19 13 20 12 21 14 22 21 24
REMARK SMILES IDX 22 25 23 26 24 27 25 29 26 30 27 31 88 32 28 33 87 34 29 35
REMARK SMILES IDX 30 36 31 37 81 38 32 39 86 40 80 41 82 42 33 43 85 44 79 45
REMARK SMILES IDX 78 46 34 48 66 49 46 50 65 51 47 52 50 53 64 54 83 55 48 56
REMARK SMILES IDX 49 57 63 59 84 60 51 61 35 62 36 63 44 64 37 65 38 66 42 67
REMARK SMILES IDX 45 68 39 69 40 70 43 71 41 72 67 73 68 74 76 75 69 76 70 77
REMARK SMILES IDX 74 78 77 79 71 80 72 81 75 82 73 83 52 84 53 85 61 86 54 87
REMARK SMILES IDX 55 88 59 89 62 90 56 91 57 92 60 93 58 94
REMARK H PARENT 18 6 14 23 23 28 82 47 50 58
REMARK Flexibility Score: inf
ROOT
ATOM      1  C   UNL A   1      31.824  30.576  26.700  1.00  0.00     0.023 C 
ENDROOT
BRANCH   1   2
ATOM      2  C   UNL A   1      31.528  30.016  25.318  1.00  0.00     0.116 C 
BRANCH   2   3
ATOM      3  N   UNL A   1      32.706  29.601  24.587  1.00  0.00    -0.356 N 
ATOM      4  C   UNL A   1      32.931  28.540  23.764  1.00  0.00     0.226 C 
ATOM      5  O   UNL A   1      33.920  28.656  23.028  1.00  0.00    -0.274 OA
ATOM      6  H   UNL A   1      33.485  30.191  24.708  1.00  0.00     0.163 HD
BRANCH   4   7
ATOM      7  C   UNL A   1      32.031  27.275  23.692  1.00  0.00     0.053 C 
ATOM      8  C   UNL A   1      33.944  25.644  24.458  1.00  0.00    -0.010 C 
ATOM      9  C   UNL A   1      33.236  25.449  25.804  1.00  0.00     0.003 C 
ATOM     10  C   UNL A   1      32.954  26.046  23.345  1.00  0.00     0.020 C 
ATOM     11  C   UNL A   1      32.331  26.625  26.147  1.00  0.00     0.001 C 
ATOM     12  C   UNL A   1      31.334  26.892  25.019  1.00  0.00     0.017 C 
BRANCH   8  13
ATOM     13  C   UNL A   1      34.785  24.407  24.078  1.00  0.00     0.000 C 
ATOM     14  C   UNL A   1      34.045  23.314  23.313  1.00  0.00     0.004 C 
ENDBRANCH   8  13
BRANCH   7  15
ATOM     15  C   UNL A   1      31.039  27.374  22.487  1.00  0.00     0.052 C 
BRANCH  15  16
ATOM     16  C   UNL A   1      29.919  28.384  22.520  1.00  0.00    -0.043 A 
ATOM     17  C   UNL A   1      28.682  28.049  23.092  1.00  0.00     0.004 A 
ATOM     18  C   UNL A   1      30.088  29.666  21.980  1.00  0.00     0.049 A 
ATOM     19  C   UNL A   1      27.622  28.961  23.083  1.00  0.00     0.004 A 
ATOM     20  C   UNL A   1      29.021  30.562  21.964  1.00  0.00     0.115 A 
ATOM     21  C   UNL A   1      27.787  30.219  22.504  1.00  0.00     0.046 A 
BRANCH  20  22
ATOM     22  O   UNL A   1      29.224  31.778  21.379  1.00  0.00    -0.508 OA
ATOM     23  H   UNL A   1      28.797  32.539  21.720  1.00  0.00     0.293 HD
ENDBRANCH  20  22
ENDBRANCH  15  16
ENDBRANCH   7  15
ENDBRANCH   4   7
ENDBRANCH   2   3
ENDBRANCH   1   2
BRANCH   1  24
ATOM     24  C   UNL A   1      31.548  32.070  26.861  1.00  0.00     0.023 C 
BRANCH  24  25
ATOM     25  C   UNL A   1      32.707  32.917  27.382  1.00  0.00     0.116 C 
BRANCH  25  26
ATOM     26  N   UNL A   1      32.349  34.288  27.721  1.00  0.00    -0.352 N 
ATOM     27  C   UNL A   1      32.970  35.135  28.610  1.00  0.00     0.251 C 
ATOM     28  H   UNL A   1      31.564  34.655  27.253  1.00  0.00     0.163 HD
ATOM     29  O   UNL A   1      32.549  36.271  28.800  1.00  0.00    -0.269 OA
BRANCH  27  30
ATOM     30  C   UNL A   1      34.132  34.635  29.370  1.00  0.00     0.039 A 
ATOM     31  C   UNL A   1      33.927  34.101  30.643  1.00  0.00     0.014 A 
ATOM     32  C   UNL A   1      35.401  34.618  28.785  1.00  0.00     0.014 A 
ATOM     33  C   UNL A   1      34.982  33.463  31.299  1.00  0.00     0.010 A 
ATOM     34  C   UNL A   1      36.436  33.932  29.413  1.00  0.00     0.010 A 
ATOM     35  C   UNL A   1      36.231  33.334  30.667  1.00  0.00    -0.014 A 
BRANCH  35  36
ATOM     36  C   UNL A   1      37.327  32.547  31.284  1.00  0.00     0.031 A 
ATOM     37  C   UNL A   1      37.833  32.900  32.653  1.00  0.00     0.074 A 
ATOM     38  C   UNL A   1      37.925  31.570  30.574  1.00  0.00     0.049 A 
ATOM     39  N   UNL A   1      38.835  32.388  33.322  1.00  0.00    -0.248 NA
ATOM     40  C   UNL A   1      37.136  33.990  33.351  1.00  0.00     0.031 C 
ATOM     41  C   UNL A   1      37.562  31.169  29.214  1.00  0.00     0.029 A 
ATOM     42  N   UNL A   1      38.976  30.747  30.894  1.00  0.00    -0.354 N 
ATOM     43  C   UNL A   1      38.899  33.104  34.509  1.00  0.00     0.074 A 
ATOM     44  C   UNL A   1      37.864  34.115  34.452  1.00  0.00     0.031 C 
ATOM     45  C   UNL A   1      38.367  30.168  28.821  1.00  0.00     0.029 A 
ATOM     46  C   UNL A   1      39.321  29.878  29.888  1.00  0.00     0.049 A 
ATOM     47  H   UNL A   1      39.439  30.777  31.762  1.00  0.00     0.167 HD
ATOM     48  C   UNL A   1      39.731  32.920  35.562  1.00  0.00     0.037 A 
ATOM     49  C   UNL A   1      40.300  28.955  29.829  1.00  0.00     0.037 A 
ATOM     50  C   UNL A   1      40.741  31.898  35.630  1.00  0.00     0.049 A 
ATOM     51  C   UNL A   1      41.206  28.767  31.015  1.00  0.00     0.074 A 
ATOM     52  C   UNL A   1      41.589  31.591  36.679  1.00  0.00     0.029 A 
ATOM     53  N   UNL A   1      41.040  31.016  34.603  1.00  0.00    -0.354 N 
ATOM     54  N   UNL A   1      41.211  29.401  32.162  1.00  0.00    -0.248 NA
ATOM     55  C   UNL A   1      42.240  27.728  30.901  1.00  0.00     0.031 C 
ATOM     56  C   UNL A   1      42.426  30.545  36.275  1.00  0.00     0.029 A 
ATOM     57  C   UNL A   1      42.072  30.175  34.988  1.00  0.00     0.049 A 
ATOM     58  H   UNL A   1      40.587  30.990  33.729  1.00  0.00     0.167 HD
ATOM     59  C   UNL A   1      42.224  28.824  32.914  1.00  0.00     0.074 A 
ATOM     60  C   UNL A   1      42.807  27.780  32.098  1.00  0.00     0.031 C 
ATOM     61  C   UNL A   1      42.635  29.133  34.168  1.00  0.00     0.037 A 
BRANCH  48  62
ATOM     62  C   UNL A   1      39.578  33.846  36.733  1.00  0.00     0.064 A 
ATOM     63  C   UNL A   1      38.811  33.489  37.852  1.00  0.00     0.173 A 
ATOM     64  C   UNL A   1      40.231  35.087  36.750  1.00  0.00     0.173 A 
ATOM     65  F   UNL A   1      38.157  32.318  37.877  1.00  0.00    -0.203 F 
ATOM     66  C   UNL A   1      38.680  34.354  38.935  1.00  0.00     0.198 A 
ATOM     67  C   UNL A   1      40.119  35.938  37.847  1.00  0.00     0.198 A 
ATOM     68  F   UNL A   1      40.979  35.474  35.706  1.00  0.00    -0.203 F 
ATOM     69  F   UNL A   1      37.905  34.013  39.973  1.00  0.00    -0.200 F 
ATOM     70  C   UNL A   1      39.340  35.574  38.934  1.00  0.00     0.200 A 
ATOM     71  F   UNL A   1      40.766  37.112  37.851  1.00  0.00    -0.200 F 
ATOM     72  F   UNL A   1      39.217  36.403  39.980  1.00  0.00    -0.200 F 
ENDBRANCH  48  62
BRANCH  49  73
ATOM     73  C   UNL A   1      40.458  28.117  28.613  1.00  0.00     0.064 A 
ATOM     74  C   UNL A   1      39.829  26.869  28.517  1.00  0.00     0.173 A 
ATOM     75  C   UNL A   1      41.241  28.541  27.530  1.00  0.00     0.173 A 
ATOM     76  F   UNL A   1      39.088  26.413  29.538  1.00  0.00    -0.203 F 
ATOM     77  C   UNL A   1      39.990  26.067  27.390  1.00  0.00     0.198 A 
ATOM     78  C   UNL A   1      41.382  27.748  26.392  1.00  0.00     0.198 A 
ATOM     79  F   UNL A   1      41.860  29.729  27.573  1.00  0.00    -0.203 F 
ATOM     80  F   UNL A   1      39.410  24.860  27.341  1.00  0.00    -0.200 F 
ATOM     81  C   UNL A   1      40.762  26.509  26.326  1.00  0.00     0.200 A 
ATOM     82  F   UNL A   1      42.119  28.184  25.362  1.00  0.00    -0.200 F 
ATOM     83  F   UNL A   1      40.915  25.738  25.241  1.00  0.00    -0.200 F 
ENDBRANCH  49  73
BRANCH  61  84
ATOM     84  C   UNL A   1      43.746  28.311  34.748  1.00  0.00     0.064 A 
ATOM     85  C   UNL A   1      43.495  27.110  35.427  1.00  0.00     0.173 A 
ATOM     86  C   UNL A   1      45.083  28.707  34.585  1.00  0.00     0.173 A 
ATOM     87  F   UNL A   1      42.232  26.698  35.622  1.00  0.00    -0.203 F 
ATOM     88  C   UNL A   1      44.539  26.346  35.939  1.00  0.00     0.198 A 
ATOM     89  C   UNL A   1      46.125  27.928  35.076  1.00  0.00     0.198 A 
ATOM     90  F   UNL A   1      45.375  29.845  33.939  1.00  0.00    -0.203 F 
ATOM     91  F   UNL A   1      44.274  25.222  36.620  1.00  0.00    -0.200 F 
ATOM     92  C   UNL A   1      45.853  26.752  35.758  1.00  0.00     0.200 A 
ATOM     93  F   UNL A   1      47.395  28.316  34.890  1.00  0.00    -0.200 F 
ATOM     94  F   UNL A   1      46.857  26.011  36.246  1.00  0.00    -0.200 F 
ENDBRANCH  61  84
ENDBRANCH  35  36
ENDBRANCH  27  30
ENDBRANCH  25  26
ENDBRANCH  24  25
ENDBRANCH   1  24
TORSDOF 15
ENDMDL
MODEL 3
REMARK VINA RESULT:     -13.0      0.519      7.320
REMARK SMILES CC[C@@H]1CCC[C@@](Cc2cccc(O)c2)(C(=O)NCCCCNC(=O)c2ccc(-c3c4nc(c(-c5c(F)c(F)c(F)c(F)c5F)c5ccc([nH]5)c(-c5c(F)c(F)c(F)c(F)c5F)c5nc(c(-c6c(F)c(F)c(F)c(F)c6F)c6ccc3[nH]6)C=C5)C=C4)cc2)C1
REMARK SMILES IDX 20 1 19 2 18 3 16 4 17 5 7 7 3 8 4 9 89 10 5 11 6 12 2 13
REMARK SMILES IDX 1 14 8 15 9 16 10 17 15 18 11 19 13 20 12 21 14 22 21 24
REMARK SMILES IDX 22 25 23 26 24 27 25 29 26 30 27 31 88 32 28 33 87 34 29 35
REMARK SMILES IDX 30 36 31 37 81 38 32 39 86 40 80 41 82 42 33 43 85 44 79 45
REMARK SMILES IDX 78 46 34 48 66 49 46 50 65 51 47 52 50 53 64 54 83 55 48 56
REMARK SMILES IDX 49 57 63 59 84 60 51 61 35 62 36 63 44 64 37 65 38 66 42 67
REMARK SMILES IDX 45 68 39 69 40 70 43 71 41 72 67 73 68 74 76 75 69 76 70 77
REMARK SMILES IDX 74 78 77 79 71 80 72 81 75 82 73 83 52 84 53 85 61 86 54 87
REMARK SMILES IDX 55 88 59 89 62 90 56 91 57 92 60 93 58 94
REMARK H PARENT 18 6 14 23 23 28 82 47 50 58
REMARK Flexibility Score: inf
ROOT
ATOM      1  C   UNL A   1      32.290  30.447  26.587  1.00  0.00     0.023 C 
ENDROOT
BRANCH   1   2
ATOM      2  C   UNL A   1      31.987  29.997  25.166  1.00  0.00     0.116 C 
BRANCH   2   3
ATOM      3  N   UNL A   1      33.137  29.479  24.456  1.00  0.00    -0.356 N 
ATOM      4  C   UNL A   1      33.302  28.357  23.701  1.00  0.00     0.226 C 
ATOM      5  O   UNL A   1      34.289  28.378  22.954  1.00  0.00    -0.274 OA
ATOM      6  H   UNL A   1      33.945  30.036  24.534  1.00  0.00     0.163 HD
BRANCH   4   7
ATOM      7  C   UNL A   1      32.340  27.137  23.716  1.00  0.00     0.053 C 
ATOM      8  C   UNL A   1      34.188  25.457  24.535  1.00  0.00    -0.010 C 
ATOM      9  C   UNL A   1      33.499  25.371  25.904  1.00  0.00     0.003 C 
ATOM     10  C   UNL A   1      33.195  25.847  23.421  1.00  0.00     0.020 C 
ATOM     11  C   UNL A   1      32.660  26.607  26.197  1.00  0.00     0.001 C 
ATOM     12  C   UNL A   1      31.654  26.861  25.075  1.00  0.00     0.017 C 
BRANCH   8  13
ATOM     13  C   UNL A   1      34.960  24.161  24.209  1.00  0.00     0.000 C 
ATOM     14  C   UNL A   1      34.369  23.302  23.096  1.00  0.00     0.004 C 
ENDBRANCH   8  13
BRANCH   7  15
ATOM     15  C   UNL A   1      31.329  27.219  22.525  1.00  0.00     0.052 C 
BRANCH  15  16
ATOM     16  C   UNL A   1      30.186  28.201  22.582  1.00  0.00    -0.043 A 
ATOM     17  C   UNL A   1      28.948  27.815  23.119  1.00  0.00     0.004 A 
ATOM     18  C   UNL A   1      30.332  29.508  22.098  1.00  0.00     0.049 A 
ATOM     19  C   UNL A   1      27.867  28.701  23.129  1.00  0.00     0.004 A 
ATOM     20  C   UNL A   1      29.245  30.379  22.100  1.00  0.00     0.115 A 
ATOM     21  C   UNL A   1      28.011  29.986  22.605  1.00  0.00     0.046 A 
BRANCH  20  22
ATOM     22  O   UNL A   1      29.429  31.622  21.570  1.00  0.00    -0.508 OA
ATOM     23  H   UNL A   1      28.887  32.335  21.848  1.00  0.00     0.293 HD
ENDBRANCH  20  22
ENDBRANCH  15  16
ENDBRANCH   7  15
ENDBRANCH   4   7
ENDBRANCH   2   3
ENDBRANCH   1   2
BRANCH   1  24
ATOM     24  C   UNL A   1      31.846  31.871  26.919  1.00  0.00     0.023 C 
BRANCH  24  25
ATOM     25  C   UNL A   1      32.917  32.790  27.502  1.00  0.00     0.116 C 
BRANCH  25  26
ATOM     26  N   UNL A   1      32.461  34.146  27.783  1.00  0.00    -0.352 N 
ATOM     27  C   UNL A   1      33.010  35.066  28.646  1.00  0.00     0.251 C 
ATOM     28  H   UNL A   1      31.660  34.440  27.293  1.00  0.00     0.163 HD
ATOM     29  O   UNL A   1      32.510  36.177  28.786  1.00  0.00    -0.269 OA
BRANCH  27  30
ATOM     30  C   UNL A   1      34.192  34.677  29.438  1.00  0.00     0.039 A 
ATOM     31  C   UNL A   1      34.010  34.220  30.744  1.00  0.00     0.014 A 
ATOM     32  C   UNL A   1      35.462  34.684  28.855  1.00  0.00     0.014 A 
ATOM     33  C   UNL A   1      35.093  33.681  31.441  1.00  0.00     0.010 A 
ATOM     34  C   UNL A   1      36.528  34.095  29.528  1.00  0.00     0.010 A 
ATOM     35  C   UNL A   1      36.349  33.573  30.819  1.00  0.00    -0.014 A 
BRANCH  35  36
ATOM     36  C   UNL A   1      37.481  32.885  31.488  1.00  0.00     0.031 A 
ATOM     37  C   UNL A   1      38.148  31.712  30.831  1.00  0.00     0.074 A 
ATOM     38  C   UNL A   1      37.850  33.264  32.728  1.00  0.00     0.049 A 
ATOM     39  N   UNL A   1      39.092  30.931  31.292  1.00  0.00    -0.248 NA
ATOM     40  C   UNL A   1      37.674  31.354  29.485  1.00  0.00     0.031 C 
ATOM     41  C   UNL A   1      37.243  34.352  33.496  1.00  0.00     0.029 A 
ATOM     42  N   UNL A   1      38.814  32.763  33.567  1.00  0.00    -0.354 N 
ATOM     43  C   UNL A   1      39.310  29.981  30.303  1.00  0.00     0.074 A 
ATOM     44  C   UNL A   1      38.372  30.256  29.236  1.00  0.00     0.031 C 
ATOM     45  C   UNL A   1      37.858  34.447  34.686  1.00  0.00     0.029 A 
ATOM     46  C   UNL A   1      38.879  33.407  34.778  1.00  0.00     0.049 A 
ATOM     47  H   UNL A   1      39.403  32.012  33.324  1.00  0.00     0.167 HD
ATOM     48  C   UNL A   1      40.226  28.984  30.279  1.00  0.00     0.037 A 
ATOM     49  C   UNL A   1      39.669  33.182  35.845  1.00  0.00     0.037 A 
ATOM     50  C   UNL A   1      41.177  28.729  31.329  1.00  0.00     0.049 A 
ATOM     51  C   UNL A   1      40.683  32.072  35.789  1.00  0.00     0.074 A 
ATOM     52  C   UNL A   1      42.187  27.783  31.367  1.00  0.00     0.029 A 
ATOM     53  N   UNL A   1      41.234  29.423  32.528  1.00  0.00    -0.354 N 
ATOM     54  N   UNL A   1      40.931  31.226  34.819  1.00  0.00    -0.248 NA
ATOM     55  C   UNL A   1      41.533  31.890  36.974  1.00  0.00     0.031 C 
ATOM     56  C   UNL A   1      42.833  27.881  32.604  1.00  0.00     0.029 A 
ATOM     57  C   UNL A   1      42.250  28.915  33.320  1.00  0.00     0.049 A 
ATOM     58  H   UNL A   1      40.639  30.166  32.779  1.00  0.00     0.167 HD
ATOM     59  C   UNL A   1      41.978  30.431  35.264  1.00  0.00     0.074 A 
ATOM     60  C   UNL A   1      42.329  30.903  36.587  1.00  0.00     0.031 C 
ATOM     61  C   UNL A   1      42.594  29.402  34.632  1.00  0.00     0.037 A 
BRANCH  48  62
ATOM     62  C   UNL A   1      40.248  28.096  29.071  1.00  0.00     0.064 A 
ATOM     63  C   UNL A   1      40.985  28.434  27.926  1.00  0.00     0.173 A 
ATOM     64  C   UNL A   1      39.552  26.878  29.069  1.00  0.00     0.173 A 
ATOM     65  F   UNL A   1      41.656  29.594  27.874  1.00  0.00    -0.203 F 
ATOM     66  C   UNL A   1      41.001  27.600  26.813  1.00  0.00     0.198 A 
ATOM     67  C   UNL A   1      39.592  26.032  27.963  1.00  0.00     0.198 A 
ATOM     68  F   UNL A   1      38.835  26.506  30.140  1.00  0.00    -0.203 F 
ATOM     69  F   UNL A   1      41.673  27.965  25.712  1.00  0.00    -0.200 F 
ATOM     70  C   UNL A   1      40.311  26.396  26.834  1.00  0.00     0.200 A 
ATOM     71  F   UNL A   1      38.934  24.865  27.989  1.00  0.00    -0.200 F 
ATOM     72  F   UNL A   1      40.331  25.591  25.763  1.00  0.00    -0.200 F 
ENDBRANCH  48  62
BRANCH  49  73
ATOM     73  C   UNL A   1      39.553  34.043  37.049  1.00  0.00     0.064 A 
ATOM     74  C   UNL A   1      40.219  35.274  37.116  1.00  0.00     0.173 A 
ATOM     75  C   UNL A   1      38.784  33.655  38.155  1.00  0.00     0.173 A 
ATOM     76  F   UNL A   1      40.985  35.677  36.091  1.00  0.00    -0.203 F 
ATOM     77  C   UNL A   1      40.134  36.078  38.251  1.00  0.00     0.198 A 
ATOM     78  C   UNL A   1      38.679  34.471  39.280  1.00  0.00     0.198 A 
ATOM     79  F   UNL A   1      38.125  32.487  38.138  1.00  0.00    -0.203 F 
ATOM     80  F   UNL A   1      40.814  37.232  38.303  1.00  0.00    -0.200 F 
ATOM     81  C   UNL A   1      39.361  35.679  39.330  1.00  0.00     0.200 A 
ATOM     82  F   UNL A   1      37.922  34.087  40.316  1.00  0.00    -0.200 F 
ATOM     83  F   UNL A   1      39.277  36.453  40.420  1.00  0.00    -0.200 F 
ENDBRANCH  49  73
BRANCH  61  84
ATOM     84  C   UNL A   1      43.731  28.738  35.348  1.00  0.00     0.064 A 
ATOM     85  C   UNL A   1      45.061  29.127  35.135  1.00  0.00     0.173 A 
ATOM     86  C   UNL A   1      43.483  27.729  36.292  1.00  0.00     0.173 A 
ATOM     87  F   UNL A   1      45.349  30.076  34.231  1.00  0.00    -0.203 F 
ATOM     88  C   UNL A   1      46.103  28.517  35.826  1.00  0.00     0.198 A 
ATOM     89  C   UNL A   1      44.525  27.139  36.999  1.00  0.00     0.198 A 
ATOM     90  F   UNL A   1      42.227  27.325  36.534  1.00  0.00    -0.203 F 
ATOM     91  F   UNL A   1      47.371  28.876  35.578  1.00  0.00    -0.200 F 
ATOM     92  C   UNL A   1      45.834  27.529  36.762  1.00  0.00     0.200 A 
ATOM     93  F   UNL A   1      44.263  26.192  37.911  1.00  0.00    -0.200 F 
ATOM     94  F   UNL A   1      46.840  26.947  37.431  1.00  0.00    -0.200 F 
ENDBRANCH  61  84
ENDBRANCH  35  36
ENDBRANCH  27  30
ENDBRANCH  25  26
ENDBRANCH  24  25
ENDBRANCH   1  24
TORSDOF 15
ENDMDL
