MODEL 1
REMARK VINA RESULT:     -10.8      0.000      0.000
REMARK SMILES C/C=C(\C)[C@H]1C(C)=C[C@H]2CC[C@@H](OS(=O)(=O)[O-])[C@@H](C)[C@H]2[C@H]1/C=C/C=C/C(=O)NCCCCNC(=O)c1ccc(-c2c3nc(c(-c4c(F)c(F)c(F)c(F)c4F)c4ccc([nH]4)c(-c4c(F)c(F)c(F)c(F)c4F)c4nc(c(-c5c(F)c(F)c(F)c(F)c5F)c5ccc2[nH]5)C=C4)C=C3)cc1
REMARK SMILES IDX 29 1 28 2 26 3 27 4 25 6 24 7 23 8 22 9 21 10 5 11 6 12 7 13
REMARK SMILES IDX 8 14 20 15 9 16 18 17 10 18 12 19 19 20 11 21 3 22 1 23 2 24
REMARK SMILES IDX 4 25 13 26 14 27 15 28 16 29 17 30 30 31 31 32 32 33 33 34
REMARK SMILES IDX 34 35 35 37 36 38 37 39 98 40 38 41 97 42 39 43 40 44 41 45
REMARK SMILES IDX 91 46 42 47 96 48 90 49 92 50 43 51 95 52 89 53 88 54 44 56
REMARK SMILES IDX 76 57 56 58 75 59 57 60 60 61 74 62 93 63 58 64 59 65 73 67
REMARK SMILES IDX 94 68 61 69 45 70 46 71 54 72 47 73 48 74 52 75 55 76 49 77
REMARK SMILES IDX 50 78 53 79 51 80 77 81 78 82 86 83 79 84 80 85 84 86 87 87
REMARK SMILES IDX 81 88 82 89 85 90 83 91 62 92 63 93 71 94 64 95 65 96 69 97
REMARK SMILES IDX 72 98 66 99 67 100 70 101 68 102
REMARK H PARENT 28 5 33 36 92 55 60 66
REMARK Flexibility Score: inf
ROOT
ATOM      1  C   UNL A   1      37.705  33.247  37.094  1.00  0.00     0.116 C 
ENDROOT
BRANCH   1   2
ATOM      2  N   UNL A   1      38.363  31.959  37.113  1.00  0.00    -0.353 N 
ATOM      3  C   UNL A   1      38.699  31.168  36.061  1.00  0.00     0.243 C 
ATOM      4  O   UNL A   1      39.243  30.083  36.244  1.00  0.00    -0.270 OA
ATOM      5  H   UNL A   1      38.599  31.612  38.004  1.00  0.00     0.163 HD
BRANCH   3   6
ATOM      6  C   UNL A   1      38.522  31.680  34.691  1.00  0.00     0.071 C 
ATOM      7  C   UNL A   1      39.444  32.325  33.963  1.00  0.00     0.005 C 
BRANCH   7   8
ATOM      8  C   UNL A   1      39.135  32.763  32.646  1.00  0.00    -0.004 C 
ATOM      9  C   UNL A   1      37.931  32.814  32.068  1.00  0.00    -0.022 C 
BRANCH   9  10
ATOM     10  C   UNL A   1      37.806  32.818  30.550  1.00  0.00     0.027 C 
ATOM     11  C   UNL A   1      37.885  31.449  29.732  1.00  0.00     0.047 C 
ATOM     12  C   UNL A   1      36.746  31.260  28.717  1.00  0.00    -0.069 C 
ATOM     13  C   UNL A   1      36.515  29.901  28.109  1.00  0.00     0.040 C 
ATOM     14  C   UNL A   1      36.030  32.309  28.255  1.00  0.00    -0.024 C 
ATOM     15  C   UNL A   1      36.601  33.767  30.194  1.00  0.00     0.009 C 
ATOM     16  C   UNL A   1      36.272  33.726  28.699  1.00  0.00     0.016 C 
ATOM     17  C   UNL A   1      35.305  33.666  31.079  1.00  0.00     0.021 C 
ATOM     18  C   UNL A   1      35.152  34.732  28.340  1.00  0.00     0.011 C 
ATOM     19  C   UNL A   1      34.363  34.832  30.745  1.00  0.00     0.141 C 
ATOM     20  C   UNL A   1      34.538  32.328  31.065  1.00  0.00     0.011 C 
ATOM     21  C   UNL A   1      33.943  34.764  29.278  1.00  0.00     0.034 C 
BRANCH  11  22
ATOM     22  C   UNL A   1      38.297  30.226  30.603  1.00  0.00    -0.070 C 
ATOM     23  C   UNL A   1      37.780  28.603  32.529  1.00  0.00     0.035 C 
ATOM     24  C   UNL A   1      37.456  29.588  31.448  1.00  0.00    -0.031 C 
ATOM     25  C   UNL A   1      39.772  29.891  30.506  1.00  0.00     0.040 C 
ENDBRANCH  11  22
BRANCH  19  26
ATOM     26  O   UNL A   1      33.211  34.779  31.581  1.00  0.00    -0.276 OA
BRANCH  26  27
ATOM     27  S   UNL A   1      32.662  36.164  32.232  1.00  0.00     0.217 S 
ATOM     28  O   UNL A   1      31.241  36.051  32.500  1.00  0.00    -0.213 OA
ATOM     29  O   UNL A   1      33.576  36.583  33.264  1.00  0.00    -0.213 OA
ATOM     30  O   UNL A   1      32.809  37.223  31.031  1.00  0.00    -0.726 OA
ENDBRANCH  26  27
ENDBRANCH  19  26
ENDBRANCH   9  10
ENDBRANCH   7   8
ENDBRANCH   3   6
ENDBRANCH   1   2
BRANCH   1  31
ATOM     31  C   UNL A   1      38.739  34.358  37.295  1.00  0.00     0.023 C 
BRANCH  31  32
ATOM     32  C   UNL A   1      38.906  34.773  38.748  1.00  0.00     0.023 C 
BRANCH  32  33
ATOM     33  C   UNL A   1      40.354  34.845  39.188  1.00  0.00     0.116 C 
BRANCH  33  34
ATOM     34  N   UNL A   1      40.843  36.208  39.348  1.00  0.00    -0.352 N 
ATOM     35  C   UNL A   1      41.708  36.874  38.517  1.00  0.00     0.251 C 
ATOM     36  H   UNL A   1      40.520  36.703  40.135  1.00  0.00     0.163 HD
ATOM     37  O   UNL A   1      42.153  37.979  38.800  1.00  0.00    -0.269 OA
BRANCH  35  38
ATOM     38  C   UNL A   1      42.122  36.181  37.287  1.00  0.00     0.039 A 
ATOM     39  C   UNL A   1      43.302  35.438  37.298  1.00  0.00     0.014 A 
ATOM     40  C   UNL A   1      41.257  36.153  36.191  1.00  0.00     0.014 A 
ATOM     41  C   UNL A   1      43.587  34.610  36.216  1.00  0.00     0.010 A 
ATOM     42  C   UNL A   1      41.495  35.255  35.161  1.00  0.00     0.010 A 
ATOM     43  C   UNL A   1      42.668  34.485  35.159  1.00  0.00    -0.014 A 
BRANCH  43  44
ATOM     44  C   UNL A   1      42.925  33.562  34.030  1.00  0.00     0.031 A 
ATOM     45  C   UNL A   1      43.133  34.119  32.651  1.00  0.00     0.074 A 
ATOM     46  C   UNL A   1      42.915  32.231  34.237  1.00  0.00     0.049 A 
ATOM     47  N   UNL A   1      43.323  33.485  31.522  1.00  0.00    -0.248 NA
ATOM     48  C   UNL A   1      43.093  35.585  32.515  1.00  0.00     0.031 C 
ATOM     49  C   UNL A   1      42.668  31.575  35.523  1.00  0.00     0.029 A 
ATOM     50  N   UNL A   1      43.112  31.190  33.366  1.00  0.00    -0.354 N 
ATOM     51  C   UNL A   1      43.411  34.472  30.549  1.00  0.00     0.074 A 
ATOM     52  C   UNL A   1      43.187  35.739  31.204  1.00  0.00     0.031 C 
ATOM     53  C   UNL A   1      42.758  30.245  35.362  1.00  0.00     0.029 A 
ATOM     54  C   UNL A   1      43.026  29.954  33.957  1.00  0.00     0.049 A 
ATOM     55  H   UNL A   1      43.297  31.318  32.407  1.00  0.00     0.167 HD
ATOM     56  C   UNL A   1      43.685  34.332  29.231  1.00  0.00     0.037 A 
ATOM     57  C   UNL A   1      43.147  28.724  33.421  1.00  0.00     0.037 A 
ATOM     58  C   UNL A   1      43.930  33.067  28.592  1.00  0.00     0.049 A 
ATOM     59  C   UNL A   1      43.440  28.598  31.949  1.00  0.00     0.074 A 
ATOM     60  C   UNL A   1      44.276  32.819  27.277  1.00  0.00     0.029 A 
ATOM     61  N   UNL A   1      43.850  31.835  29.226  1.00  0.00    -0.354 N 
ATOM     62  N   UNL A   1      43.602  29.540  31.052  1.00  0.00    -0.248 NA
ATOM     63  C   UNL A   1      43.576  27.235  31.417  1.00  0.00     0.031 C 
ATOM     64  C   UNL A   1      44.348  31.434  27.099  1.00  0.00     0.029 A 
ATOM     65  C   UNL A   1      44.112  30.821  28.319  1.00  0.00     0.049 A 
ATOM     66  H   UNL A   1      43.637  31.701  30.178  1.00  0.00     0.167 HD
ATOM     67  C   UNL A   1      43.889  28.887  29.861  1.00  0.00     0.074 A 
ATOM     68  C   UNL A   1      43.897  27.470  30.153  1.00  0.00     0.031 C 
ATOM     69  C   UNL A   1      44.125  29.415  28.633  1.00  0.00     0.037 A 
BRANCH  56  70
ATOM     70  C   UNL A   1      43.738  35.578  28.396  1.00  0.00     0.064 A 
ATOM     71  C   UNL A   1      42.578  36.147  27.847  1.00  0.00     0.173 A 
ATOM     72  C   UNL A   1      44.958  36.231  28.168  1.00  0.00     0.173 A 
ATOM     73  F   UNL A   1      41.386  35.555  28.022  1.00  0.00    -0.203 F 
ATOM     74  C   UNL A   1      42.642  37.307  27.078  1.00  0.00     0.198 A 
ATOM     75  C   UNL A   1      45.015  37.409  27.429  1.00  0.00     0.198 A 
ATOM     76  F   UNL A   1      46.097  35.731  28.671  1.00  0.00    -0.203 F 
ATOM     77  F   UNL A   1      41.528  37.801  26.521  1.00  0.00    -0.200 F 
ATOM     78  C   UNL A   1      43.859  37.942  26.878  1.00  0.00     0.200 A 
ATOM     79  F   UNL A   1      46.189  38.029  27.248  1.00  0.00    -0.200 F 
ATOM     80  F   UNL A   1      43.918  39.064  26.148  1.00  0.00    -0.200 F 
ENDBRANCH  56  70
BRANCH  57  81
ATOM     81  C   UNL A   1      43.010  27.517  34.279  1.00  0.00     0.064 A 
ATOM     82  C   UNL A   1      41.758  26.924  34.499  1.00  0.00     0.173 A 
ATOM     83  C   UNL A   1      44.122  26.942  34.912  1.00  0.00     0.173 A 
ATOM     84  F   UNL A   1      40.661  27.448  33.930  1.00  0.00    -0.203 F 
ATOM     85  C   UNL A   1      41.620  25.822  35.339  1.00  0.00     0.198 A 
ATOM     86  C   UNL A   1      43.986  25.819  35.726  1.00  0.00     0.198 A 
ATOM     87  F   UNL A   1      45.343  27.464  34.732  1.00  0.00    -0.203 F 
ATOM     88  F   UNL A   1      40.403  25.311  35.575  1.00  0.00    -0.200 F 
ATOM     89  C   UNL A   1      42.734  25.267  35.949  1.00  0.00     0.200 A 
ATOM     90  F   UNL A   1      45.069  25.276  36.300  1.00  0.00    -0.200 F 
ATOM     91  F   UNL A   1      42.600  24.206  36.756  1.00  0.00    -0.200 F 
ENDBRANCH  57  81
BRANCH  69  92
ATOM     92  C   UNL A   1      44.453  28.458  27.523  1.00  0.00     0.064 A 
ATOM     93  C   UNL A   1      45.760  28.002  27.301  1.00  0.00     0.173 A 
ATOM     94  C   UNL A   1      43.434  27.956  26.698  1.00  0.00     0.173 A 
ATOM     95  F   UNL A   1      46.772  28.460  28.054  1.00  0.00    -0.203 F 
ATOM     96  C   UNL A   1      46.040  27.101  26.277  1.00  0.00     0.198 A 
ATOM     97  C   UNL A   1      43.711  27.030  25.697  1.00  0.00     0.198 A 
ATOM     98  F   UNL A   1      42.164  28.354  26.872  1.00  0.00    -0.203 F 
ATOM     99  F   UNL A   1      47.305  26.720  26.049  1.00  0.00    -0.200 F 
ATOM    100  C   UNL A   1      45.015  26.610  25.481  1.00  0.00     0.200 A 
ATOM    101  F   UNL A   1      42.716  26.542  24.944  1.00  0.00    -0.200 F 
ATOM    102  F   UNL A   1      45.285  25.735  24.503  1.00  0.00    -0.200 F 
ENDBRANCH  69  92
ENDBRANCH  43  44
ENDBRANCH  35  38
ENDBRANCH  33  34
ENDBRANCH  32  33
ENDBRANCH  31  32
ENDBRANCH   1  31
TORSDOF 16
ENDMDL
MODEL 2
REMARK VINA RESULT:     -10.7      5.940     12.932
REMARK SMILES C/C=C(\C)[C@H]1C(C)=C[C@H]2CC[C@@H](OS(=O)(=O)[O-])[C@@H](C)[C@H]2[C@H]1/C=C/C=C/C(=O)NCCCCNC(=O)c1ccc(-c2c3nc(c(-c4c(F)c(F)c(F)c(F)c4F)c4ccc([nH]4)c(-c4c(F)c(F)c(F)c(F)c4F)c4nc(c(-c5c(F)c(F)c(F)c(F)c5F)c5ccc2[nH]5)C=C4)C=C3)cc1
REMARK SMILES IDX 29 1 28 2 26 3 27 4 25 6 24 7 23 8 22 9 21 10 5 11 6 12 7 13
REMARK SMILES IDX 8 14 20 15 9 16 18 17 10 18 12 19 19 20 11 21 3 22 1 23 2 24
REMARK SMILES IDX 4 25 13 26 14 27 15 28 16 29 17 30 30 31 31 32 32 33 33 34
REMARK SMILES IDX 34 35 35 37 36 38 37 39 98 40 38 41 97 42 39 43 40 44 41 45
REMARK SMILES IDX 91 46 42 47 96 48 90 49 92 50 43 51 95 52 89 53 88 54 44 56
REMARK SMILES IDX 76 57 56 58 75 59 57 60 60 61 74 62 93 63 58 64 59 65 73 67
REMARK SMILES IDX 94 68 61 69 45 70 46 71 54 72 47 73 48 74 52 75 55 76 49 77
REMARK SMILES IDX 50 78 53 79 51 80 77 81 78 82 86 83 79 84 80 85 84 86 87 87
REMARK SMILES IDX 81 88 82 89 85 90 83 91 62 92 63 93 71 94 64 95 65 96 69 97
REMARK SMILES IDX 72 98 66 99 67 100 70 101 68 102
REMARK H PARENT 28 5 33 36 92 55 60 66
REMARK Flexibility Score: inf
ROOT
ATOM      1  C   UNL A   1      48.970  24.935  27.852  1.00  0.00     0.116 C 
ENDROOT
BRANCH   1   2
ATOM      2  N   UNL A   1      48.869  26.020  28.804  1.00  0.00    -0.353 N 
ATOM      3  C   UNL A   1      47.821  26.343  29.605  1.00  0.00     0.243 C 
ATOM      4  O   UNL A   1      47.883  27.314  30.353  1.00  0.00    -0.270 OA
ATOM      5  H   UNL A   1      49.663  26.598  28.881  1.00  0.00     0.163 HD
BRANCH   3   6
ATOM      6  C   UNL A   1      46.656  25.443  29.664  1.00  0.00     0.071 C 
ATOM      7  C   UNL A   1      45.468  25.649  29.078  1.00  0.00     0.005 C 
BRANCH   7   8
ATOM      8  C   UNL A   1      44.428  24.688  29.216  1.00  0.00    -0.004 C 
ATOM      9  C   UNL A   1      43.893  23.927  28.258  1.00  0.00    -0.022 C 
BRANCH   9  10
ATOM     10  C   UNL A   1      42.499  23.336  28.435  1.00  0.00     0.027 C 
ATOM     11  C   UNL A   1      41.205  24.238  28.185  1.00  0.00     0.047 C 
ATOM     12  C   UNL A   1      40.157  23.588  27.269  1.00  0.00    -0.069 C 
ATOM     13  C   UNL A   1      39.047  24.433  26.699  1.00  0.00     0.040 C 
ATOM     14  C   UNL A   1      40.127  22.252  27.065  1.00  0.00    -0.024 C 
ATOM     15  C   UNL A   1      42.507  21.930  27.727  1.00  0.00     0.009 C 
ATOM     16  C   UNL A   1      41.110  21.304  27.696  1.00  0.00     0.016 C 
ATOM     17  C   UNL A   1      43.228  21.817  26.333  1.00  0.00     0.021 C 
ATOM     18  C   UNL A   1      41.142  19.882  27.087  1.00  0.00     0.011 C 
ATOM     19  C   UNL A   1      43.353  20.337  25.939  1.00  0.00     0.141 C 
ATOM     20  C   UNL A   1      42.650  22.642  25.166  1.00  0.00     0.011 C 
ATOM     21  C   UNL A   1      41.967  19.709  25.810  1.00  0.00     0.034 C 
BRANCH  11  22
ATOM     22  C   UNL A   1      41.528  25.746  27.972  1.00  0.00    -0.070 C 
ATOM     23  C   UNL A   1      41.304  28.189  28.742  1.00  0.00     0.035 C 
ATOM     24  C   UNL A   1      41.307  26.700  28.905  1.00  0.00    -0.031 C 
ATOM     25  C   UNL A   1      42.002  26.066  26.569  1.00  0.00     0.040 C 
ENDBRANCH  11  22
BRANCH  19  26
ATOM     26  O   UNL A   1      44.053  20.224  24.704  1.00  0.00    -0.276 OA
BRANCH  26  27
ATOM     27  S   UNL A   1      45.420  19.343  24.666  1.00  0.00     0.217 S 
ATOM     28  O   UNL A   1      45.642  18.838  23.325  1.00  0.00    -0.213 OA
ATOM     29  O   UNL A   1      46.454  20.066  25.362  1.00  0.00    -0.213 OA
ATOM     30  O   UNL A   1      45.062  18.064  25.574  1.00  0.00    -0.726 OA
ENDBRANCH  26  27
ENDBRANCH  19  26
ENDBRANCH   9  10
ENDBRANCH   7   8
ENDBRANCH   3   6
ENDBRANCH   1   2
BRANCH   1  31
ATOM     31  C   UNL A   1      48.439  25.393  26.491  1.00  0.00     0.023 C 
BRANCH  31  32
ATOM     32  C   UNL A   1      47.247  24.585  26.003  1.00  0.00     0.023 C 
BRANCH  32  33
ATOM     33  C   UNL A   1      46.091  25.446  25.534  1.00  0.00     0.116 C 
BRANCH  33  34
ATOM     34  N   UNL A   1      46.476  26.438  24.539  1.00  0.00    -0.352 N 
ATOM     35  C   UNL A   1      46.399  27.802  24.665  1.00  0.00     0.251 C 
ATOM     36  H   UNL A   1      46.828  26.094  23.685  1.00  0.00     0.163 HD
ATOM     37  O   UNL A   1      46.636  28.551  23.726  1.00  0.00    -0.269 OA
BRANCH  35  38
ATOM     38  C   UNL A   1      45.967  28.330  25.968  1.00  0.00     0.039 A 
ATOM     39  C   UNL A   1      46.934  28.783  26.864  1.00  0.00     0.014 A 
ATOM     40  C   UNL A   1      44.604  28.510  26.218  1.00  0.00     0.014 A 
ATOM     41  C   UNL A   1      46.527  29.478  28.000  1.00  0.00     0.010 A 
ATOM     42  C   UNL A   1      44.209  29.285  27.297  1.00  0.00     0.010 A 
ATOM     43  C   UNL A   1      45.166  29.766  28.204  1.00  0.00    -0.014 A 
BRANCH  43  44
ATOM     44  C   UNL A   1      44.720  30.557  29.373  1.00  0.00     0.031 A 
ATOM     45  C   UNL A   1      44.372  29.854  30.654  1.00  0.00     0.074 A 
ATOM     46  C   UNL A   1      44.576  31.892  29.263  1.00  0.00     0.049 A 
ATOM     47  N   UNL A   1      43.917  30.354  31.775  1.00  0.00    -0.248 NA
ATOM     48  C   UNL A   1      44.527  28.390  30.669  1.00  0.00     0.031 C 
ATOM     49  C   UNL A   1      44.831  32.675  28.052  1.00  0.00     0.029 A 
ATOM     50  N   UNL A   1      44.175  32.826  30.184  1.00  0.00    -0.354 N 
ATOM     51  C   UNL A   1      43.722  29.267  32.617  1.00  0.00     0.074 A 
ATOM     52  C   UNL A   1      44.041  28.078  31.860  1.00  0.00     0.031 C 
ATOM     53  C   UNL A   1      44.608  33.973  28.314  1.00  0.00     0.029 A 
ATOM     54  C   UNL A   1      44.156  34.109  29.694  1.00  0.00     0.049 A 
ATOM     55  H   UNL A   1      43.923  32.598  31.108  1.00  0.00     0.167 HD
ATOM     56  C   UNL A   1      43.341  29.266  33.915  1.00  0.00     0.037 A 
ATOM     57  C   UNL A   1      43.807  35.263  30.295  1.00  0.00     0.037 A 
ATOM     58  C   UNL A   1      43.048  30.456  34.666  1.00  0.00     0.049 A 
ATOM     59  C   UNL A   1      43.374  35.231  31.737  1.00  0.00     0.074 A 
ATOM     60  C   UNL A   1      42.712  30.571  36.003  1.00  0.00     0.029 A 
ATOM     61  N   UNL A   1      43.053  31.741  34.142  1.00  0.00    -0.354 N 
ATOM     62  N   UNL A   1      43.271  34.207  32.549  1.00  0.00    -0.248 NA
ATOM     63  C   UNL A   1      43.018  36.518  32.350  1.00  0.00     0.031 C 
ATOM     64  C   UNL A   1      42.456  31.918  36.274  1.00  0.00     0.029 A 
ATOM     65  C   UNL A   1      42.697  32.652  35.123  1.00  0.00     0.049 A 
ATOM     66  H   UNL A   1      43.276  31.971  33.211  1.00  0.00     0.167 HD
ATOM     67  C   UNL A   1      42.870  34.728  33.772  1.00  0.00     0.074 A 
ATOM     68  C   UNL A   1      42.765  36.161  33.600  1.00  0.00     0.031 C 
ATOM     69  C   UNL A   1      42.610  34.077  34.934  1.00  0.00     0.037 A 
BRANCH  56  70
ATOM     70  C   UNL A   1      43.222  27.937  34.604  1.00  0.00     0.064 A 
ATOM     71  C   UNL A   1      42.020  27.211  34.603  1.00  0.00     0.173 A 
ATOM     72  C   UNL A   1      44.331  27.365  35.244  1.00  0.00     0.173 A 
ATOM     73  F   UNL A   1      40.924  27.718  34.017  1.00  0.00    -0.203 F 
ATOM     74  C   UNL A   1      41.927  25.977  35.242  1.00  0.00     0.198 A 
ATOM     75  C   UNL A   1      44.245  26.116  35.852  1.00  0.00     0.198 A 
ATOM     76  F   UNL A   1      45.504  28.016  35.274  1.00  0.00    -0.203 F 
ATOM     77  F   UNL A   1      40.755  25.328  35.273  1.00  0.00    -0.200 F 
ATOM     78  C   UNL A   1      43.041  25.426  35.857  1.00  0.00     0.200 A 
ATOM     79  F   UNL A   1      45.325  25.580  36.434  1.00  0.00    -0.200 F 
ATOM     80  F   UNL A   1      42.953  24.234  36.462  1.00  0.00    -0.200 F 
ENDBRANCH  56  70
BRANCH  57  81
ATOM     81  C   UNL A   1      43.870  36.545  29.544  1.00  0.00     0.064 A 
ATOM     82  C   UNL A   1      42.783  36.985  28.773  1.00  0.00     0.173 A 
ATOM     83  C   UNL A   1      45.019  37.349  29.566  1.00  0.00     0.173 A 
ATOM     84  F   UNL A   1      41.668  36.243  28.705  1.00  0.00    -0.203 F 
ATOM     85  C   UNL A   1      42.856  38.162  28.032  1.00  0.00     0.198 A 
ATOM     86  C   UNL A   1      45.077  38.542  28.850  1.00  0.00     0.198 A 
ATOM     87  F   UNL A   1      46.084  36.979  30.292  1.00  0.00    -0.203 F 
ATOM     88  F   UNL A   1      41.823  38.529  27.260  1.00  0.00    -0.200 F 
ATOM     89  C   UNL A   1      44.000  38.943  28.074  1.00  0.00     0.200 A 
ATOM     90  F   UNL A   1      46.180  39.302  28.907  1.00  0.00    -0.200 F 
ATOM     91  F   UNL A   1      44.069  40.075  27.362  1.00  0.00    -0.200 F 
ENDBRANCH  57  81
BRANCH  69  92
ATOM     92  C   UNL A   1      42.229  34.914  36.122  1.00  0.00     0.064 A 
ATOM     93  C   UNL A   1      40.891  35.221  36.412  1.00  0.00     0.173 A 
ATOM     94  C   UNL A   1      43.216  35.377  37.006  1.00  0.00     0.173 A 
ATOM     95  F   UNL A   1      39.912  34.813  35.592  1.00  0.00    -0.203 F 
ATOM     96  C   UNL A   1      40.559  35.985  37.529  1.00  0.00     0.198 A 
ATOM     97  C   UNL A   1      42.877  36.111  38.139  1.00  0.00     0.198 A 
ATOM     98  F   UNL A   1      44.510  35.105  36.778  1.00  0.00    -0.203 F 
ATOM     99  F   UNL A   1      39.279  36.311  37.757  1.00  0.00    -0.200 F 
ATOM    100  C   UNL A   1      41.550  36.422  38.394  1.00  0.00     0.200 A 
ATOM    101  F   UNL A   1      43.835  36.515  38.984  1.00  0.00    -0.200 F 
ATOM    102  F   UNL A   1      41.227  37.148  39.473  1.00  0.00    -0.200 F 
ENDBRANCH  69  92
ENDBRANCH  43  44
ENDBRANCH  35  38
ENDBRANCH  33  34
ENDBRANCH  32  33
ENDBRANCH  31  32
ENDBRANCH   1  31
TORSDOF 16
ENDMDL
MODEL 3
REMARK VINA RESULT:     -10.6      5.877     10.990
REMARK SMILES C/C=C(\C)[C@H]1C(C)=C[C@H]2CC[C@@H](OS(=O)(=O)[O-])[C@@H](C)[C@H]2[C@H]1/C=C/C=C/C(=O)NCCCCNC(=O)c1ccc(-c2c3nc(c(-c4c(F)c(F)c(F)c(F)c4F)c4ccc([nH]4)c(-c4c(F)c(F)c(F)c(F)c4F)c4nc(c(-c5c(F)c(F)c(F)c(F)c5F)c5ccc2[nH]5)C=C4)C=C3)cc1
REMARK SMILES IDX 29 1 28 2 26 3 27 4 25 6 24 7 23 8 22 9 21 10 5 11 6 12 7 13
REMARK SMILES IDX 8 14 20 15 9 16 18 17 10 18 12 19 19 20 11 21 3 22 1 23 2 24
REMARK SMILES IDX 4 25 13 26 14 27 15 28 16 29 17 30 30 31 31 32 32 33 33 34
REMARK SMILES IDX 34 35 35 37 36 38 37 39 98 40 38 41 97 42 39 43 40 44 41 45
REMARK SMILES IDX 91 46 42 47 96 48 90 49 92 50 43 51 95 52 89 53 88 54 44 56
REMARK SMILES IDX 76 57 56 58 75 59 57 60 60 61 74 62 93 63 58 64 59 65 73 67
REMARK SMILES IDX 94 68 61 69 45 70 46 71 54 72 47 73 48 74 52 75 55 76 49 77
REMARK SMILES IDX 50 78 53 79 51 80 77 81 78 82 86 83 79 84 80 85 84 86 87 87
REMARK SMILES IDX 81 88 82 89 85 90 83 91 62 92 63 93 71 94 64 95 65 96 69 97
REMARK SMILES IDX 72 98 66 99 67 100 70 101 68 102
REMARK H PARENT 28 5 33 36 92 55 60 66
REMARK Flexibility Score: inf
ROOT
ATOM      1  C   UNL A   1      49.267  24.978  27.625  1.00  0.00     0.116 C 
ENDROOT
BRANCH   1   2
ATOM      2  N   UNL A   1      49.136  25.990  28.650  1.00  0.00    -0.353 N 
ATOM      3  C   UNL A   1      48.078  26.229  29.468  1.00  0.00     0.243 C 
ATOM      4  O   UNL A   1      48.113  27.148  30.281  1.00  0.00    -0.270 OA
ATOM      5  H   UNL A   1      49.914  26.583  28.769  1.00  0.00     0.163 HD
BRANCH   3   6
ATOM      6  C   UNL A   1      46.938  25.296  29.460  1.00  0.00     0.071 C 
ATOM      7  C   UNL A   1      45.743  25.514  28.894  1.00  0.00     0.005 C 
BRANCH   7   8
ATOM      8  C   UNL A   1      44.730  24.518  28.961  1.00  0.00    -0.004 C 
ATOM      9  C   UNL A   1      43.979  24.054  27.958  1.00  0.00    -0.022 C 
BRANCH   9  10
ATOM     10  C   UNL A   1      42.639  23.387  28.245  1.00  0.00     0.027 C 
ATOM     11  C   UNL A   1      41.278  24.198  28.048  1.00  0.00     0.047 C 
ATOM     12  C   UNL A   1      40.218  23.449  27.225  1.00  0.00    -0.069 C 
ATOM     13  C   UNL A   1      39.024  24.200  26.698  1.00  0.00     0.040 C 
ATOM     14  C   UNL A   1      40.260  22.106  27.072  1.00  0.00    -0.024 C 
ATOM     15  C   UNL A   1      42.692  21.956  27.590  1.00  0.00     0.009 C 
ATOM     16  C   UNL A   1      41.338  21.246  27.673  1.00  0.00     0.016 C 
ATOM     17  C   UNL A   1      43.331  21.831  26.158  1.00  0.00     0.021 C 
ATOM     18  C   UNL A   1      41.423  19.805  27.114  1.00  0.00     0.011 C 
ATOM     19  C   UNL A   1      43.525  20.348  25.810  1.00  0.00     0.141 C 
ATOM     20  C   UNL A   1      42.630  22.572  25.001  1.00  0.00     0.011 C 
ATOM     21  C   UNL A   1      42.176  19.632  25.794  1.00  0.00     0.034 C 
BRANCH  11  22
ATOM     22  C   UNL A   1      41.490  25.712  27.759  1.00  0.00    -0.070 C 
ATOM     23  C   UNL A   1      41.248  28.163  28.500  1.00  0.00     0.035 C 
ATOM     24  C   UNL A   1      41.349  26.681  28.693  1.00  0.00    -0.031 C 
ATOM     25  C   UNL A   1      41.752  26.014  26.298  1.00  0.00     0.040 C 
ENDBRANCH  11  22
BRANCH  19  26
ATOM     26  O   UNL A   1      44.152  20.227  24.538  1.00  0.00    -0.276 OA
BRANCH  26  27
ATOM     27  S   UNL A   1      45.516  19.348  24.426  1.00  0.00     0.217 S 
ATOM     28  O   UNL A   1      45.655  18.825  23.080  1.00  0.00    -0.213 OA
ATOM     29  O   UNL A   1      46.590  20.081  25.047  1.00  0.00    -0.213 OA
ATOM     30  O   UNL A   1      45.218  18.081  25.372  1.00  0.00    -0.726 OA
ENDBRANCH  26  27
ENDBRANCH  19  26
ENDBRANCH   9  10
ENDBRANCH   7   8
ENDBRANCH   3   6
ENDBRANCH   1   2
BRANCH   1  31
ATOM     31  C   UNL A   1      48.704  25.505  26.303  1.00  0.00     0.023 C 
BRANCH  31  32
ATOM     32  C   UNL A   1      47.608  24.628  25.719  1.00  0.00     0.023 C 
BRANCH  32  33
ATOM     33  C   UNL A   1      46.404  25.414  25.239  1.00  0.00     0.116 C 
BRANCH  33  34
ATOM     34  N   UNL A   1      46.751  26.525  24.362  1.00  0.00    -0.352 N 
ATOM     35  C   UNL A   1      46.561  27.860  24.613  1.00  0.00     0.251 C 
ATOM     36  H   UNL A   1      47.164  26.293  23.498  1.00  0.00     0.163 HD
ATOM     37  O   UNL A   1      46.778  28.714  23.762  1.00  0.00    -0.269 OA
BRANCH  35  38
ATOM     38  C   UNL A   1      46.034  28.224  25.937  1.00  0.00     0.039 A 
ATOM     39  C   UNL A   1      46.915  28.711  26.901  1.00  0.00     0.014 A 
ATOM     40  C   UNL A   1      44.653  28.222  26.150  1.00  0.00     0.014 A 
ATOM     41  C   UNL A   1      46.398  29.257  28.072  1.00  0.00     0.010 A 
ATOM     42  C   UNL A   1      44.139  28.853  27.272  1.00  0.00     0.010 A 
ATOM     43  C   UNL A   1      45.007  29.366  28.248  1.00  0.00    -0.014 A 
BRANCH  43  44
ATOM     44  C   UNL A   1      44.439  30.000  29.460  1.00  0.00     0.031 A 
ATOM     45  C   UNL A   1      44.154  31.474  29.460  1.00  0.00     0.074 A 
ATOM     46  C   UNL A   1      44.235  29.262  30.569  1.00  0.00     0.049 A 
ATOM     47  N   UNL A   1      43.704  32.230  30.429  1.00  0.00    -0.248 NA
ATOM     48  C   UNL A   1      44.441  32.204  28.214  1.00  0.00     0.031 C 
ATOM     49  C   UNL A   1      44.528  27.834  30.703  1.00  0.00     0.029 A 
ATOM     50  N   UNL A   1      43.738  29.615  31.798  1.00  0.00    -0.354 N 
ATOM     51  C   UNL A   1      43.667  33.518  29.912  1.00  0.00     0.074 A 
ATOM     52  C   UNL A   1      44.203  33.456  28.572  1.00  0.00     0.031 C 
ATOM     53  C   UNL A   1      44.177  27.427  31.933  1.00  0.00     0.029 A 
ATOM     54  C   UNL A   1      43.676  28.571  32.687  1.00  0.00     0.049 A 
ATOM     55  H   UNL A   1      43.454  30.531  32.021  1.00  0.00     0.167 HD
ATOM     56  C   UNL A   1      43.199  34.646  30.495  1.00  0.00     0.037 A 
ATOM     57  C   UNL A   1      43.264  28.546  33.969  1.00  0.00     0.037 A 
ATOM     58  C   UNL A   1      42.646  34.693  31.822  1.00  0.00     0.049 A 
ATOM     59  C   UNL A   1      42.760  29.818  34.597  1.00  0.00     0.074 A 
ATOM     60  C   UNL A   1      42.089  35.771  32.485  1.00  0.00     0.029 A 
ATOM     61  N   UNL A   1      42.585  33.612  32.690  1.00  0.00    -0.354 N 
ATOM     62  N   UNL A   1      42.653  31.015  34.074  1.00  0.00    -0.248 NA
ATOM     63  C   UNL A   1      42.309  29.733  35.994  1.00  0.00     0.031 C 
ATOM     64  C   UNL A   1      41.744  35.358  33.775  1.00  0.00     0.029 A 
ATOM     65  C   UNL A   1      42.025  34.006  33.894  1.00  0.00     0.049 A 
ATOM     66  H   UNL A   1      42.895  32.701  32.481  1.00  0.00     0.167 HD
ATOM     67  C   UNL A   1      42.096  31.816  35.062  1.00  0.00     0.074 A 
ATOM     68  C   UNL A   1      41.871  30.965  36.210  1.00  0.00     0.031 C 
ATOM     69  C   UNL A   1      41.799  33.140  35.023  1.00  0.00     0.037 A 
BRANCH  56  70
ATOM     70  C   UNL A   1      43.263  35.918  29.700  1.00  0.00     0.064 A 
ATOM     71  C   UNL A   1      42.304  36.226  28.722  1.00  0.00     0.173 A 
ATOM     72  C   UNL A   1      44.276  36.858  29.942  1.00  0.00     0.173 A 
ATOM     73  F   UNL A   1      41.321  35.355  28.441  1.00  0.00    -0.203 F 
ATOM     74  C   UNL A   1      42.374  37.412  27.997  1.00  0.00     0.198 A 
ATOM     75  C   UNL A   1      44.323  38.058  29.239  1.00  0.00     0.198 A 
ATOM     76  F   UNL A   1      45.217  36.614  30.866  1.00  0.00    -0.203 F 
ATOM     77  F   UNL A   1      41.478  37.659  27.031  1.00  0.00    -0.200 F 
ATOM     78  C   UNL A   1      43.378  38.331  28.262  1.00  0.00     0.200 A 
ATOM     79  F   UNL A   1      45.286  38.951  29.507  1.00  0.00    -0.200 F 
ATOM     80  F   UNL A   1      43.438  39.478  27.571  1.00  0.00    -0.200 F 
ENDBRANCH  56  70
BRANCH  57  81
ATOM     81  C   UNL A   1      43.293  27.273  34.739  1.00  0.00     0.064 A 
ATOM     82  C   UNL A   1      44.453  26.860  35.410  1.00  0.00     0.173 A 
ATOM     83  C   UNL A   1      42.170  26.435  34.805  1.00  0.00     0.173 A 
ATOM     84  F   UNL A   1      45.559  27.618  35.362  1.00  0.00    -0.203 F 
ATOM     85  C   UNL A   1      44.498  25.647  36.093  1.00  0.00     0.198 A 
ATOM     86  C   UNL A   1      42.206  25.237  35.516  1.00  0.00     0.198 A 
ATOM     87  F   UNL A   1      41.033  26.784  34.187  1.00  0.00    -0.203 F 
ATOM     88  F   UNL A   1      45.638  25.252  36.678  1.00  0.00    -0.200 F 
ATOM     89  C   UNL A   1      43.374  24.838  36.149  1.00  0.00     0.200 A 
ATOM     90  F   UNL A   1      41.112  24.466  35.582  1.00  0.00    -0.200 F 
ATOM     91  F   UNL A   1      43.417  23.671  36.807  1.00  0.00    -0.200 F 
ENDBRANCH  57  81
BRANCH  69  92
ATOM     92  C   UNL A   1      41.158  33.738  36.242  1.00  0.00     0.064 A 
ATOM     93  C   UNL A   1      41.907  34.422  37.211  1.00  0.00     0.173 A 
ATOM     94  C   UNL A   1      39.767  33.664  36.418  1.00  0.00     0.173 A 
ATOM     95  F   UNL A   1      43.240  34.510  37.096  1.00  0.00    -0.203 F 
ATOM     96  C   UNL A   1      41.290  34.984  38.326  1.00  0.00     0.198 A 
ATOM     97  C   UNL A   1      39.151  34.257  37.515  1.00  0.00     0.198 A 
ATOM     98  F   UNL A   1      39.004  33.028  35.516  1.00  0.00    -0.203 F 
ATOM     99  F   UNL A   1      42.032  35.586  39.266  1.00  0.00    -0.200 F 
ATOM    100  C   UNL A   1      39.913  34.908  38.473  1.00  0.00     0.200 A 
ATOM    101  F   UNL A   1      37.818  34.199  37.645  1.00  0.00    -0.200 F 
ATOM    102  F   UNL A   1      39.321  35.459  39.541  1.00  0.00    -0.200 F 
ENDBRANCH  69  92
ENDBRANCH  43  44
ENDBRANCH  35  38
ENDBRANCH  33  34
ENDBRANCH  32  33
ENDBRANCH  31  32
ENDBRANCH   1  31
TORSDOF 16
ENDMDL
