MODEL 1
REMARK VINA RESULT:     -13.6      0.000      0.000
REMARK SMILES O=C(NCCCCNC(=O)c1ccc(F)c(S(=O)(=O)N2CCOc3ccccc32)c1)c1ccc(-c2c3nc(c(-c4c(F)c(F)c(F)c(F)c4F)c4ccc([nH]4)c(-c4c(F)c(F)c(F)c(F)c4F)c4nc(c(-c5c(F)c(F)c(F)c(F)c5F)c5ccc2[nH]5)C=C4)C=C3)cc1
REMARK SMILES IDX 5 1 4 2 3 3 1 4 2 5 31 7 32 8 93 9 33 10 92 11 34 12 35 13
REMARK SMILES IDX 36 14 86 15 37 16 91 17 85 18 87 19 38 20 90 21 84 22 83 23
REMARK SMILES IDX 39 25 71 26 51 27 70 28 52 29 55 30 69 31 88 32 53 33 54 34
REMARK SMILES IDX 68 36 89 37 56 38 40 39 41 40 49 41 42 42 43 43 47 44 50 45
REMARK SMILES IDX 44 46 45 47 48 48 46 49 72 50 73 51 81 52 74 53 75 54 79 55
REMARK SMILES IDX 82 56 76 57 77 58 80 59 78 60 57 61 58 62 66 63 59 64 60 65
REMARK SMILES IDX 64 66 67 67 61 68 62 69 65 70 63 71 6 72 7 73 8 74 9 75
REMARK SMILES IDX 10 77 11 78 12 79 30 80 13 81 16 82 14 83 15 84 17 85 18 86
REMARK SMILES IDX 19 87 20 88 21 89 29 90 22 91 24 92 28 93 23 94 25 95 27 96
REMARK SMILES IDX 26 97
REMARK H PARENT 3 6 87 24 55 35 8 76
REMARK Flexibility Score: inf
ROOT
ATOM      1  C   UNL A   1      31.430  31.922  26.561  1.00  0.00     0.023 C 
ENDROOT
BRANCH   1   2
ATOM      2  C   UNL A   1      32.683  32.666  27.001  1.00  0.00     0.116 C 
BRANCH   2   3
ATOM      3  N   UNL A   1      32.403  34.014  27.470  1.00  0.00    -0.352 N 
ATOM      4  O   UNL A   1      32.529  35.790  28.857  1.00  0.00    -0.269 OA
ATOM      5  C   UNL A   1      32.984  34.707  28.505  1.00  0.00     0.251 C 
ATOM      6  H   UNL A   1      31.701  34.497  26.978  1.00  0.00     0.163 HD
BRANCH   5   7
ATOM      7  C   UNL A   1      34.152  34.134  29.207  1.00  0.00     0.039 A 
ATOM      8  C   UNL A   1      33.979  33.238  30.266  1.00  0.00     0.014 A 
ATOM      9  C   UNL A   1      35.438  34.482  28.783  1.00  0.00     0.014 A 
ATOM     10  C   UNL A   1      35.085  32.777  30.970  1.00  0.00     0.010 A 
ATOM     11  C   UNL A   1      36.553  33.957  29.443  1.00  0.00     0.010 A 
ATOM     12  C   UNL A   1      36.382  33.108  30.548  1.00  0.00    -0.014 A 
BRANCH  12  13
ATOM     13  C   UNL A   1      37.545  32.453  31.194  1.00  0.00     0.031 A 
ATOM     14  C   UNL A   1      38.293  31.342  30.522  1.00  0.00     0.074 A 
ATOM     15  C   UNL A   1      37.912  32.884  32.417  1.00  0.00     0.049 A 
ATOM     16  N   UNL A   1      39.312  30.652  30.971  1.00  0.00    -0.248 NA
ATOM     17  C   UNL A   1      37.849  30.947  29.175  1.00  0.00     0.031 C 
ATOM     18  C   UNL A   1      37.241  33.950  33.167  1.00  0.00     0.029 A 
ATOM     19  N   UNL A   1      38.933  32.491  33.243  1.00  0.00    -0.354 N 
ATOM     20  C   UNL A   1      39.621  29.736  29.975  1.00  0.00     0.074 A 
ATOM     21  C   UNL A   1      38.676  29.944  28.899  1.00  0.00     0.031 C 
ATOM     22  C   UNL A   1      37.880  34.141  34.328  1.00  0.00     0.029 A 
ATOM     23  C   UNL A   1      38.964  33.172  34.436  1.00  0.00     0.049 A 
ATOM     24  H   UNL A   1      39.580  31.789  33.006  1.00  0.00     0.167 HD
ATOM     25  C   UNL A   1      40.612  28.815  29.968  1.00  0.00     0.037 A 
ATOM     26  C   UNL A   1      39.755  33.015  35.513  1.00  0.00     0.037 A 
ATOM     27  C   UNL A   1      41.565  28.639  31.034  1.00  0.00     0.049 A 
ATOM     28  C   UNL A   1      40.819  31.958  35.487  1.00  0.00     0.074 A 
ATOM     29  C   UNL A   1      42.653  27.785  31.079  1.00  0.00     0.029 A 
ATOM     30  N   UNL A   1      41.540  29.320  32.241  1.00  0.00    -0.354 N 
ATOM     31  N   UNL A   1      41.133  31.134  34.517  1.00  0.00    -0.248 NA
ATOM     32  C   UNL A   1      41.627  31.795  36.702  1.00  0.00     0.031 C 
ATOM     33  C   UNL A   1      43.256  27.911  32.333  1.00  0.00     0.029 A 
ATOM     34  C   UNL A   1      42.570  28.875  33.053  1.00  0.00     0.049 A 
ATOM     35  H   UNL A   1      40.887  30.016  32.485  1.00  0.00     0.167 HD
ATOM     36  C   UNL A   1      42.173  30.355  35.003  1.00  0.00     0.074 A 
ATOM     37  C   UNL A   1      42.455  30.822  36.344  1.00  0.00     0.031 C 
ATOM     38  C   UNL A   1      42.827  29.341  34.391  1.00  0.00     0.037 A 
BRANCH  25  39
ATOM     39  C   UNL A   1      40.744  27.909  28.781  1.00  0.00     0.064 A 
ATOM     40  C   UNL A   1      41.515  28.301  27.677  1.00  0.00     0.173 A 
ATOM     41  C   UNL A   1      39.991  26.731  28.675  1.00  0.00     0.173 A 
ATOM     42  F   UNL A   1      42.244  29.426  27.728  1.00  0.00    -0.203 F 
ATOM     43  C   UNL A   1      41.507  27.561  26.498  1.00  0.00     0.198 A 
ATOM     44  C   UNL A   1      39.999  25.984  27.499  1.00  0.00     0.198 A 
ATOM     45  F   UNL A   1      39.241  26.314  29.704  1.00  0.00    -0.203 F 
ATOM     46  F   UNL A   1      42.216  27.979  25.440  1.00  0.00    -0.200 F 
ATOM     47  C   UNL A   1      40.746  26.406  26.408  1.00  0.00     0.200 A 
ATOM     48  F   UNL A   1      39.270  24.861  27.416  1.00  0.00    -0.200 F 
ATOM     49  F   UNL A   1      40.725  25.702  25.268  1.00  0.00    -0.200 F 
ENDBRANCH  25  39
BRANCH  26  50
ATOM     50  C   UNL A   1      39.533  33.864  36.711  1.00  0.00     0.064 A 
ATOM     51  C   UNL A   1      40.136  35.127  36.823  1.00  0.00     0.173 A 
ATOM     52  C   UNL A   1      38.748  33.418  37.780  1.00  0.00     0.173 A 
ATOM     53  F   UNL A   1      40.903  35.596  35.828  1.00  0.00    -0.203 F 
ATOM     54  C   UNL A   1      39.982  35.899  37.972  1.00  0.00     0.198 A 
ATOM     55  C   UNL A   1      38.570  34.204  38.916  1.00  0.00     0.198 A 
ATOM     56  F   UNL A   1      38.136  32.226  37.710  1.00  0.00    -0.203 F 
ATOM     57  F   UNL A   1      40.604  37.081  38.070  1.00  0.00    -0.200 F 
ATOM     58  C   UNL A   1      39.195  35.439  39.016  1.00  0.00     0.200 A 
ATOM     59  F   UNL A   1      37.789  33.767  39.915  1.00  0.00    -0.200 F 
ATOM     60  F   UNL A   1      39.036  36.186  40.116  1.00  0.00    -0.200 F 
ENDBRANCH  26  50
BRANCH  38  61
ATOM     61  C   UNL A   1      43.905  28.647  35.166  1.00  0.00     0.064 A 
ATOM     62  C   UNL A   1      45.248  29.024  35.020  1.00  0.00     0.173 A 
ATOM     63  C   UNL A   1      43.611  27.549  35.987  1.00  0.00     0.173 A 
ATOM     64  F   UNL A   1      45.576  30.065  34.239  1.00  0.00    -0.203 F 
ATOM     65  C   UNL A   1      46.262  28.310  35.650  1.00  0.00     0.198 A 
ATOM     66  C   UNL A   1      44.626  26.852  36.635  1.00  0.00     0.198 A 
ATOM     67  F   UNL A   1      42.339  27.163  36.168  1.00  0.00    -0.203 F 
ATOM     68  F   UNL A   1      47.541  28.664  35.467  1.00  0.00    -0.200 F 
ATOM     69  C   UNL A   1      45.951  27.227  36.458  1.00  0.00     0.200 A 
ATOM     70  F   UNL A   1      44.323  25.818  37.432  1.00  0.00    -0.200 F 
ATOM     71  F   UNL A   1      46.928  26.541  37.066  1.00  0.00    -0.200 F 
ENDBRANCH  38  61
ENDBRANCH  12  13
ENDBRANCH   5   7
ENDBRANCH   2   3
ENDBRANCH   1   2
BRANCH   1  72
ATOM     72  C   UNL A   1      31.501  30.402  26.680  1.00  0.00     0.023 C 
BRANCH  72  73
ATOM     73  C   UNL A   1      31.820  29.661  25.386  1.00  0.00     0.116 C 
BRANCH  73  74
ATOM     74  N   UNL A   1      31.021  30.112  24.257  1.00  0.00    -0.352 N 
ATOM     75  C   UNL A   1      30.416  29.377  23.267  1.00  0.00     0.251 C 
ATOM     76  H   UNL A   1      30.896  31.086  24.194  1.00  0.00     0.163 HD
ATOM     77  O   UNL A   1      29.874  29.935  22.320  1.00  0.00    -0.269 OA
BRANCH  75  78
ATOM     78  C   UNL A   1      30.444  27.901  23.331  1.00  0.00     0.041 A 
ATOM     79  C   UNL A   1      29.314  27.183  23.736  1.00  0.00     0.017 A 
ATOM     80  C   UNL A   1      31.623  27.231  22.991  1.00  0.00     0.039 A 
ATOM     81  C   UNL A   1      29.411  25.811  23.945  1.00  0.00     0.041 A 
ATOM     82  C   UNL A   1      31.698  25.841  23.163  1.00  0.00     0.124 A 
ATOM     83  C   UNL A   1      30.611  25.152  23.690  1.00  0.00     0.143 A 
ATOM     84  F   UNL A   1      30.654  23.851  23.989  1.00  0.00    -0.205 F 
BRANCH  82  85
ATOM     85  S   UNL A   1      33.207  25.043  22.686  1.00  0.00     0.267 S 
ATOM     86  O   UNL A   1      32.808  23.759  22.143  1.00  0.00    -0.201 OA
ATOM     87  O   UNL A   1      33.896  26.007  21.854  1.00  0.00    -0.201 OA
BRANCH  85  88
ATOM     88  N   UNL A   1      34.039  24.744  24.119  1.00  0.00    -0.259 N 
ATOM     89  C   UNL A   1      33.476  25.292  25.377  1.00  0.00     0.177 C 
ATOM     90  C   UNL A   1      35.002  23.682  24.284  1.00  0.00     0.094 A 
ATOM     91  C   UNL A   1      33.196  24.139  26.324  1.00  0.00     0.252 C 
ATOM     92  C   UNL A   1      35.160  23.109  25.563  1.00  0.00     0.143 A 
ATOM     93  C   UNL A   1      35.881  23.287  23.271  1.00  0.00     0.031 A 
ATOM     94  O   UNL A   1      34.402  23.443  26.663  1.00  0.00    -0.489 OA
ATOM     95  C   UNL A   1      36.159  22.162  25.806  1.00  0.00     0.049 A 
ATOM     96  C   UNL A   1      36.857  22.313  23.507  1.00  0.00     0.002 A 
ATOM     97  C   UNL A   1      37.000  21.753  24.774  1.00  0.00     0.004 A 
ENDBRANCH  85  88
ENDBRANCH  82  85
ENDBRANCH  75  78
ENDBRANCH  73  74
ENDBRANCH  72  73
ENDBRANCH   1  72
TORSDOF 13
ENDMDL
MODEL 2
REMARK VINA RESULT:     -13.6      1.335      2.010
REMARK SMILES O=C(NCCCCNC(=O)c1ccc(F)c(S(=O)(=O)N2CCOc3ccccc32)c1)c1ccc(-c2c3nc(c(-c4c(F)c(F)c(F)c(F)c4F)c4ccc([nH]4)c(-c4c(F)c(F)c(F)c(F)c4F)c4nc(c(-c5c(F)c(F)c(F)c(F)c5F)c5ccc2[nH]5)C=C4)C=C3)cc1
REMARK SMILES IDX 5 1 4 2 3 3 1 4 2 5 31 7 32 8 93 9 33 10 92 11 34 12 35 13
REMARK SMILES IDX 36 14 86 15 37 16 91 17 85 18 87 19 38 20 90 21 84 22 83 23
REMARK SMILES IDX 39 25 71 26 51 27 70 28 52 29 55 30 69 31 88 32 53 33 54 34
REMARK SMILES IDX 68 36 89 37 56 38 40 39 41 40 49 41 42 42 43 43 47 44 50 45
REMARK SMILES IDX 44 46 45 47 48 48 46 49 72 50 73 51 81 52 74 53 75 54 79 55
REMARK SMILES IDX 82 56 76 57 77 58 80 59 78 60 57 61 58 62 66 63 59 64 60 65
REMARK SMILES IDX 64 66 67 67 61 68 62 69 65 70 63 71 6 72 7 73 8 74 9 75
REMARK SMILES IDX 10 77 11 78 12 79 30 80 13 81 16 82 14 83 15 84 17 85 18 86
REMARK SMILES IDX 19 87 20 88 21 89 29 90 22 91 24 92 28 93 23 94 25 95 27 96
REMARK SMILES IDX 26 97
REMARK H PARENT 3 6 87 24 55 35 8 76
REMARK Flexibility Score: inf
ROOT
ATOM      1  C   UNL A   1      31.375  32.205  26.626  1.00  0.00     0.023 C 
ENDROOT
BRANCH   1   2
ATOM      2  C   UNL A   1      32.624  32.862  27.194  1.00  0.00     0.116 C 
BRANCH   2   3
ATOM      3  N   UNL A   1      32.395  34.231  27.631  1.00  0.00    -0.352 N 
ATOM      4  O   UNL A   1      32.592  36.036  28.970  1.00  0.00    -0.269 OA
ATOM      5  C   UNL A   1      33.007  34.929  28.643  1.00  0.00     0.251 C 
ATOM      6  H   UNL A   1      31.705  34.724  27.131  1.00  0.00     0.163 HD
BRANCH   5   7
ATOM      7  C   UNL A   1      34.160  34.335  29.352  1.00  0.00     0.039 A 
ATOM      8  C   UNL A   1      33.971  33.571  30.507  1.00  0.00     0.014 A 
ATOM      9  C   UNL A   1      35.446  34.526  28.837  1.00  0.00     0.014 A 
ATOM     10  C   UNL A   1      35.072  33.093  31.208  1.00  0.00     0.010 A 
ATOM     11  C   UNL A   1      36.548  33.979  29.500  1.00  0.00     0.010 A 
ATOM     12  C   UNL A   1      36.367  33.267  30.697  1.00  0.00    -0.014 A 
BRANCH  12  13
ATOM     13  C   UNL A   1      37.506  32.586  31.359  1.00  0.00     0.031 A 
ATOM     14  C   UNL A   1      38.216  31.435  30.712  1.00  0.00     0.074 A 
ATOM     15  C   UNL A   1      37.887  33.030  32.573  1.00  0.00     0.049 A 
ATOM     16  N   UNL A   1      39.209  30.720  31.178  1.00  0.00    -0.248 NA
ATOM     17  C   UNL A   1      37.760  31.027  29.373  1.00  0.00     0.031 C 
ATOM     18  C   UNL A   1      37.253  34.134  33.298  1.00  0.00     0.029 A 
ATOM     19  N   UNL A   1      38.893  32.619  33.409  1.00  0.00    -0.354 N 
ATOM     20  C   UNL A   1      39.487  29.772  30.202  1.00  0.00     0.074 A 
ATOM     21  C   UNL A   1      38.551  29.990  29.120  1.00  0.00     0.031 C 
ATOM     22  C   UNL A   1      37.898  34.328  34.456  1.00  0.00     0.029 A 
ATOM     23  C   UNL A   1      38.947  33.325  34.586  1.00  0.00     0.049 A 
ATOM     24  H   UNL A   1      39.515  31.890  33.188  1.00  0.00     0.167 HD
ATOM     25  C   UNL A   1      40.445  28.817  30.217  1.00  0.00     0.037 A 
ATOM     26  C   UNL A   1      39.730  33.164  35.669  1.00  0.00     0.037 A 
ATOM     27  C   UNL A   1      41.391  28.631  31.287  1.00  0.00     0.049 A 
ATOM     28  C   UNL A   1      40.757  32.069  35.667  1.00  0.00     0.074 A 
ATOM     29  C   UNL A   1      42.448  27.740  31.352  1.00  0.00     0.029 A 
ATOM     30  N   UNL A   1      41.388  29.338  32.480  1.00  0.00    -0.354 N 
ATOM     31  N   UNL A   1      41.043  31.214  34.715  1.00  0.00    -0.248 NA
ATOM     32  C   UNL A   1      41.558  31.904  36.886  1.00  0.00     0.031 C 
ATOM     33  C   UNL A   1      43.054  27.873  32.605  1.00  0.00     0.029 A 
ATOM     34  C   UNL A   1      42.402  28.875  33.303  1.00  0.00     0.049 A 
ATOM     35  H   UNL A   1      40.760  30.061  32.707  1.00  0.00     0.167 HD
ATOM     36  C   UNL A   1      42.055  30.410  35.219  1.00  0.00     0.074 A 
ATOM     37  C   UNL A   1      42.352  30.896  36.551  1.00  0.00     0.031 C 
ATOM     38  C   UNL A   1      42.674  29.360  34.631  1.00  0.00     0.037 A 
BRANCH  25  39
ATOM     39  C   UNL A   1      40.547  27.882  29.050  1.00  0.00     0.064 A 
ATOM     40  C   UNL A   1      41.349  28.214  27.947  1.00  0.00     0.173 A 
ATOM     41  C   UNL A   1      39.738  26.740  28.957  1.00  0.00     0.173 A 
ATOM     42  F   UNL A   1      42.131  29.303  27.985  1.00  0.00    -0.203 F 
ATOM     43  C   UNL A   1      41.318  27.451  26.783  1.00  0.00     0.198 A 
ATOM     44  C   UNL A   1      39.723  25.969  27.797  1.00  0.00     0.198 A 
ATOM     45  F   UNL A   1      38.957  26.381  29.985  1.00  0.00    -0.203 F 
ATOM     46  F   UNL A   1      42.059  27.812  25.726  1.00  0.00    -0.200 F 
ATOM     47  C   UNL A   1      40.503  26.332  26.707  1.00  0.00     0.200 A 
ATOM     48  F   UNL A   1      38.942  24.882  27.727  1.00  0.00    -0.200 F 
ATOM     49  F   UNL A   1      40.461  25.607  25.580  1.00  0.00    -0.200 F 
ENDBRANCH  25  39
BRANCH  26  50
ATOM     50  C   UNL A   1      39.538  34.045  36.847  1.00  0.00     0.064 A 
ATOM     51  C   UNL A   1      40.164  35.299  36.922  1.00  0.00     0.173 A 
ATOM     52  C   UNL A   1      38.758  33.639  37.935  1.00  0.00     0.173 A 
ATOM     53  F   UNL A   1      40.927  35.730  35.907  1.00  0.00    -0.203 F 
ATOM     54  C   UNL A   1      40.037  36.102  38.053  1.00  0.00     0.198 A 
ATOM     55  C   UNL A   1      38.606  34.456  39.054  1.00  0.00     0.198 A 
ATOM     56  F   UNL A   1      38.124  32.457  37.902  1.00  0.00    -0.203 F 
ATOM     57  F   UNL A   1      40.680  37.275  38.114  1.00  0.00    -0.200 F 
ATOM     58  C   UNL A   1      39.253  35.682  39.116  1.00  0.00     0.200 A 
ATOM     59  F   UNL A   1      37.830  34.057  40.072  1.00  0.00    -0.200 F 
ATOM     60  F   UNL A   1      39.121  36.458  40.199  1.00  0.00    -0.200 F 
ENDBRANCH  26  50
BRANCH  38  61
ATOM     61  C   UNL A   1      43.726  28.646  35.422  1.00  0.00     0.064 A 
ATOM     62  C   UNL A   1      43.375  27.647  36.342  1.00  0.00     0.173 A 
ATOM     63  C   UNL A   1      45.074  29.018  35.330  1.00  0.00     0.173 A 
ATOM     64  F   UNL A   1      42.096  27.264  36.469  1.00  0.00    -0.203 F 
ATOM     65  C   UNL A   1      44.337  27.061  37.159  1.00  0.00     0.198 A 
ATOM     66  C   UNL A   1      46.036  28.413  36.132  1.00  0.00     0.198 A 
ATOM     67  F   UNL A   1      45.457  29.958  34.453  1.00  0.00    -0.203 F 
ATOM     68  F   UNL A   1      43.975  26.136  38.058  1.00  0.00    -0.200 F 
ATOM     69  C   UNL A   1      45.666  27.443  37.053  1.00  0.00     0.200 A 
ATOM     70  F   UNL A   1      47.324  28.767  36.014  1.00  0.00    -0.200 F 
ATOM     71  F   UNL A   1      46.591  26.877  37.839  1.00  0.00    -0.200 F 
ENDBRANCH  38  61
ENDBRANCH  12  13
ENDBRANCH   5   7
ENDBRANCH   2   3
ENDBRANCH   1   2
BRANCH   1  72
ATOM     72  C   UNL A   1      31.568  30.785  26.102  1.00  0.00     0.023 C 
BRANCH  72  73
ATOM     73  C   UNL A   1      31.869  29.733  27.163  1.00  0.00     0.116 C 
BRANCH  73  74
ATOM     74  N   UNL A   1      33.290  29.592  27.441  1.00  0.00    -0.352 N 
ATOM     75  C   UNL A   1      34.236  28.837  26.791  1.00  0.00     0.251 C 
ATOM     76  H   UNL A   1      33.622  30.113  28.206  1.00  0.00     0.163 HD
ATOM     77  O   UNL A   1      35.374  28.746  27.237  1.00  0.00    -0.269 OA
BRANCH  75  78
ATOM     78  C   UNL A   1      33.869  28.106  25.561  1.00  0.00     0.041 A 
ATOM     79  C   UNL A   1      33.965  28.724  24.309  1.00  0.00     0.017 A 
ATOM     80  C   UNL A   1      33.412  26.789  25.666  1.00  0.00     0.039 A 
ATOM     81  C   UNL A   1      33.464  28.077  23.184  1.00  0.00     0.041 A 
ATOM     82  C   UNL A   1      32.949  26.128  24.519  1.00  0.00     0.124 A 
ATOM     83  C   UNL A   1      32.928  26.796  23.300  1.00  0.00     0.143 A 
ATOM     84  F   UNL A   1      32.392  26.270  22.195  1.00  0.00    -0.205 F 
BRANCH  82  85
ATOM     85  S   UNL A   1      32.411  24.450  24.709  1.00  0.00     0.267 S 
ATOM     86  O   UNL A   1      31.216  24.519  25.528  1.00  0.00    -0.201 OA
ATOM     87  O   UNL A   1      32.346  23.921  23.364  1.00  0.00    -0.201 OA
BRANCH  85  88
ATOM     88  N   UNL A   1      33.601  23.689  25.625  1.00  0.00    -0.259 N 
ATOM     89  C   UNL A   1      33.256  23.275  27.008  1.00  0.00     0.177 C 
ATOM     90  C   UNL A   1      34.765  23.050  25.062  1.00  0.00     0.094 A 
ATOM     91  C   UNL A   1      33.441  21.772  27.122  1.00  0.00     0.252 C 
ATOM     92  C   UNL A   1      35.332  21.955  25.748  1.00  0.00     0.143 A 
ATOM     93  C   UNL A   1      35.439  23.546  23.942  1.00  0.00     0.031 A 
ATOM     94  O   UNL A   1      34.805  21.400  26.893  1.00  0.00    -0.489 OA
ATOM     95  C   UNL A   1      36.526  21.375  25.312  1.00  0.00     0.049 A 
ATOM     96  C   UNL A   1      36.616  22.942  23.486  1.00  0.00     0.002 A 
ATOM     97  C   UNL A   1      37.162  21.860  24.172  1.00  0.00     0.004 A 
ENDBRANCH  85  88
ENDBRANCH  82  85
ENDBRANCH  75  78
ENDBRANCH  73  74
ENDBRANCH  72  73
ENDBRANCH   1  72
TORSDOF 13
ENDMDL
MODEL 3
REMARK VINA RESULT:     -13.6      1.321      2.002
REMARK SMILES O=C(NCCCCNC(=O)c1ccc(F)c(S(=O)(=O)N2CCOc3ccccc32)c1)c1ccc(-c2c3nc(c(-c4c(F)c(F)c(F)c(F)c4F)c4ccc([nH]4)c(-c4c(F)c(F)c(F)c(F)c4F)c4nc(c(-c5c(F)c(F)c(F)c(F)c5F)c5ccc2[nH]5)C=C4)C=C3)cc1
REMARK SMILES IDX 5 1 4 2 3 3 1 4 2 5 31 7 32 8 93 9 33 10 92 11 34 12 35 13
REMARK SMILES IDX 36 14 86 15 37 16 91 17 85 18 87 19 38 20 90 21 84 22 83 23
REMARK SMILES IDX 39 25 71 26 51 27 70 28 52 29 55 30 69 31 88 32 53 33 54 34
REMARK SMILES IDX 68 36 89 37 56 38 40 39 41 40 49 41 42 42 43 43 47 44 50 45
REMARK SMILES IDX 44 46 45 47 48 48 46 49 72 50 73 51 81 52 74 53 75 54 79 55
REMARK SMILES IDX 82 56 76 57 77 58 80 59 78 60 57 61 58 62 66 63 59 64 60 65
REMARK SMILES IDX 64 66 67 67 61 68 62 69 65 70 63 71 6 72 7 73 8 74 9 75
REMARK SMILES IDX 10 77 11 78 12 79 30 80 13 81 16 82 14 83 15 84 17 85 18 86
REMARK SMILES IDX 19 87 20 88 21 89 29 90 22 91 24 92 28 93 23 94 25 95 27 96
REMARK SMILES IDX 26 97
REMARK H PARENT 3 6 87 24 55 35 8 76
REMARK Flexibility Score: inf
ROOT
ATOM      1  C   UNL A   1      31.370  32.215  26.623  1.00  0.00     0.023 C 
ENDROOT
BRANCH   1   2
ATOM      2  C   UNL A   1      32.633  32.826  27.214  1.00  0.00     0.116 C 
BRANCH   2   3
ATOM      3  N   UNL A   1      32.447  34.203  27.642  1.00  0.00    -0.352 N 
ATOM      4  O   UNL A   1      32.709  36.012  28.966  1.00  0.00    -0.269 OA
ATOM      5  C   UNL A   1      33.089  34.891  28.643  1.00  0.00     0.251 C 
ATOM      6  H   UNL A   1      31.767  34.713  27.145  1.00  0.00     0.163 HD
BRANCH   5   7
ATOM      7  C   UNL A   1      34.231  34.269  29.346  1.00  0.00     0.039 A 
ATOM      8  C   UNL A   1      34.026  33.474  30.477  1.00  0.00     0.014 A 
ATOM      9  C   UNL A   1      35.523  34.465  28.849  1.00  0.00     0.014 A 
ATOM     10  C   UNL A   1      35.116  32.968  31.174  1.00  0.00     0.010 A 
ATOM     11  C   UNL A   1      36.615  33.892  29.507  1.00  0.00     0.010 A 
ATOM     12  C   UNL A   1      36.418  33.148  30.681  1.00  0.00    -0.014 A 
BRANCH  12  13
ATOM     13  C   UNL A   1      37.545  32.440  31.334  1.00  0.00     0.031 A 
ATOM     14  C   UNL A   1      38.240  31.290  30.670  1.00  0.00     0.074 A 
ATOM     15  C   UNL A   1      37.930  32.859  32.556  1.00  0.00     0.049 A 
ATOM     16  N   UNL A   1      39.222  30.553  31.126  1.00  0.00    -0.248 NA
ATOM     17  C   UNL A   1      37.781  30.910  29.324  1.00  0.00     0.031 C 
ATOM     18  C   UNL A   1      37.310  33.960  33.298  1.00  0.00     0.029 A 
ATOM     19  N   UNL A   1      38.928  32.420  33.387  1.00  0.00    -0.354 N 
ATOM     20  C   UNL A   1      39.489  29.618  30.136  1.00  0.00     0.074 A 
ATOM     21  C   UNL A   1      38.558  29.866  29.056  1.00  0.00     0.031 C 
ATOM     22  C   UNL A   1      37.955  34.126  34.460  1.00  0.00     0.029 A 
ATOM     23  C   UNL A   1      38.989  33.106  34.576  1.00  0.00     0.049 A 
ATOM     24  H   UNL A   1      39.540  31.686  33.156  1.00  0.00     0.167 HD
ATOM     25  C   UNL A   1      40.433  28.649  30.137  1.00  0.00     0.037 A 
ATOM     26  C   UNL A   1      39.768  32.916  35.657  1.00  0.00     0.037 A 
ATOM     27  C   UNL A   1      41.374  28.432  31.206  1.00  0.00     0.049 A 
ATOM     28  C   UNL A   1      40.779  31.807  35.639  1.00  0.00     0.074 A 
ATOM     29  C   UNL A   1      42.419  27.526  31.259  1.00  0.00     0.029 A 
ATOM     30  N   UNL A   1      41.379  29.120  32.410  1.00  0.00    -0.354 N 
ATOM     31  N   UNL A   1      41.055  30.964  34.675  1.00  0.00    -0.248 NA
ATOM     32  C   UNL A   1      41.575  31.612  36.858  1.00  0.00     0.031 C 
ATOM     33  C   UNL A   1      43.023  27.629  32.514  1.00  0.00     0.029 A 
ATOM     34  C   UNL A   1      42.384  28.629  33.228  1.00  0.00     0.049 A 
ATOM     35  H   UNL A   1      40.760  29.848  32.648  1.00  0.00     0.167 HD
ATOM     36  C   UNL A   1      42.054  30.138  35.168  1.00  0.00     0.074 A 
ATOM     37  C   UNL A   1      42.355  30.598  36.507  1.00  0.00     0.031 C 
ATOM     38  C   UNL A   1      42.659  29.089  34.564  1.00  0.00     0.037 A 
BRANCH  25  39
ATOM     39  C   UNL A   1      40.524  27.731  28.955  1.00  0.00     0.064 A 
ATOM     40  C   UNL A   1      41.324  28.075  27.855  1.00  0.00     0.173 A 
ATOM     41  C   UNL A   1      39.708  26.596  28.848  1.00  0.00     0.173 A 
ATOM     42  F   UNL A   1      42.113  29.158  27.906  1.00  0.00    -0.203 F 
ATOM     43  C   UNL A   1      41.283  27.331  26.679  1.00  0.00     0.198 A 
ATOM     44  C   UNL A   1      39.684  25.843  27.676  1.00  0.00     0.198 A 
ATOM     45  F   UNL A   1      38.928  26.226  29.874  1.00  0.00    -0.203 F 
ATOM     46  F   UNL A   1      42.022  27.704  25.624  1.00  0.00    -0.200 F 
ATOM     47  C   UNL A   1      40.461  26.218  26.589  1.00  0.00     0.200 A 
ATOM     48  F   UNL A   1      38.895  24.762  27.593  1.00  0.00    -0.200 F 
ATOM     49  F   UNL A   1      40.409  25.511  25.452  1.00  0.00    -0.200 F 
ENDBRANCH  25  39
BRANCH  26  50
ATOM     50  C   UNL A   1      39.586  33.782  36.849  1.00  0.00     0.064 A 
ATOM     51  C   UNL A   1      38.762  33.381  37.913  1.00  0.00     0.173 A 
ATOM     52  C   UNL A   1      40.198  35.037  36.933  1.00  0.00     0.173 A 
ATOM     53  F   UNL A   1      38.149  32.190  37.877  1.00  0.00    -0.203 F 
ATOM     54  C   UNL A   1      38.539  34.217  39.005  1.00  0.00     0.198 A 
ATOM     55  C   UNL A   1      39.997  35.860  38.039  1.00  0.00     0.198 A 
ATOM     56  F   UNL A   1      41.009  35.455  35.949  1.00  0.00    -0.203 F 
ATOM     57  F   UNL A   1      37.715  33.828  39.986  1.00  0.00    -0.200 F 
ATOM     58  C   UNL A   1      39.161  35.455  39.069  1.00  0.00     0.200 A 
ATOM     59  F   UNL A   1      40.618  37.047  38.110  1.00  0.00    -0.200 F 
ATOM     60  F   UNL A   1      38.956  36.254  40.124  1.00  0.00    -0.200 F 
ENDBRANCH  26  50
BRANCH  38  61
ATOM     61  C   UNL A   1      43.700  28.348  35.346  1.00  0.00     0.064 A 
ATOM     62  C   UNL A   1      45.058  28.679  35.224  1.00  0.00     0.173 A 
ATOM     63  C   UNL A   1      43.355  27.250  36.146  1.00  0.00     0.173 A 
ATOM     64  F   UNL A   1      45.435  29.717  34.463  1.00  0.00    -0.203 F 
ATOM     65  C   UNL A   1      46.035  27.921  35.861  1.00  0.00     0.198 A 
ATOM     66  C   UNL A   1      44.334  26.510  36.801  1.00  0.00     0.198 A 
ATOM     67  F   UNL A   1      42.067  26.908  36.303  1.00  0.00    -0.203 F 
ATOM     68  F   UNL A   1      47.329  28.231  35.701  1.00  0.00    -0.200 F 
ATOM     69  C   UNL A   1      45.674  26.839  36.649  1.00  0.00     0.200 A 
ATOM     70  F   UNL A   1      43.982  25.477  37.579  1.00  0.00    -0.200 F 
ATOM     71  F   UNL A   1      46.616  26.111  37.263  1.00  0.00    -0.200 F 
ENDBRANCH  38  61
ENDBRANCH  12  13
ENDBRANCH   5   7
ENDBRANCH   2   3
ENDBRANCH   1   2
BRANCH   1  72
ATOM     72  C   UNL A   1      31.526  30.796  26.083  1.00  0.00     0.023 C 
BRANCH  72  73
ATOM     73  C   UNL A   1      31.824  29.729  27.130  1.00  0.00     0.116 C 
BRANCH  73  74
ATOM     74  N   UNL A   1      33.242  29.605  27.432  1.00  0.00    -0.352 N 
ATOM     75  C   UNL A   1      34.210  28.875  26.787  1.00  0.00     0.251 C 
ATOM     76  H   UNL A   1      33.551  30.119  28.211  1.00  0.00     0.163 HD
ATOM     77  O   UNL A   1      35.342  28.794  27.252  1.00  0.00    -0.269 OA
BRANCH  75  78
ATOM     78  C   UNL A   1      33.877  28.159  25.539  1.00  0.00     0.041 A 
ATOM     79  C   UNL A   1      34.028  28.784  24.296  1.00  0.00     0.017 A 
ATOM     80  C   UNL A   1      33.397  26.848  25.617  1.00  0.00     0.039 A 
ATOM     81  C   UNL A   1      33.558  28.153  23.149  1.00  0.00     0.041 A 
ATOM     82  C   UNL A   1      32.965  26.203  24.449  1.00  0.00     0.124 A 
ATOM     83  C   UNL A   1      32.998  26.880  23.235  1.00  0.00     0.143 A 
ATOM     84  F   UNL A   1      32.495  26.370  22.108  1.00  0.00    -0.205 F 
BRANCH  82  85
ATOM     85  S   UNL A   1      32.395  24.532  24.607  1.00  0.00     0.267 S 
ATOM     86  O   UNL A   1      31.168  24.615  25.375  1.00  0.00    -0.201 OA
ATOM     87  O   UNL A   1      32.379  24.011  23.257  1.00  0.00    -0.201 OA
BRANCH  85  88
ATOM     88  N   UNL A   1      33.534  23.749  25.568  1.00  0.00    -0.259 N 
ATOM     89  C   UNL A   1      33.127  23.338  26.934  1.00  0.00     0.177 C 
ATOM     90  C   UNL A   1      34.709  23.090  25.049  1.00  0.00     0.094 A 
ATOM     91  C   UNL A   1      33.281  21.832  27.052  1.00  0.00     0.252 C 
ATOM     92  C   UNL A   1      35.228  21.985  25.754  1.00  0.00     0.143 A 
ATOM     93  C   UNL A   1      35.435  23.576  23.958  1.00  0.00     0.031 A 
ATOM     94  O   UNL A   1      34.646  21.436  26.876  1.00  0.00    -0.489 OA
ATOM     95  C   UNL A   1      36.429  21.385  25.365  1.00  0.00     0.049 A 
ATOM     96  C   UNL A   1      36.619  22.952  23.548  1.00  0.00     0.002 A 
ATOM     97  C   UNL A   1      37.118  21.860  24.252  1.00  0.00     0.004 A 
ENDBRANCH  85  88
ENDBRANCH  82  85
ENDBRANCH  75  78
ENDBRANCH  73  74
ENDBRANCH  72  73
ENDBRANCH   1  72
TORSDOF 13
ENDMDL
