MODEL 1
REMARK VINA RESULT:     -11.5      0.000      0.000
REMARK SMILES CC[C@](C)(NC(=O)[C@](C)([NH3+])c1ccccc1)C(=O)NCCCCNC(=O)c1ccc(-c2c3nc(c(-c4c(F)c(F)c(F)c(F)c4F)c4ccc([nH]4)c(-c4c(F)c(F)c(F)c(F)c4F)c4nc(c(-c5c(F)c(F)c(F)c(F)c5F)c5ccc2[nH]5)C=C4)C=C3)cc1
REMARK SMILES IDX 21 1 20 2 19 3 17 4 18 5 3 7 4 8 2 9 1 10 5 11 6 12 7 14
REMARK SMILES IDX 8 15 9 16 10 17 11 21 12 22 16 23 13 24 15 25 14 26 22 27
REMARK SMILES IDX 23 28 24 29 25 30 26 32 27 33 28 34 89 35 29 36 88 37 30 38
REMARK SMILES IDX 31 39 32 40 82 41 33 42 87 43 81 44 83 45 34 46 86 47 80 48
REMARK SMILES IDX 79 49 35 51 67 52 47 53 66 54 48 55 51 56 65 57 84 58 49 59
REMARK SMILES IDX 50 60 64 62 85 63 52 64 36 65 37 66 45 67 38 68 39 69 43 70
REMARK SMILES IDX 46 71 40 72 41 73 44 74 42 75 68 76 69 77 77 78 70 79 71 80
REMARK SMILES IDX 75 81 78 82 72 83 73 84 76 85 74 86 53 87 54 88 62 89 55 90
REMARK SMILES IDX 56 91 60 92 63 93 57 94 58 95 61 96 59 97
REMARK H PARENT 19 6 5 13 10 18 10 19 10 20 24 31 83 50 51 61
REMARK Flexibility Score: inf
ROOT
ATOM      1  C   UNL A   1      37.380  20.854  24.654  1.00  0.00     0.023 C 
ENDROOT
BRANCH   1   2
ATOM      2  C   UNL A   1      35.881  20.577  24.803  1.00  0.00     0.116 C 
BRANCH   2   3
ATOM      3  N   UNL A   1      35.297  20.819  26.121  1.00  0.00    -0.354 N 
ATOM      4  C   UNL A   1      34.305  21.657  26.568  1.00  0.00     0.245 C 
ATOM      5  O   UNL A   1      34.027  21.595  27.771  1.00  0.00    -0.272 OA
ATOM      6  H   UNL A   1      35.695  20.270  26.832  1.00  0.00     0.163 HD
BRANCH   4   7
ATOM      7  C   UNL A   1      33.578  22.674  25.641  1.00  0.00     0.116 C 
ATOM      8  C   UNL A   1      33.099  22.058  24.311  1.00  0.00     0.045 C 
BRANCH   7   9
ATOM      9  C   UNL A   1      34.601  23.834  25.308  1.00  0.00     0.035 C 
ATOM     10  C   UNL A   1      35.171  23.903  23.891  1.00  0.00     0.007 C 
ENDBRANCH   7   9
BRANCH   7  11
ATOM     11  N   UNL A   1      32.387  23.222  26.369  1.00  0.00    -0.336 N 
ATOM     12  C   UNL A   1      31.447  24.210  26.189  1.00  0.00     0.286 C 
ATOM     13  H   UNL A   1      32.235  22.739  27.213  1.00  0.00     0.164 HD
ATOM     14  O   UNL A   1      30.858  24.465  27.251  1.00  0.00    -0.267 OA
BRANCH  12  15
ATOM     15  C   UNL A   1      30.981  24.848  24.795  1.00  0.00     0.196 C 
ATOM     16  C   UNL A   1      29.881  25.855  25.142  1.00  0.00     0.096 C 
BRANCH  15  17
ATOM     17  N   UNL A   1      30.424  23.838  23.889  1.00  0.00    -0.341 N 
ATOM     18  H   UNL A   1      30.950  23.837  23.015  1.00  0.00     0.345 HD
ATOM     19  H   UNL A   1      29.446  24.056  23.698  1.00  0.00     0.345 HD
ATOM     20  H   UNL A   1      30.488  22.918  24.325  1.00  0.00     0.345 HD
ENDBRANCH  15  17
BRANCH  15  21
ATOM     21  C   UNL A   1      32.016  25.663  23.973  1.00  0.00     0.022 A 
ATOM     22  C   UNL A   1      32.161  25.352  22.594  1.00  0.00     0.011 A 
ATOM     23  C   UNL A   1      32.786  26.724  24.459  1.00  0.00     0.011 A 
ATOM     24  C   UNL A   1      32.958  26.109  21.736  1.00  0.00     0.001 A 
ATOM     25  C   UNL A   1      33.595  27.483  23.600  1.00  0.00     0.001 A 
ATOM     26  C   UNL A   1      33.667  27.188  22.240  1.00  0.00     0.000 A 
ENDBRANCH  15  21
ENDBRANCH  12  15
ENDBRANCH   7  11
ENDBRANCH   4   7
ENDBRANCH   2   3
ENDBRANCH   1   2
BRANCH   1  27
ATOM     27  C   UNL A   1      38.347  19.708  24.940  1.00  0.00     0.023 C 
BRANCH  27  28
ATOM     28  C   UNL A   1      39.266  19.889  26.130  1.00  0.00     0.116 C 
BRANCH  28  29
ATOM     29  N   UNL A   1      40.377  18.962  26.116  1.00  0.00    -0.352 N 
ATOM     30  C   UNL A   1      41.727  19.222  26.116  1.00  0.00     0.251 C 
ATOM     31  H   UNL A   1      40.132  18.008  26.105  1.00  0.00     0.163 HD
ATOM     32  O   UNL A   1      42.522  18.314  25.893  1.00  0.00    -0.269 OA
BRANCH  30  33
ATOM     33  C   UNL A   1      42.233  20.593  26.370  1.00  0.00     0.039 A 
ATOM     34  C   UNL A   1      42.428  21.006  27.691  1.00  0.00     0.014 A 
ATOM     35  C   UNL A   1      42.475  21.486  25.323  1.00  0.00     0.014 A 
ATOM     36  C   UNL A   1      42.895  22.297  27.958  1.00  0.00     0.010 A 
ATOM     37  C   UNL A   1      43.030  22.735  25.583  1.00  0.00     0.010 A 
ATOM     38  C   UNL A   1      43.215  23.167  26.905  1.00  0.00    -0.014 A 
BRANCH  38  39
ATOM     39  C   UNL A   1      43.674  24.557  27.158  1.00  0.00     0.031 A 
ATOM     40  C   UNL A   1      42.698  25.581  27.675  1.00  0.00     0.074 A 
ATOM     41  C   UNL A   1      44.941  24.916  26.873  1.00  0.00     0.049 A 
ATOM     42  N   UNL A   1      42.867  26.862  27.881  1.00  0.00    -0.248 NA
ATOM     43  C   UNL A   1      41.336  25.105  27.965  1.00  0.00     0.031 C 
ATOM     44  C   UNL A   1      45.968  24.031  26.324  1.00  0.00     0.029 A 
ATOM     45  N   UNL A   1      45.575  26.127  26.997  1.00  0.00    -0.354 N 
ATOM     46  C   UNL A   1      41.631  27.345  28.292  1.00  0.00     0.074 A 
ATOM     47  C   UNL A   1      40.708  26.233  28.255  1.00  0.00     0.031 C 
ATOM     48  C   UNL A   1      47.112  24.721  26.183  1.00  0.00     0.029 A 
ATOM     49  C   UNL A   1      46.889  26.103  26.599  1.00  0.00     0.049 A 
ATOM     50  H   UNL A   1      45.131  26.935  27.340  1.00  0.00     0.167 HD
ATOM     51  C   UNL A   1      41.300  28.596  28.689  1.00  0.00     0.037 A 
ATOM     52  C   UNL A   1      47.807  27.087  26.571  1.00  0.00     0.037 A 
ATOM     53  C   UNL A   1      42.233  29.687  28.776  1.00  0.00     0.049 A 
ATOM     54  C   UNL A   1      47.424  28.463  27.045  1.00  0.00     0.074 A 
ATOM     55  C   UNL A   1      42.020  30.973  29.241  1.00  0.00     0.029 A 
ATOM     56  N   UNL A   1      43.565  29.614  28.395  1.00  0.00    -0.354 N 
ATOM     57  N   UNL A   1      46.268  28.892  27.492  1.00  0.00    -0.248 NA
ATOM     58  C   UNL A   1      48.475  29.490  27.017  1.00  0.00     0.031 C 
ATOM     59  C   UNL A   1      43.214  31.690  29.106  1.00  0.00     0.029 A 
ATOM     60  C   UNL A   1      44.182  30.838  28.597  1.00  0.00     0.049 A 
ATOM     61  H   UNL A   1      44.006  28.812  28.033  1.00  0.00     0.167 HD
ATOM     62  C   UNL A   1      46.459  30.227  27.823  1.00  0.00     0.074 A 
ATOM     63  C   UNL A   1      47.845  30.534  27.538  1.00  0.00     0.031 C 
ATOM     64  C   UNL A   1      45.566  31.119  28.317  1.00  0.00     0.037 A 
BRANCH  51  65
ATOM     65  C   UNL A   1      39.870  28.848  29.071  1.00  0.00     0.064 A 
ATOM     66  C   UNL A   1      39.417  28.687  30.388  1.00  0.00     0.173 A 
ATOM     67  C   UNL A   1      38.943  29.280  28.108  1.00  0.00     0.173 A 
ATOM     68  F   UNL A   1      40.259  28.263  31.344  1.00  0.00    -0.203 F 
ATOM     69  C   UNL A   1      38.085  28.914  30.723  1.00  0.00     0.198 A 
ATOM     70  C   UNL A   1      37.619  29.537  28.452  1.00  0.00     0.198 A 
ATOM     71  F   UNL A   1      39.323  29.456  26.834  1.00  0.00    -0.203 F 
ATOM     72  F   UNL A   1      37.665  28.698  31.977  1.00  0.00    -0.200 F 
ATOM     73  C   UNL A   1      37.189  29.344  29.757  1.00  0.00     0.200 A 
ATOM     74  F   UNL A   1      36.756  29.964  27.520  1.00  0.00    -0.200 F 
ATOM     75  F   UNL A   1      35.907  29.566  30.080  1.00  0.00    -0.200 F 
ENDBRANCH  51  65
BRANCH  52  76
ATOM     76  C   UNL A   1      49.191  26.797  26.114  1.00  0.00     0.064 A 
ATOM     77  C   UNL A   1      49.564  27.008  24.779  1.00  0.00     0.173 A 
ATOM     78  C   UNL A   1      50.167  26.308  26.994  1.00  0.00     0.173 A 
ATOM     79  F   UNL A   1      48.658  27.453  23.894  1.00  0.00    -0.203 F 
ATOM     80  C   UNL A   1      50.855  26.726  24.338  1.00  0.00     0.198 A 
ATOM     81  C   UNL A   1      51.465  26.052  26.558  1.00  0.00     0.198 A 
ATOM     82  F   UNL A   1      49.861  26.093  28.282  1.00  0.00    -0.203 F 
ATOM     83  F   UNL A   1      51.172  26.899  23.047  1.00  0.00    -0.200 F 
ATOM     84  C   UNL A   1      51.806  26.254  25.229  1.00  0.00     0.200 A 
ATOM     85  F   UNL A   1      52.385  25.607  27.425  1.00  0.00    -0.200 F 
ATOM     86  F   UNL A   1      53.050  25.988  24.806  1.00  0.00    -0.200 F 
ENDBRANCH  52  76
BRANCH  64  87
ATOM     87  C   UNL A   1      46.067  32.500  28.613  1.00  0.00     0.064 A 
ATOM     88  C   UNL A   1      45.988  33.531  27.665  1.00  0.00     0.173 A 
ATOM     89  C   UNL A   1      46.593  32.809  29.877  1.00  0.00     0.173 A 
ATOM     90  F   UNL A   1      45.506  33.281  26.438  1.00  0.00    -0.203 F 
ATOM     91  C   UNL A   1      46.436  34.814  27.964  1.00  0.00     0.198 A 
ATOM     92  C   UNL A   1      47.015  34.098  30.182  1.00  0.00     0.198 A 
ATOM     93  F   UNL A   1      46.684  31.859  30.821  1.00  0.00    -0.203 F 
ATOM     94  F   UNL A   1      46.389  35.772  27.030  1.00  0.00    -0.200 F 
ATOM     95  C   UNL A   1      46.943  35.099  29.224  1.00  0.00     0.200 A 
ATOM     96  F   UNL A   1      47.492  34.375  31.404  1.00  0.00    -0.200 F 
ATOM     97  F   UNL A   1      47.366  36.336  29.513  1.00  0.00    -0.200 F 
ENDBRANCH  64  87
ENDBRANCH  38  39
ENDBRANCH  30  33
ENDBRANCH  28  29
ENDBRANCH  27  28
ENDBRANCH   1  27
TORSDOF 16
ENDMDL
MODEL 2
REMARK VINA RESULT:     -11.5      0.420      1.650
REMARK SMILES CC[C@](C)(NC(=O)[C@](C)([NH3+])c1ccccc1)C(=O)NCCCCNC(=O)c1ccc(-c2c3nc(c(-c4c(F)c(F)c(F)c(F)c4F)c4ccc([nH]4)c(-c4c(F)c(F)c(F)c(F)c4F)c4nc(c(-c5c(F)c(F)c(F)c(F)c5F)c5ccc2[nH]5)C=C4)C=C3)cc1
REMARK SMILES IDX 21 1 20 2 19 3 17 4 18 5 3 7 4 8 2 9 1 10 5 11 6 12 7 14
REMARK SMILES IDX 8 15 9 16 10 17 11 21 12 22 16 23 13 24 15 25 14 26 22 27
REMARK SMILES IDX 23 28 24 29 25 30 26 32 27 33 28 34 89 35 29 36 88 37 30 38
REMARK SMILES IDX 31 39 32 40 82 41 33 42 87 43 81 44 83 45 34 46 86 47 80 48
REMARK SMILES IDX 79 49 35 51 67 52 47 53 66 54 48 55 51 56 65 57 84 58 49 59
REMARK SMILES IDX 50 60 64 62 85 63 52 64 36 65 37 66 45 67 38 68 39 69 43 70
REMARK SMILES IDX 46 71 40 72 41 73 44 74 42 75 68 76 69 77 77 78 70 79 71 80
REMARK SMILES IDX 75 81 78 82 72 83 73 84 76 85 74 86 53 87 54 88 62 89 55 90
REMARK SMILES IDX 56 91 60 92 63 93 57 94 58 95 61 96 59 97
REMARK H PARENT 19 6 5 13 10 18 10 19 10 20 24 31 83 50 51 61
REMARK Flexibility Score: inf
ROOT
ATOM      1  C   UNL A   1      36.433  20.059  24.999  1.00  0.00     0.023 C 
ENDROOT
BRANCH   1   2
ATOM      2  C   UNL A   1      36.072  21.442  25.549  1.00  0.00     0.116 C 
BRANCH   2   3
ATOM      3  N   UNL A   1      35.144  21.477  26.677  1.00  0.00    -0.354 N 
ATOM      4  C   UNL A   1      33.939  22.105  26.882  1.00  0.00     0.245 C 
ATOM      5  O   UNL A   1      33.384  21.899  27.967  1.00  0.00    -0.272 OA
ATOM      6  H   UNL A   1      35.442  20.942  27.447  1.00  0.00     0.163 HD
BRANCH   4   7
ATOM      7  C   UNL A   1      33.299  23.064  25.837  1.00  0.00     0.116 C 
ATOM      8  C   UNL A   1      33.186  22.448  24.427  1.00  0.00     0.045 C 
BRANCH   7   9
ATOM      9  C   UNL A   1      34.216  24.349  25.742  1.00  0.00     0.035 C 
ATOM     10  C   UNL A   1      35.190  24.450  24.567  1.00  0.00     0.007 C 
ENDBRANCH   7   9
BRANCH   7  11
ATOM     11  N   UNL A   1      31.924  23.437  26.306  1.00  0.00    -0.336 N 
ATOM     12  C   UNL A   1      30.936  24.329  25.959  1.00  0.00     0.286 C 
ATOM     13  H   UNL A   1      31.653  22.890  27.078  1.00  0.00     0.164 HD
ATOM     14  O   UNL A   1      30.108  24.456  26.876  1.00  0.00    -0.267 OA
BRANCH  12  15
ATOM     15  C   UNL A   1      30.707  24.998  24.522  1.00  0.00     0.196 C 
ATOM     16  C   UNL A   1      29.522  25.951  24.687  1.00  0.00     0.096 C 
BRANCH  15  17
ATOM     17  N   UNL A   1      30.369  24.001  23.501  1.00  0.00    -0.341 N 
ATOM     18  H   UNL A   1      29.656  23.369  23.865  1.00  0.00     0.345 HD
ATOM     19  H   UNL A   1      31.204  23.468  23.258  1.00  0.00     0.345 HD
ATOM     20  H   UNL A   1      30.013  24.473  22.670  1.00  0.00     0.345 HD
ENDBRANCH  15  17
BRANCH  15  21
ATOM     21  C   UNL A   1      31.841  25.878  23.928  1.00  0.00     0.022 A 
ATOM     22  C   UNL A   1      32.337  25.541  22.640  1.00  0.00     0.011 A 
ATOM     23  C   UNL A   1      32.384  27.018  24.530  1.00  0.00     0.011 A 
ATOM     24  C   UNL A   1      33.253  26.341  21.958  1.00  0.00     0.001 A 
ATOM     25  C   UNL A   1      33.312  27.821  23.849  1.00  0.00     0.001 A 
ATOM     26  C   UNL A   1      33.731  27.494  22.561  1.00  0.00     0.000 A 
ENDBRANCH  15  21
ENDBRANCH  12  15
ENDBRANCH   7  11
ENDBRANCH   4   7
ENDBRANCH   2   3
ENDBRANCH   1   2
BRANCH   1  27
ATOM     27  C   UNL A   1      37.905  19.768  24.714  1.00  0.00     0.023 C 
BRANCH  27  28
ATOM     28  C   UNL A   1      38.884  20.129  25.812  1.00  0.00     0.116 C 
BRANCH  28  29
ATOM     29  N   UNL A   1      39.932  19.142  25.963  1.00  0.00    -0.352 N 
ATOM     30  C   UNL A   1      41.285  19.327  26.118  1.00  0.00     0.251 C 
ATOM     31  H   UNL A   1      39.633  18.203  25.954  1.00  0.00     0.163 HD
ATOM     32  O   UNL A   1      42.045  18.368  26.024  1.00  0.00    -0.269 OA
BRANCH  30  33
ATOM     33  C   UNL A   1      41.837  20.677  26.387  1.00  0.00     0.039 A 
ATOM     34  C   UNL A   1      42.149  21.030  27.703  1.00  0.00     0.014 A 
ATOM     35  C   UNL A   1      42.010  21.611  25.361  1.00  0.00     0.014 A 
ATOM     36  C   UNL A   1      42.662  22.301  27.983  1.00  0.00     0.010 A 
ATOM     37  C   UNL A   1      42.610  22.838  25.626  1.00  0.00     0.010 A 
ATOM     38  C   UNL A   1      42.912  23.210  26.944  1.00  0.00    -0.014 A 
BRANCH  38  39
ATOM     39  C   UNL A   1      43.417  24.580  27.215  1.00  0.00     0.031 A 
ATOM     40  C   UNL A   1      42.486  25.618  27.784  1.00  0.00     0.074 A 
ATOM     41  C   UNL A   1      44.685  24.910  26.902  1.00  0.00     0.049 A 
ATOM     42  N   UNL A   1      42.698  26.889  28.015  1.00  0.00    -0.248 NA
ATOM     43  C   UNL A   1      41.119  25.174  28.103  1.00  0.00     0.031 C 
ATOM     44  C   UNL A   1      45.670  24.010  26.303  1.00  0.00     0.029 A 
ATOM     45  N   UNL A   1      45.357  26.099  27.036  1.00  0.00    -0.354 N 
ATOM     46  C   UNL A   1      41.488  27.396  28.473  1.00  0.00     0.074 A 
ATOM     47  C   UNL A   1      40.533  26.312  28.437  1.00  0.00     0.031 C 
ATOM     48  C   UNL A   1      46.829  24.670  26.145  1.00  0.00     0.029 A 
ATOM     49  C   UNL A   1      46.658  26.048  26.598  1.00  0.00     0.049 A 
ATOM     50  H   UNL A   1      44.946  26.911  27.410  1.00  0.00     0.167 HD
ATOM     51  C   UNL A   1      41.205  28.647  28.908  1.00  0.00     0.037 A 
ATOM     52  C   UNL A   1      47.603  27.006  26.566  1.00  0.00     0.037 A 
ATOM     53  C   UNL A   1      42.172  29.708  28.993  1.00  0.00     0.049 A 
ATOM     54  C   UNL A   1      47.273  28.381  27.083  1.00  0.00     0.074 A 
ATOM     55  C   UNL A   1      42.009  30.988  29.493  1.00  0.00     0.029 A 
ATOM     56  N   UNL A   1      43.489  29.608  28.571  1.00  0.00    -0.354 N 
ATOM     57  N   UNL A   1      46.144  28.831  27.573  1.00  0.00    -0.248 NA
ATOM     58  C   UNL A   1      48.352  29.378  27.048  1.00  0.00     0.031 C 
ATOM     59  C   UNL A   1      43.218  31.674  29.340  1.00  0.00     0.029 A 
ATOM     60  C   UNL A   1      44.147  30.808  28.784  1.00  0.00     0.049 A 
ATOM     61  H   UNL A   1      43.896  28.802  28.178  1.00  0.00     0.167 HD
ATOM     62  C   UNL A   1      46.382  30.152  27.929  1.00  0.00     0.074 A 
ATOM     63  C   UNL A   1      47.768  30.427  27.611  1.00  0.00     0.031 C 
ATOM     64  C   UNL A   1      45.529  31.057  28.470  1.00  0.00     0.037 A 
BRANCH  51  65
ATOM     65  C   UNL A   1      39.794  28.930  29.337  1.00  0.00     0.064 A 
ATOM     66  C   UNL A   1      38.825  29.388  28.432  1.00  0.00     0.173 A 
ATOM     67  C   UNL A   1      39.400  28.718  30.668  1.00  0.00     0.173 A 
ATOM     68  F   UNL A   1      39.154  29.618  27.151  1.00  0.00    -0.203 F 
ATOM     69  C   UNL A   1      37.524  29.657  28.848  1.00  0.00     0.198 A 
ATOM     70  C   UNL A   1      38.089  28.958  31.074  1.00  0.00     0.198 A 
ATOM     71  F   UNL A   1      40.284  28.277  31.573  1.00  0.00    -0.203 F 
ATOM     72  F   UNL A   1      36.631  30.146  27.977  1.00  0.00    -0.200 F 
ATOM     73  C   UNL A   1      37.156  29.436  30.166  1.00  0.00     0.200 A 
ATOM     74  F   UNL A   1      37.732  28.734  32.346  1.00  0.00    -0.200 F 
ATOM     75  F   UNL A   1      35.902  29.691  30.565  1.00  0.00    -0.200 F 
ENDBRANCH  51  65
BRANCH  52  76
ATOM     76  C   UNL A   1      48.964  26.688  26.063  1.00  0.00     0.064 A 
ATOM     77  C   UNL A   1      49.334  27.007  24.749  1.00  0.00     0.173 A 
ATOM     78  C   UNL A   1      49.920  26.065  26.876  1.00  0.00     0.173 A 
ATOM     79  F   UNL A   1      48.446  27.584  23.925  1.00  0.00    -0.203 F 
ATOM     80  C   UNL A   1      50.604  26.701  24.263  1.00  0.00     0.198 A 
ATOM     81  C   UNL A   1      51.199  25.783  26.399  1.00  0.00     0.198 A 
ATOM     82  F   UNL A   1      49.617  25.743  28.143  1.00  0.00    -0.203 F 
ATOM     83  F   UNL A   1      50.917  26.981  22.990  1.00  0.00    -0.200 F 
ATOM     84  C   UNL A   1      51.537  26.095  25.090  1.00  0.00     0.200 A 
ATOM     85  F   UNL A   1      52.102  25.208  27.205  1.00  0.00    -0.200 F 
ATOM     86  F   UNL A   1      52.760  25.805  24.625  1.00  0.00    -0.200 F 
ENDBRANCH  52  76
BRANCH  64  87
ATOM     87  C   UNL A   1      46.079  32.416  28.783  1.00  0.00     0.064 A 
ATOM     88  C   UNL A   1      46.692  32.697  30.012  1.00  0.00     0.173 A 
ATOM     89  C   UNL A   1      46.031  33.438  27.823  1.00  0.00     0.173 A 
ATOM     90  F   UNL A   1      46.749  31.756  30.966  1.00  0.00    -0.203 F 
ATOM     91  C   UNL A   1      47.218  33.958  30.277  1.00  0.00     0.198 A 
ATOM     92  C   UNL A   1      46.582  34.689  28.080  1.00  0.00     0.198 A 
ATOM     93  F   UNL A   1      45.460  33.217  26.628  1.00  0.00    -0.203 F 
ATOM     94  F   UNL A   1      47.763  34.216  31.473  1.00  0.00    -0.200 F 
ATOM     95  C   UNL A   1      47.169  34.950  29.309  1.00  0.00     0.200 A 
ATOM     96  F   UNL A   1      46.545  35.643  27.139  1.00  0.00    -0.200 F 
ATOM     97  F   UNL A   1      47.683  36.161  29.563  1.00  0.00    -0.200 F 
ENDBRANCH  64  87
ENDBRANCH  38  39
ENDBRANCH  30  33
ENDBRANCH  28  29
ENDBRANCH  27  28
ENDBRANCH   1  27
TORSDOF 16
ENDMDL
MODEL 3
REMARK VINA RESULT:     -11.5      5.558     10.986
REMARK SMILES CC[C@](C)(NC(=O)[C@](C)([NH3+])c1ccccc1)C(=O)NCCCCNC(=O)c1ccc(-c2c3nc(c(-c4c(F)c(F)c(F)c(F)c4F)c4ccc([nH]4)c(-c4c(F)c(F)c(F)c(F)c4F)c4nc(c(-c5c(F)c(F)c(F)c(F)c5F)c5ccc2[nH]5)C=C4)C=C3)cc1
REMARK SMILES IDX 21 1 20 2 19 3 17 4 18 5 3 7 4 8 2 9 1 10 5 11 6 12 7 14
REMARK SMILES IDX 8 15 9 16 10 17 11 21 12 22 16 23 13 24 15 25 14 26 22 27
REMARK SMILES IDX 23 28 24 29 25 30 26 32 27 33 28 34 89 35 29 36 88 37 30 38
REMARK SMILES IDX 31 39 32 40 82 41 33 42 87 43 81 44 83 45 34 46 86 47 80 48
REMARK SMILES IDX 79 49 35 51 67 52 47 53 66 54 48 55 51 56 65 57 84 58 49 59
REMARK SMILES IDX 50 60 64 62 85 63 52 64 36 65 37 66 45 67 38 68 39 69 43 70
REMARK SMILES IDX 46 71 40 72 41 73 44 74 42 75 68 76 69 77 77 78 70 79 71 80
REMARK SMILES IDX 75 81 78 82 72 83 73 84 76 85 74 86 53 87 54 88 62 89 55 90
REMARK SMILES IDX 56 91 60 92 63 93 57 94 58 95 61 96 59 97
REMARK H PARENT 19 6 5 13 10 18 10 19 10 20 24 31 83 50 51 61
REMARK Flexibility Score: inf
ROOT
ATOM      1  C   UNL A   1      31.330  30.558  25.726  1.00  0.00     0.023 C 
ENDROOT
BRANCH   1   2
ATOM      2  C   UNL A   1      32.695  29.867  25.671  1.00  0.00     0.116 C 
BRANCH   2   3
ATOM      3  N   UNL A   1      33.280  29.674  24.345  1.00  0.00    -0.354 N 
ATOM      4  C   UNL A   1      33.355  28.593  23.501  1.00  0.00     0.245 C 
ATOM      5  O   UNL A   1      33.908  28.778  22.411  1.00  0.00    -0.272 OA
ATOM      6  H   UNL A   1      33.705  30.483  23.983  1.00  0.00     0.163 HD
BRANCH   4   7
ATOM      7  C   UNL A   1      32.818  27.184  23.886  1.00  0.00     0.116 C 
ATOM      8  C   UNL A   1      31.307  27.166  24.193  1.00  0.00     0.045 C 
BRANCH   7   9
ATOM      9  C   UNL A   1      33.591  26.715  25.183  1.00  0.00     0.035 C 
ATOM     10  C   UNL A   1      32.817  26.664  26.501  1.00  0.00     0.007 C 
ENDBRANCH   7   9
BRANCH   7  11
ATOM     11  N   UNL A   1      33.085  26.242  22.750  1.00  0.00    -0.336 N 
ATOM     12  C   UNL A   1      33.001  24.891  22.504  1.00  0.00     0.286 C 
ATOM     13  H   UNL A   1      33.412  26.726  21.958  1.00  0.00     0.164 HD
ATOM     14  O   UNL A   1      33.650  24.580  21.493  1.00  0.00    -0.267 OA
BRANCH  12  15
ATOM     15  C   UNL A   1      32.057  23.836  23.254  1.00  0.00     0.196 C 
ATOM     16  C   UNL A   1      32.298  22.492  22.563  1.00  0.00     0.096 C 
BRANCH  15  17
ATOM     17  N   UNL A   1      30.638  24.182  23.125  1.00  0.00    -0.341 N 
ATOM     18  H   UNL A   1      30.121  23.801  23.918  1.00  0.00     0.345 HD
ATOM     19  H   UNL A   1      30.270  23.789  22.259  1.00  0.00     0.345 HD
ATOM     20  H   UNL A   1      30.535  25.197  23.108  1.00  0.00     0.345 HD
ENDBRANCH  15  17
BRANCH  15  21
ATOM     21  C   UNL A   1      32.313  23.556  24.760  1.00  0.00     0.022 A 
ATOM     22  C   UNL A   1      31.192  23.544  25.633  1.00  0.00     0.011 A 
ATOM     23  C   UNL A   1      33.554  23.256  25.331  1.00  0.00     0.011 A 
ATOM     24  C   UNL A   1      31.290  23.170  26.972  1.00  0.00     0.001 A 
ATOM     25  C   UNL A   1      33.657  22.887  26.681  1.00  0.00     0.001 A 
ATOM     26  C   UNL A   1      32.528  22.826  27.494  1.00  0.00     0.000 A 
ENDBRANCH  15  21
ENDBRANCH  12  15
ENDBRANCH   7  11
ENDBRANCH   4   7
ENDBRANCH   2   3
ENDBRANCH   1   2
BRANCH   1  27
ATOM     27  C   UNL A   1      31.229  31.877  26.488  1.00  0.00     0.023 C 
BRANCH  27  28
ATOM     28  C   UNL A   1      32.530  32.447  27.016  1.00  0.00     0.116 C 
BRANCH  28  29
ATOM     29  N   UNL A   1      32.411  33.840  27.391  1.00  0.00    -0.352 N 
ATOM     30  C   UNL A   1      33.059  34.530  28.387  1.00  0.00     0.251 C 
ATOM     31  H   UNL A   1      31.774  34.368  26.856  1.00  0.00     0.163 HD
ATOM     32  O   UNL A   1      32.680  35.656  28.693  1.00  0.00    -0.269 OA
BRANCH  30  33
ATOM     33  C   UNL A   1      34.207  33.923  29.104  1.00  0.00     0.039 A 
ATOM     34  C   UNL A   1      35.496  34.391  28.833  1.00  0.00     0.014 A 
ATOM     35  C   UNL A   1      34.028  32.872  30.007  1.00  0.00     0.014 A 
ATOM     36  C   UNL A   1      36.596  33.828  29.489  1.00  0.00     0.010 A 
ATOM     37  C   UNL A   1      35.110  32.378  30.730  1.00  0.00     0.010 A 
ATOM     38  C   UNL A   1      36.410  32.828  30.455  1.00  0.00    -0.014 A 
BRANCH  38  39
ATOM     39  C   UNL A   1      37.561  32.183  31.138  1.00  0.00     0.031 A 
ATOM     40  C   UNL A   1      38.360  31.130  30.417  1.00  0.00     0.074 A 
ATOM     41  C   UNL A   1      37.854  32.496  32.415  1.00  0.00     0.049 A 
ATOM     42  N   UNL A   1      39.344  30.386  30.855  1.00  0.00    -0.248 NA
ATOM     43  C   UNL A   1      37.977  30.852  29.023  1.00  0.00     0.031 C 
ATOM     44  C   UNL A   1      37.128  33.464  33.237  1.00  0.00     0.029 A 
ATOM     45  N   UNL A   1      38.837  32.023  33.247  1.00  0.00    -0.354 N 
ATOM     46  C   UNL A   1      39.670  29.536  29.806  1.00  0.00     0.074 A 
ATOM     47  C   UNL A   1      38.748  29.817  28.729  1.00  0.00     0.031 C 
ATOM     48  C   UNL A   1      37.706  33.532  34.448  1.00  0.00     0.029 A 
ATOM     49  C   UNL A   1      38.820  32.590  34.498  1.00  0.00     0.049 A 
ATOM     50  H   UNL A   1      39.494  31.342  32.973  1.00  0.00     0.167 HD
ATOM     51  C   UNL A   1      40.666  28.621  29.736  1.00  0.00     0.037 A 
ATOM     52  C   UNL A   1      39.614  32.370  35.563  1.00  0.00     0.037 A 
ATOM     53  C   UNL A   1      41.615  28.382  30.790  1.00  0.00     0.049 A 
ATOM     54  C   UNL A   1      40.732  31.369  35.452  1.00  0.00     0.074 A 
ATOM     55  C   UNL A   1      42.709  27.535  30.793  1.00  0.00     0.029 A 
ATOM     56  N   UNL A   1      41.585  29.001  32.031  1.00  0.00    -0.354 N 
ATOM     57  N   UNL A   1      41.072  30.617  34.433  1.00  0.00    -0.248 NA
ATOM     58  C   UNL A   1      41.582  31.192  36.638  1.00  0.00     0.031 C 
ATOM     59  C   UNL A   1      43.320  27.613  32.049  1.00  0.00     0.029 A 
ATOM     60  C   UNL A   1      42.631  28.542  32.814  1.00  0.00     0.049 A 
ATOM     61  H   UNL A   1      40.917  29.667  32.314  1.00  0.00     0.167 HD
ATOM     62  C   UNL A   1      42.187  29.899  34.843  1.00  0.00     0.074 A 
ATOM     63  C   UNL A   1      42.475  30.315  36.200  1.00  0.00     0.031 C 
ATOM     64  C   UNL A   1      42.907  28.977  34.158  1.00  0.00     0.037 A 
BRANCH  51  65
ATOM     65  C   UNL A   1      40.785  27.819  28.473  1.00  0.00     0.064 A 
ATOM     66  C   UNL A   1      41.564  28.254  27.392  1.00  0.00     0.173 A 
ATOM     67  C   UNL A   1      40.127  26.584  28.351  1.00  0.00     0.173 A 
ATOM     68  F   UNL A   1      42.203  29.433  27.452  1.00  0.00    -0.203 F 
ATOM     69  C   UNL A   1      41.654  27.504  26.222  1.00  0.00     0.198 A 
ATOM     70  C   UNL A   1      40.244  25.821  27.192  1.00  0.00     0.198 A 
ATOM     71  F   UNL A   1      39.372  26.117  29.356  1.00  0.00    -0.203 F 
ATOM     72  F   UNL A   1      42.361  27.968  25.183  1.00  0.00    -0.200 F 
ATOM     73  C   UNL A   1      41.000  26.286  26.126  1.00  0.00     0.200 A 
ATOM     74  F   UNL A   1      39.620  24.638  27.104  1.00  0.00    -0.200 F 
ATOM     75  F   UNL A   1      41.090  25.561  25.002  1.00  0.00    -0.200 F 
ENDBRANCH  51  65
BRANCH  52  76
ATOM     76  C   UNL A   1      39.404  33.143  36.815  1.00  0.00     0.064 A 
ATOM     77  C   UNL A   1      38.497  32.698  37.787  1.00  0.00     0.173 A 
ATOM     78  C   UNL A   1      40.101  34.332  37.068  1.00  0.00     0.173 A 
ATOM     79  F   UNL A   1      37.790  31.577  37.579  1.00  0.00    -0.203 F 
ATOM     80  C   UNL A   1      38.283  33.423  38.959  1.00  0.00     0.198 A 
ATOM     81  C   UNL A   1      39.907  35.042  38.252  1.00  0.00     0.198 A 
ATOM     82  F   UNL A   1      40.983  34.797  36.171  1.00  0.00    -0.203 F 
ATOM     83  F   UNL A   1      37.381  32.995  39.852  1.00  0.00    -0.200 F 
ATOM     84  C   UNL A   1      38.993  34.590  39.192  1.00  0.00     0.200 A 
ATOM     85  F   UNL A   1      40.603  36.164  38.480  1.00  0.00    -0.200 F 
ATOM     86  F   UNL A   1      38.792  35.284  40.321  1.00  0.00    -0.200 F 
ENDBRANCH  52  76
BRANCH  64  87
ATOM     87  C   UNL A   1      44.095  28.380  34.852  1.00  0.00     0.064 A 
ATOM     88  C   UNL A   1      45.355  28.995  34.812  1.00  0.00     0.173 A 
ATOM     89  C   UNL A   1      43.960  27.202  35.602  1.00  0.00     0.173 A 
ATOM     90  F   UNL A   1      45.536  30.115  34.097  1.00  0.00    -0.203 F 
ATOM     91  C   UNL A   1      46.441  28.440  35.482  1.00  0.00     0.198 A 
ATOM     92  C   UNL A   1      45.042  26.665  36.292  1.00  0.00     0.198 A 
ATOM     93  F   UNL A   1      42.773  26.580  35.676  1.00  0.00    -0.203 F 
ATOM     94  F   UNL A   1      47.645  29.021  35.397  1.00  0.00    -0.200 F 
ATOM     95  C   UNL A   1      46.283  27.280  36.226  1.00  0.00     0.200 A 
ATOM     96  F   UNL A   1      44.884  25.552  37.021  1.00  0.00    -0.200 F 
ATOM     97  F   UNL A   1      47.329  26.752  36.876  1.00  0.00    -0.200 F 
ENDBRANCH  64  87
ENDBRANCH  38  39
ENDBRANCH  30  33
ENDBRANCH  28  29
ENDBRANCH  27  28
ENDBRANCH   1  27
TORSDOF 16
ENDMDL
