MODEL 1
REMARK VINA RESULT:     -10.9      0.000      0.000
REMARK SMILES O=C(CSc1nc(-c2cccc(Br)c2)c[nH]1)NCCCCNC(=O)c1ccc(-c2c3nc(c(-c4c(F)c(F)c(F)c(F)c4F)c4ccc([nH]4)c(-c4c(F)c(F)c(F)c(F)c4F)c4nc(c(-c5c(F)c(F)c(F)c(F)c5F)c5ccc2[nH]5)C=C4)C=C3)cc1
REMARK SMILES IDX 19 1 18 2 17 3 1 4 2 5 3 7 4 8 5 9 6 10 16 11 7 12 15 13
REMARK SMILES IDX 8 15 9 16 14 17 10 18 12 19 11 20 13 21 20 22 21 23 22 24
REMARK SMILES IDX 23 25 24 27 25 28 26 29 87 30 27 31 86 32 28 33 29 34 30 35
REMARK SMILES IDX 80 36 31 37 85 38 79 39 81 40 32 41 84 42 78 43 77 44 33 46
REMARK SMILES IDX 65 47 45 48 64 49 46 50 49 51 63 52 82 53 47 54 48 55 62 57
REMARK SMILES IDX 83 58 50 59 34 60 35 61 43 62 36 63 37 64 41 65 44 66 38 67
REMARK SMILES IDX 39 68 42 69 40 70 66 71 67 72 75 73 68 74 69 75 73 76 76 77
REMARK SMILES IDX 70 78 71 79 74 80 72 81 51 82 52 83 60 84 53 85 54 86 58 87
REMARK SMILES IDX 61 88 55 89 56 90 59 91 57 92
REMARK H PARENT 17 6 16 14 22 26 81 45 49 56
REMARK Flexibility Score: inf
ROOT
ATOM      1  C   UNL A   1      42.151  20.658  27.886  1.00  0.00     0.023 C 
ENDROOT
BRANCH   1   2
ATOM      2  C   UNL A   1      42.128  19.178  27.509  1.00  0.00     0.116 C 
BRANCH   2   3
ATOM      3  N   UNL A   1      43.337  18.752  26.836  1.00  0.00    -0.355 N 
ATOM      4  O   UNL A   1      42.704  19.467  24.752  1.00  0.00    -0.274 OA
ATOM      5  C   UNL A   1      43.565  19.003  25.499  1.00  0.00     0.230 C 
ATOM      6  H   UNL A   1      44.021  18.266  27.351  1.00  0.00     0.163 HD
BRANCH   5   7
ATOM      7  C   UNL A   1      44.899  18.521  24.955  1.00  0.00     0.178 C 
BRANCH   7   8
ATOM      8  S   UNL A   1      46.314  19.575  25.392  1.00  0.00    -0.078 SA
BRANCH   8   9
ATOM      9  C   UNL A   1      45.726  21.118  24.906  1.00  0.00     0.166 A 
ATOM     10  N   UNL A   1      45.871  22.254  25.539  1.00  0.00    -0.223 NA
ATOM     11  N   UNL A   1      45.056  21.266  23.728  1.00  0.00    -0.339 N 
ATOM     12  C   UNL A   1      45.219  23.178  24.754  1.00  0.00     0.089 A 
ATOM     13  C   UNL A   1      44.708  22.585  23.619  1.00  0.00     0.113 A 
ATOM     14  H   UNL A   1      44.860  20.554  23.075  1.00  0.00     0.168 HD
BRANCH  12  15
ATOM     15  C   UNL A   1      45.140  24.588  25.073  1.00  0.00     0.003 A 
ATOM     16  C   UNL A   1      43.891  25.221  25.105  1.00  0.00     0.010 A 
ATOM     17  C   UNL A   1      46.294  25.331  25.349  1.00  0.00     0.026 A 
ATOM     18  C   UNL A   1      43.790  26.574  25.431  1.00  0.00     0.002 A 
ATOM     19  C   UNL A   1      46.188  26.687  25.661  1.00  0.00     0.018 A 
ATOM     20  C   UNL A   1      44.942  27.310  25.709  1.00  0.00     0.016 A 
ATOM     21  Br  UNL A   1      47.750  27.693  26.013  1.00  0.00    -0.051 Br
ENDBRANCH  12  15
ENDBRANCH   8   9
ENDBRANCH   7   8
ENDBRANCH   5   7
ENDBRANCH   2   3
ENDBRANCH   1   2
BRANCH   1  22
ATOM     22  C   UNL A   1      40.869  21.433  27.569  1.00  0.00     0.023 C 
BRANCH  22  23
ATOM     23  C   UNL A   1      40.742  21.944  26.137  1.00  0.00     0.116 C 
BRANCH  23  24
ATOM     24  N   UNL A   1      39.374  22.270  25.763  1.00  0.00    -0.352 N 
ATOM     25  C   UNL A   1      38.617  23.374  26.075  1.00  0.00     0.251 C 
ATOM     26  H   UNL A   1      38.923  21.600  25.201  1.00  0.00     0.163 HD
ATOM     27  O   UNL A   1      37.429  23.412  25.763  1.00  0.00    -0.269 OA
BRANCH  25  28
ATOM     28  C   UNL A   1      39.210  24.509  26.818  1.00  0.00     0.039 A 
ATOM     29  C   UNL A   1      39.983  25.441  26.118  1.00  0.00     0.014 A 
ATOM     30  C   UNL A   1      39.018  24.662  28.194  1.00  0.00     0.014 A 
ATOM     31  C   UNL A   1      40.496  26.560  26.779  1.00  0.00     0.010 A 
ATOM     32  C   UNL A   1      39.463  25.817  28.835  1.00  0.00     0.010 A 
ATOM     33  C   UNL A   1      40.204  26.781  28.134  1.00  0.00    -0.014 A 
BRANCH  33  34
ATOM     34  C   UNL A   1      40.651  28.019  28.827  1.00  0.00     0.031 A 
ATOM     35  C   UNL A   1      42.069  28.151  29.310  1.00  0.00     0.074 A 
ATOM     36  C   UNL A   1      39.763  29.001  29.081  1.00  0.00     0.049 A 
ATOM     37  N   UNL A   1      42.625  29.119  29.997  1.00  0.00    -0.248 NA
ATOM     38  C   UNL A   1      42.979  27.038  29.003  1.00  0.00     0.031 C 
ATOM     39  C   UNL A   1      38.349  28.977  28.706  1.00  0.00     0.029 A 
ATOM     40  N   UNL A   1      39.915  30.204  29.725  1.00  0.00    -0.354 N 
ATOM     41  C   UNL A   1      43.940  28.727  30.209  1.00  0.00     0.074 A 
ATOM     42  C   UNL A   1      44.085  27.409  29.631  1.00  0.00     0.031 C 
ATOM     43  C   UNL A   1      37.768  30.118  29.109  1.00  0.00     0.029 A 
ATOM     44  C   UNL A   1      38.755  30.935  29.807  1.00  0.00     0.049 A 
ATOM     45  H   UNL A   1      40.774  30.514  30.091  1.00  0.00     0.167 HD
ATOM     46  C   UNL A   1      44.943  29.415  30.808  1.00  0.00     0.037 A 
ATOM     47  C   UNL A   1      38.508  32.124  30.392  1.00  0.00     0.037 A 
ATOM     48  C   UNL A   1      44.800  30.734  31.371  1.00  0.00     0.049 A 
ATOM     49  C   UNL A   1      39.634  32.857  31.072  1.00  0.00     0.074 A 
ATOM     50  C   UNL A   1      45.769  31.530  31.957  1.00  0.00     0.029 A 
ATOM     51  N   UNL A   1      43.612  31.447  31.424  1.00  0.00    -0.354 N 
ATOM     52  N   UNL A   1      40.889  32.504  31.208  1.00  0.00    -0.248 NA
ATOM     53  C   UNL A   1      39.309  34.157  31.674  1.00  0.00     0.031 C 
ATOM     54  C   UNL A   1      45.155  32.701  32.414  1.00  0.00     0.029 A 
ATOM     55  C   UNL A   1      43.818  32.664  32.056  1.00  0.00     0.049 A 
ATOM     56  H   UNL A   1      42.749  31.134  31.066  1.00  0.00     0.167 HD
ATOM     57  C   UNL A   1      41.508  33.549  31.882  1.00  0.00     0.074 A 
ATOM     58  C   UNL A   1      40.495  34.557  32.112  1.00  0.00     0.031 C 
ATOM     59  C   UNL A   1      42.802  33.662  32.274  1.00  0.00     0.037 A 
BRANCH  46  60
ATOM     60  C   UNL A   1      46.290  28.752  30.885  1.00  0.00     0.064 A 
ATOM     61  C   UNL A   1      47.266  28.952  29.895  1.00  0.00     0.173 A 
ATOM     62  C   UNL A   1      46.626  27.942  31.980  1.00  0.00     0.173 A 
ATOM     63  F   UNL A   1      46.996  29.710  28.822  1.00  0.00    -0.203 F 
ATOM     64  C   UNL A   1      48.513  28.337  29.984  1.00  0.00     0.198 A 
ATOM     65  C   UNL A   1      47.885  27.358  32.083  1.00  0.00     0.198 A 
ATOM     66  F   UNL A   1      45.735  27.724  32.959  1.00  0.00    -0.203 F 
ATOM     67  F   UNL A   1      49.408  28.499  28.999  1.00  0.00    -0.200 F 
ATOM     68  C   UNL A   1      48.824  27.548  31.080  1.00  0.00     0.200 A 
ATOM     69  F   UNL A   1      48.190  26.608  33.150  1.00  0.00    -0.200 F 
ATOM     70  F   UNL A   1      50.028  26.964  31.167  1.00  0.00    -0.200 F 
ENDBRANCH  46  60
BRANCH  47  71
ATOM     71  C   UNL A   1      37.139  32.703  30.350  1.00  0.00     0.064 A 
ATOM     72  C   UNL A   1      36.718  33.488  29.267  1.00  0.00     0.173 A 
ATOM     73  C   UNL A   1      36.228  32.496  31.396  1.00  0.00     0.173 A 
ATOM     74  F   UNL A   1      37.560  33.733  28.251  1.00  0.00    -0.203 F 
ATOM     75  C   UNL A   1      35.449  34.062  29.243  1.00  0.00     0.198 A 
ATOM     76  C   UNL A   1      34.948  33.045  31.357  1.00  0.00     0.198 A 
ATOM     77  F   UNL A   1      36.578  31.751  32.455  1.00  0.00    -0.203 F 
ATOM     78  F   UNL A   1      35.093  34.851  28.220  1.00  0.00    -0.200 F 
ATOM     79  C   UNL A   1      34.563  33.836  30.285  1.00  0.00     0.200 A 
ATOM     80  F   UNL A   1      34.089  32.810  32.358  1.00  0.00    -0.200 F 
ATOM     81  F   UNL A   1      33.341  34.385  30.260  1.00  0.00    -0.200 F 
ENDBRANCH  47  71
BRANCH  59  82
ATOM     82  C   UNL A   1      43.207  34.937  32.958  1.00  0.00     0.064 A 
ATOM     83  C   UNL A   1      43.618  36.067  32.236  1.00  0.00     0.173 A 
ATOM     84  C   UNL A   1      43.145  35.041  34.357  1.00  0.00     0.173 A 
ATOM     85  F   UNL A   1      43.709  36.016  30.898  1.00  0.00    -0.203 F 
ATOM     86  C   UNL A   1      43.980  37.243  32.889  1.00  0.00     0.198 A 
ATOM     87  C   UNL A   1      43.474  36.229  35.004  1.00  0.00     0.198 A 
ATOM     88  F   UNL A   1      42.751  33.993  35.096  1.00  0.00    -0.203 F 
ATOM     89  F   UNL A   1      44.420  38.291  32.180  1.00  0.00    -0.200 F 
ATOM     90  C   UNL A   1      43.900  37.325  34.270  1.00  0.00     0.200 A 
ATOM     91  F   UNL A   1      43.380  36.311  36.338  1.00  0.00    -0.200 F 
ATOM     92  F   UNL A   1      44.240  38.461  34.896  1.00  0.00    -0.200 F 
ENDBRANCH  59  82
ENDBRANCH  33  34
ENDBRANCH  25  28
ENDBRANCH  23  24
ENDBRANCH  22  23
ENDBRANCH   1  22
TORSDOF 14
ENDMDL
MODEL 2
REMARK VINA RESULT:     -10.8      6.196     10.732
REMARK SMILES O=C(CSc1nc(-c2cccc(Br)c2)c[nH]1)NCCCCNC(=O)c1ccc(-c2c3nc(c(-c4c(F)c(F)c(F)c(F)c4F)c4ccc([nH]4)c(-c4c(F)c(F)c(F)c(F)c4F)c4nc(c(-c5c(F)c(F)c(F)c(F)c5F)c5ccc2[nH]5)C=C4)C=C3)cc1
REMARK SMILES IDX 19 1 18 2 17 3 1 4 2 5 3 7 4 8 5 9 6 10 16 11 7 12 15 13
REMARK SMILES IDX 8 15 9 16 14 17 10 18 12 19 11 20 13 21 20 22 21 23 22 24
REMARK SMILES IDX 23 25 24 27 25 28 26 29 87 30 27 31 86 32 28 33 29 34 30 35
REMARK SMILES IDX 80 36 31 37 85 38 79 39 81 40 32 41 84 42 78 43 77 44 33 46
REMARK SMILES IDX 65 47 45 48 64 49 46 50 49 51 63 52 82 53 47 54 48 55 62 57
REMARK SMILES IDX 83 58 50 59 34 60 35 61 43 62 36 63 37 64 41 65 44 66 38 67
REMARK SMILES IDX 39 68 42 69 40 70 66 71 67 72 75 73 68 74 69 75 73 76 76 77
REMARK SMILES IDX 70 78 71 79 74 80 72 81 51 82 52 83 60 84 53 85 54 86 58 87
REMARK SMILES IDX 61 88 55 89 56 90 59 91 57 92
REMARK H PARENT 17 6 16 14 22 26 81 45 49 56
REMARK Flexibility Score: inf
ROOT
ATOM      1  C   UNL A   1      31.628  30.771  26.256  1.00  0.00     0.023 C 
ENDROOT
BRANCH   1   2
ATOM      2  C   UNL A   1      32.725  30.002  26.990  1.00  0.00     0.116 C 
BRANCH   2   3
ATOM      3  N   UNL A   1      32.905  28.658  26.479  1.00  0.00    -0.355 N 
ATOM      4  O   UNL A   1      31.161  27.735  27.646  1.00  0.00    -0.274 OA
ATOM      5  C   UNL A   1      32.045  27.628  26.797  1.00  0.00     0.230 C 
ATOM      6  H   UNL A   1      33.668  28.475  25.885  1.00  0.00     0.163 HD
BRANCH   5   7
ATOM      7  C   UNL A   1      32.354  26.288  26.149  1.00  0.00     0.178 C 
BRANCH   7   8
ATOM      8  S   UNL A   1      32.586  26.359  24.348  1.00  0.00    -0.078 SA
BRANCH   8   9
ATOM      9  C   UNL A   1      31.201  27.269  23.883  1.00  0.00     0.166 A 
ATOM     10  N   UNL A   1      31.151  28.548  23.609  1.00  0.00    -0.223 NA
ATOM     11  N   UNL A   1      29.991  26.660  23.727  1.00  0.00    -0.339 N 
ATOM     12  C   UNL A   1      29.830  28.790  23.306  1.00  0.00     0.089 A 
ATOM     13  C   UNL A   1      29.091  27.628  23.369  1.00  0.00     0.113 A 
ATOM     14  H   UNL A   1      29.800  25.702  23.848  1.00  0.00     0.168 HD
BRANCH  12  15
ATOM     15  C   UNL A   1      29.321  30.090  22.922  1.00  0.00     0.003 A 
ATOM     16  C   UNL A   1      29.257  31.115  23.874  1.00  0.00     0.010 A 
ATOM     17  C   UNL A   1      28.889  30.338  21.614  1.00  0.00     0.026 A 
ATOM     18  C   UNL A   1      28.790  32.382  23.521  1.00  0.00     0.002 A 
ATOM     19  C   UNL A   1      28.409  31.603  21.271  1.00  0.00     0.018 A 
ATOM     20  C   UNL A   1      28.364  32.627  22.216  1.00  0.00     0.016 A 
ATOM     21  Br  UNL A   1      27.807  31.930  19.508  1.00  0.00    -0.051 Br
ENDBRANCH  12  15
ENDBRANCH   8   9
ENDBRANCH   7   8
ENDBRANCH   5   7
ENDBRANCH   2   3
ENDBRANCH   1   2
BRANCH   1  22
ATOM     22  C   UNL A   1      31.398  32.204  26.742  1.00  0.00     0.023 C 
BRANCH  22  23
ATOM     23  C   UNL A   1      32.637  32.940  27.244  1.00  0.00     0.116 C 
BRANCH  23  24
ATOM     24  N   UNL A   1      32.366  34.311  27.648  1.00  0.00    -0.352 N 
ATOM     25  C   UNL A   1      32.980  35.082  28.607  1.00  0.00     0.251 C 
ATOM     26  H   UNL A   1      31.635  34.754  27.160  1.00  0.00     0.163 HD
ATOM     27  O   UNL A   1      32.525  36.188  28.887  1.00  0.00    -0.269 OA
BRANCH  25  28
ATOM     28  C   UNL A   1      34.167  34.577  29.333  1.00  0.00     0.039 A 
ATOM     29  C   UNL A   1      33.994  34.038  30.612  1.00  0.00     0.014 A 
ATOM     30  C   UNL A   1      35.445  34.633  28.771  1.00  0.00     0.014 A 
ATOM     31  C   UNL A   1      35.084  33.490  31.291  1.00  0.00     0.010 A 
ATOM     32  C   UNL A   1      36.516  34.016  29.416  1.00  0.00     0.010 A 
ATOM     33  C   UNL A   1      36.347  33.434  30.682  1.00  0.00    -0.014 A 
BRANCH  33  34
ATOM     34  C   UNL A   1      37.495  32.759  31.345  1.00  0.00     0.031 A 
ATOM     35  C   UNL A   1      38.184  31.598  30.682  1.00  0.00     0.074 A 
ATOM     36  C   UNL A   1      37.879  33.150  32.577  1.00  0.00     0.049 A 
ATOM     37  N   UNL A   1      39.151  30.838  31.134  1.00  0.00    -0.248 NA
ATOM     38  C   UNL A   1      37.706  31.224  29.343  1.00  0.00     0.031 C 
ATOM     39  C   UNL A   1      37.266  34.232  33.348  1.00  0.00     0.029 A 
ATOM     40  N   UNL A   1      38.868  32.674  33.403  1.00  0.00    -0.354 N 
ATOM     41  C   UNL A   1      39.389  29.897  30.142  1.00  0.00     0.074 A 
ATOM     42  C   UNL A   1      38.428  30.142  29.090  1.00  0.00     0.031 C 
ATOM     43  C   UNL A   1      37.903  34.350  34.524  1.00  0.00     0.029 A 
ATOM     44  C   UNL A   1      38.940  33.327  34.609  1.00  0.00     0.049 A 
ATOM     45  H   UNL A   1      39.469  31.936  33.153  1.00  0.00     0.167 HD
ATOM     46  C   UNL A   1      40.340  28.931  30.101  1.00  0.00     0.037 A 
ATOM     47  C   UNL A   1      39.740  33.116  35.672  1.00  0.00     0.037 A 
ATOM     48  C   UNL A   1      41.305  28.697  31.144  1.00  0.00     0.049 A 
ATOM     49  C   UNL A   1      40.772  32.022  35.611  1.00  0.00     0.074 A 
ATOM     50  C   UNL A   1      42.336  27.774  31.173  1.00  0.00     0.029 A 
ATOM     51  N   UNL A   1      41.353  29.388  32.347  1.00  0.00    -0.354 N 
ATOM     52  N   UNL A   1      41.031  31.180  34.639  1.00  0.00    -0.248 NA
ATOM     53  C   UNL A   1      41.630  31.853  36.793  1.00  0.00     0.031 C 
ATOM     54  C   UNL A   1      42.973  27.868  32.415  1.00  0.00     0.029 A 
ATOM     55  C   UNL A   1      42.381  28.893  33.135  1.00  0.00     0.049 A 
ATOM     56  H   UNL A   1      40.747  30.120  32.602  1.00  0.00     0.167 HD
ATOM     57  C   UNL A   1      42.096  30.405  35.079  1.00  0.00     0.074 A 
ATOM     58  C   UNL A   1      42.448  30.887  36.397  1.00  0.00     0.031 C 
ATOM     59  C   UNL A   1      42.726  29.385  34.445  1.00  0.00     0.037 A 
BRANCH  46  60
ATOM     60  C   UNL A   1      40.384  28.052  28.882  1.00  0.00     0.064 A 
ATOM     61  C   UNL A   1      41.145  28.398  27.753  1.00  0.00     0.173 A 
ATOM     62  C   UNL A   1      39.693  26.832  28.856  1.00  0.00     0.173 A 
ATOM     63  F   UNL A   1      41.819  29.557  27.721  1.00  0.00    -0.203 F 
ATOM     64  C   UNL A   1      41.183  27.570  26.634  1.00  0.00     0.198 A 
ATOM     65  C   UNL A   1      39.762  25.990  27.749  1.00  0.00     0.198 A 
ATOM     66  F   UNL A   1      38.958  26.448  29.910  1.00  0.00    -0.203 F 
ATOM     67  F   UNL A   1      41.872  27.947  25.548  1.00  0.00    -0.200 F 
ATOM     68  C   UNL A   1      40.499  26.364  26.635  1.00  0.00     0.200 A 
ATOM     69  F   UNL A   1      39.113  24.818  27.759  1.00  0.00    -0.200 F 
ATOM     70  F   UNL A   1      40.544  25.565  25.560  1.00  0.00    -0.200 F 
ENDBRANCH  46  60
BRANCH  47  71
ATOM     71  C   UNL A   1      39.606  33.968  36.884  1.00  0.00     0.064 A 
ATOM     72  C   UNL A   1      40.301  35.181  36.996  1.00  0.00     0.173 A 
ATOM     73  C   UNL A   1      38.793  33.583  37.960  1.00  0.00     0.173 A 
ATOM     74  F   UNL A   1      41.109  35.584  36.004  1.00  0.00    -0.203 F 
ATOM     75  C   UNL A   1      40.207  35.962  38.145  1.00  0.00     0.198 A 
ATOM     76  C   UNL A   1      38.674  34.381  39.096  1.00  0.00     0.198 A 
ATOM     77  F   UNL A   1      38.104  32.434  37.904  1.00  0.00    -0.203 F 
ATOM     78  F   UNL A   1      40.923  37.091  38.247  1.00  0.00    -0.200 F 
ATOM     79  C   UNL A   1      39.389  35.565  39.192  1.00  0.00     0.200 A 
ATOM     80  F   UNL A   1      37.869  34.001  40.098  1.00  0.00    -0.200 F 
ATOM     81  F   UNL A   1      39.295  36.319  40.296  1.00  0.00    -0.200 F 
ENDBRANCH  47  71
BRANCH  59  82
ATOM     82  C   UNL A   1      43.888  28.746  35.151  1.00  0.00     0.064 A 
ATOM     83  C   UNL A   1      43.715  27.682  36.048  1.00  0.00     0.173 A 
ATOM     84  C   UNL A   1      45.199  29.179  34.895  1.00  0.00     0.173 A 
ATOM     85  F   UNL A   1      42.482  27.238  36.339  1.00  0.00    -0.203 F 
ATOM     86  C   UNL A   1      44.806  27.095  36.684  1.00  0.00     0.198 A 
ATOM     87  C   UNL A   1      46.290  28.568  35.506  1.00  0.00     0.198 A 
ATOM     88  F   UNL A   1      45.422  30.189  34.040  1.00  0.00    -0.203 F 
ATOM     89  F   UNL A   1      44.611  26.116  37.577  1.00  0.00    -0.200 F 
ATOM     90  C   UNL A   1      46.092  27.533  36.407  1.00  0.00     0.200 A 
ATOM     91  F   UNL A   1      47.532  28.982  35.224  1.00  0.00    -0.200 F 
ATOM     92  F   UNL A   1      47.142  26.962  37.013  1.00  0.00    -0.200 F 
ENDBRANCH  59  82
ENDBRANCH  33  34
ENDBRANCH  25  28
ENDBRANCH  23  24
ENDBRANCH  22  23
ENDBRANCH   1  22
TORSDOF 14
ENDMDL
MODEL 3
REMARK VINA RESULT:     -10.7      6.103     11.376
REMARK SMILES O=C(CSc1nc(-c2cccc(Br)c2)c[nH]1)NCCCCNC(=O)c1ccc(-c2c3nc(c(-c4c(F)c(F)c(F)c(F)c4F)c4ccc([nH]4)c(-c4c(F)c(F)c(F)c(F)c4F)c4nc(c(-c5c(F)c(F)c(F)c(F)c5F)c5ccc2[nH]5)C=C4)C=C3)cc1
REMARK SMILES IDX 19 1 18 2 17 3 1 4 2 5 3 7 4 8 5 9 6 10 16 11 7 12 15 13
REMARK SMILES IDX 8 15 9 16 14 17 10 18 12 19 11 20 13 21 20 22 21 23 22 24
REMARK SMILES IDX 23 25 24 27 25 28 26 29 87 30 27 31 86 32 28 33 29 34 30 35
REMARK SMILES IDX 80 36 31 37 85 38 79 39 81 40 32 41 84 42 78 43 77 44 33 46
REMARK SMILES IDX 65 47 45 48 64 49 46 50 49 51 63 52 82 53 47 54 48 55 62 57
REMARK SMILES IDX 83 58 50 59 34 60 35 61 43 62 36 63 37 64 41 65 44 66 38 67
REMARK SMILES IDX 39 68 42 69 40 70 66 71 67 72 75 73 68 74 69 75 73 76 76 77
REMARK SMILES IDX 70 78 71 79 74 80 72 81 51 82 52 83 60 84 53 85 54 86 58 87
REMARK SMILES IDX 61 88 55 89 56 90 59 91 57 92
REMARK H PARENT 17 6 16 14 22 26 81 45 49 56
REMARK Flexibility Score: inf
ROOT
ATOM      1  C   UNL A   1      31.542  30.864  26.434  1.00  0.00     0.023 C 
ENDROOT
BRANCH   1   2
ATOM      2  C   UNL A   1      32.683  30.142  27.149  1.00  0.00     0.116 C 
BRANCH   2   3
ATOM      3  N   UNL A   1      32.930  28.818  26.616  1.00  0.00    -0.355 N 
ATOM      4  O   UNL A   1      31.243  27.785  27.775  1.00  0.00    -0.274 OA
ATOM      5  C   UNL A   1      32.127  27.739  26.920  1.00  0.00     0.230 C 
ATOM      6  H   UNL A   1      33.698  28.685  26.015  1.00  0.00     0.163 HD
BRANCH   5   7
ATOM      7  C   UNL A   1      32.502  26.428  26.248  1.00  0.00     0.178 C 
BRANCH   7   8
ATOM      8  S   UNL A   1      32.827  26.563  24.465  1.00  0.00    -0.078 SA
BRANCH   8   9
ATOM      9  C   UNL A   1      31.413  27.395  23.944  1.00  0.00     0.166 A 
ATOM     10  N   UNL A   1      31.294  28.675  23.703  1.00  0.00    -0.223 NA
ATOM     11  N   UNL A   1      30.257  26.714  23.699  1.00  0.00    -0.339 N 
ATOM     12  C   UNL A   1      29.980  28.841  23.328  1.00  0.00     0.089 A 
ATOM     13  C   UNL A   1      29.317  27.632  23.316  1.00  0.00     0.113 A 
ATOM     14  H   UNL A   1      30.124  25.742  23.783  1.00  0.00     0.168 HD
BRANCH  12  15
ATOM     15  C   UNL A   1      29.408  30.116  22.952  1.00  0.00     0.003 A 
ATOM     16  C   UNL A   1      29.279  31.127  23.913  1.00  0.00     0.010 A 
ATOM     17  C   UNL A   1      28.980  30.356  21.640  1.00  0.00     0.026 A 
ATOM     18  C   UNL A   1      28.751  32.372  23.566  1.00  0.00     0.002 A 
ATOM     19  C   UNL A   1      28.439  31.597  21.304  1.00  0.00     0.018 A 
ATOM     20  C   UNL A   1      28.328  32.608  22.258  1.00  0.00     0.016 A 
ATOM     21  Br  UNL A   1      27.842  31.912  19.537  1.00  0.00    -0.051 Br
ENDBRANCH  12  15
ENDBRANCH   8   9
ENDBRANCH   7   8
ENDBRANCH   5   7
ENDBRANCH   2   3
ENDBRANCH   1   2
BRANCH   1  22
ATOM     22  C   UNL A   1      31.390  32.348  26.780  1.00  0.00     0.023 C 
BRANCH  22  23
ATOM     23  C   UNL A   1      32.667  33.059  27.217  1.00  0.00     0.116 C 
BRANCH  23  24
ATOM     24  N   UNL A   1      32.431  34.402  27.724  1.00  0.00    -0.352 N 
ATOM     25  C   UNL A   1      33.056  35.079  28.745  1.00  0.00     0.251 C 
ATOM     26  H   UNL A   1      31.718  34.903  27.266  1.00  0.00     0.163 HD
ATOM     27  O   UNL A   1      32.629  36.173  29.106  1.00  0.00    -0.269 OA
BRANCH  25  28
ATOM     28  C   UNL A   1      34.220  34.485  29.440  1.00  0.00     0.039 A 
ATOM     29  C   UNL A   1      34.009  33.804  30.643  1.00  0.00     0.014 A 
ATOM     30  C   UNL A   1      35.514  34.597  28.924  1.00  0.00     0.014 A 
ATOM     31  C   UNL A   1      35.078  33.173  31.284  1.00  0.00     0.010 A 
ATOM     32  C   UNL A   1      36.564  33.902  29.521  1.00  0.00     0.010 A 
ATOM     33  C   UNL A   1      36.358  33.179  30.706  1.00  0.00    -0.014 A 
BRANCH  33  34
ATOM     34  C   UNL A   1      37.484  32.424  31.318  1.00  0.00     0.031 A 
ATOM     35  C   UNL A   1      38.004  32.800  32.679  1.00  0.00     0.074 A 
ATOM     36  C   UNL A   1      38.085  31.438  30.622  1.00  0.00     0.049 A 
ATOM     37  N   UNL A   1      39.021  32.310  33.344  1.00  0.00    -0.248 NA
ATOM     38  C   UNL A   1      37.303  33.889  33.376  1.00  0.00     0.031 C 
ATOM     39  C   UNL A   1      37.708  31.006  29.275  1.00  0.00     0.029 A 
ATOM     40  N   UNL A   1      39.147  30.630  30.944  1.00  0.00    -0.354 N 
ATOM     41  C   UNL A   1      39.085  33.033  34.527  1.00  0.00     0.074 A 
ATOM     42  C   UNL A   1      38.043  34.035  34.465  1.00  0.00     0.031 C 
ATOM     43  C   UNL A   1      38.512  30.001  28.895  1.00  0.00     0.029 A 
ATOM     44  C   UNL A   1      39.488  29.746  29.949  1.00  0.00     0.049 A 
ATOM     45  H   UNL A   1      39.619  30.679  31.806  1.00  0.00     0.167 HD
ATOM     46  C   UNL A   1      39.920  32.862  35.581  1.00  0.00     0.037 A 
ATOM     47  C   UNL A   1      40.485  28.841  29.886  1.00  0.00     0.037 A 
ATOM     48  C   UNL A   1      40.948  31.854  35.647  1.00  0.00     0.049 A 
ATOM     49  C   UNL A   1      41.414  28.686  31.060  1.00  0.00     0.074 A 
ATOM     50  C   UNL A   1      41.812  31.572  36.690  1.00  0.00     0.029 A 
ATOM     51  N   UNL A   1      41.254  30.969  34.624  1.00  0.00    -0.354 N 
ATOM     52  N   UNL A   1      41.423  29.333  32.201  1.00  0.00    -0.248 NA
ATOM     53  C   UNL A   1      42.468  27.669  30.941  1.00  0.00     0.031 C 
ATOM     54  C   UNL A   1      42.678  30.553  36.278  1.00  0.00     0.029 A 
ATOM     55  C   UNL A   1      42.312  30.156  35.002  1.00  0.00     0.049 A 
ATOM     56  H   UNL A   1      40.789  30.925  33.757  1.00  0.00     0.167 HD
ATOM     57  C   UNL A   1      42.458  28.782  32.944  1.00  0.00     0.074 A 
ATOM     58  C   UNL A   1      43.045  27.737  32.133  1.00  0.00     0.031 C 
ATOM     59  C   UNL A   1      42.884  29.114  34.188  1.00  0.00     0.037 A 
BRANCH  46  60
ATOM     60  C   UNL A   1      39.755  33.785  36.755  1.00  0.00     0.064 A 
ATOM     61  C   UNL A   1      38.935  33.451  37.845  1.00  0.00     0.173 A 
ATOM     62  C   UNL A   1      40.455  35.000  36.812  1.00  0.00     0.173 A 
ATOM     63  F   UNL A   1      38.236  32.307  37.839  1.00  0.00    -0.203 F 
ATOM     64  C   UNL A   1      38.798  34.314  38.930  1.00  0.00     0.198 A 
ATOM     65  C   UNL A   1      40.343  35.843  37.914  1.00  0.00     0.198 A 
ATOM     66  F   UNL A   1      41.260  35.365  35.802  1.00  0.00    -0.203 F 
ATOM     67  F   UNL A   1      37.967  33.998  39.933  1.00  0.00    -0.200 F 
ATOM     68  C   UNL A   1      39.508  35.504  38.968  1.00  0.00     0.200 A 
ATOM     69  F   UNL A   1      41.042  36.986  37.955  1.00  0.00    -0.200 F 
ATOM     70  F   UNL A   1      39.380  36.329  40.016  1.00  0.00    -0.200 F 
ENDBRANCH  46  60
BRANCH  47  71
ATOM     71  C   UNL A   1      40.649  28.001  28.670  1.00  0.00     0.064 A 
ATOM     72  C   UNL A   1      41.442  28.429  27.596  1.00  0.00     0.173 A 
ATOM     73  C   UNL A   1      40.007  26.759  28.550  1.00  0.00     0.173 A 
ATOM     74  F   UNL A   1      42.059  29.619  27.652  1.00  0.00    -0.203 F 
ATOM     75  C   UNL A   1      41.567  27.660  26.441  1.00  0.00     0.198 A 
ATOM     76  C   UNL A   1      40.159  25.977  27.408  1.00  0.00     0.198 A 
ATOM     77  F   UNL A   1      39.239  26.300  29.549  1.00  0.00    -0.203 F 
ATOM     78  F   UNL A   1      42.289  28.119  25.409  1.00  0.00    -0.200 F 
ATOM     79  C   UNL A   1      40.931  26.432  26.349  1.00  0.00     0.200 A 
ATOM     80  F   UNL A   1      39.556  24.782  27.331  1.00  0.00    -0.200 F 
ATOM     81  F   UNL A   1      41.055  25.690  25.240  1.00  0.00    -0.200 F 
ENDBRANCH  47  71
BRANCH  59  82
ATOM     82  C   UNL A   1      44.016  28.313  34.767  1.00  0.00     0.064 A 
ATOM     83  C   UNL A   1      45.351  28.724  34.647  1.00  0.00     0.173 A 
ATOM     84  C   UNL A   1      43.755  27.136  35.488  1.00  0.00     0.173 A 
ATOM     85  F   UNL A   1      45.657  29.833  33.956  1.00  0.00    -0.203 F 
ATOM     86  C   UNL A   1      46.385  27.972  35.201  1.00  0.00     0.198 A 
ATOM     87  C   UNL A   1      44.788  26.406  36.069  1.00  0.00     0.198 A 
ATOM     88  F   UNL A   1      42.495  26.702  35.640  1.00  0.00    -0.203 F 
ATOM     89  F   UNL A   1      47.657  28.356  35.027  1.00  0.00    -0.200 F 
ATOM     90  C   UNL A   1      46.102  26.819  35.918  1.00  0.00     0.200 A 
ATOM     91  F   UNL A   1      44.509  25.302  36.776  1.00  0.00    -0.200 F 
ATOM     92  F   UNL A   1      47.097  26.102  36.457  1.00  0.00    -0.200 F 
ENDBRANCH  59  82
ENDBRANCH  33  34
ENDBRANCH  25  28
ENDBRANCH  23  24
ENDBRANCH  22  23
ENDBRANCH   1  22
TORSDOF 14
ENDMDL
