MODEL 1
REMARK VINA RESULT:     -12.3      0.000      0.000
REMARK SMILES CC(C)(C)OC(=O)[C@H](C(=O)NCCCCNC(=O)c1ccc(-c2c3nc(c(-c4c(F)c(F)c(F)c(F)c4F)c4ccc([nH]4)c(-c4c(F)c(F)c(F)c(F)c4F)c4nc(c(-c5c(F)c(F)c(F)c(F)c5F)c5ccc2[nH]5)C=C4)C=C3)cc1)[C@@H]([NH3+])c1ccc(Br)cc1
REMARK SMILES IDX 13 1 12 2 11 3 9 4 10 5 8 7 6 8 7 9 5 10 2 11 1 12 3 13 4 14
REMARK SMILES IDX 82 15 83 16 84 20 85 21 90 22 86 23 89 24 87 25 88 26 14 27
REMARK SMILES IDX 15 28 16 29 17 30 18 32 19 33 20 34 81 35 21 36 80 37 22 38
REMARK SMILES IDX 23 39 24 40 74 41 25 42 79 43 73 44 75 45 26 46 78 47 72 48
REMARK SMILES IDX 71 49 27 51 59 52 39 53 58 54 40 55 43 56 57 57 76 58 41 59
REMARK SMILES IDX 42 60 56 62 77 63 44 64 28 65 29 66 37 67 30 68 31 69 35 70
REMARK SMILES IDX 38 71 32 72 33 73 36 74 34 75 60 76 61 77 69 78 62 79 63 80
REMARK SMILES IDX 67 81 70 82 64 83 65 84 68 85 66 86 45 87 46 88 54 89 47 90
REMARK SMILES IDX 48 91 52 92 55 93 49 94 50 95 53 96 51 97
REMARK H PARENT 11 6 83 17 83 18 83 19 16 31 75 50 43 61
REMARK Flexibility Score: inf
ROOT
ATOM      1  C   UNL A   1      32.133  29.988  27.109  1.00  0.00     0.023 C 
ENDROOT
BRANCH   1   2
ATOM      2  C   UNL A   1      33.402  29.394  26.505  1.00  0.00     0.116 C 
BRANCH   2   3
ATOM      3  N   UNL A   1      33.398  29.358  25.053  1.00  0.00    -0.355 N 
ATOM      4  C   UNL A   1      32.498  29.023  24.093  1.00  0.00     0.240 C 
ATOM      5  O   UNL A   1      32.912  29.189  22.937  1.00  0.00    -0.274 OA
ATOM      6  H   UNL A   1      34.258  29.649  24.670  1.00  0.00     0.163 HD
BRANCH   4   7
ATOM      7  C   UNL A   1      31.102  28.423  24.298  1.00  0.00     0.250 C 
BRANCH   7   8
ATOM      8  C   UNL A   1      30.282  28.781  23.078  1.00  0.00     0.325 C 
ATOM      9  O   UNL A   1      30.260  28.098  22.062  1.00  0.00    -0.251 OA
BRANCH   8  10
ATOM     10  O   UNL A   1      29.611  29.955  23.237  1.00  0.00    -0.459 OA
BRANCH  10  11
ATOM     11  C   UNL A   1      28.229  30.077  22.787  1.00  0.00     0.104 C 
ATOM     12  C   UNL A   1      27.654  31.252  23.592  1.00  0.00     0.056 C 
ATOM     13  C   UNL A   1      27.392  28.827  23.094  1.00  0.00     0.056 C 
ATOM     14  C   UNL A   1      28.166  30.434  21.297  1.00  0.00     0.056 C 
ENDBRANCH  10  11
ENDBRANCH   8  10
ENDBRANCH   7   8
BRANCH   7  15
ATOM     15  C   UNL A   1      30.951  26.952  24.765  1.00  0.00     0.236 C 
BRANCH  15  16
ATOM     16  N   UNL A   1      29.701  26.384  24.202  1.00  0.00    -0.350 N 
ATOM     17  H   UNL A   1      29.016  27.129  24.077  1.00  0.00     0.345 HD
ATOM     18  H   UNL A   1      29.327  25.684  24.843  1.00  0.00     0.345 HD
ATOM     19  H   UNL A   1      29.900  25.950  23.302  1.00  0.00     0.345 HD
ENDBRANCH  15  16
BRANCH  15  20
ATOM     20  C   UNL A   1      32.113  25.962  24.487  1.00  0.00     0.011 A 
ATOM     21  C   UNL A   1      32.346  25.406  23.219  1.00  0.00     0.011 A 
ATOM     22  C   UNL A   1      33.081  25.670  25.474  1.00  0.00     0.011 A 
ATOM     23  C   UNL A   1      33.448  24.582  22.952  1.00  0.00     0.016 A 
ATOM     24  C   UNL A   1      34.193  24.857  25.213  1.00  0.00     0.016 A 
ATOM     25  C   UNL A   1      34.369  24.312  23.951  1.00  0.00     0.018 A 
ATOM     26  Br  UNL A   1      35.867  23.222  23.586  1.00  0.00    -0.051 Br
ENDBRANCH  15  20
ENDBRANCH   7  15
ENDBRANCH   4   7
ENDBRANCH   2   3
ENDBRANCH   1   2
BRANCH   1  27
ATOM     27  C   UNL A   1      31.892  31.473  26.843  1.00  0.00     0.023 C 
BRANCH  27  28
ATOM     28  C   UNL A   1      33.008  32.420  27.272  1.00  0.00     0.116 C 
BRANCH  28  29
ATOM     29  N   UNL A   1      32.545  33.766  27.574  1.00  0.00    -0.352 N 
ATOM     30  C   UNL A   1      33.024  34.664  28.502  1.00  0.00     0.251 C 
ATOM     31  H   UNL A   1      31.780  34.079  27.040  1.00  0.00     0.163 HD
ATOM     32  O   UNL A   1      32.440  35.726  28.696  1.00  0.00    -0.269 OA
BRANCH  30  33
ATOM     33  C   UNL A   1      34.225  34.329  29.296  1.00  0.00     0.039 A 
ATOM     34  C   UNL A   1      34.068  33.700  30.535  1.00  0.00     0.014 A 
ATOM     35  C   UNL A   1      35.502  34.597  28.800  1.00  0.00     0.014 A 
ATOM     36  C   UNL A   1      35.193  33.246  31.229  1.00  0.00     0.010 A 
ATOM     37  C   UNL A   1      36.616  34.083  29.457  1.00  0.00     0.010 A 
ATOM     38  C   UNL A   1      36.471  33.388  30.669  1.00  0.00    -0.014 A 
BRANCH  38  39
ATOM     39  C   UNL A   1      37.680  32.800  31.301  1.00  0.00     0.031 A 
ATOM     40  C   UNL A   1      38.357  31.620  30.667  1.00  0.00     0.074 A 
ATOM     41  C   UNL A   1      38.083  33.236  32.510  1.00  0.00     0.049 A 
ATOM     42  N   UNL A   1      39.287  30.837  31.150  1.00  0.00    -0.248 NA
ATOM     43  C   UNL A   1      37.894  31.248  29.323  1.00  0.00     0.031 C 
ATOM     44  C   UNL A   1      37.480  34.342  33.254  1.00  0.00     0.029 A 
ATOM     45  N   UNL A   1      39.071  32.773  33.345  1.00  0.00    -0.354 N 
ATOM     46  C   UNL A   1      39.492  29.858  30.187  1.00  0.00     0.074 A 
ATOM     47  C   UNL A   1      38.566  30.127  29.108  1.00  0.00     0.031 C 
ATOM     48  C   UNL A   1      38.104  34.468  34.436  1.00  0.00     0.029 A 
ATOM     49  C   UNL A   1      39.118  33.426  34.552  1.00  0.00     0.049 A 
ATOM     50  H   UNL A   1      39.686  32.045  33.101  1.00  0.00     0.167 HD
ATOM     51  C   UNL A   1      40.380  28.836  30.200  1.00  0.00     0.037 A 
ATOM     52  C   UNL A   1      39.873  33.193  35.644  1.00  0.00     0.037 A 
ATOM     53  C   UNL A   1      41.325  28.595  31.258  1.00  0.00     0.049 A 
ATOM     54  C   UNL A   1      40.870  32.067  35.627  1.00  0.00     0.074 A 
ATOM     55  C   UNL A   1      42.323  27.639  31.324  1.00  0.00     0.029 A 
ATOM     56  N   UNL A   1      41.383  29.316  32.442  1.00  0.00    -0.354 N 
ATOM     57  N   UNL A   1      41.103  31.186  34.685  1.00  0.00    -0.248 NA
ATOM     58  C   UNL A   1      41.710  31.904  36.822  1.00  0.00     0.031 C 
ATOM     59  C   UNL A   1      42.958  27.754  32.565  1.00  0.00     0.029 A 
ATOM     60  C   UNL A   1      42.387  28.814  33.253  1.00  0.00     0.049 A 
ATOM     61  H   UNL A   1      40.798  30.075  32.671  1.00  0.00     0.167 HD
ATOM     62  C   UNL A   1      42.131  30.382  35.159  1.00  0.00     0.074 A 
ATOM     63  C   UNL A   1      42.480  30.882  36.472  1.00  0.00     0.031 C 
ATOM     64  C   UNL A   1      42.730  29.326  34.556  1.00  0.00     0.037 A 
BRANCH  51  65
ATOM     65  C   UNL A   1      40.358  27.891  29.032  1.00  0.00     0.064 A 
ATOM     66  C   UNL A   1      39.593  26.715  29.046  1.00  0.00     0.173 A 
ATOM     67  C   UNL A   1      41.111  28.169  27.881  1.00  0.00     0.173 A 
ATOM     68  F   UNL A   1      38.864  26.397  30.127  1.00  0.00    -0.203 F 
ATOM     69  C   UNL A   1      39.616  25.832  27.970  1.00  0.00     0.198 A 
ATOM     70  C   UNL A   1      41.106  27.301  26.794  1.00  0.00     0.198 A 
ATOM     71  F   UNL A   1      41.855  29.284  27.813  1.00  0.00    -0.203 F 
ATOM     72  F   UNL A   1      38.927  24.684  28.033  1.00  0.00    -0.200 F 
ATOM     73  C   UNL A   1      40.369  26.128  26.843  1.00  0.00     0.200 A 
ATOM     74  F   UNL A   1      41.826  27.593  25.702  1.00  0.00    -0.200 F 
ATOM     75  F   UNL A   1      40.394  25.275  25.810  1.00  0.00    -0.200 F 
ENDBRANCH  51  65
BRANCH  52  76
ATOM     76  C   UNL A   1      39.713  34.059  36.839  1.00  0.00     0.064 A 
ATOM     77  C   UNL A   1      38.893  33.666  37.905  1.00  0.00     0.173 A 
ATOM     78  C   UNL A   1      40.405  35.272  36.957  1.00  0.00     0.173 A 
ATOM     79  F   UNL A   1      38.197  32.523  37.829  1.00  0.00    -0.203 F 
ATOM     80  C   UNL A   1      38.768  34.458  39.045  1.00  0.00     0.198 A 
ATOM     81  C   UNL A   1      40.299  36.052  38.107  1.00  0.00     0.198 A 
ATOM     82  F   UNL A   1      41.208  35.687  35.966  1.00  0.00    -0.203 F 
ATOM     83  F   UNL A   1      37.960  34.072  40.041  1.00  0.00    -0.200 F 
ATOM     84  C   UNL A   1      39.477  35.646  39.148  1.00  0.00     0.200 A 
ATOM     85  F   UNL A   1      40.998  37.190  38.210  1.00  0.00    -0.200 F 
ATOM     86  F   UNL A   1      39.370  36.399  40.252  1.00  0.00    -0.200 F 
ENDBRANCH  52  76
BRANCH  64  87
ATOM     87  C   UNL A   1      43.855  28.657  35.289  1.00  0.00     0.064 A 
ATOM     88  C   UNL A   1      45.188  29.048  35.104  1.00  0.00     0.173 A 
ATOM     89  C   UNL A   1      43.586  27.660  36.239  1.00  0.00     0.173 A 
ATOM     90  F   UNL A   1      45.496  29.987  34.196  1.00  0.00    -0.203 F 
ATOM     91  C   UNL A   1      46.214  28.457  35.836  1.00  0.00     0.198 A 
ATOM     92  C   UNL A   1      44.611  27.088  36.986  1.00  0.00     0.198 A 
ATOM     93  F   UNL A   1      42.325  27.255  36.455  1.00  0.00    -0.203 F 
ATOM     94  F   UNL A   1      47.485  28.824  35.623  1.00  0.00    -0.200 F 
ATOM     95  C   UNL A   1      45.924  27.485  36.783  1.00  0.00     0.200 A 
ATOM     96  F   UNL A   1      44.327  26.158  37.908  1.00  0.00    -0.200 F 
ATOM     97  F   UNL A   1      46.911  26.927  37.497  1.00  0.00    -0.200 F 
ENDBRANCH  64  87
ENDBRANCH  38  39
ENDBRANCH  30  33
ENDBRANCH  28  29
ENDBRANCH  27  28
ENDBRANCH   1  27
TORSDOF 17
ENDMDL
MODEL 2
REMARK VINA RESULT:     -12.2      1.864      3.528
REMARK SMILES CC(C)(C)OC(=O)[C@H](C(=O)NCCCCNC(=O)c1ccc(-c2c3nc(c(-c4c(F)c(F)c(F)c(F)c4F)c4ccc([nH]4)c(-c4c(F)c(F)c(F)c(F)c4F)c4nc(c(-c5c(F)c(F)c(F)c(F)c5F)c5ccc2[nH]5)C=C4)C=C3)cc1)[C@@H]([NH3+])c1ccc(Br)cc1
REMARK SMILES IDX 13 1 12 2 11 3 9 4 10 5 8 7 6 8 7 9 5 10 2 11 1 12 3 13 4 14
REMARK SMILES IDX 82 15 83 16 84 20 85 21 90 22 86 23 89 24 87 25 88 26 14 27
REMARK SMILES IDX 15 28 16 29 17 30 18 32 19 33 20 34 81 35 21 36 80 37 22 38
REMARK SMILES IDX 23 39 24 40 74 41 25 42 79 43 73 44 75 45 26 46 78 47 72 48
REMARK SMILES IDX 71 49 27 51 59 52 39 53 58 54 40 55 43 56 57 57 76 58 41 59
REMARK SMILES IDX 42 60 56 62 77 63 44 64 28 65 29 66 37 67 30 68 31 69 35 70
REMARK SMILES IDX 38 71 32 72 33 73 36 74 34 75 60 76 61 77 69 78 62 79 63 80
REMARK SMILES IDX 67 81 70 82 64 83 65 84 68 85 66 86 45 87 46 88 54 89 47 90
REMARK SMILES IDX 48 91 52 92 55 93 49 94 50 95 53 96 51 97
REMARK H PARENT 11 6 83 17 83 18 83 19 16 31 75 50 43 61
REMARK Flexibility Score: inf
ROOT
ATOM      1  C   UNL A   1      31.762  29.342  27.255  1.00  0.00     0.023 C 
ENDROOT
BRANCH   1   2
ATOM      2  C   UNL A   1      32.083  28.042  26.523  1.00  0.00     0.116 C 
BRANCH   2   3
ATOM      3  N   UNL A   1      31.075  27.010  26.694  1.00  0.00    -0.355 N 
ATOM      4  C   UNL A   1      30.375  26.191  25.868  1.00  0.00     0.240 C 
ATOM      5  O   UNL A   1      29.624  25.403  26.462  1.00  0.00    -0.274 OA
ATOM      6  H   UNL A   1      30.843  26.869  27.641  1.00  0.00     0.163 HD
BRANCH   4   7
ATOM      7  C   UNL A   1      30.379  26.195  24.335  1.00  0.00     0.250 C 
BRANCH   7   8
ATOM      8  C   UNL A   1      30.895  24.843  23.890  1.00  0.00     0.325 C 
ATOM      9  O   UNL A   1      30.279  24.109  23.128  1.00  0.00    -0.251 OA
BRANCH   8  10
ATOM     10  O   UNL A   1      32.093  24.537  24.462  1.00  0.00    -0.459 OA
BRANCH  10  11
ATOM     11  C   UNL A   1      33.320  24.605  23.675  1.00  0.00     0.104 C 
ATOM     12  C   UNL A   1      34.402  25.048  24.670  1.00  0.00     0.056 C 
ATOM     13  C   UNL A   1      33.246  25.644  22.548  1.00  0.00     0.056 C 
ATOM     14  C   UNL A   1      33.699  23.223  23.131  1.00  0.00     0.056 C 
ENDBRANCH  10  11
ENDBRANCH   8  10
ENDBRANCH   7   8
BRANCH   7  15
ATOM     15  C   UNL A   1      29.136  26.696  23.557  1.00  0.00     0.236 C 
BRANCH  15  16
ATOM     16  N   UNL A   1      27.906  26.231  24.245  1.00  0.00    -0.350 N 
ATOM     17  H   UNL A   1      28.162  25.674  25.060  1.00  0.00     0.345 HD
ATOM     18  H   UNL A   1      27.352  25.662  23.604  1.00  0.00     0.345 HD
ATOM     19  H   UNL A   1      27.358  27.038  24.543  1.00  0.00     0.345 HD
ENDBRANCH  15  16
BRANCH  15  20
ATOM     20  C   UNL A   1      29.000  28.215  23.273  1.00  0.00     0.011 A 
ATOM     21  C   UNL A   1      27.786  28.808  22.892  1.00  0.00     0.011 A 
ATOM     22  C   UNL A   1      30.072  29.105  23.511  1.00  0.00     0.011 A 
ATOM     23  C   UNL A   1      27.648  30.192  22.723  1.00  0.00     0.016 A 
ATOM     24  C   UNL A   1      29.940  30.492  23.356  1.00  0.00     0.016 A 
ATOM     25  C   UNL A   1      28.727  31.030  22.958  1.00  0.00     0.018 A 
ATOM     26  Br  UNL A   1      28.536  32.897  22.752  1.00  0.00    -0.051 Br
ENDBRANCH  15  20
ENDBRANCH   7  15
ENDBRANCH   4   7
ENDBRANCH   2   3
ENDBRANCH   1   2
BRANCH   1  27
ATOM     27  C   UNL A   1      31.999  30.632  26.472  1.00  0.00     0.023 C 
BRANCH  27  28
ATOM     28  C   UNL A   1      33.088  31.553  27.013  1.00  0.00     0.116 C 
BRANCH  28  29
ATOM     29  N   UNL A   1      32.634  32.916  27.245  1.00  0.00    -0.352 N 
ATOM     30  C   UNL A   1      33.105  33.851  28.140  1.00  0.00     0.251 C 
ATOM     31  H   UNL A   1      31.883  33.213  26.682  1.00  0.00     0.163 HD
ATOM     32  O   UNL A   1      32.529  34.926  28.275  1.00  0.00    -0.269 OA
BRANCH  30  33
ATOM     33  C   UNL A   1      34.287  33.540  28.972  1.00  0.00     0.039 A 
ATOM     34  C   UNL A   1      34.130  32.725  30.098  1.00  0.00     0.014 A 
ATOM     35  C   UNL A   1      35.551  34.016  28.618  1.00  0.00     0.014 A 
ATOM     36  C   UNL A   1      35.257  32.303  30.809  1.00  0.00     0.010 A 
ATOM     37  C   UNL A   1      36.675  33.538  29.283  1.00  0.00     0.010 A 
ATOM     38  C   UNL A   1      36.541  32.664  30.374  1.00  0.00    -0.014 A 
BRANCH  38  39
ATOM     39  C   UNL A   1      37.771  32.129  31.013  1.00  0.00     0.031 A 
ATOM     40  C   UNL A   1      38.566  31.058  30.323  1.00  0.00     0.074 A 
ATOM     41  C   UNL A   1      38.092  32.502  32.266  1.00  0.00     0.049 A 
ATOM     42  N   UNL A   1      39.540  30.317  30.787  1.00  0.00    -0.248 NA
ATOM     43  C   UNL A   1      38.185  30.754  28.937  1.00  0.00     0.031 C 
ATOM     44  C   UNL A   1      37.373  33.496  33.063  1.00  0.00     0.029 A 
ATOM     45  N   UNL A   1      39.084  32.057  33.106  1.00  0.00    -0.354 N 
ATOM     46  C   UNL A   1      39.860  29.435  29.765  1.00  0.00     0.074 A 
ATOM     47  C   UNL A   1      38.955  29.711  28.670  1.00  0.00     0.031 C 
ATOM     48  C   UNL A   1      37.941  33.581  34.276  1.00  0.00     0.029 A 
ATOM     49  C   UNL A   1      39.033  32.617  34.359  1.00  0.00     0.049 A 
ATOM     50  H   UNL A   1      39.766  31.401  32.836  1.00  0.00     0.167 HD
ATOM     51  C   UNL A   1      40.829  28.488  29.740  1.00  0.00     0.037 A 
ATOM     52  C   UNL A   1      39.765  32.363  35.462  1.00  0.00     0.037 A 
ATOM     53  C   UNL A   1      41.751  28.244  30.818  1.00  0.00     0.049 A 
ATOM     54  C   UNL A   1      40.852  31.325  35.405  1.00  0.00     0.074 A 
ATOM     55  C   UNL A   1      42.822  27.369  30.856  1.00  0.00     0.029 A 
ATOM     56  N   UNL A   1      41.706  28.876  32.052  1.00  0.00    -0.354 N 
ATOM     57  N   UNL A   1      41.191  30.540  34.412  1.00  0.00    -0.248 NA
ATOM     58  C   UNL A   1      41.658  31.139  36.619  1.00  0.00     0.031 C 
ATOM     59  C   UNL A   1      43.400  27.440  32.128  1.00  0.00     0.029 A 
ATOM     60  C   UNL A   1      42.719  28.394  32.867  1.00  0.00     0.049 A 
ATOM     61  H   UNL A   1      41.052  29.565  32.311  1.00  0.00     0.167 HD
ATOM     62  C   UNL A   1      42.264  29.787  34.869  1.00  0.00     0.074 A 
ATOM     63  C   UNL A   1      42.523  30.212  36.229  1.00  0.00     0.031 C 
ATOM     64  C   UNL A   1      42.970  28.832  34.217  1.00  0.00     0.037 A 
BRANCH  51  65
ATOM     65  C   UNL A   1      40.927  27.637  28.507  1.00  0.00     0.064 A 
ATOM     66  C   UNL A   1      41.767  27.980  27.436  1.00  0.00     0.173 A 
ATOM     67  C   UNL A   1      40.173  26.459  28.397  1.00  0.00     0.173 A 
ATOM     68  F   UNL A   1      42.500  29.102  27.486  1.00  0.00    -0.203 F 
ATOM     69  C   UNL A   1      41.815  27.198  26.284  1.00  0.00     0.198 A 
ATOM     70  C   UNL A   1      40.248  25.663  27.258  1.00  0.00     0.198 A 
ATOM     71  F   UNL A   1      39.359  26.081  29.395  1.00  0.00    -0.203 F 
ATOM     72  F   UNL A   1      42.576  27.580  25.250  1.00  0.00    -0.200 F 
ATOM     73  C   UNL A   1      41.059  26.039  26.198  1.00  0.00     0.200 A 
ATOM     74  F   UNL A   1      39.525  24.537  27.180  1.00  0.00    -0.200 F 
ATOM     75  F   UNL A   1      41.103  25.290  25.088  1.00  0.00    -0.200 F 
ENDBRANCH  51  65
BRANCH  52  76
ATOM     76  C   UNL A   1      39.490  33.120  36.710  1.00  0.00     0.064 A 
ATOM     77  C   UNL A   1      40.162  34.317  36.986  1.00  0.00     0.173 A 
ATOM     78  C   UNL A   1      38.523  32.684  37.627  1.00  0.00     0.173 A 
ATOM     79  F   UNL A   1      41.107  34.764  36.146  1.00  0.00    -0.203 F 
ATOM     80  C   UNL A   1      39.880  35.050  38.137  1.00  0.00     0.198 A 
ATOM     81  C   UNL A   1      38.225  33.429  38.766  1.00  0.00     0.198 A 
ATOM     82  F   UNL A   1      37.848  31.546  37.402  1.00  0.00    -0.203 F 
ATOM     83  F   UNL A   1      40.553  36.180  38.391  1.00  0.00    -0.200 F 
ATOM     84  C   UNL A   1      38.906  34.609  39.022  1.00  0.00     0.200 A 
ATOM     85  F   UNL A   1      37.273  33.008  39.609  1.00  0.00    -0.200 F 
ATOM     86  F   UNL A   1      38.624  35.323  40.120  1.00  0.00    -0.200 F 
ENDBRANCH  52  76
BRANCH  64  87
ATOM     87  C   UNL A   1      44.119  28.201  34.946  1.00  0.00     0.064 A 
ATOM     88  C   UNL A   1      45.393  28.785  34.955  1.00  0.00     0.173 A 
ATOM     89  C   UNL A   1      43.923  27.034  35.701  1.00  0.00     0.173 A 
ATOM     90  F   UNL A   1      45.633  29.893  34.237  1.00  0.00    -0.203 F 
ATOM     91  C   UNL A   1      46.433  28.218  35.686  1.00  0.00     0.198 A 
ATOM     92  C   UNL A   1      44.959  26.483  36.449  1.00  0.00     0.198 A 
ATOM     93  F   UNL A   1      42.720  26.440  35.726  1.00  0.00    -0.203 F 
ATOM     94  F   UNL A   1      47.652  28.775  35.658  1.00  0.00    -0.200 F 
ATOM     95  C   UNL A   1      46.214  27.074  36.439  1.00  0.00     0.200 A 
ATOM     96  F   UNL A   1      44.741  25.384  37.185  1.00  0.00    -0.200 F 
ATOM     97  F   UNL A   1      47.212  26.536  37.153  1.00  0.00    -0.200 F 
ENDBRANCH  64  87
ENDBRANCH  38  39
ENDBRANCH  30  33
ENDBRANCH  28  29
ENDBRANCH  27  28
ENDBRANCH   1  27
TORSDOF 17
ENDMDL
MODEL 3
REMARK VINA RESULT:     -12.2      1.811      3.497
REMARK SMILES CC(C)(C)OC(=O)[C@H](C(=O)NCCCCNC(=O)c1ccc(-c2c3nc(c(-c4c(F)c(F)c(F)c(F)c4F)c4ccc([nH]4)c(-c4c(F)c(F)c(F)c(F)c4F)c4nc(c(-c5c(F)c(F)c(F)c(F)c5F)c5ccc2[nH]5)C=C4)C=C3)cc1)[C@@H]([NH3+])c1ccc(Br)cc1
REMARK SMILES IDX 13 1 12 2 11 3 9 4 10 5 8 7 6 8 7 9 5 10 2 11 1 12 3 13 4 14
REMARK SMILES IDX 82 15 83 16 84 20 85 21 90 22 86 23 89 24 87 25 88 26 14 27
REMARK SMILES IDX 15 28 16 29 17 30 18 32 19 33 20 34 81 35 21 36 80 37 22 38
REMARK SMILES IDX 23 39 24 40 74 41 25 42 79 43 73 44 75 45 26 46 78 47 72 48
REMARK SMILES IDX 71 49 27 51 59 52 39 53 58 54 40 55 43 56 57 57 76 58 41 59
REMARK SMILES IDX 42 60 56 62 77 63 44 64 28 65 29 66 37 67 30 68 31 69 35 70
REMARK SMILES IDX 38 71 32 72 33 73 36 74 34 75 60 76 61 77 69 78 62 79 63 80
REMARK SMILES IDX 67 81 70 82 64 83 65 84 68 85 66 86 45 87 46 88 54 89 47 90
REMARK SMILES IDX 48 91 52 92 55 93 49 94 50 95 53 96 51 97
REMARK H PARENT 11 6 83 17 83 18 83 19 16 31 75 50 43 61
REMARK Flexibility Score: inf
ROOT
ATOM      1  C   UNL A   1      31.783  29.223  27.251  1.00  0.00     0.023 C 
ENDROOT
BRANCH   1   2
ATOM      2  C   UNL A   1      32.122  27.852  26.671  1.00  0.00     0.116 C 
BRANCH   2   3
ATOM      3  N   UNL A   1      31.048  26.882  26.796  1.00  0.00    -0.355 N 
ATOM      4  C   UNL A   1      30.326  26.118  25.937  1.00  0.00     0.240 C 
ATOM      5  O   UNL A   1      29.510  25.370  26.495  1.00  0.00    -0.274 OA
ATOM      6  H   UNL A   1      30.778  26.743  27.733  1.00  0.00     0.163 HD
BRANCH   4   7
ATOM      7  C   UNL A   1      30.378  26.141  24.405  1.00  0.00     0.250 C 
BRANCH   7   8
ATOM      8  C   UNL A   1      30.932  24.805  23.960  1.00  0.00     0.325 C 
ATOM      9  O   UNL A   1      30.376  24.090  23.136  1.00  0.00    -0.251 OA
BRANCH   8  10
ATOM     10  O   UNL A   1      32.087  24.486  24.608  1.00  0.00    -0.459 OA
BRANCH  10  11
ATOM     11  C   UNL A   1      33.370  24.616  23.925  1.00  0.00     0.104 C 
ATOM     12  C   UNL A   1      34.394  24.840  25.048  1.00  0.00     0.056 C 
ATOM     13  C   UNL A   1      33.421  25.823  22.978  1.00  0.00     0.056 C 
ATOM     14  C   UNL A   1      33.733  23.320  23.191  1.00  0.00     0.056 C 
ENDBRANCH  10  11
ENDBRANCH   8  10
ENDBRANCH   7   8
BRANCH   7  15
ATOM     15  C   UNL A   1      29.151  26.630  23.593  1.00  0.00     0.236 C 
BRANCH  15  16
ATOM     16  N   UNL A   1      27.908  26.159  24.251  1.00  0.00    -0.350 N 
ATOM     17  H   UNL A   1      27.102  26.419  23.682  1.00  0.00     0.345 HD
ATOM     18  H   UNL A   1      27.827  26.589  25.172  1.00  0.00     0.345 HD
ATOM     19  H   UNL A   1      27.939  25.144  24.351  1.00  0.00     0.345 HD
ENDBRANCH  15  16
BRANCH  15  20
ATOM     20  C   UNL A   1      29.012  28.147  23.301  1.00  0.00     0.011 A 
ATOM     21  C   UNL A   1      27.803  28.730  22.888  1.00  0.00     0.011 A 
ATOM     22  C   UNL A   1      30.070  29.046  23.562  1.00  0.00     0.011 A 
ATOM     23  C   UNL A   1      27.659  30.113  22.711  1.00  0.00     0.016 A 
ATOM     24  C   UNL A   1      29.933  30.431  23.399  1.00  0.00     0.016 A 
ATOM     25  C   UNL A   1      28.725  30.959  22.969  1.00  0.00     0.018 A 
ATOM     26  Br  UNL A   1      28.525  32.824  22.752  1.00  0.00    -0.051 Br
ENDBRANCH  15  20
ENDBRANCH   7  15
ENDBRANCH   4   7
ENDBRANCH   2   3
ENDBRANCH   1   2
BRANCH   1  27
ATOM     27  C   UNL A   1      32.278  30.431  26.459  1.00  0.00     0.023 C 
BRANCH  27  28
ATOM     28  C   UNL A   1      33.258  31.349  27.183  1.00  0.00     0.116 C 
BRANCH  28  29
ATOM     29  N   UNL A   1      32.780  32.716  27.321  1.00  0.00    -0.352 N 
ATOM     30  C   UNL A   1      33.217  33.710  28.168  1.00  0.00     0.251 C 
ATOM     31  H   UNL A   1      32.037  32.966  26.725  1.00  0.00     0.163 HD
ATOM     32  O   UNL A   1      32.623  34.783  28.224  1.00  0.00    -0.269 OA
BRANCH  30  33
ATOM     33  C   UNL A   1      34.385  33.470  29.042  1.00  0.00     0.039 A 
ATOM     34  C   UNL A   1      34.214  32.724  30.214  1.00  0.00     0.014 A 
ATOM     35  C   UNL A   1      35.649  33.940  28.686  1.00  0.00     0.014 A 
ATOM     36  C   UNL A   1      35.330  32.364  30.974  1.00  0.00     0.010 A 
ATOM     37  C   UNL A   1      36.765  33.522  29.404  1.00  0.00     0.010 A 
ATOM     38  C   UNL A   1      36.619  32.716  30.544  1.00  0.00    -0.014 A 
BRANCH  38  39
ATOM     39  C   UNL A   1      37.841  32.239  31.241  1.00  0.00     0.031 A 
ATOM     40  C   UNL A   1      38.624  31.089  30.676  1.00  0.00     0.074 A 
ATOM     41  C   UNL A   1      38.166  32.745  32.446  1.00  0.00     0.049 A 
ATOM     42  N   UNL A   1      39.587  30.392  31.221  1.00  0.00    -0.248 NA
ATOM     43  C   UNL A   1      38.240  30.639  29.331  1.00  0.00     0.031 C 
ATOM     44  C   UNL A   1      37.458  33.830  33.126  1.00  0.00     0.029 A 
ATOM     45  N   UNL A   1      39.151  32.383  33.332  1.00  0.00    -0.354 N 
ATOM     46  C   UNL A   1      39.898  29.398  30.303  1.00  0.00     0.074 A 
ATOM     47  C   UNL A   1      38.997  29.562  29.182  1.00  0.00     0.031 C 
ATOM     48  C   UNL A   1      38.026  34.041  34.324  1.00  0.00     0.029 A 
ATOM     49  C   UNL A   1      39.106  33.079  34.516  1.00  0.00     0.049 A 
ATOM     50  H   UNL A   1      39.825  31.693  33.138  1.00  0.00     0.167 HD
ATOM     51  C   UNL A   1      40.854  28.443  30.385  1.00  0.00     0.037 A 
ATOM     52  C   UNL A   1      39.833  32.939  35.641  1.00  0.00     0.037 A 
ATOM     53  C   UNL A   1      41.772  28.308  31.486  1.00  0.00     0.049 A 
ATOM     54  C   UNL A   1      40.907  31.888  35.702  1.00  0.00     0.074 A 
ATOM     55  C   UNL A   1      42.833  27.429  31.623  1.00  0.00     0.029 A 
ATOM     56  N   UNL A   1      41.734  29.073  32.642  1.00  0.00    -0.354 N 
ATOM     57  N   UNL A   1      41.237  30.994  34.802  1.00  0.00    -0.248 NA
ATOM     58  C   UNL A   1      41.710  31.828  36.932  1.00  0.00     0.031 C 
ATOM     59  C   UNL A   1      43.410  27.633  32.880  1.00  0.00     0.029 A 
ATOM     60  C   UNL A   1      42.740  28.672  33.508  1.00  0.00     0.049 A 
ATOM     61  H   UNL A   1      41.089  29.795  32.822  1.00  0.00     0.167 HD
ATOM     62  C   UNL A   1      42.300  30.283  35.343  1.00  0.00     0.074 A 
ATOM     63  C   UNL A   1      42.563  30.852  36.648  1.00  0.00     0.031 C 
ATOM     64  C   UNL A   1      42.995  29.253  34.802  1.00  0.00     0.037 A 
BRANCH  51  65
ATOM     65  C   UNL A   1      40.944  27.459  29.254  1.00  0.00     0.064 A 
ATOM     66  C   UNL A   1      41.970  27.521  28.299  1.00  0.00     0.173 A 
ATOM     67  C   UNL A   1      39.990  26.438  29.126  1.00  0.00     0.173 A 
ATOM     68  F   UNL A   1      42.900  28.485  28.369  1.00  0.00    -0.203 F 
ATOM     69  C   UNL A   1      42.013  26.624  27.235  1.00  0.00     0.198 A 
ATOM     70  C   UNL A   1      40.055  25.523  28.080  1.00  0.00     0.198 A 
ATOM     71  F   UNL A   1      38.991  26.330  30.016  1.00  0.00    -0.203 F 
ATOM     72  F   UNL A   1      42.966  26.742  26.300  1.00  0.00    -0.200 F 
ATOM     73  C   UNL A   1      41.058  25.624  27.129  1.00  0.00     0.200 A 
ATOM     74  F   UNL A   1      39.138  24.550  27.984  1.00  0.00    -0.200 F 
ATOM     75  F   UNL A   1      41.099  24.764  26.101  1.00  0.00    -0.200 F 
ENDBRANCH  51  65
BRANCH  52  76
ATOM     76  C   UNL A   1      39.566  33.833  36.797  1.00  0.00     0.064 A 
ATOM     77  C   UNL A   1      38.758  33.409  37.860  1.00  0.00     0.173 A 
ATOM     78  C   UNL A   1      40.145  35.107  36.881  1.00  0.00     0.173 A 
ATOM     79  F   UNL A   1      38.168  32.206  37.815  1.00  0.00    -0.203 F 
ATOM     80  C   UNL A   1      38.534  34.230  38.963  1.00  0.00     0.198 A 
ATOM     81  C   UNL A   1      39.941  35.917  37.996  1.00  0.00     0.198 A 
ATOM     82  F   UNL A   1      40.933  35.553  35.891  1.00  0.00    -0.203 F 
ATOM     83  F   UNL A   1      37.738  33.812  39.956  1.00  0.00    -0.200 F 
ATOM     84  C   UNL A   1      39.133  35.479  39.034  1.00  0.00     0.200 A 
ATOM     85  F   UNL A   1      40.534  37.117  38.068  1.00  0.00    -0.200 F 
ATOM     86  F   UNL A   1      38.931  36.261  40.104  1.00  0.00    -0.200 F 
ENDBRANCH  52  76
BRANCH  64  87
ATOM     87  C   UNL A   1      44.136  28.692  35.599  1.00  0.00     0.064 A 
ATOM     88  C   UNL A   1      43.953  27.633  36.498  1.00  0.00     0.173 A 
ATOM     89  C   UNL A   1      45.438  29.178  35.408  1.00  0.00     0.173 A 
ATOM     90  F   UNL A   1      42.724  27.144  36.726  1.00  0.00    -0.203 F 
ATOM     91  C   UNL A   1      45.034  27.086  37.186  1.00  0.00     0.198 A 
ATOM     92  C   UNL A   1      46.519  28.614  36.079  1.00  0.00     0.198 A 
ATOM     93  F   UNL A   1      45.664  30.189  34.555  1.00  0.00    -0.203 F 
ATOM     94  F   UNL A   1      44.834  26.093  38.063  1.00  0.00    -0.200 F 
ATOM     95  C   UNL A   1      46.315  27.570  36.969  1.00  0.00     0.200 A 
ATOM     96  F   UNL A   1      47.757  29.075  35.859  1.00  0.00    -0.200 F 
ATOM     97  F   UNL A   1      47.356  27.033  37.621  1.00  0.00    -0.200 F 
ENDBRANCH  64  87
ENDBRANCH  38  39
ENDBRANCH  30  33
ENDBRANCH  28  29
ENDBRANCH  27  28
ENDBRANCH   1  27
TORSDOF 17
ENDMDL
