MODEL 1
REMARK VINA RESULT:     -13.9      0.000      0.000
REMARK SMILES O=C(NCCCCNC(=O)[C@H]1Cc2[nH]cnc2CN1C(=O)c1ccncc1Cl)c1ccc(-c2c3nc(c(-c4c(F)c(F)c(F)c(F)c4F)c4ccc([nH]4)c(-c4c(F)c(F)c(F)c(F)c4F)c4nc(c(-c5c(F)c(F)c(F)c(F)c5F)c5ccc2[nH]5)C=C4)C=C3)cc1
REMARK SMILES IDX 5 1 4 2 3 3 1 4 2 5 29 7 30 8 91 9 31 10 90 11 32 12 33 13
REMARK SMILES IDX 34 14 84 15 35 16 89 17 83 18 85 19 36 20 88 21 82 22 81 23
REMARK SMILES IDX 37 25 69 26 49 27 68 28 50 29 53 30 67 31 86 32 51 33 52 34
REMARK SMILES IDX 66 36 87 37 54 38 38 39 39 40 47 41 40 42 41 43 45 44 48 45
REMARK SMILES IDX 42 46 43 47 46 48 44 49 70 50 71 51 79 52 72 53 73 54 77 55
REMARK SMILES IDX 80 56 74 57 75 58 78 59 76 60 55 61 56 62 64 63 57 64 58 65
REMARK SMILES IDX 62 66 65 67 59 68 60 69 63 70 61 71 6 72 7 73 8 74 9 75
REMARK SMILES IDX 10 77 11 78 12 79 19 80 13 81 18 82 14 83 17 84 15 85 16 87
REMARK SMILES IDX 20 88 21 89 22 90 23 91 27 92 24 93 26 94 28 95 25 96
REMARK H PARENT 3 6 85 24 53 35 8 76 14 86
REMARK Flexibility Score: inf
ROOT
ATOM      1  C   UNL A   1      31.942  29.862  26.860  1.00  0.00     0.023 C 
ENDROOT
BRANCH   1   2
ATOM      2  C   UNL A   1      33.384  30.358  26.757  1.00  0.00     0.116 C 
BRANCH   2   3
ATOM      3  N   UNL A   1      33.698  31.470  27.631  1.00  0.00    -0.352 N 
ATOM      4  O   UNL A   1      34.779  32.994  28.808  1.00  0.00    -0.269 OA
ATOM      5  C   UNL A   1      34.825  31.875  28.287  1.00  0.00     0.251 C 
ATOM      6  H   UNL A   1      32.928  32.063  27.787  1.00  0.00     0.163 HD
BRANCH   5   7
ATOM      7  C   UNL A   1      36.048  31.050  28.479  1.00  0.00     0.039 A 
ATOM      8  C   UNL A   1      36.131  29.669  28.308  1.00  0.00     0.014 A 
ATOM      9  C   UNL A   1      37.200  31.744  28.901  1.00  0.00     0.014 A 
ATOM     10  C   UNL A   1      37.303  28.992  28.630  1.00  0.00     0.010 A 
ATOM     11  C   UNL A   1      38.380  31.074  29.210  1.00  0.00     0.010 A 
ATOM     12  C   UNL A   1      38.420  29.690  29.102  1.00  0.00    -0.014 A 
BRANCH  12  13
ATOM     13  C   UNL A   1      39.658  28.936  29.275  1.00  0.00     0.031 A 
ATOM     14  C   UNL A   1      40.040  28.735  30.700  1.00  0.00     0.074 A 
ATOM     15  C   UNL A   1      40.384  28.382  28.286  1.00  0.00     0.049 A 
ATOM     16  N   UNL A   1      41.063  29.228  31.318  1.00  0.00    -0.248 NA
ATOM     17  C   UNL A   1      39.113  27.995  31.569  1.00  0.00     0.031 C 
ATOM     18  C   UNL A   1      40.028  28.226  26.876  1.00  0.00     0.029 A 
ATOM     19  N   UNL A   1      41.597  27.758  28.369  1.00  0.00    -0.354 N 
ATOM     20  C   UNL A   1      41.005  28.733  32.618  1.00  0.00     0.074 A 
ATOM     21  C   UNL A   1      39.723  28.092  32.752  1.00  0.00     0.031 C 
ATOM     22  C   UNL A   1      40.902  27.375  26.287  1.00  0.00     0.029 A 
ATOM     23  C   UNL A   1      41.952  27.037  27.236  1.00  0.00     0.049 A 
ATOM     24  H   UNL A   1      42.172  27.816  29.166  1.00  0.00     0.167 HD
ATOM     25  C   UNL A   1      42.111  28.714  33.412  1.00  0.00     0.037 A 
ATOM     26  C   UNL A   1      43.006  26.191  27.109  1.00  0.00     0.037 A 
ATOM     27  C   UNL A   1      43.125  29.610  32.918  1.00  0.00     0.049 A 
ATOM     28  C   UNL A   1      43.987  26.526  28.169  1.00  0.00     0.074 A 
ATOM     29  C   UNL A   1      43.202  30.971  32.695  1.00  0.00     0.029 A 
ATOM     30  N   UNL A   1      44.184  29.064  32.238  1.00  0.00    -0.354 N 
ATOM     31  N   UNL A   1      44.708  27.609  28.181  1.00  0.00    -0.248 NA
ATOM     32  C   UNL A   1      43.880  25.831  29.442  1.00  0.00     0.031 C 
ATOM     33  C   UNL A   1      43.994  31.108  31.515  1.00  0.00     0.029 A 
ATOM     34  C   UNL A   1      44.398  29.832  31.126  1.00  0.00     0.049 A 
ATOM     35  H   UNL A   1      44.696  28.265  32.502  1.00  0.00     0.167 HD
ATOM     36  C   UNL A   1      44.750  27.979  29.514  1.00  0.00     0.074 A 
ATOM     37  C   UNL A   1      44.325  26.794  30.252  1.00  0.00     0.031 C 
ATOM     38  C   UNL A   1      44.852  29.293  29.868  1.00  0.00     0.037 A 
BRANCH  25  39
ATOM     39  C   UNL A   1      42.433  27.619  34.401  1.00  0.00     0.064 A 
ATOM     40  C   UNL A   1      43.014  26.423  33.932  1.00  0.00     0.173 A 
ATOM     41  C   UNL A   1      41.899  27.564  35.706  1.00  0.00     0.173 A 
ATOM     42  F   UNL A   1      43.541  26.354  32.699  1.00  0.00    -0.203 F 
ATOM     43  C   UNL A   1      42.969  25.239  34.673  1.00  0.00     0.198 A 
ATOM     44  C   UNL A   1      41.905  26.394  36.465  1.00  0.00     0.198 A 
ATOM     45  F   UNL A   1      41.247  28.596  36.255  1.00  0.00    -0.203 F 
ATOM     46  F   UNL A   1      43.405  24.095  34.127  1.00  0.00    -0.200 F 
ATOM     47  C   UNL A   1      42.406  25.224  35.935  1.00  0.00     0.200 A 
ATOM     48  F   UNL A   1      41.337  26.395  37.679  1.00  0.00    -0.200 F 
ATOM     49  F   UNL A   1      42.297  24.078  36.619  1.00  0.00    -0.200 F 
ENDBRANCH  25  39
BRANCH  26  50
ATOM     50  C   UNL A   1      43.124  24.941  26.320  1.00  0.00     0.064 A 
ATOM     51  C   UNL A   1      44.146  24.779  25.367  1.00  0.00     0.173 A 
ATOM     52  C   UNL A   1      42.435  23.776  26.702  1.00  0.00     0.173 A 
ATOM     53  F   UNL A   1      44.881  25.830  24.978  1.00  0.00    -0.203 F 
ATOM     54  C   UNL A   1      44.483  23.520  24.858  1.00  0.00     0.198 A 
ATOM     55  C   UNL A   1      42.768  22.521  26.189  1.00  0.00     0.198 A 
ATOM     56  F   UNL A   1      41.496  23.817  27.658  1.00  0.00    -0.203 F 
ATOM     57  F   UNL A   1      45.512  23.396  24.007  1.00  0.00    -0.200 F 
ATOM     58  C   UNL A   1      43.803  22.391  25.280  1.00  0.00     0.200 A 
ATOM     59  F   UNL A   1      42.127  21.431  26.634  1.00  0.00    -0.200 F 
ATOM     60  F   UNL A   1      44.170  21.177  24.848  1.00  0.00    -0.200 F 
ENDBRANCH  26  50
BRANCH  38  61
ATOM     61  C   UNL A   1      45.254  30.275  28.805  1.00  0.00     0.064 A 
ATOM     62  C   UNL A   1      44.367  30.866  27.887  1.00  0.00     0.173 A 
ATOM     63  C   UNL A   1      46.585  30.717  28.792  1.00  0.00     0.173 A 
ATOM     64  F   UNL A   1      43.058  30.580  27.903  1.00  0.00    -0.203 F 
ATOM     65  C   UNL A   1      44.812  31.810  26.962  1.00  0.00     0.198 A 
ATOM     66  C   UNL A   1      47.015  31.691  27.897  1.00  0.00     0.198 A 
ATOM     67  F   UNL A   1      47.464  30.230  29.681  1.00  0.00    -0.203 F 
ATOM     68  F   UNL A   1      43.954  32.341  26.078  1.00  0.00    -0.200 F 
ATOM     69  C   UNL A   1      46.133  32.225  26.972  1.00  0.00     0.200 A 
ATOM     70  F   UNL A   1      48.281  32.127  27.946  1.00  0.00    -0.200 F 
ATOM     71  F   UNL A   1      46.553  33.160  26.108  1.00  0.00    -0.200 F 
ENDBRANCH  38  61
ENDBRANCH  12  13
ENDBRANCH   5   7
ENDBRANCH   2   3
ENDBRANCH   1   2
BRANCH   1  72
ATOM     72  C   UNL A   1      31.778  28.448  27.442  1.00  0.00     0.023 C 
BRANCH  72  73
ATOM     73  C   UNL A   1      31.859  27.318  26.418  1.00  0.00     0.116 C 
BRANCH  73  74
ATOM     74  N   UNL A   1      31.394  26.071  26.991  1.00  0.00    -0.354 N 
ATOM     75  C   UNL A   1      31.771  24.792  26.736  1.00  0.00     0.243 C 
ATOM     76  H   UNL A   1      30.691  26.166  27.673  1.00  0.00     0.163 HD
ATOM     77  O   UNL A   1      31.057  23.899  27.202  1.00  0.00    -0.273 OA
BRANCH  75  78
ATOM     78  C   UNL A   1      32.951  24.446  25.814  1.00  0.00     0.181 C 
ATOM     79  C   UNL A   1      33.966  23.703  26.764  1.00  0.00     0.091 C 
ATOM     80  N   UNL A   1      32.698  23.763  24.480  1.00  0.00    -0.320 N 
ATOM     81  C   UNL A   1      34.904  22.865  25.997  1.00  0.00     0.042 A 
ATOM     82  C   UNL A   1      33.912  23.337  23.734  1.00  0.00     0.178 C 
ATOM     83  N   UNL A   1      35.901  22.060  26.464  1.00  0.00    -0.348 N 
ATOM     84  C   UNL A   1      34.883  22.687  24.640  1.00  0.00     0.081 A 
ATOM     85  C   UNL A   1      36.468  21.462  25.368  1.00  0.00     0.197 A 
ATOM     86  H   UNL A   1      36.165  21.933  27.404  1.00  0.00     0.167 HD
ATOM     87  N   UNL A   1      35.874  21.828  24.251  1.00  0.00    -0.240 NA
BRANCH  80  88
ATOM     88  C   UNL A   1      31.613  23.980  23.606  1.00  0.00     0.256 C 
ATOM     89  O   UNL A   1      30.957  23.062  23.109  1.00  0.00    -0.269 OA
BRANCH  88  90
ATOM     90  C   UNL A   1      31.067  25.315  23.341  1.00  0.00     0.061 A 
ATOM     91  C   UNL A   1      29.800  25.586  23.876  1.00  0.00     0.035 A 
ATOM     92  C   UNL A   1      31.684  26.250  22.520  1.00  0.00     0.072 A 
ATOM     93  C   UNL A   1      29.265  26.846  23.691  1.00  0.00     0.112 A 
ATOM     94  C   UNL A   1      31.083  27.496  22.429  1.00  0.00     0.132 A 
ATOM     95  Cl  UNL A   1      33.102  25.914  21.608  1.00  0.00    -0.082 Cl
ATOM     96  N   UNL A   1      29.905  27.825  23.022  1.00  0.00    -0.263 NA
ENDBRANCH  88  90
ENDBRANCH  80  88
ENDBRANCH  75  78
ENDBRANCH  73  74
ENDBRANCH  72  73
ENDBRANCH   1  72
TORSDOF 13
ENDMDL
MODEL 2
REMARK VINA RESULT:     -13.8      3.465      8.894
REMARK SMILES O=C(NCCCCNC(=O)[C@H]1Cc2[nH]cnc2CN1C(=O)c1ccncc1Cl)c1ccc(-c2c3nc(c(-c4c(F)c(F)c(F)c(F)c4F)c4ccc([nH]4)c(-c4c(F)c(F)c(F)c(F)c4F)c4nc(c(-c5c(F)c(F)c(F)c(F)c5F)c5ccc2[nH]5)C=C4)C=C3)cc1
REMARK SMILES IDX 5 1 4 2 3 3 1 4 2 5 29 7 30 8 91 9 31 10 90 11 32 12 33 13
REMARK SMILES IDX 34 14 84 15 35 16 89 17 83 18 85 19 36 20 88 21 82 22 81 23
REMARK SMILES IDX 37 25 69 26 49 27 68 28 50 29 53 30 67 31 86 32 51 33 52 34
REMARK SMILES IDX 66 36 87 37 54 38 38 39 39 40 47 41 40 42 41 43 45 44 48 45
REMARK SMILES IDX 42 46 43 47 46 48 44 49 70 50 71 51 79 52 72 53 73 54 77 55
REMARK SMILES IDX 80 56 74 57 75 58 78 59 76 60 55 61 56 62 64 63 57 64 58 65
REMARK SMILES IDX 62 66 65 67 59 68 60 69 63 70 61 71 6 72 7 73 8 74 9 75
REMARK SMILES IDX 10 77 11 78 12 79 19 80 13 81 18 82 14 83 17 84 15 85 16 87
REMARK SMILES IDX 20 88 21 89 22 90 23 91 27 92 24 93 26 94 28 95 25 96
REMARK H PARENT 3 6 85 24 53 35 8 76 14 86
REMARK Flexibility Score: inf
ROOT
ATOM      1  C   UNL A   1      39.490  21.999  26.211  1.00  0.00     0.023 C 
ENDROOT
BRANCH   1   2
ATOM      2  C   UNL A   1      40.957  21.805  26.595  1.00  0.00     0.116 C 
BRANCH   2   3
ATOM      3  N   UNL A   1      41.902  22.277  25.604  1.00  0.00    -0.352 N 
ATOM      4  O   UNL A   1      43.490  23.410  24.567  1.00  0.00    -0.269 OA
ATOM      5  C   UNL A   1      42.631  23.423  25.454  1.00  0.00     0.251 C 
ATOM      6  H   UNL A   1      42.050  21.630  24.877  1.00  0.00     0.163 HD
BRANCH   5   7
ATOM      7  C   UNL A   1      42.413  24.682  26.216  1.00  0.00     0.039 A 
ATOM      8  C   UNL A   1      42.896  24.951  27.496  1.00  0.00     0.014 A 
ATOM      9  C   UNL A   1      41.623  25.660  25.579  1.00  0.00     0.014 A 
ATOM     10  C   UNL A   1      42.529  26.121  28.153  1.00  0.00     0.010 A 
ATOM     11  C   UNL A   1      41.265  26.840  26.224  1.00  0.00     0.010 A 
ATOM     12  C   UNL A   1      41.696  27.055  27.527  1.00  0.00    -0.014 A 
BRANCH  12  13
ATOM     13  C   UNL A   1      41.477  28.324  28.214  1.00  0.00     0.031 A 
ATOM     14  C   UNL A   1      42.551  29.326  27.977  1.00  0.00     0.074 A 
ATOM     15  C   UNL A   1      40.389  28.644  28.942  1.00  0.00     0.049 A 
ATOM     16  N   UNL A   1      43.395  29.794  28.836  1.00  0.00    -0.248 NA
ATOM     17  C   UNL A   1      42.792  29.771  26.596  1.00  0.00     0.031 C 
ATOM     18  C   UNL A   1      39.125  27.918  29.053  1.00  0.00     0.029 A 
ATOM     19  N   UNL A   1      40.169  29.765  29.692  1.00  0.00    -0.354 N 
ATOM     20  C   UNL A   1      44.176  30.719  28.148  1.00  0.00     0.074 A 
ATOM     21  C   UNL A   1      43.851  30.567  26.753  1.00  0.00     0.031 C 
ATOM     22  C   UNL A   1      38.205  28.714  29.650  1.00  0.00     0.029 A 
ATOM     23  C   UNL A   1      38.849  29.944  30.085  1.00  0.00     0.049 A 
ATOM     24  H   UNL A   1      40.888  30.393  29.935  1.00  0.00     0.167 HD
ATOM     25  C   UNL A   1      44.877  31.679  28.811  1.00  0.00     0.037 A 
ATOM     26  C   UNL A   1      38.321  31.044  30.681  1.00  0.00     0.037 A 
ATOM     27  C   UNL A   1      45.038  31.342  30.202  1.00  0.00     0.049 A 
ATOM     28  C   UNL A   1      39.434  31.807  31.292  1.00  0.00     0.074 A 
ATOM     29  C   UNL A   1      45.635  30.306  30.894  1.00  0.00     0.029 A 
ATOM     30  N   UNL A   1      44.228  31.973  31.111  1.00  0.00    -0.354 N 
ATOM     31  N   UNL A   1      40.101  31.416  32.339  1.00  0.00    -0.248 NA
ATOM     32  C   UNL A   1      40.077  32.836  30.490  1.00  0.00     0.031 C 
ATOM     33  C   UNL A   1      44.789  30.078  32.021  1.00  0.00     0.029 A 
ATOM     34  C   UNL A   1      43.765  31.023  31.980  1.00  0.00     0.049 A 
ATOM     35  H   UNL A   1      44.018  32.936  31.134  1.00  0.00     0.167 HD
ATOM     36  C   UNL A   1      41.407  31.788  32.074  1.00  0.00     0.074 A 
ATOM     37  C   UNL A   1      41.314  32.755  30.984  1.00  0.00     0.031 C 
ATOM     38  C   UNL A   1      42.452  31.065  32.573  1.00  0.00     0.037 A 
BRANCH  25  39
ATOM     39  C   UNL A   1      45.083  33.088  28.308  1.00  0.00     0.064 A 
ATOM     40  C   UNL A   1      46.397  33.588  28.193  1.00  0.00     0.173 A 
ATOM     41  C   UNL A   1      44.058  34.056  28.257  1.00  0.00     0.173 A 
ATOM     42  F   UNL A   1      47.452  32.759  28.243  1.00  0.00    -0.203 F 
ATOM     43  C   UNL A   1      46.664  34.958  28.135  1.00  0.00     0.198 A 
ATOM     44  C   UNL A   1      44.327  35.420  28.145  1.00  0.00     0.198 A 
ATOM     45  F   UNL A   1      42.770  33.742  28.432  1.00  0.00    -0.203 F 
ATOM     46  F   UNL A   1      47.932  35.391  28.173  1.00  0.00    -0.200 F 
ATOM     47  C   UNL A   1      45.629  35.874  28.121  1.00  0.00     0.200 A 
ATOM     48  F   UNL A   1      43.310  36.293  28.152  1.00  0.00    -0.200 F 
ATOM     49  F   UNL A   1      45.881  37.189  28.139  1.00  0.00    -0.200 F 
ENDBRANCH  25  39
BRANCH  26  50
ATOM     50  C   UNL A   1      36.968  31.635  30.543  1.00  0.00     0.064 A 
ATOM     51  C   UNL A   1      36.101  31.730  31.646  1.00  0.00     0.173 A 
ATOM     52  C   UNL A   1      36.622  32.393  29.409  1.00  0.00     0.173 A 
ATOM     53  F   UNL A   1      36.378  31.073  32.782  1.00  0.00    -0.203 F 
ATOM     54  C   UNL A   1      34.979  32.565  31.630  1.00  0.00     0.198 A 
ATOM     55  C   UNL A   1      35.499  33.221  29.392  1.00  0.00     0.198 A 
ATOM     56  F   UNL A   1      37.424  32.427  28.336  1.00  0.00    -0.203 F 
ATOM     57  F   UNL A   1      34.218  32.685  32.727  1.00  0.00    -0.200 F 
ATOM     58  C   UNL A   1      34.686  33.320  30.507  1.00  0.00     0.200 A 
ATOM     59  F   UNL A   1      35.247  33.975  28.313  1.00  0.00    -0.200 F 
ATOM     60  F   UNL A   1      33.652  34.172  30.513  1.00  0.00    -0.200 F 
ENDBRANCH  26  50
BRANCH  38  61
ATOM     61  C   UNL A   1      42.162  30.083  33.670  1.00  0.00     0.064 A 
ATOM     62  C   UNL A   1      41.724  28.761  33.465  1.00  0.00     0.173 A 
ATOM     63  C   UNL A   1      42.447  30.470  34.988  1.00  0.00     0.173 A 
ATOM     64  F   UNL A   1      41.531  28.278  32.231  1.00  0.00    -0.203 F 
ATOM     65  C   UNL A   1      41.525  27.894  34.539  1.00  0.00     0.198 A 
ATOM     66  C   UNL A   1      42.290  29.588  36.051  1.00  0.00     0.198 A 
ATOM     67  F   UNL A   1      42.920  31.701  35.239  1.00  0.00    -0.203 F 
ATOM     68  F   UNL A   1      41.082  26.647  34.322  1.00  0.00    -0.200 F 
ATOM     69  C   UNL A   1      41.814  28.307  35.829  1.00  0.00     0.200 A 
ATOM     70  F   UNL A   1      42.621  29.975  37.291  1.00  0.00    -0.200 F 
ATOM     71  F   UNL A   1      41.660  27.461  36.857  1.00  0.00    -0.200 F 
ENDBRANCH  38  61
ENDBRANCH  12  13
ENDBRANCH   5   7
ENDBRANCH   2   3
ENDBRANCH   1   2
BRANCH   1  72
ATOM     72  C   UNL A   1      38.929  23.406  26.473  1.00  0.00     0.023 C 
BRANCH  72  73
ATOM     73  C   UNL A   1      37.470  23.603  26.063  1.00  0.00     0.116 C 
BRANCH  73  74
ATOM     74  N   UNL A   1      37.299  23.368  24.643  1.00  0.00    -0.354 N 
ATOM     75  C   UNL A   1      36.173  23.342  23.886  1.00  0.00     0.243 C 
ATOM     76  H   UNL A   1      38.134  23.201  24.148  1.00  0.00     0.163 HD
ATOM     77  O   UNL A   1      36.285  22.897  22.740  1.00  0.00    -0.273 OA
BRANCH  75  78
ATOM     78  C   UNL A   1      34.792  23.723  24.444  1.00  0.00     0.181 C 
ATOM     79  C   UNL A   1      34.151  24.596  23.298  1.00  0.00     0.091 C 
ATOM     80  N   UNL A   1      33.885  22.651  25.024  1.00  0.00    -0.320 N 
ATOM     81  C   UNL A   1      32.682  24.633  23.410  1.00  0.00     0.042 A 
ATOM     82  C   UNL A   1      32.517  23.099  25.398  1.00  0.00     0.178 C 
ATOM     83  N   UNL A   1      31.783  25.257  22.596  1.00  0.00    -0.348 N 
ATOM     84  C   UNL A   1      31.940  23.959  24.342  1.00  0.00     0.081 A 
ATOM     85  C   UNL A   1      30.539  24.970  23.093  1.00  0.00     0.197 A 
ATOM     86  H   UNL A   1      31.988  25.808  21.806  1.00  0.00     0.167 HD
ATOM     87  N   UNL A   1      30.605  24.190  24.152  1.00  0.00    -0.240 NA
BRANCH  80  88
ATOM     88  C   UNL A   1      34.273  21.522  25.773  1.00  0.00     0.256 C 
ATOM     89  O   UNL A   1      34.644  21.590  26.947  1.00  0.00    -0.269 OA
BRANCH  88  90
ATOM     90  C   UNL A   1      34.117  20.152  25.275  1.00  0.00     0.061 A 
ATOM     91  C   UNL A   1      32.832  19.598  25.374  1.00  0.00     0.035 A 
ATOM     92  C   UNL A   1      35.173  19.370  24.826  1.00  0.00     0.072 A 
ATOM     93  C   UNL A   1      32.627  18.326  24.875  1.00  0.00     0.112 A 
ATOM     94  C   UNL A   1      34.854  18.122  24.314  1.00  0.00     0.132 A 
ATOM     95  Cl  UNL A   1      36.817  19.864  24.917  1.00  0.00    -0.082 Cl
ATOM     96  N   UNL A   1      33.601  17.596  24.299  1.00  0.00    -0.263 NA
ENDBRANCH  88  90
ENDBRANCH  80  88
ENDBRANCH  75  78
ENDBRANCH  73  74
ENDBRANCH  72  73
ENDBRANCH   1  72
TORSDOF 13
ENDMDL
MODEL 3
REMARK VINA RESULT:     -13.7      3.213      8.568
REMARK SMILES O=C(NCCCCNC(=O)[C@H]1Cc2[nH]cnc2CN1C(=O)c1ccncc1Cl)c1ccc(-c2c3nc(c(-c4c(F)c(F)c(F)c(F)c4F)c4ccc([nH]4)c(-c4c(F)c(F)c(F)c(F)c4F)c4nc(c(-c5c(F)c(F)c(F)c(F)c5F)c5ccc2[nH]5)C=C4)C=C3)cc1
REMARK SMILES IDX 5 1 4 2 3 3 1 4 2 5 29 7 30 8 91 9 31 10 90 11 32 12 33 13
REMARK SMILES IDX 34 14 84 15 35 16 89 17 83 18 85 19 36 20 88 21 82 22 81 23
REMARK SMILES IDX 37 25 69 26 49 27 68 28 50 29 53 30 67 31 86 32 51 33 52 34
REMARK SMILES IDX 66 36 87 37 54 38 38 39 39 40 47 41 40 42 41 43 45 44 48 45
REMARK SMILES IDX 42 46 43 47 46 48 44 49 70 50 71 51 79 52 72 53 73 54 77 55
REMARK SMILES IDX 80 56 74 57 75 58 78 59 76 60 55 61 56 62 64 63 57 64 58 65
REMARK SMILES IDX 62 66 65 67 59 68 60 69 63 70 61 71 6 72 7 73 8 74 9 75
REMARK SMILES IDX 10 77 11 78 12 79 19 80 13 81 18 82 14 83 17 84 15 85 16 87
REMARK SMILES IDX 20 88 21 89 22 90 23 91 27 92 24 93 26 94 28 95 25 96
REMARK H PARENT 3 6 85 24 53 35 8 76 14 86
REMARK Flexibility Score: inf
ROOT
ATOM      1  C   UNL A   1      38.405  22.049  25.691  1.00  0.00     0.023 C 
ENDROOT
BRANCH   1   2
ATOM      2  C   UNL A   1      39.674  21.742  26.487  1.00  0.00     0.116 C 
BRANCH   2   3
ATOM      3  N   UNL A   1      40.905  21.946  25.752  1.00  0.00    -0.352 N 
ATOM      4  O   UNL A   1      42.907  22.642  25.132  1.00  0.00    -0.269 OA
ATOM      5  C   UNL A   1      41.893  22.888  25.793  1.00  0.00     0.251 C 
ATOM      6  H   UNL A   1      41.063  21.252  25.071  1.00  0.00     0.163 HD
BRANCH   5   7
ATOM      7  C   UNL A   1      41.803  24.194  26.500  1.00  0.00     0.039 A 
ATOM      8  C   UNL A   1      42.285  24.459  27.781  1.00  0.00     0.014 A 
ATOM      9  C   UNL A   1      41.142  25.227  25.806  1.00  0.00     0.014 A 
ATOM     10  C   UNL A   1      42.039  25.689  28.383  1.00  0.00     0.010 A 
ATOM     11  C   UNL A   1      40.905  26.464  26.396  1.00  0.00     0.010 A 
ATOM     12  C   UNL A   1      41.330  26.684  27.700  1.00  0.00    -0.014 A 
BRANCH  12  13
ATOM     13  C   UNL A   1      41.241  27.996  28.333  1.00  0.00     0.031 A 
ATOM     14  C   UNL A   1      42.378  28.898  28.001  1.00  0.00     0.074 A 
ATOM     15  C   UNL A   1      40.216  28.435  29.089  1.00  0.00     0.049 A 
ATOM     16  N   UNL A   1      43.294  29.337  28.801  1.00  0.00    -0.248 NA
ATOM     17  C   UNL A   1      42.589  29.258  26.591  1.00  0.00     0.031 C 
ATOM     18  C   UNL A   1      38.906  27.817  29.288  1.00  0.00     0.029 A 
ATOM     19  N   UNL A   1      40.117  29.602  29.791  1.00  0.00    -0.354 N 
ATOM     20  C   UNL A   1      44.112  30.164  28.035  1.00  0.00     0.074 A 
ATOM     21  C   UNL A   1      43.712  29.975  26.665  1.00  0.00     0.031 C 
ATOM     22  C   UNL A   1      38.079  28.709  29.884  1.00  0.00     0.029 A 
ATOM     23  C   UNL A   1      38.834  29.903  30.230  1.00  0.00     0.049 A 
ATOM     24  H   UNL A   1      40.892  30.182  29.972  1.00  0.00     0.167 HD
ATOM     25  C   UNL A   1      44.914  31.095  28.621  1.00  0.00     0.037 A 
ATOM     26  C   UNL A   1      38.420  31.067  30.792  1.00  0.00     0.037 A 
ATOM     27  C   UNL A   1      45.111  30.810  30.018  1.00  0.00     0.049 A 
ATOM     28  C   UNL A   1      39.616  31.768  31.318  1.00  0.00     0.074 A 
ATOM     29  C   UNL A   1      45.658  29.763  30.735  1.00  0.00     0.029 A 
ATOM     30  N   UNL A   1      44.395  31.545  30.928  1.00  0.00    -0.354 N 
ATOM     31  N   UNL A   1      40.297  31.374  32.354  1.00  0.00    -0.248 NA
ATOM     32  C   UNL A   1      40.299  32.704  30.439  1.00  0.00     0.031 C 
ATOM     33  C   UNL A   1      44.849  29.655  31.906  1.00  0.00     0.029 A 
ATOM     34  C   UNL A   1      43.900  30.675  31.861  1.00  0.00     0.049 A 
ATOM     35  H   UNL A   1      44.261  32.521  30.912  1.00  0.00     0.167 HD
ATOM     36  C   UNL A   1      41.615  31.629  32.016  1.00  0.00     0.074 A 
ATOM     37  C   UNL A   1      41.547  32.548  30.884  1.00  0.00     0.031 C 
ATOM     38  C   UNL A   1      42.622  30.849  32.506  1.00  0.00     0.037 A 
BRANCH  25  39
ATOM     39  C   UNL A   1      45.205  32.459  28.040  1.00  0.00     0.064 A 
ATOM     40  C   UNL A   1      44.134  33.352  27.823  1.00  0.00     0.173 A 
ATOM     41  C   UNL A   1      46.413  32.790  27.391  1.00  0.00     0.173 A 
ATOM     42  F   UNL A   1      42.933  33.129  28.378  1.00  0.00    -0.203 F 
ATOM     43  C   UNL A   1      44.240  34.432  26.943  1.00  0.00     0.198 A 
ATOM     44  C   UNL A   1      46.530  33.900  26.556  1.00  0.00     0.198 A 
ATOM     45  F   UNL A   1      47.490  31.997  27.440  1.00  0.00    -0.203 F 
ATOM     46  F   UNL A   1      43.156  35.166  26.657  1.00  0.00    -0.200 F 
ATOM     47  C   UNL A   1      45.436  34.699  26.303  1.00  0.00     0.200 A 
ATOM     48  F   UNL A   1      47.692  34.132  25.929  1.00  0.00    -0.200 F 
ATOM     49  F   UNL A   1      45.521  35.689  25.405  1.00  0.00    -0.200 F 
ENDBRANCH  25  39
BRANCH  26  50
ATOM     50  C   UNL A   1      37.112  31.757  30.682  1.00  0.00     0.064 A 
ATOM     51  C   UNL A   1      36.207  31.773  31.758  1.00  0.00     0.173 A 
ATOM     52  C   UNL A   1      36.860  32.668  29.639  1.00  0.00     0.173 A 
ATOM     53  F   UNL A   1      36.396  30.968  32.813  1.00  0.00    -0.203 F 
ATOM     54  C   UNL A   1      35.138  32.675  31.806  1.00  0.00     0.198 A 
ATOM     55  C   UNL A   1      35.790  33.562  29.685  1.00  0.00     0.198 A 
ATOM     56  F   UNL A   1      37.707  32.779  28.606  1.00  0.00    -0.203 F 
ATOM     57  F   UNL A   1      34.340  32.710  32.883  1.00  0.00    -0.200 F 
ATOM     58  C   UNL A   1      34.939  33.577  30.775  1.00  0.00     0.200 A 
ATOM     59  F   UNL A   1      35.629  34.456  28.699  1.00  0.00    -0.200 F 
ATOM     60  F   UNL A   1      33.958  34.487  30.852  1.00  0.00    -0.200 F 
ENDBRANCH  26  50
BRANCH  38  61
ATOM     61  C   UNL A   1      42.308  29.944  33.662  1.00  0.00     0.064 A 
ATOM     62  C   UNL A   1      41.816  28.631  33.538  1.00  0.00     0.173 A 
ATOM     63  C   UNL A   1      42.625  30.395  34.951  1.00  0.00     0.173 A 
ATOM     64  F   UNL A   1      41.589  28.085  32.336  1.00  0.00    -0.203 F 
ATOM     65  C   UNL A   1      41.597  27.837  34.663  1.00  0.00     0.198 A 
ATOM     66  C   UNL A   1      42.446  29.583  36.066  1.00  0.00     0.198 A 
ATOM     67  F   UNL A   1      43.149  31.618  35.126  1.00  0.00    -0.203 F 
ATOM     68  F   UNL A   1      41.103  26.597  34.524  1.00  0.00    -0.200 F 
ATOM     69  C   UNL A   1      41.918  28.311  35.924  1.00  0.00     0.200 A 
ATOM     70  F   UNL A   1      42.808  30.028  37.278  1.00  0.00    -0.200 F 
ATOM     71  F   UNL A   1      41.744  27.533  37.001  1.00  0.00    -0.200 F 
ENDBRANCH  38  61
ENDBRANCH  12  13
ENDBRANCH   5   7
ENDBRANCH   2   3
ENDBRANCH   1   2
BRANCH   1  72
ATOM     72  C   UNL A   1      37.799  23.440  25.941  1.00  0.00     0.023 C 
BRANCH  72  73
ATOM     73  C   UNL A   1      36.290  23.532  25.723  1.00  0.00     0.116 C 
BRANCH  73  74
ATOM     74  N   UNL A   1      35.577  22.777  26.735  1.00  0.00    -0.354 N 
ATOM     75  C   UNL A   1      34.595  21.848  26.610  1.00  0.00     0.243 C 
ATOM     76  H   UNL A   1      35.848  22.970  27.662  1.00  0.00     0.163 HD
ATOM     77  O   UNL A   1      34.003  21.524  27.644  1.00  0.00    -0.273 OA
BRANCH  75  78
ATOM     78  C   UNL A   1      34.139  21.306  25.246  1.00  0.00     0.181 C 
ATOM     79  C   UNL A   1      34.553  19.785  25.288  1.00  0.00     0.091 C 
ATOM     80  N   UNL A   1      32.726  21.577  24.755  1.00  0.00    -0.320 N 
ATOM     81  C   UNL A   1      33.776  18.991  24.321  1.00  0.00     0.042 A 
ATOM     82  C   UNL A   1      32.338  20.884  23.497  1.00  0.00     0.178 C 
ATOM     83  N   UNL A   1      33.832  17.648  24.085  1.00  0.00    -0.348 N 
ATOM     84  C   UNL A   1      32.776  19.472  23.520  1.00  0.00     0.081 A 
ATOM     85  C   UNL A   1      32.893  17.381  23.122  1.00  0.00     0.197 A 
ATOM     86  H   UNL A   1      34.430  16.998  24.519  1.00  0.00     0.167 HD
ATOM     87  N   UNL A   1      32.243  18.467  22.760  1.00  0.00    -0.240 NA
BRANCH  80  88
ATOM     88  C   UNL A   1      31.971  22.752  24.943  1.00  0.00     0.256 C 
ATOM     89  O   UNL A   1      30.789  22.742  25.290  1.00  0.00    -0.269 OA
BRANCH  88  90
ATOM     90  C   UNL A   1      32.570  24.090  24.900  1.00  0.00     0.061 A 
ATOM     91  C   UNL A   1      32.537  24.824  26.095  1.00  0.00     0.035 A 
ATOM     92  C   UNL A   1      33.052  24.682  23.740  1.00  0.00     0.072 A 
ATOM     93  C   UNL A   1      33.130  26.072  26.115  1.00  0.00     0.112 A 
ATOM     94  C   UNL A   1      33.659  25.921  23.875  1.00  0.00     0.132 A 
ATOM     95  Cl  UNL A   1      32.893  23.971  22.183  1.00  0.00    -0.082 Cl
ATOM     96  N   UNL A   1      33.738  26.614  25.042  1.00  0.00    -0.263 NA
ENDBRANCH  88  90
ENDBRANCH  80  88
ENDBRANCH  75  78
ENDBRANCH  73  74
ENDBRANCH  72  73
ENDBRANCH   1  72
TORSDOF 13
ENDMDL
