MODEL 1
REMARK VINA RESULT:     -13.4      0.000      0.000
REMARK SMILES CCCn1nc(C(=O)NCCCCNC(=O)c2ccc(-c3c4nc(c(-c5c(F)c(F)c(F)c(F)c5F)c5ccc([nH]5)c(-c5c(F)c(F)c(F)c(F)c5F)c5nc(c(-c6c(F)c(F)c(F)c(F)c6F)c6ccc3[nH]6)C=C5)C=C4)cc2)c2c1CC[C@@H]([NH+]1CC[NH+](Cc3ccccn3)CC1)C2
REMARK SMILES IDX 11 1 10 2 9 3 7 4 8 5 6 7 4 8 5 9 81 10 80 11 82 12 98 13
REMARK SMILES IDX 83 14 84 15 3 16 2 17 1 18 85 19 86 20 97 21 87 23 96 24
REMARK SMILES IDX 88 25 89 27 90 28 91 29 95 30 92 31 94 32 93 33 12 34 13 35
REMARK SMILES IDX 14 36 15 37 16 39 17 40 18 41 79 42 19 43 78 44 20 45 21 46
REMARK SMILES IDX 22 47 72 48 23 49 77 50 71 51 73 52 24 53 76 54 70 55 69 56
REMARK SMILES IDX 25 58 57 59 37 60 56 61 38 62 41 63 55 64 74 65 39 66 40 67
REMARK SMILES IDX 54 69 75 70 42 71 26 72 27 73 35 74 28 75 29 76 33 77 36 78
REMARK SMILES IDX 30 79 31 80 34 81 32 82 58 83 59 84 67 85 60 86 61 87 65 88
REMARK SMILES IDX 68 89 62 90 63 91 66 92 64 93 43 94 44 95 52 96 45 97 46 98
REMARK SMILES IDX 50 99 53 100 47 101 48 102 51 103 49 104
REMARK H PARENT 9 6 85 22 88 26 14 38 73 57 41 68
REMARK Flexibility Score: inf
ROOT
ATOM      1  C   UNL A   1      40.012  19.568  25.840  1.00  0.00     0.023 C 
ENDROOT
BRANCH   1   2
ATOM      2  C   UNL A   1      38.655  19.966  25.222  1.00  0.00     0.116 C 
BRANCH   2   3
ATOM      3  N   UNL A   1      38.265  21.346  25.499  1.00  0.00    -0.351 N 
ATOM      4  C   UNL A   1      37.100  22.096  25.509  1.00  0.00     0.272 C 
ATOM      5  O   UNL A   1      37.240  23.185  26.084  1.00  0.00    -0.267 OA
ATOM      6  H   UNL A   1      39.044  21.895  25.746  1.00  0.00     0.163 HD
BRANCH   4   7
ATOM      7  C   UNL A   1      35.794  21.729  24.884  1.00  0.00     0.153 A 
ATOM      8  N   UNL A   1      34.005  20.509  24.645  1.00  0.00    -0.269 N 
ATOM      9  N   UNL A   1      35.260  20.511  25.151  1.00  0.00    -0.167 NA
ATOM     10  C   UNL A   1      33.741  21.657  23.962  1.00  0.00     0.043 A 
ATOM     11  C   UNL A   1      34.858  22.456  24.102  1.00  0.00     0.012 A 
ATOM     12  C   UNL A   1      32.470  22.090  23.327  1.00  0.00     0.062 C 
ATOM     13  C   UNL A   1      34.887  23.844  23.609  1.00  0.00     0.105 C 
ATOM     14  C   UNL A   1      32.717  23.321  22.453  1.00  0.00     0.072 C 
ATOM     15  C   UNL A   1      33.550  24.420  23.121  1.00  0.00     0.189 C 
BRANCH   8  16
ATOM     16  C   UNL A   1      33.125  19.427  25.064  1.00  0.00     0.144 C 
BRANCH  16  17
ATOM     17  C   UNL A   1      33.048  18.140  24.236  1.00  0.00     0.020 C 
ATOM     18  C   UNL A   1      32.442  18.334  22.853  1.00  0.00     0.006 C 
ENDBRANCH  16  17
ENDBRANCH   8  16
BRANCH  15  19
ATOM     19  N   UNL A   1      32.894  25.252  24.130  1.00  0.00    -0.323 N 
ATOM     20  C   UNL A   1      31.474  25.142  24.422  1.00  0.00     0.324 C 
ATOM     21  C   UNL A   1      33.485  26.569  24.355  1.00  0.00     0.324 C 
ATOM     22  H   UNL A   1      33.178  24.658  24.910  1.00  0.00     0.348 HD
ATOM     23  C   UNL A   1      30.591  26.343  24.007  1.00  0.00     0.324 C 
ATOM     24  C   UNL A   1      32.495  27.680  24.766  1.00  0.00     0.324 C 
ATOM     25  N   UNL A   1      31.203  27.668  24.082  1.00  0.00    -0.321 N 
ATOM     26  H   UNL A   1      30.592  28.186  24.714  1.00  0.00     0.348 HD
BRANCH  25  27
ATOM     27  C   UNL A   1      31.096  28.498  22.874  1.00  0.00     0.319 C 
BRANCH  27  28
ATOM     28  C   UNL A   1      29.955  29.499  22.753  1.00  0.00     0.095 A 
ATOM     29  C   UNL A   1      29.716  30.435  23.761  1.00  0.00     0.030 A 
ATOM     30  N   UNL A   1      29.226  29.491  21.605  1.00  0.00    -0.255 NA
ATOM     31  C   UNL A   1      28.675  31.353  23.608  1.00  0.00     0.004 A 
ATOM     32  C   UNL A   1      28.217  30.385  21.486  1.00  0.00     0.111 A 
ATOM     33  C   UNL A   1      27.901  31.322  22.454  1.00  0.00     0.020 A 
ENDBRANCH  27  28
ENDBRANCH  25  27
ENDBRANCH  15  19
ENDBRANCH   4   7
ENDBRANCH   2   3
ENDBRANCH   1   2
BRANCH   1  34
ATOM     34  C   UNL A   1      40.759  20.623  26.661  1.00  0.00     0.023 C 
BRANCH  34  35
ATOM     35  C   UNL A   1      42.100  20.152  27.216  1.00  0.00     0.116 C 
BRANCH  35  36
ATOM     36  N   UNL A   1      43.029  19.671  26.189  1.00  0.00    -0.352 N 
ATOM     37  C   UNL A   1      43.718  20.441  25.272  1.00  0.00     0.251 C 
ATOM     38  H   UNL A   1      43.178  18.698  26.150  1.00  0.00     0.163 HD
ATOM     39  O   UNL A   1      44.177  19.974  24.236  1.00  0.00    -0.269 OA
BRANCH  37  40
ATOM     40  C   UNL A   1      43.888  21.865  25.588  1.00  0.00     0.039 A 
ATOM     41  C   UNL A   1      43.047  22.826  25.024  1.00  0.00     0.014 A 
ATOM     42  C   UNL A   1      44.794  22.188  26.596  1.00  0.00     0.014 A 
ATOM     43  C   UNL A   1      43.043  24.111  25.563  1.00  0.00     0.010 A 
ATOM     44  C   UNL A   1      44.724  23.437  27.180  1.00  0.00     0.010 A 
ATOM     45  C   UNL A   1      43.853  24.410  26.671  1.00  0.00    -0.014 A 
BRANCH  45  46
ATOM     46  C   UNL A   1      43.687  25.688  27.376  1.00  0.00     0.031 A 
ATOM     47  C   UNL A   1      44.631  26.802  27.030  1.00  0.00     0.074 A 
ATOM     48  C   UNL A   1      42.597  25.987  28.114  1.00  0.00     0.049 A 
ATOM     49  N   UNL A   1      45.344  27.528  27.834  1.00  0.00    -0.248 NA
ATOM     50  C   UNL A   1      44.801  27.157  25.612  1.00  0.00     0.031 C 
ATOM     51  C   UNL A   1      41.396  25.176  28.333  1.00  0.00     0.029 A 
ATOM     52  N   UNL A   1      42.285  27.169  28.722  1.00  0.00    -0.354 N 
ATOM     53  C   UNL A   1      45.955  28.512  27.054  1.00  0.00     0.074 A 
ATOM     54  C   UNL A   1      45.643  28.190  25.684  1.00  0.00     0.031 C 
ATOM     55  C   UNL A   1      40.407  25.963  28.807  1.00  0.00     0.029 A 
ATOM     56  C   UNL A   1      40.951  27.280  29.080  1.00  0.00     0.049 A 
ATOM     57  H   UNL A   1      42.947  27.878  28.889  1.00  0.00     0.167 HD
ATOM     58  C   UNL A   1      46.556  29.610  27.602  1.00  0.00     0.037 A 
ATOM     59  C   UNL A   1      40.318  28.382  29.545  1.00  0.00     0.037 A 
ATOM     60  C   UNL A   1      46.835  29.423  29.000  1.00  0.00     0.049 A 
ATOM     61  C   UNL A   1      41.345  29.299  30.087  1.00  0.00     0.074 A 
ATOM     62  C   UNL A   1      47.583  28.522  29.733  1.00  0.00     0.029 A 
ATOM     63  N   UNL A   1      46.063  30.080  29.925  1.00  0.00    -0.354 N 
ATOM     64  N   UNL A   1      42.035  29.069  31.168  1.00  0.00    -0.248 NA
ATOM     65  C   UNL A   1      41.883  30.329  29.211  1.00  0.00     0.031 C 
ATOM     66  C   UNL A   1      46.846  28.327  30.939  1.00  0.00     0.029 A 
ATOM     67  C   UNL A   1      45.721  29.148  30.869  1.00  0.00     0.049 A 
ATOM     68  H   UNL A   1      45.806  31.030  29.912  1.00  0.00     0.167 HD
ATOM     69  C   UNL A   1      43.288  29.597  30.903  1.00  0.00     0.074 A 
ATOM     70  C   UNL A   1      43.097  30.467  29.748  1.00  0.00     0.031 C 
ATOM     71  C   UNL A   1      44.412  29.061  31.464  1.00  0.00     0.037 A 
BRANCH  58  72
ATOM     72  C   UNL A   1      46.656  30.972  26.957  1.00  0.00     0.064 A 
ATOM     73  C   UNL A   1      47.901  31.640  26.922  1.00  0.00     0.173 A 
ATOM     74  C   UNL A   1      45.535  31.768  26.648  1.00  0.00     0.173 A 
ATOM     75  F   UNL A   1      49.036  30.987  27.217  1.00  0.00    -0.203 F 
ATOM     76  C   UNL A   1      48.002  33.012  26.677  1.00  0.00     0.198 A 
ATOM     77  C   UNL A   1      45.645  33.128  26.351  1.00  0.00     0.198 A 
ATOM     78  F   UNL A   1      44.287  31.289  26.730  1.00  0.00    -0.203 F 
ATOM     79  F   UNL A   1      49.191  33.623  26.779  1.00  0.00    -0.200 F 
ATOM     80  C   UNL A   1      46.873  33.758  26.397  1.00  0.00     0.200 A 
ATOM     81  F   UNL A   1      44.537  33.840  26.098  1.00  0.00    -0.200 F 
ATOM     82  F   UNL A   1      46.957  35.082  26.222  1.00  0.00    -0.200 F 
ENDBRANCH  58  72
BRANCH  59  83
ATOM     83  C   UNL A   1      38.900  28.760  29.386  1.00  0.00     0.064 A 
ATOM     84  C   UNL A   1      38.066  28.940  30.498  1.00  0.00     0.173 A 
ATOM     85  C   UNL A   1      38.396  29.191  28.143  1.00  0.00     0.173 A 
ATOM     86  F   UNL A   1      38.489  28.596  31.723  1.00  0.00    -0.203 F 
ATOM     87  C   UNL A   1      36.806  29.533  30.377  1.00  0.00     0.198 A 
ATOM     88  C   UNL A   1      37.134  29.772  28.021  1.00  0.00     0.198 A 
ATOM     89  F   UNL A   1      39.154  29.138  27.037  1.00  0.00    -0.203 F 
ATOM     90  F   UNL A   1      36.060  29.741  31.471  1.00  0.00    -0.200 F 
ATOM     91  C   UNL A   1      36.344  29.954  29.141  1.00  0.00     0.200 A 
ATOM     92  F   UNL A   1      36.713  30.202  26.825  1.00  0.00    -0.200 F 
ATOM     93  F   UNL A   1      35.159  30.569  29.034  1.00  0.00    -0.200 F 
ENDBRANCH  59  83
BRANCH  71  94
ATOM     94  C   UNL A   1      44.239  28.086  32.593  1.00  0.00     0.064 A 
ATOM     95  C   UNL A   1      44.077  26.702  32.413  1.00  0.00     0.173 A 
ATOM     96  C   UNL A   1      44.378  28.552  33.907  1.00  0.00     0.173 A 
ATOM     97  F   UNL A   1      44.053  26.163  31.188  1.00  0.00    -0.203 F 
ATOM     98  C   UNL A   1      43.994  25.835  33.499  1.00  0.00     0.198 A 
ATOM     99  C   UNL A   1      44.334  27.679  34.990  1.00  0.00     0.198 A 
ATOM    100  F   UNL A   1      44.601  29.856  34.139  1.00  0.00    -0.203 F 
ATOM    101  F   UNL A   1      43.817  24.521  33.299  1.00  0.00    -0.200 F 
ATOM    102  C   UNL A   1      44.128  26.323  34.787  1.00  0.00     0.200 A 
ATOM    103  F   UNL A   1      44.517  28.148  36.232  1.00  0.00    -0.200 F 
ATOM    104  F   UNL A   1      44.085  25.485  35.832  1.00  0.00    -0.200 F 
ENDBRANCH  71  94
ENDBRANCH  45  46
ENDBRANCH  37  40
ENDBRANCH  35  36
ENDBRANCH  34  35
ENDBRANCH   1  34
TORSDOF 16
ENDMDL
MODEL 2
REMARK VINA RESULT:     -12.8      2.985      9.446
REMARK SMILES CCCn1nc(C(=O)NCCCCNC(=O)c2ccc(-c3c4nc(c(-c5c(F)c(F)c(F)c(F)c5F)c5ccc([nH]5)c(-c5c(F)c(F)c(F)c(F)c5F)c5nc(c(-c6c(F)c(F)c(F)c(F)c6F)c6ccc3[nH]6)C=C5)C=C4)cc2)c2c1CC[C@@H]([NH+]1CC[NH+](Cc3ccccn3)CC1)C2
REMARK SMILES IDX 11 1 10 2 9 3 7 4 8 5 6 7 4 8 5 9 81 10 80 11 82 12 98 13
REMARK SMILES IDX 83 14 84 15 3 16 2 17 1 18 85 19 86 20 97 21 87 23 96 24
REMARK SMILES IDX 88 25 89 27 90 28 91 29 95 30 92 31 94 32 93 33 12 34 13 35
REMARK SMILES IDX 14 36 15 37 16 39 17 40 18 41 79 42 19 43 78 44 20 45 21 46
REMARK SMILES IDX 22 47 72 48 23 49 77 50 71 51 73 52 24 53 76 54 70 55 69 56
REMARK SMILES IDX 25 58 57 59 37 60 56 61 38 62 41 63 55 64 74 65 39 66 40 67
REMARK SMILES IDX 54 69 75 70 42 71 26 72 27 73 35 74 28 75 29 76 33 77 36 78
REMARK SMILES IDX 30 79 31 80 34 81 32 82 58 83 59 84 67 85 60 86 61 87 65 88
REMARK SMILES IDX 68 89 62 90 63 91 66 92 64 93 43 94 44 95 52 96 45 97 46 98
REMARK SMILES IDX 50 99 53 100 47 101 48 102 51 103 49 104
REMARK H PARENT 9 6 85 22 88 26 14 38 73 57 41 68
REMARK Flexibility Score: inf
ROOT
ATOM      1  C   UNL A   1      32.605  33.255  27.520  1.00  0.00     0.023 C 
ENDROOT
BRANCH   1   2
ATOM      2  C   UNL A   1      31.945  31.956  27.010  1.00  0.00     0.116 C 
BRANCH   2   3
ATOM      3  N   UNL A   1      32.889  30.865  26.788  1.00  0.00    -0.351 N 
ATOM      4  C   UNL A   1      32.946  29.700  26.040  1.00  0.00     0.272 C 
ATOM      5  O   UNL A   1      34.091  29.232  25.975  1.00  0.00    -0.267 OA
ATOM      6  H   UNL A   1      33.711  30.990  27.315  1.00  0.00     0.163 HD
BRANCH   4   7
ATOM      7  C   UNL A   1      31.800  28.997  25.389  1.00  0.00     0.153 A 
ATOM      8  N   UNL A   1      30.200  28.788  23.926  1.00  0.00    -0.269 N 
ATOM      9  N   UNL A   1      31.016  29.686  24.523  1.00  0.00    -0.167 NA
ATOM     10  C   UNL A   1      30.357  27.543  24.454  1.00  0.00     0.043 A 
ATOM     11  C   UNL A   1      31.373  27.643  25.383  1.00  0.00     0.012 A 
ATOM     12  C   UNL A   1      29.720  26.268  24.037  1.00  0.00     0.062 C 
ATOM     13  C   UNL A   1      31.921  26.457  26.066  1.00  0.00     0.105 C 
ATOM     14  C   UNL A   1      29.991  25.183  25.081  1.00  0.00     0.072 C 
ATOM     15  C   UNL A   1      31.449  25.093  25.543  1.00  0.00     0.189 C 
BRANCH   8  16
ATOM     16  C   UNL A   1      29.475  29.235  22.745  1.00  0.00     0.144 C 
BRANCH  16  17
ATOM     17  C   UNL A   1      27.991  29.602  22.851  1.00  0.00     0.020 C 
ATOM     18  C   UNL A   1      27.741  30.990  23.422  1.00  0.00     0.006 C 
ENDBRANCH  16  17
ENDBRANCH   8  16
BRANCH  15  19
ATOM     19  N   UNL A   1      32.414  24.476  24.632  1.00  0.00    -0.323 N 
ATOM     20  C   UNL A   1      32.003  23.621  23.531  1.00  0.00     0.324 C 
ATOM     21  C   UNL A   1      33.732  24.192  25.196  1.00  0.00     0.324 C 
ATOM     22  H   UNL A   1      32.508  25.309  24.051  1.00  0.00     0.348 HD
ATOM     23  C   UNL A   1      32.361  22.121  23.654  1.00  0.00     0.324 C 
ATOM     24  C   UNL A   1      34.452  22.958  24.611  1.00  0.00     0.324 C 
ATOM     25  N   UNL A   1      33.608  21.795  24.343  1.00  0.00    -0.321 N 
ATOM     26  H   UNL A   1      34.140  21.265  23.653  1.00  0.00     0.348 HD
BRANCH  25  27
ATOM     27  C   UNL A   1      33.509  20.798  25.418  1.00  0.00     0.319 C 
BRANCH  27  28
ATOM     28  C   UNL A   1      33.484  19.317  25.066  1.00  0.00     0.095 A 
ATOM     29  C   UNL A   1      34.593  18.703  24.479  1.00  0.00     0.030 A 
ATOM     30  N   UNL A   1      32.376  18.605  25.403  1.00  0.00    -0.255 NA
ATOM     31  C   UNL A   1      34.543  17.338  24.189  1.00  0.00     0.004 A 
ATOM     32  C   UNL A   1      32.350  17.287  25.102  1.00  0.00     0.111 A 
ATOM     33  C   UNL A   1      33.396  16.616  24.494  1.00  0.00     0.020 A 
ENDBRANCH  27  28
ENDBRANCH  25  27
ENDBRANCH  15  19
ENDBRANCH   4   7
ENDBRANCH   2   3
ENDBRANCH   1   2
BRANCH   1  34
ATOM     34  C   UNL A   1      34.080  33.193  27.924  1.00  0.00     0.023 C 
BRANCH  34  35
ATOM     35  C   UNL A   1      34.501  34.263  28.928  1.00  0.00     0.116 C 
BRANCH  35  36
ATOM     36  N   UNL A   1      34.187  33.924  30.319  1.00  0.00    -0.352 N 
ATOM     37  C   UNL A   1      34.726  32.889  31.059  1.00  0.00     0.251 C 
ATOM     38  H   UNL A   1      33.524  34.492  30.774  1.00  0.00     0.163 HD
ATOM     39  O   UNL A   1      34.176  32.440  32.059  1.00  0.00    -0.269 OA
BRANCH  37  40
ATOM     40  C   UNL A   1      36.006  32.335  30.601  1.00  0.00     0.039 A 
ATOM     41  C   UNL A   1      37.188  33.066  30.732  1.00  0.00     0.014 A 
ATOM     42  C   UNL A   1      36.014  31.000  30.200  1.00  0.00     0.014 A 
ATOM     43  C   UNL A   1      38.405  32.407  30.564  1.00  0.00     0.010 A 
ATOM     44  C   UNL A   1      37.220  30.335  30.118  1.00  0.00     0.010 A 
ATOM     45  C   UNL A   1      38.425  31.028  30.296  1.00  0.00    -0.014 A 
BRANCH  45  46
ATOM     46  C   UNL A   1      39.695  30.292  30.339  1.00  0.00     0.031 A 
ATOM     47  C   UNL A   1      40.320  30.059  31.684  1.00  0.00     0.074 A 
ATOM     48  C   UNL A   1      40.189  29.609  29.285  1.00  0.00     0.049 A 
ATOM     49  N   UNL A   1      41.536  30.310  32.057  1.00  0.00    -0.248 NA
ATOM     50  C   UNL A   1      39.489  29.469  32.745  1.00  0.00     0.031 C 
ATOM     51  C   UNL A   1      39.590  29.426  27.959  1.00  0.00     0.029 A 
ATOM     52  N   UNL A   1      41.293  28.808  29.236  1.00  0.00    -0.354 N 
ATOM     53  C   UNL A   1      41.674  29.800  33.351  1.00  0.00     0.074 A 
ATOM     54  C   UNL A   1      40.361  29.359  33.751  1.00  0.00     0.031 C 
ATOM     55  C   UNL A   1      40.197  28.396  27.334  1.00  0.00     0.029 A 
ATOM     56  C   UNL A   1      41.326  27.964  28.138  1.00  0.00     0.049 A 
ATOM     57  H   UNL A   1      42.000  28.827  29.920  1.00  0.00     0.167 HD
ATOM     58  C   UNL A   1      42.892  29.643  33.948  1.00  0.00     0.037 A 
ATOM     59  C   UNL A   1      42.198  26.956  27.907  1.00  0.00     0.037 A 
ATOM     60  C   UNL A   1      43.912  30.412  33.289  1.00  0.00     0.049 A 
ATOM     61  C   UNL A   1      43.402  27.201  28.732  1.00  0.00     0.074 A 
ATOM     62  C   UNL A   1      44.103  31.755  33.023  1.00  0.00     0.029 A 
ATOM     63  N   UNL A   1      44.837  29.761  32.511  1.00  0.00    -0.354 N 
ATOM     64  N   UNL A   1      44.249  28.170  28.522  1.00  0.00    -0.248 NA
ATOM     65  C   UNL A   1      43.477  26.580  30.046  1.00  0.00     0.031 C 
ATOM     66  C   UNL A   1      44.738  31.791  31.746  1.00  0.00     0.029 A 
ATOM     67  C   UNL A   1      44.918  30.470  31.341  1.00  0.00     0.049 A 
ATOM     68  H   UNL A   1      45.340  28.949  32.746  1.00  0.00     0.167 HD
ATOM     69  C   UNL A   1      44.653  28.561  29.788  1.00  0.00     0.074 A 
ATOM     70  C   UNL A   1      44.251  27.471  30.670  1.00  0.00     0.031 C 
ATOM     71  C   UNL A   1      45.018  29.853  30.043  1.00  0.00     0.037 A 
BRANCH  58  72
ATOM     72  C   UNL A   1      43.244  28.584  34.967  1.00  0.00     0.064 A 
ATOM     73  C   UNL A   1      43.818  28.963  36.201  1.00  0.00     0.173 A 
ATOM     74  C   UNL A   1      43.320  27.210  34.662  1.00  0.00     0.173 A 
ATOM     75  F   UNL A   1      43.821  30.248  36.587  1.00  0.00    -0.203 F 
ATOM     76  C   UNL A   1      44.485  28.050  37.022  1.00  0.00     0.198 A 
ATOM     77  C   UNL A   1      43.940  26.291  35.510  1.00  0.00     0.198 A 
ATOM     78  F   UNL A   1      42.897  26.725  33.487  1.00  0.00    -0.203 F 
ATOM     79  F   UNL A   1      45.122  28.481  38.119  1.00  0.00    -0.200 F 
ATOM     80  C   UNL A   1      44.551  26.714  36.673  1.00  0.00     0.200 A 
ATOM     81  F   UNL A   1      44.009  25.002  35.148  1.00  0.00    -0.200 F 
ATOM     82  F   UNL A   1      45.240  25.848  37.426  1.00  0.00    -0.200 F 
ENDBRANCH  58  72
BRANCH  59  83
ATOM     83  C   UNL A   1      41.978  25.707  27.152  1.00  0.00     0.064 A 
ATOM     84  C   UNL A   1      42.800  25.354  26.072  1.00  0.00     0.173 A 
ATOM     85  C   UNL A   1      41.102  24.712  27.629  1.00  0.00     0.173 A 
ATOM     86  F   UNL A   1      43.692  26.230  25.588  1.00  0.00    -0.203 F 
ATOM     87  C   UNL A   1      42.761  24.074  25.513  1.00  0.00     0.198 A 
ATOM     88  C   UNL A   1      41.055  23.439  27.062  1.00  0.00     0.198 A 
ATOM     89  F   UNL A   1      40.338  24.929  28.710  1.00  0.00    -0.203 F 
ATOM     90  F   UNL A   1      43.603  23.755  24.520  1.00  0.00    -0.200 F 
ATOM     91  C   UNL A   1      41.894  23.115  26.013  1.00  0.00     0.200 A 
ATOM     92  F   UNL A   1      40.233  22.513  27.575  1.00  0.00    -0.200 F 
ATOM     93  F   UNL A   1      41.894  21.874  25.510  1.00  0.00    -0.200 F 
ENDBRANCH  59  83
BRANCH  71  94
ATOM     94  C   UNL A   1      45.254  30.762  28.871  1.00  0.00     0.064 A 
ATOM     95  C   UNL A   1      44.253  31.553  28.282  1.00  0.00     0.173 A 
ATOM     96  C   UNL A   1      46.567  30.940  28.415  1.00  0.00     0.173 A 
ATOM     97  F   UNL A   1      42.995  31.528  28.738  1.00  0.00    -0.203 F 
ATOM     98  C   UNL A   1      44.544  32.434  27.244  1.00  0.00     0.198 A 
ATOM     99  C   UNL A   1      46.862  31.850  27.404  1.00  0.00     0.198 A 
ATOM    100  F   UNL A   1      47.575  30.260  28.985  1.00  0.00    -0.203 F 
ATOM    101  F   UNL A   1      43.565  33.161  26.685  1.00  0.00    -0.200 F 
ATOM    102  C   UNL A   1      45.849  32.586  26.809  1.00  0.00     0.200 A 
ATOM    103  F   UNL A   1      48.133  32.033  27.022  1.00  0.00    -0.200 F 
ATOM    104  F   UNL A   1      46.136  33.460  25.834  1.00  0.00    -0.200 F 
ENDBRANCH  71  94
ENDBRANCH  45  46
ENDBRANCH  37  40
ENDBRANCH  35  36
ENDBRANCH  34  35
ENDBRANCH   1  34
TORSDOF 16
ENDMDL
MODEL 3
REMARK VINA RESULT:     -12.8      2.442      3.357
REMARK SMILES CCCn1nc(C(=O)NCCCCNC(=O)c2ccc(-c3c4nc(c(-c5c(F)c(F)c(F)c(F)c5F)c5ccc([nH]5)c(-c5c(F)c(F)c(F)c(F)c5F)c5nc(c(-c6c(F)c(F)c(F)c(F)c6F)c6ccc3[nH]6)C=C5)C=C4)cc2)c2c1CC[C@@H]([NH+]1CC[NH+](Cc3ccccn3)CC1)C2
REMARK SMILES IDX 11 1 10 2 9 3 7 4 8 5 6 7 4 8 5 9 81 10 80 11 82 12 98 13
REMARK SMILES IDX 83 14 84 15 3 16 2 17 1 18 85 19 86 20 97 21 87 23 96 24
REMARK SMILES IDX 88 25 89 27 90 28 91 29 95 30 92 31 94 32 93 33 12 34 13 35
REMARK SMILES IDX 14 36 15 37 16 39 17 40 18 41 79 42 19 43 78 44 20 45 21 46
REMARK SMILES IDX 22 47 72 48 23 49 77 50 71 51 73 52 24 53 76 54 70 55 69 56
REMARK SMILES IDX 25 58 57 59 37 60 56 61 38 62 41 63 55 64 74 65 39 66 40 67
REMARK SMILES IDX 54 69 75 70 42 71 26 72 27 73 35 74 28 75 29 76 33 77 36 78
REMARK SMILES IDX 30 79 31 80 34 81 32 82 58 83 59 84 67 85 60 86 61 87 65 88
REMARK SMILES IDX 68 89 62 90 63 91 66 92 64 93 43 94 44 95 52 96 45 97 46 98
REMARK SMILES IDX 50 99 53 100 47 101 48 102 51 103 49 104
REMARK H PARENT 9 6 85 22 88 26 14 38 73 57 41 68
REMARK Flexibility Score: inf
ROOT
ATOM      1  C   UNL A   1      39.189  22.436  26.293  1.00  0.00     0.023 C 
ENDROOT
BRANCH   1   2
ATOM      2  C   UNL A   1      37.709  22.378  25.858  1.00  0.00     0.116 C 
BRANCH   2   3
ATOM      3  N   UNL A   1      37.507  22.600  24.429  1.00  0.00    -0.351 N 
ATOM      4  C   UNL A   1      36.439  22.687  23.550  1.00  0.00     0.272 C 
ATOM      5  O   UNL A   1      36.764  23.166  22.454  1.00  0.00    -0.267 OA
ATOM      6  H   UNL A   1      38.365  22.721  23.961  1.00  0.00     0.163 HD
BRANCH   4   7
ATOM      7  C   UNL A   1      35.037  22.238  23.798  1.00  0.00     0.153 A 
ATOM      8  N   UNL A   1      33.506  21.011  24.745  1.00  0.00    -0.269 N 
ATOM      9  N   UNL A   1      34.830  21.082  24.477  1.00  0.00    -0.167 NA
ATOM     10  C   UNL A   1      32.825  22.039  24.168  1.00  0.00     0.043 A 
ATOM     11  C   UNL A   1      33.773  22.840  23.563  1.00  0.00     0.012 A 
ATOM     12  C   UNL A   1      31.383  22.377  24.278  1.00  0.00     0.062 C 
ATOM     13  C   UNL A   1      33.420  24.132  22.949  1.00  0.00     0.105 C 
ATOM     14  C   UNL A   1      31.019  23.452  23.252  1.00  0.00     0.072 C 
ATOM     15  C   UNL A   1      31.990  24.635  23.197  1.00  0.00     0.189 C 
BRANCH   8  16
ATOM     16  C   UNL A   1      33.081  20.017  25.721  1.00  0.00     0.144 C 
BRANCH  16  17
ATOM     17  C   UNL A   1      33.024  18.537  25.329  1.00  0.00     0.020 C 
ATOM     18  C   UNL A   1      32.399  18.287  23.964  1.00  0.00     0.006 C 
ENDBRANCH  16  17
ENDBRANCH   8  16
BRANCH  15  19
ATOM     19  N   UNL A   1      31.921  25.622  24.275  1.00  0.00    -0.323 N 
ATOM     20  C   UNL A   1      30.660  26.025  24.877  1.00  0.00     0.324 C 
ATOM     21  C   UNL A   1      32.978  26.630  24.286  1.00  0.00     0.324 C 
ATOM     22  H   UNL A   1      32.142  24.946  25.007  1.00  0.00     0.348 HD
ATOM     23  C   UNL A   1      30.195  27.473  24.596  1.00  0.00     0.324 C 
ATOM     24  C   UNL A   1      32.570  28.013  24.839  1.00  0.00     0.324 C 
ATOM     25  N   UNL A   1      31.240  28.486  24.457  1.00  0.00    -0.321 N 
ATOM     26  H   UNL A   1      31.014  29.174  25.176  1.00  0.00     0.348 HD
BRANCH  25  27
ATOM     27  C   UNL A   1      31.167  29.328  23.255  1.00  0.00     0.319 C 
BRANCH  27  28
ATOM     28  C   UNL A   1      29.855  30.017  22.903  1.00  0.00     0.095 A 
ATOM     29  C   UNL A   1      29.284  30.952  23.767  1.00  0.00     0.030 A 
ATOM     30  N   UNL A   1      29.300  29.737  21.693  1.00  0.00    -0.255 NA
ATOM     31  C   UNL A   1      28.092  31.580  23.403  1.00  0.00     0.004 A 
ATOM     32  C   UNL A   1      28.139  30.352  21.369  1.00  0.00     0.111 A 
ATOM     33  C   UNL A   1      27.499  31.267  22.185  1.00  0.00     0.020 A 
ENDBRANCH  27  28
ENDBRANCH  25  27
ENDBRANCH  15  19
ENDBRANCH   4   7
ENDBRANCH   2   3
ENDBRANCH   1   2
BRANCH   1  34
ATOM     34  C   UNL A   1      39.595  23.516  27.299  1.00  0.00     0.023 C 
BRANCH  34  35
ATOM     35  C   UNL A   1      41.035  23.406  27.791  1.00  0.00     0.116 C 
BRANCH  35  36
ATOM     36  N   UNL A   1      41.996  23.069  26.737  1.00  0.00    -0.352 N 
ATOM     37  C   UNL A   1      42.601  23.948  25.859  1.00  0.00     0.251 C 
ATOM     38  H   UNL A   1      42.236  22.119  26.645  1.00  0.00     0.163 HD
ATOM     39  O   UNL A   1      43.093  23.582  24.797  1.00  0.00    -0.269 OA
BRANCH  37  40
ATOM     40  C   UNL A   1      42.637  25.364  26.248  1.00  0.00     0.039 A 
ATOM     41  C   UNL A   1      41.630  26.241  25.844  1.00  0.00     0.014 A 
ATOM     42  C   UNL A   1      43.610  25.744  27.171  1.00  0.00     0.014 A 
ATOM     43  C   UNL A   1      41.536  27.486  26.465  1.00  0.00     0.010 A 
ATOM     44  C   UNL A   1      43.462  26.941  27.840  1.00  0.00     0.010 A 
ATOM     45  C   UNL A   1      42.429  27.823  27.495  1.00  0.00    -0.014 A 
BRANCH  45  46
ATOM     46  C   UNL A   1      42.197  29.032  28.298  1.00  0.00     0.031 A 
ATOM     47  C   UNL A   1      43.165  30.169  28.140  1.00  0.00     0.074 A 
ATOM     48  C   UNL A   1      41.046  29.267  28.961  1.00  0.00     0.049 A 
ATOM     49  N   UNL A   1      43.801  30.814  29.067  1.00  0.00    -0.248 NA
ATOM     50  C   UNL A   1      43.458  30.652  26.782  1.00  0.00     0.031 C 
ATOM     51  C   UNL A   1      39.833  28.445  28.998  1.00  0.00     0.029 A 
ATOM     52  N   UNL A   1      40.677  30.390  29.645  1.00  0.00    -0.354 N 
ATOM     53  C   UNL A   1      44.476  31.863  28.439  1.00  0.00     0.074 A 
ATOM     54  C   UNL A   1      44.287  31.670  27.023  1.00  0.00     0.031 C 
ATOM     55  C   UNL A   1      38.803  29.190  29.452  1.00  0.00     0.029 A 
ATOM     56  C   UNL A   1      39.316  30.474  29.893  1.00  0.00     0.049 A 
ATOM     57  H   UNL A   1      41.319  31.077  29.935  1.00  0.00     0.167 HD
ATOM     58  C   UNL A   1      45.022  32.903  29.136  1.00  0.00     0.037 A 
ATOM     59  C   UNL A   1      38.641  31.531  30.399  1.00  0.00     0.037 A 
ATOM     60  C   UNL A   1      45.177  32.586  30.530  1.00  0.00     0.049 A 
ATOM     61  C   UNL A   1      39.613  32.390  31.112  1.00  0.00     0.074 A 
ATOM     62  C   UNL A   1      45.860  31.619  31.241  1.00  0.00     0.029 A 
ATOM     63  N   UNL A   1      44.324  33.159  31.440  1.00  0.00    -0.354 N 
ATOM     64  N   UNL A   1      40.206  32.057  32.224  1.00  0.00    -0.248 NA
ATOM     65  C   UNL A   1      40.223  33.493  30.386  1.00  0.00     0.031 C 
ATOM     66  C   UNL A   1      45.021  31.317  32.354  1.00  0.00     0.029 A 
ATOM     67  C   UNL A   1      43.903  32.146  32.260  1.00  0.00     0.049 A 
ATOM     68  H   UNL A   1      44.066  34.108  31.492  1.00  0.00     0.167 HD
ATOM     69  C   UNL A   1      41.475  32.601  32.120  1.00  0.00     0.074 A 
ATOM     70  C   UNL A   1      41.384  33.576  31.039  1.00  0.00     0.031 C 
ATOM     71  C   UNL A   1      42.547  32.011  32.727  1.00  0.00     0.037 A 
BRANCH  58  72
ATOM     72  C   UNL A   1      45.174  34.318  28.631  1.00  0.00     0.064 A 
ATOM     73  C   UNL A   1      44.049  35.006  28.124  1.00  0.00     0.173 A 
ATOM     74  C   UNL A   1      46.422  34.910  28.348  1.00  0.00     0.173 A 
ATOM     75  F   UNL A   1      42.811  34.526  28.316  1.00  0.00    -0.203 F 
ATOM     76  C   UNL A   1      44.173  36.149  27.329  1.00  0.00     0.198 A 
ATOM     77  C   UNL A   1      46.539  36.082  27.598  1.00  0.00     0.198 A 
ATOM     78  F   UNL A   1      47.575  34.320  28.690  1.00  0.00    -0.203 F 
ATOM     79  F   UNL A   1      43.083  36.691  26.767  1.00  0.00    -0.200 F 
ATOM     80  C   UNL A   1      45.418  36.683  27.061  1.00  0.00     0.200 A 
ATOM     81  F   UNL A   1      47.756  36.577  27.334  1.00  0.00    -0.200 F 
ATOM     82  F   UNL A   1      45.545  37.741  26.251  1.00  0.00    -0.200 F 
ENDBRANCH  58  72
BRANCH  59  83
ATOM     83  C   UNL A   1      37.242  31.929  30.152  1.00  0.00     0.064 A 
ATOM     84  C   UNL A   1      36.279  31.882  31.171  1.00  0.00     0.173 A 
ATOM     85  C   UNL A   1      36.873  32.597  28.967  1.00  0.00     0.173 A 
ATOM     86  F   UNL A   1      36.568  31.303  32.345  1.00  0.00    -0.203 F 
ATOM     87  C   UNL A   1      35.027  32.483  31.020  1.00  0.00     0.198 A 
ATOM     88  C   UNL A   1      35.618  33.186  28.813  1.00  0.00     0.198 A 
ATOM     89  F   UNL A   1      37.755  32.767  27.970  1.00  0.00    -0.203 F 
ATOM     90  F   UNL A   1      34.154  32.469  32.037  1.00  0.00    -0.200 F 
ATOM     91  C   UNL A   1      34.700  33.141  29.845  1.00  0.00     0.200 A 
ATOM     92  F   UNL A   1      35.327  33.845  27.683  1.00  0.00    -0.200 F 
ATOM     93  F   UNL A   1      33.519  33.761  29.722  1.00  0.00    -0.200 F 
ENDBRANCH  59  83
BRANCH  71  94
ATOM     94  C   UNL A   1      42.278  30.937  33.741  1.00  0.00     0.064 A 
ATOM     95  C   UNL A   1      42.009  29.598  33.411  1.00  0.00     0.173 A 
ATOM     96  C   UNL A   1      42.432  31.246  35.100  1.00  0.00     0.173 A 
ATOM     97  F   UNL A   1      41.963  29.198  32.134  1.00  0.00    -0.203 F 
ATOM     98  C   UNL A   1      41.839  28.628  34.395  1.00  0.00     0.198 A 
ATOM     99  C   UNL A   1      42.301  30.267  36.081  1.00  0.00     0.198 A 
ATOM    100  F   UNL A   1      42.754  32.494  35.474  1.00  0.00    -0.203 F 
ATOM    101  F   UNL A   1      41.562  27.362  34.051  1.00  0.00    -0.200 F 
ATOM    102  C   UNL A   1      41.990  28.962  35.730  1.00  0.00     0.200 A 
ATOM    103  F   UNL A   1      42.500  30.583  37.368  1.00  0.00    -0.200 F 
ATOM    104  F   UNL A   1      41.863  28.022  36.677  1.00  0.00    -0.200 F 
ENDBRANCH  71  94
ENDBRANCH  45  46
ENDBRANCH  37  40
ENDBRANCH  35  36
ENDBRANCH  34  35
ENDBRANCH   1  34
TORSDOF 16
ENDMDL
