MODEL 1
REMARK VINA RESULT:     -12.1      0.000      0.000
REMARK SMILES CC[C@@H](C(=O)NCCCCNC(=O)c1ccc(-c2c3nc(c(-c4c(F)c(F)c(F)c(F)c4F)c4ccc([nH]4)c(-c4c(F)c(F)c(F)c(F)c4F)c4nc(c(-c5c(F)c(F)c(F)c(F)c5F)c5ccc2[nH]5)C=C4)C=C3)cc1)N1C(=O)/C(=C\c2ccc(C(=O)OC)cc2)SC1=S
REMARK SMILES IDX 7 1 6 2 4 3 5 4 3 6 2 7 1 8 77 9 78 10 93 11 79 12 80 13
REMARK SMILES IDX 92 14 94 15 81 16 82 17 83 18 91 19 84 20 90 21 85 22 86 23
REMARK SMILES IDX 87 24 88 25 89 26 8 27 9 28 10 29 11 30 12 31 13 33 14 34
REMARK SMILES IDX 15 35 76 36 16 37 75 38 17 39 18 40 19 41 69 42 20 43 74 44
REMARK SMILES IDX 68 45 70 46 21 47 73 48 67 49 66 50 22 52 54 53 34 54 53 55
REMARK SMILES IDX 35 56 38 57 52 58 71 59 36 60 37 61 51 63 72 64 39 65 23 66
REMARK SMILES IDX 24 67 32 68 25 69 26 70 30 71 33 72 27 73 28 74 31 75 29 76
REMARK SMILES IDX 55 77 56 78 64 79 57 80 58 81 62 82 65 83 59 84 60 85 63 86
REMARK SMILES IDX 61 87 40 88 41 89 49 90 42 91 43 92 47 93 50 94 44 95 45 96
REMARK SMILES IDX 48 97 46 98
REMARK H PARENT 6 5 11 32 70 51 38 62
REMARK Flexibility Score: inf
ROOT
ATOM      1  C   UNL A   1      37.101  22.500  25.459  1.00  0.00     0.116 C 
ENDROOT
BRANCH   1   2
ATOM      2  N   UNL A   1      36.528  23.087  24.264  1.00  0.00    -0.354 N 
ATOM      3  C   UNL A   1      35.213  23.216  23.912  1.00  0.00     0.243 C 
ATOM      4  O   UNL A   1      34.946  23.347  22.715  1.00  0.00    -0.273 OA
ATOM      5  H   UNL A   1      37.176  23.442  23.614  1.00  0.00     0.163 HD
BRANCH   3   6
ATOM      6  C   UNL A   1      34.112  23.193  24.992  1.00  0.00     0.181 C 
BRANCH   6   7
ATOM      7  C   UNL A   1      33.943  21.691  25.403  1.00  0.00     0.032 C 
ATOM      8  C   UNL A   1      33.776  21.408  26.883  1.00  0.00     0.006 C 
ENDBRANCH   6   7
BRANCH   6   9
ATOM      9  N   UNL A   1      32.809  23.699  24.465  1.00  0.00    -0.280 N 
ATOM     10  C   UNL A   1      32.632  25.068  24.486  1.00  0.00     0.266 C 
ATOM     11  C   UNL A   1      31.948  23.117  23.565  1.00  0.00     0.149 C 
ATOM     12  O   UNL A   1      33.549  25.878  24.538  1.00  0.00    -0.268 OA
ATOM     13  C   UNL A   1      31.206  25.418  24.262  1.00  0.00     0.081 C 
ATOM     14  S   UNL A   1      30.449  24.070  23.508  1.00  0.00    -0.054 SA
ATOM     15  S   UNL A   1      32.175  21.803  22.561  1.00  0.00    -0.052 S 
ATOM     16  C   UNL A   1      30.586  26.557  24.613  1.00  0.00     0.029 C 
BRANCH  16  17
ATOM     17  C   UNL A   1      31.249  27.692  25.270  1.00  0.00    -0.024 A 
ATOM     18  C   UNL A   1      31.591  28.838  24.542  1.00  0.00     0.009 A 
ATOM     19  C   UNL A   1      31.518  27.657  26.643  1.00  0.00     0.009 A 
ATOM     20  C   UNL A   1      32.124  29.956  25.197  1.00  0.00     0.016 A 
ATOM     21  C   UNL A   1      32.021  28.780  27.304  1.00  0.00     0.016 A 
ATOM     22  C   UNL A   1      32.311  29.944  26.586  1.00  0.00     0.060 A 
BRANCH  22  23
ATOM     23  C   UNL A   1      32.795  31.183  27.257  1.00  0.00     0.337 C 
ATOM     24  O   UNL A   1      32.241  32.263  27.168  1.00  0.00    -0.246 OA
BRANCH  23  25
ATOM     25  O   UNL A   1      33.906  30.913  27.993  1.00  0.00    -0.465 OA
ATOM     26  C   UNL A   1      34.602  32.069  28.455  1.00  0.00     0.282 C 
ENDBRANCH  23  25
ENDBRANCH  22  23
ENDBRANCH  16  17
ENDBRANCH   6   9
ENDBRANCH   3   6
ENDBRANCH   1   2
BRANCH   1  27
ATOM     27  C   UNL A   1      37.109  20.974  25.334  1.00  0.00     0.023 C 
BRANCH  27  28
ATOM     28  C   UNL A   1      38.463  20.372  24.977  1.00  0.00     0.023 C 
BRANCH  28  29
ATOM     29  C   UNL A   1      39.458  20.353  26.122  1.00  0.00     0.116 C 
BRANCH  29  30
ATOM     30  N   UNL A   1      40.369  19.216  26.063  1.00  0.00    -0.352 N 
ATOM     31  C   UNL A   1      41.741  19.201  26.132  1.00  0.00     0.251 C 
ATOM     32  H   UNL A   1      39.939  18.336  25.958  1.00  0.00     0.163 HD
ATOM     33  O   UNL A   1      42.366  18.169  25.919  1.00  0.00    -0.269 OA
BRANCH  31  34
ATOM     34  C   UNL A   1      42.457  20.458  26.426  1.00  0.00     0.039 A 
ATOM     35  C   UNL A   1      43.019  21.181  25.372  1.00  0.00     0.014 A 
ATOM     36  C   UNL A   1      42.501  20.955  27.730  1.00  0.00     0.014 A 
ATOM     37  C   UNL A   1      43.538  22.453  25.615  1.00  0.00     0.010 A 
ATOM     38  C   UNL A   1      42.924  22.259  27.952  1.00  0.00     0.010 A 
ATOM     39  C   UNL A   1      43.440  23.023  26.895  1.00  0.00    -0.014 A 
BRANCH  39  40
ATOM     40  C   UNL A   1      43.848  24.427  27.148  1.00  0.00     0.031 A 
ATOM     41  C   UNL A   1      42.835  25.431  27.622  1.00  0.00     0.074 A 
ATOM     42  C   UNL A   1      45.109  24.812  26.872  1.00  0.00     0.049 A 
ATOM     43  N   UNL A   1      42.975  26.717  27.822  1.00  0.00    -0.248 NA
ATOM     44  C   UNL A   1      41.473  24.930  27.871  1.00  0.00     0.031 C 
ATOM     45  C   UNL A   1      46.165  23.943  26.349  1.00  0.00     0.029 A 
ATOM     46  N   UNL A   1      45.716  26.039  26.980  1.00  0.00    -0.354 N 
ATOM     47  C   UNL A   1      41.723  27.176  28.208  1.00  0.00     0.074 A 
ATOM     48  C   UNL A   1      40.820  26.047  28.151  1.00  0.00     0.031 C 
ATOM     49  C   UNL A   1      47.294  24.655  26.210  1.00  0.00     0.029 A 
ATOM     50  C   UNL A   1      47.033  26.039  26.589  1.00  0.00     0.049 A 
ATOM     51  H   UNL A   1      45.250  26.843  27.308  1.00  0.00     0.167 HD
ATOM     52  C   UNL A   1      41.365  28.421  28.599  1.00  0.00     0.037 A 
ATOM     53  C   UNL A   1      47.925  27.047  26.532  1.00  0.00     0.037 A 
ATOM     54  C   UNL A   1      42.274  29.534  28.672  1.00  0.00     0.049 A 
ATOM     55  C   UNL A   1      47.497  28.424  26.959  1.00  0.00     0.074 A 
ATOM     56  C   UNL A   1      42.029  30.820  29.123  1.00  0.00     0.029 A 
ATOM     57  N   UNL A   1      43.604  29.495  28.277  1.00  0.00    -0.354 N 
ATOM     58  N   UNL A   1      46.331  28.829  27.402  1.00  0.00    -0.248 NA
ATOM     59  C   UNL A   1      48.510  29.485  26.881  1.00  0.00     0.031 C 
ATOM     60  C   UNL A   1      43.194  31.573  28.948  1.00  0.00     0.029 A 
ATOM     61  C   UNL A   1      44.183  30.742  28.443  1.00  0.00     0.049 A 
ATOM     62  H   UNL A   1      44.066  28.698  27.931  1.00  0.00     0.167 HD
ATOM     63  C   UNL A   1      46.475  30.183  27.674  1.00  0.00     0.074 A 
ATOM     64  C   UNL A   1      47.850  30.525  27.369  1.00  0.00     0.031 C 
ATOM     65  C   UNL A   1      45.552  31.065  28.130  1.00  0.00     0.037 A 
BRANCH  52  66
ATOM     66  C   UNL A   1      39.931  28.644  28.983  1.00  0.00     0.064 A 
ATOM     67  C   UNL A   1      39.479  28.443  30.297  1.00  0.00     0.173 A 
ATOM     68  C   UNL A   1      39.001  29.097  28.035  1.00  0.00     0.173 A 
ATOM     69  F   UNL A   1      40.324  27.998  31.240  1.00  0.00    -0.203 F 
ATOM     70  C   UNL A   1      38.147  28.657  30.639  1.00  0.00     0.198 A 
ATOM     71  C   UNL A   1      37.676  29.343  28.389  1.00  0.00     0.198 A 
ATOM     72  F   UNL A   1      39.378  29.308  26.765  1.00  0.00    -0.203 F 
ATOM     73  F   UNL A   1      37.729  28.408  31.888  1.00  0.00    -0.200 F 
ATOM     74  C   UNL A   1      37.249  29.115  29.687  1.00  0.00     0.200 A 
ATOM     75  F   UNL A   1      36.813  29.797  27.470  1.00  0.00    -0.200 F 
ATOM     76  F   UNL A   1      35.969  29.330  30.021  1.00  0.00    -0.200 F 
ENDBRANCH  52  66
BRANCH  53  77
ATOM     77  C   UNL A   1      49.314  26.787  26.068  1.00  0.00     0.064 A 
ATOM     78  C   UNL A   1      49.671  26.976  24.726  1.00  0.00     0.173 A 
ATOM     79  C   UNL A   1      50.310  26.341  26.950  1.00  0.00     0.173 A 
ATOM     80  F   UNL A   1      48.751  27.382  23.839  1.00  0.00    -0.203 F 
ATOM     81  C   UNL A   1      50.964  26.708  24.279  1.00  0.00     0.198 A 
ATOM     82  C   UNL A   1      51.609  26.103  26.508  1.00  0.00     0.198 A 
ATOM     83  F   UNL A   1      50.022  26.149  28.246  1.00  0.00    -0.203 F 
ATOM     84  F   UNL A   1      51.265  26.852  22.981  1.00  0.00    -0.200 F 
ATOM     85  C   UNL A   1      51.934  26.278  25.172  1.00  0.00     0.200 A 
ATOM     86  F   UNL A   1      52.547  25.703  27.378  1.00  0.00    -0.200 F 
ATOM     87  F   UNL A   1      53.178  26.025  24.744  1.00  0.00    -0.200 F 
ENDBRANCH  53  77
BRANCH  65  88
ATOM     88  C   UNL A   1      46.005  32.480  28.345  1.00  0.00     0.064 A 
ATOM     89  C   UNL A   1      45.882  33.451  27.341  1.00  0.00     0.173 A 
ATOM     90  C   UNL A   1      46.531  32.878  29.583  1.00  0.00     0.173 A 
ATOM     91  F   UNL A   1      45.399  33.118  26.135  1.00  0.00    -0.203 F 
ATOM     92  C   UNL A   1      46.296  34.763  27.559  1.00  0.00     0.198 A 
ATOM     93  C   UNL A   1      46.913  34.198  29.809  1.00  0.00     0.198 A 
ATOM     94  F   UNL A   1      46.663  31.990  30.580  1.00  0.00    -0.203 F 
ATOM     95  F   UNL A   1      46.218  35.661  26.568  1.00  0.00    -0.200 F 
ATOM     96  C   UNL A   1      46.802  35.137  28.795  1.00  0.00     0.200 A 
ATOM     97  F   UNL A   1      47.387  34.560  31.009  1.00  0.00    -0.200 F 
ATOM     98  F   UNL A   1      47.192  36.401  29.006  1.00  0.00    -0.200 F 
ENDBRANCH  65  88
ENDBRANCH  39  40
ENDBRANCH  31  34
ENDBRANCH  29  30
ENDBRANCH  28  29
ENDBRANCH  27  28
ENDBRANCH   1  27
TORSDOF 16
ENDMDL
MODEL 2
REMARK VINA RESULT:     -12.0      1.417      7.219
REMARK SMILES CC[C@@H](C(=O)NCCCCNC(=O)c1ccc(-c2c3nc(c(-c4c(F)c(F)c(F)c(F)c4F)c4ccc([nH]4)c(-c4c(F)c(F)c(F)c(F)c4F)c4nc(c(-c5c(F)c(F)c(F)c(F)c5F)c5ccc2[nH]5)C=C4)C=C3)cc1)N1C(=O)/C(=C\c2ccc(C(=O)OC)cc2)SC1=S
REMARK SMILES IDX 7 1 6 2 4 3 5 4 3 6 2 7 1 8 77 9 78 10 93 11 79 12 80 13
REMARK SMILES IDX 92 14 94 15 81 16 82 17 83 18 91 19 84 20 90 21 85 22 86 23
REMARK SMILES IDX 87 24 88 25 89 26 8 27 9 28 10 29 11 30 12 31 13 33 14 34
REMARK SMILES IDX 15 35 76 36 16 37 75 38 17 39 18 40 19 41 69 42 20 43 74 44
REMARK SMILES IDX 68 45 70 46 21 47 73 48 67 49 66 50 22 52 54 53 34 54 53 55
REMARK SMILES IDX 35 56 38 57 52 58 71 59 36 60 37 61 51 63 72 64 39 65 23 66
REMARK SMILES IDX 24 67 32 68 25 69 26 70 30 71 33 72 27 73 28 74 31 75 29 76
REMARK SMILES IDX 55 77 56 78 64 79 57 80 58 81 62 82 65 83 59 84 60 85 63 86
REMARK SMILES IDX 61 87 40 88 41 89 49 90 42 91 43 92 47 93 50 94 44 95 45 96
REMARK SMILES IDX 48 97 46 98
REMARK H PARENT 6 5 11 32 70 51 38 62
REMARK Flexibility Score: inf
ROOT
ATOM      1  C   UNL A   1      37.965  23.554  26.265  1.00  0.00     0.116 C 
ENDROOT
BRANCH   1   2
ATOM      2  N   UNL A   1      37.250  23.671  25.009  1.00  0.00    -0.354 N 
ATOM      3  C   UNL A   1      35.948  23.367  24.727  1.00  0.00     0.243 C 
ATOM      4  O   UNL A   1      35.651  23.136  23.552  1.00  0.00    -0.273 OA
ATOM      5  H   UNL A   1      37.777  24.018  24.253  1.00  0.00     0.163 HD
BRANCH   3   6
ATOM      6  C   UNL A   1      34.898  23.315  25.855  1.00  0.00     0.181 C 
BRANCH   6   7
ATOM      7  C   UNL A   1      34.993  21.877  26.468  1.00  0.00     0.032 C 
ATOM      8  C   UNL A   1      34.064  21.571  27.626  1.00  0.00     0.006 C 
ENDBRANCH   6   7
BRANCH   6   9
ATOM      9  N   UNL A   1      33.513  23.527  25.334  1.00  0.00    -0.280 N 
ATOM     10  C   UNL A   1      33.124  24.839  25.150  1.00  0.00     0.266 C 
ATOM     11  C   UNL A   1      32.724  22.682  24.589  1.00  0.00     0.149 C 
ATOM     12  O   UNL A   1      33.903  25.774  25.019  1.00  0.00    -0.268 OA
ATOM     13  C   UNL A   1      31.654  24.929  24.959  1.00  0.00     0.081 C 
ATOM     14  S   UNL A   1      31.093  23.377  24.473  1.00  0.00    -0.054 SA
ATOM     15  S   UNL A   1      33.120  21.270  23.793  1.00  0.00    -0.052 S 
ATOM     16  C   UNL A   1      30.875  26.004  25.163  1.00  0.00     0.029 C 
BRANCH  16  17
ATOM     17  C   UNL A   1      31.373  27.318  25.592  1.00  0.00    -0.024 A 
ATOM     18  C   UNL A   1      31.605  28.334  24.658  1.00  0.00     0.009 A 
ATOM     19  C   UNL A   1      31.592  27.584  26.949  1.00  0.00     0.009 A 
ATOM     20  C   UNL A   1      31.976  29.616  25.087  1.00  0.00     0.016 A 
ATOM     21  C   UNL A   1      31.933  28.867  27.383  1.00  0.00     0.016 A 
ATOM     22  C   UNL A   1      32.111  29.896  26.454  1.00  0.00     0.060 A 
BRANCH  22  23
ATOM     23  C   UNL A   1      32.418  31.292  26.874  1.00  0.00     0.337 C 
ATOM     24  O   UNL A   1      31.603  32.195  26.876  1.00  0.00    -0.246 OA
BRANCH  23  25
ATOM     25  O   UNL A   1      33.714  31.384  27.277  1.00  0.00    -0.465 OA
ATOM     26  C   UNL A   1      33.976  32.461  28.175  1.00  0.00     0.282 C 
ENDBRANCH  23  25
ENDBRANCH  22  23
ENDBRANCH  16  17
ENDBRANCH   6   9
ENDBRANCH   3   6
ENDBRANCH   1   2
BRANCH   1  27
ATOM     27  C   UNL A   1      39.279  22.800  26.044  1.00  0.00     0.023 C 
BRANCH  27  28
ATOM     28  C   UNL A   1      39.116  21.330  25.678  1.00  0.00     0.023 C 
BRANCH  28  29
ATOM     29  C   UNL A   1      39.722  20.366  26.681  1.00  0.00     0.116 C 
BRANCH  29  30
ATOM     30  N   UNL A   1      40.725  19.489  26.090  1.00  0.00    -0.352 N 
ATOM     31  C   UNL A   1      42.048  19.743  25.821  1.00  0.00     0.251 C 
ATOM     32  H   UNL A   1      40.409  18.588  25.848  1.00  0.00     0.163 HD
ATOM     33  O   UNL A   1      42.722  18.941  25.184  1.00  0.00    -0.269 OA
BRANCH  31  34
ATOM     34  C   UNL A   1      42.639  21.017  26.276  1.00  0.00     0.039 A 
ATOM     35  C   UNL A   1      43.062  21.946  25.324  1.00  0.00     0.014 A 
ATOM     36  C   UNL A   1      42.699  21.320  27.638  1.00  0.00     0.014 A 
ATOM     37  C   UNL A   1      43.453  23.220  25.737  1.00  0.00     0.010 A 
ATOM     38  C   UNL A   1      42.989  22.617  28.038  1.00  0.00     0.010 A 
ATOM     39  C   UNL A   1      43.363  23.582  27.091  1.00  0.00    -0.014 A 
BRANCH  39  40
ATOM     40  C   UNL A   1      43.629  24.971  27.539  1.00  0.00     0.031 A 
ATOM     41  C   UNL A   1      45.043  25.440  27.736  1.00  0.00     0.074 A 
ATOM     42  C   UNL A   1      42.596  25.778  27.847  1.00  0.00     0.049 A 
ATOM     43  N   UNL A   1      45.479  26.585  28.197  1.00  0.00    -0.248 NA
ATOM     44  C   UNL A   1      46.111  24.483  27.403  1.00  0.00     0.031 C 
ATOM     45  C   UNL A   1      41.180  25.415  27.756  1.00  0.00     0.029 A 
ATOM     46  N   UNL A   1      42.574  27.070  28.311  1.00  0.00    -0.354 N 
ATOM     47  C   UNL A   1      46.862  26.480  28.218  1.00  0.00     0.074 A 
ATOM     48  C   UNL A   1      47.194  25.139  27.787  1.00  0.00     0.031 C 
ATOM     49  C   UNL A   1      40.430  26.466  28.123  1.00  0.00     0.029 A 
ATOM     50  C   UNL A   1      41.308  27.561  28.519  1.00  0.00     0.049 A 
ATOM     51  H   UNL A   1      43.391  27.595  28.480  1.00  0.00     0.167 HD
ATOM     52  C   UNL A   1      47.775  27.425  28.543  1.00  0.00     0.037 A 
ATOM     53  C   UNL A   1      40.903  28.757  28.987  1.00  0.00     0.037 A 
ATOM     54  C   UNL A   1      47.438  28.763  28.951  1.00  0.00     0.049 A 
ATOM     55  C   UNL A   1      41.939  29.785  29.355  1.00  0.00     0.074 A 
ATOM     56  C   UNL A   1      48.287  29.819  29.234  1.00  0.00     0.029 A 
ATOM     57  N   UNL A   1      46.144  29.228  29.141  1.00  0.00    -0.354 N 
ATOM     58  N   UNL A   1      43.246  29.703  29.292  1.00  0.00    -0.248 NA
ATOM     59  C   UNL A   1      41.442  31.073  29.856  1.00  0.00     0.031 C 
ATOM     60  C   UNL A   1      47.510  30.905  29.649  1.00  0.00     0.029 A 
ATOM     61  C   UNL A   1      46.173  30.546  29.569  1.00  0.00     0.049 A 
ATOM     62  H   UNL A   1      45.327  28.700  28.992  1.00  0.00     0.167 HD
ATOM     63  C   UNL A   1      43.727  30.931  29.724  1.00  0.00     0.074 A 
ATOM     64  C   UNL A   1      42.570  31.750  30.024  1.00  0.00     0.031 C 
ATOM     65  C   UNL A   1      45.011  31.343  29.866  1.00  0.00     0.037 A 
BRANCH  52  66
ATOM     66  C   UNL A   1      49.226  27.047  28.465  1.00  0.00     0.064 A 
ATOM     67  C   UNL A   1      49.925  26.571  29.585  1.00  0.00     0.173 A 
ATOM     68  C   UNL A   1      49.920  27.129  27.249  1.00  0.00     0.173 A 
ATOM     69  F   UNL A   1      49.313  26.484  30.777  1.00  0.00    -0.203 F 
ATOM     70  C   UNL A   1      51.269  26.221  29.498  1.00  0.00     0.198 A 
ATOM     71  C   UNL A   1      51.256  26.746  27.157  1.00  0.00     0.198 A 
ATOM     72  F   UNL A   1      49.301  27.575  26.145  1.00  0.00    -0.203 F 
ATOM     73  F   UNL A   1      51.928  25.818  30.593  1.00  0.00    -0.200 F 
ATOM     74  C   UNL A   1      51.931  26.301  28.282  1.00  0.00     0.200 A 
ATOM     75  F   UNL A   1      51.891  26.812  25.978  1.00  0.00    -0.200 F 
ATOM     76  F   UNL A   1      53.223  25.954  28.198  1.00  0.00    -0.200 F 
ENDBRANCH  52  66
BRANCH  53  77
ATOM     77  C   UNL A   1      39.451  29.053  29.120  1.00  0.00     0.064 A 
ATOM     78  C   UNL A   1      38.687  29.419  28.003  1.00  0.00     0.173 A 
ATOM     79  C   UNL A   1      38.799  28.981  30.359  1.00  0.00     0.173 A 
ATOM     80  F   UNL A   1      39.268  29.522  26.799  1.00  0.00    -0.203 F 
ATOM     81  C   UNL A   1      37.333  29.725  28.125  1.00  0.00     0.198 A 
ATOM     82  C   UNL A   1      37.439  29.256  30.475  1.00  0.00     0.198 A 
ATOM     83  F   UNL A   1      39.483  28.629  31.459  1.00  0.00    -0.203 F 
ATOM     84  F   UNL A   1      36.638  30.119  27.049  1.00  0.00    -0.200 F 
ATOM     85  C   UNL A   1      36.708  29.636  29.360  1.00  0.00     0.200 A 
ATOM     86  F   UNL A   1      36.836  29.154  31.668  1.00  0.00    -0.200 F 
ATOM     87  F   UNL A   1      35.405  29.925  29.477  1.00  0.00    -0.200 F 
ENDBRANCH  53  77
BRANCH  65  88
ATOM     88  C   UNL A   1      45.230  32.748  30.348  1.00  0.00     0.064 A 
ATOM     89  C   UNL A   1      45.439  33.034  31.705  1.00  0.00     0.173 A 
ATOM     90  C   UNL A   1      45.270  33.814  29.438  1.00  0.00     0.173 A 
ATOM     91  F   UNL A   1      45.396  32.052  32.617  1.00  0.00    -0.203 F 
ATOM     92  C   UNL A   1      45.653  34.341  32.136  1.00  0.00     0.198 A 
ATOM     93  C   UNL A   1      45.516  35.115  29.868  1.00  0.00     0.198 A 
ATOM     94  F   UNL A   1      45.082  33.594  28.128  1.00  0.00    -0.203 F 
ATOM     95  F   UNL A   1      45.798  34.598  33.443  1.00  0.00    -0.200 F 
ATOM     96  C   UNL A   1      45.699  35.378  31.217  1.00  0.00     0.200 A 
ATOM     97  F   UNL A   1      45.577  36.114  28.976  1.00  0.00    -0.200 F 
ATOM     98  F   UNL A   1      45.913  36.634  31.633  1.00  0.00    -0.200 F 
ENDBRANCH  65  88
ENDBRANCH  39  40
ENDBRANCH  31  34
ENDBRANCH  29  30
ENDBRANCH  28  29
ENDBRANCH  27  28
ENDBRANCH   1  27
TORSDOF 16
ENDMDL
MODEL 3
REMARK VINA RESULT:     -12.0      0.312      1.921
REMARK SMILES CC[C@@H](C(=O)NCCCCNC(=O)c1ccc(-c2c3nc(c(-c4c(F)c(F)c(F)c(F)c4F)c4ccc([nH]4)c(-c4c(F)c(F)c(F)c(F)c4F)c4nc(c(-c5c(F)c(F)c(F)c(F)c5F)c5ccc2[nH]5)C=C4)C=C3)cc1)N1C(=O)/C(=C\c2ccc(C(=O)OC)cc2)SC1=S
REMARK SMILES IDX 7 1 6 2 4 3 5 4 3 6 2 7 1 8 77 9 78 10 93 11 79 12 80 13
REMARK SMILES IDX 92 14 94 15 81 16 82 17 83 18 91 19 84 20 90 21 85 22 86 23
REMARK SMILES IDX 87 24 88 25 89 26 8 27 9 28 10 29 11 30 12 31 13 33 14 34
REMARK SMILES IDX 15 35 76 36 16 37 75 38 17 39 18 40 19 41 69 42 20 43 74 44
REMARK SMILES IDX 68 45 70 46 21 47 73 48 67 49 66 50 22 52 54 53 34 54 53 55
REMARK SMILES IDX 35 56 38 57 52 58 71 59 36 60 37 61 51 63 72 64 39 65 23 66
REMARK SMILES IDX 24 67 32 68 25 69 26 70 30 71 33 72 27 73 28 74 31 75 29 76
REMARK SMILES IDX 55 77 56 78 64 79 57 80 58 81 62 82 65 83 59 84 60 85 63 86
REMARK SMILES IDX 61 87 40 88 41 89 49 90 42 91 43 92 47 93 50 94 44 95 45 96
REMARK SMILES IDX 48 97 46 98
REMARK H PARENT 6 5 11 32 70 51 38 62
REMARK Flexibility Score: inf
ROOT
ATOM      1  C   UNL A   1      37.305  22.596  25.380  1.00  0.00     0.116 C 
ENDROOT
BRANCH   1   2
ATOM      2  N   UNL A   1      36.688  23.154  24.192  1.00  0.00    -0.354 N 
ATOM      3  C   UNL A   1      35.366  23.206  23.851  1.00  0.00     0.243 C 
ATOM      4  O   UNL A   1      35.083  23.327  22.657  1.00  0.00    -0.273 OA
ATOM      5  H   UNL A   1      37.310  23.550  23.539  1.00  0.00     0.163 HD
BRANCH   3   6
ATOM      6  C   UNL A   1      34.277  23.112  24.939  1.00  0.00     0.181 C 
BRANCH   6   7
ATOM      7  C   UNL A   1      34.146  21.590  25.287  1.00  0.00     0.032 C 
ATOM      8  C   UNL A   1      33.541  21.253  26.636  1.00  0.00     0.006 C 
ENDBRANCH   6   7
BRANCH   6   9
ATOM      9  N   UNL A   1      32.957  23.609  24.446  1.00  0.00    -0.280 N 
ATOM     10  C   UNL A   1      32.767  24.976  24.481  1.00  0.00     0.266 C 
ATOM     11  C   UNL A   1      32.081  23.025  23.560  1.00  0.00     0.149 C 
ATOM     12  O   UNL A   1      33.677  25.794  24.518  1.00  0.00    -0.268 OA
ATOM     13  C   UNL A   1      31.333  25.313  24.293  1.00  0.00     0.081 C 
ATOM     14  S   UNL A   1      30.572  23.963  23.546  1.00  0.00    -0.054 SA
ATOM     15  S   UNL A   1      32.298  21.721  22.542  1.00  0.00    -0.052 S 
ATOM     16  C   UNL A   1      30.711  26.443  24.666  1.00  0.00     0.029 C 
BRANCH  16  17
ATOM     17  C   UNL A   1      31.377  27.580  25.317  1.00  0.00    -0.024 A 
ATOM     18  C   UNL A   1      31.903  28.630  24.555  1.00  0.00     0.009 A 
ATOM     19  C   UNL A   1      31.466  27.645  26.712  1.00  0.00     0.009 A 
ATOM     20  C   UNL A   1      32.441  29.759  25.187  1.00  0.00     0.016 A 
ATOM     21  C   UNL A   1      31.973  28.782  27.346  1.00  0.00     0.016 A 
ATOM     22  C   UNL A   1      32.448  29.854  26.586  1.00  0.00     0.060 A 
BRANCH  22  23
ATOM     23  C   UNL A   1      32.945  31.109  27.218  1.00  0.00     0.337 C 
ATOM     24  O   UNL A   1      32.297  32.136  27.287  1.00  0.00    -0.246 OA
BRANCH  23  25
ATOM     25  O   UNL A   1      34.192  30.915  27.724  1.00  0.00    -0.465 OA
ATOM     26  C   UNL A   1      34.864  32.113  28.110  1.00  0.00     0.282 C 
ENDBRANCH  23  25
ENDBRANCH  22  23
ENDBRANCH  16  17
ENDBRANCH   6   9
ENDBRANCH   3   6
ENDBRANCH   1   2
BRANCH   1  27
ATOM     27  C   UNL A   1      37.185  21.069  25.357  1.00  0.00     0.023 C 
BRANCH  27  28
ATOM     28  C   UNL A   1      38.470  20.335  24.995  1.00  0.00     0.023 C 
BRANCH  28  29
ATOM     29  C   UNL A   1      39.537  20.378  26.073  1.00  0.00     0.116 C 
BRANCH  29  30
ATOM     30  N   UNL A   1      40.439  19.234  26.024  1.00  0.00    -0.352 N 
ATOM     31  C   UNL A   1      41.808  19.204  26.138  1.00  0.00     0.251 C 
ATOM     32  H   UNL A   1      40.005  18.360  25.889  1.00  0.00     0.163 HD
ATOM     33  O   UNL A   1      42.431  18.170  25.928  1.00  0.00    -0.269 OA
BRANCH  31  34
ATOM     34  C   UNL A   1      42.525  20.449  26.479  1.00  0.00     0.039 A 
ATOM     35  C   UNL A   1      43.213  21.131  25.476  1.00  0.00     0.014 A 
ATOM     36  C   UNL A   1      42.446  20.976  27.770  1.00  0.00     0.014 A 
ATOM     37  C   UNL A   1      43.740  22.394  25.744  1.00  0.00     0.010 A 
ATOM     38  C   UNL A   1      42.881  22.274  28.007  1.00  0.00     0.010 A 
ATOM     39  C   UNL A   1      43.526  22.998  26.994  1.00  0.00    -0.014 A 
BRANCH  39  40
ATOM     40  C   UNL A   1      43.945  24.397  27.259  1.00  0.00     0.031 A 
ATOM     41  C   UNL A   1      42.925  25.423  27.663  1.00  0.00     0.074 A 
ATOM     42  C   UNL A   1      45.227  24.756  27.055  1.00  0.00     0.049 A 
ATOM     43  N   UNL A   1      43.077  26.709  27.859  1.00  0.00    -0.248 NA
ATOM     44  C   UNL A   1      41.542  24.951  27.835  1.00  0.00     0.031 C 
ATOM     45  C   UNL A   1      46.296  23.862  26.603  1.00  0.00     0.029 A 
ATOM     46  N   UNL A   1      45.850  25.972  27.188  1.00  0.00    -0.354 N 
ATOM     47  C   UNL A   1      41.814  27.194  28.166  1.00  0.00     0.074 A 
ATOM     48  C   UNL A   1      40.895  26.082  28.067  1.00  0.00     0.031 C 
ATOM     49  C   UNL A   1      47.445  24.551  26.525  1.00  0.00     0.029 A 
ATOM     50  C   UNL A   1      47.187  25.943  26.876  1.00  0.00     0.049 A 
ATOM     51  H   UNL A   1      45.382  26.788  27.480  1.00  0.00     0.167 HD
ATOM     52  C   UNL A   1      41.458  28.450  28.525  1.00  0.00     0.037 A 
ATOM     53  C   UNL A   1      48.101  26.934  26.863  1.00  0.00     0.037 A 
ATOM     54  C   UNL A   1      42.381  29.547  28.642  1.00  0.00     0.049 A 
ATOM     55  C   UNL A   1      47.674  28.323  27.251  1.00  0.00     0.074 A 
ATOM     56  C   UNL A   1      42.135  30.841  29.066  1.00  0.00     0.029 A 
ATOM     57  N   UNL A   1      43.731  29.479  28.327  1.00  0.00    -0.354 N 
ATOM     58  N   UNL A   1      46.493  28.754  27.621  1.00  0.00    -0.248 NA
ATOM     59  C   UNL A   1      48.711  29.364  27.224  1.00  0.00     0.031 C 
ATOM     60  C   UNL A   1      43.323  31.570  28.954  1.00  0.00     0.029 A 
ATOM     61  C   UNL A   1      44.324  30.717  28.516  1.00  0.00     0.049 A 
ATOM     62  H   UNL A   1      44.199  28.670  28.016  1.00  0.00     0.167 HD
ATOM     63  C   UNL A   1      46.646  30.108  27.889  1.00  0.00     0.074 A 
ATOM     64  C   UNL A   1      48.043  30.421  27.663  1.00  0.00     0.031 C 
ATOM     65  C   UNL A   1      45.715  31.011  28.282  1.00  0.00     0.037 A 
BRANCH  52  66
ATOM     66  C   UNL A   1      40.008  28.704  28.821  1.00  0.00     0.064 A 
ATOM     67  C   UNL A   1      39.123  29.162  27.833  1.00  0.00     0.173 A 
ATOM     68  C   UNL A   1      39.487  28.454  30.100  1.00  0.00     0.173 A 
ATOM     69  F   UNL A   1      39.571  29.430  26.597  1.00  0.00    -0.203 F 
ATOM     70  C   UNL A   1      37.780  29.390  28.122  1.00  0.00     0.198 A 
ATOM     71  C   UNL A   1      38.136  28.650  30.376  1.00  0.00     0.198 A 
ATOM     72  F   UNL A   1      40.287  28.012  31.082  1.00  0.00    -0.203 F 
ATOM     73  F   UNL A   1      36.966  29.878  27.175  1.00  0.00    -0.200 F 
ATOM     74  C   UNL A   1      37.286  29.126  29.390  1.00  0.00     0.200 A 
ATOM     75  F   UNL A   1      37.658  28.382  31.599  1.00  0.00    -0.200 F 
ATOM     76  F   UNL A   1      35.991  29.336  29.663  1.00  0.00    -0.200 F 
ENDBRANCH  52  66
BRANCH  53  77
ATOM     77  C   UNL A   1      49.510  26.643  26.484  1.00  0.00     0.064 A 
ATOM     78  C   UNL A   1      50.448  26.253  27.450  1.00  0.00     0.173 A 
ATOM     79  C   UNL A   1      49.949  26.754  25.157  1.00  0.00     0.173 A 
ATOM     80  F   UNL A   1      50.082  26.152  28.736  1.00  0.00    -0.203 F 
ATOM     81  C   UNL A   1      51.776  26.006  27.106  1.00  0.00     0.198 A 
ATOM     82  C   UNL A   1      51.269  26.477  24.810  1.00  0.00     0.198 A 
ATOM     83  F   UNL A   1      49.090  27.119  24.193  1.00  0.00    -0.203 F 
ATOM     84  F   UNL A   1      52.662  25.681  28.057  1.00  0.00    -0.200 F 
ATOM     85  C   UNL A   1      52.184  26.112  25.785  1.00  0.00     0.200 A 
ATOM     86  F   UNL A   1      51.655  26.566  23.529  1.00  0.00    -0.200 F 
ATOM     87  F   UNL A   1      53.460  25.871  25.454  1.00  0.00    -0.200 F 
ENDBRANCH  53  77
BRANCH  65  88
ATOM     88  C   UNL A   1      46.181  32.420  28.511  1.00  0.00     0.064 A 
ATOM     89  C   UNL A   1      46.685  32.834  29.752  1.00  0.00     0.173 A 
ATOM     90  C   UNL A   1      46.160  33.354  27.465  1.00  0.00     0.173 A 
ATOM     91  F   UNL A   1      46.712  31.983  30.788  1.00  0.00    -0.203 F 
ATOM     92  C   UNL A   1      47.124  34.141  29.945  1.00  0.00     0.198 A 
ATOM     93  C   UNL A   1      46.631  34.651  27.652  1.00  0.00     0.198 A 
ATOM     94  F   UNL A   1      45.694  33.006  26.256  1.00  0.00    -0.203 F 
ATOM     95  F   UNL A   1      47.553  34.530  31.154  1.00  0.00    -0.200 F 
ATOM     96  C   UNL A   1      47.105  35.045  28.894  1.00  0.00     0.200 A 
ATOM     97  F   UNL A   1      46.626  35.518  26.631  1.00  0.00    -0.200 F 
ATOM     98  F   UNL A   1      47.536  36.301  29.080  1.00  0.00    -0.200 F 
ENDBRANCH  65  88
ENDBRANCH  39  40
ENDBRANCH  31  34
ENDBRANCH  29  30
ENDBRANCH  28  29
ENDBRANCH  27  28
ENDBRANCH   1  27
TORSDOF 16
ENDMDL
