MODEL 1
REMARK VINA RESULT:     -11.3      0.000      0.000
REMARK SMILES O=C(CC1CC1)NCc1ccc(C(=O)NCCCCNC(=O)c2ccc(-c3c4nc(c(-c5c(F)c(F)c(F)c(F)c5F)c5ccc([nH]5)c(-c5c(F)c(F)c(F)c(F)c5F)c5nc(c(-c6c(F)c(F)c(F)c(F)c6F)c6ccc3[nH]6)C=C5)C=C4)cc2)o1
REMARK SMILES IDX 16 1 15 2 13 3 14 4 12 6 9 7 10 8 86 9 11 10 8 11 7 12 1 13
REMARK SMILES IDX 2 14 3 16 4 17 5 18 6 19 17 20 18 21 19 22 20 23 21 24 22 26
REMARK SMILES IDX 23 27 24 28 85 29 25 30 84 31 26 32 27 33 28 34 78 35 29 36
REMARK SMILES IDX 83 37 77 38 79 39 30 40 82 41 76 42 75 43 31 45 63 46 43 47
REMARK SMILES IDX 62 48 44 49 47 50 61 51 80 52 45 53 46 54 60 56 81 57 48 58
REMARK SMILES IDX 32 59 33 60 41 61 34 62 35 63 39 64 42 65 36 66 37 67 40 68
REMARK SMILES IDX 38 69 64 70 65 71 73 72 66 73 67 74 71 75 74 76 68 77 69 78
REMARK SMILES IDX 72 79 70 80 49 81 50 82 58 83 51 84 52 85 56 86 59 87 53 88
REMARK SMILES IDX 54 89 57 90 55 91
REMARK H PARENT 15 5 7 15 20 25 79 44 47 55
REMARK Flexibility Score: inf
ROOT
ATOM      1  C   UNL A   1      35.213  32.905  27.966  1.00  0.00     0.116 C 
ENDROOT
BRANCH   1   2
ATOM      2  N   UNL A   1      35.652  31.532  28.076  1.00  0.00    -0.349 N 
ATOM      3  C   UNL A   1      35.075  30.361  27.640  1.00  0.00     0.286 C 
ATOM      4  O   UNL A   1      35.742  29.341  27.830  1.00  0.00    -0.266 OA
ATOM      5  H   UNL A   1      36.511  31.414  28.543  1.00  0.00     0.163 HD
BRANCH   3   6
ATOM      6  C   UNL A   1      33.777  30.343  26.989  1.00  0.00     0.191 A 
ATOM      7  C   UNL A   1      32.422  29.703  25.356  1.00  0.00     0.124 A 
ATOM      8  C   UNL A   1      31.667  30.494  26.191  1.00  0.00     0.048 A 
ATOM      9  O   UNL A   1      33.692  29.605  25.831  1.00  0.00    -0.454 OA
ATOM     10  C   UNL A   1      32.525  30.880  27.250  1.00  0.00     0.056 A 
BRANCH   7  11
ATOM     11  C   UNL A   1      32.114  28.952  24.118  1.00  0.00     0.191 C 
BRANCH  11  12
ATOM     12  N   UNL A   1      30.954  29.553  23.507  1.00  0.00    -0.349 N 
ATOM     13  O   UNL A   1      30.596  27.860  22.008  1.00  0.00    -0.275 OA
ATOM     14  C   UNL A   1      30.261  28.938  22.493  1.00  0.00     0.220 C 
ATOM     15  H   UNL A   1      30.647  30.433  23.826  1.00  0.00     0.163 HD
BRANCH  14  16
ATOM     16  C   UNL A   1      29.077  29.724  21.961  1.00  0.00     0.103 C 
BRANCH  16  17
ATOM     17  C   UNL A   1      29.079  31.190  22.307  1.00  0.00    -0.002 C 
ATOM     18  C   UNL A   1      28.034  32.103  21.710  1.00  0.00     0.004 C 
ATOM     19  C   UNL A   1      28.006  31.799  23.179  1.00  0.00     0.004 C 
ENDBRANCH  16  17
ENDBRANCH  14  16
ENDBRANCH  11  12
ENDBRANCH   7  11
ENDBRANCH   3   6
ENDBRANCH   1   2
BRANCH   1  20
ATOM     20  C   UNL A   1      34.446  33.342  29.214  1.00  0.00     0.023 C 
BRANCH  20  21
ATOM     21  C   UNL A   1      33.278  34.293  28.929  1.00  0.00     0.023 C 
BRANCH  21  22
ATOM     22  C   UNL A   1      33.473  35.727  29.416  1.00  0.00     0.116 C 
BRANCH  22  23
ATOM     23  N   UNL A   1      32.532  36.122  30.451  1.00  0.00    -0.352 N 
ATOM     24  C   UNL A   1      32.579  35.851  31.799  1.00  0.00     0.251 C 
ATOM     25  H   UNL A   1      31.761  36.654  30.148  1.00  0.00     0.163 HD
ATOM     26  O   UNL A   1      31.655  36.175  32.533  1.00  0.00    -0.269 OA
BRANCH  24  27
ATOM     27  C   UNL A   1      33.741  35.122  32.346  1.00  0.00     0.039 A 
ATOM     28  C   UNL A   1      33.559  33.819  32.817  1.00  0.00     0.014 A 
ATOM     29  C   UNL A   1      35.008  35.711  32.364  1.00  0.00     0.014 A 
ATOM     30  C   UNL A   1      34.663  33.078  33.241  1.00  0.00     0.010 A 
ATOM     31  C   UNL A   1      36.115  34.951  32.728  1.00  0.00     0.010 A 
ATOM     32  C   UNL A   1      35.953  33.627  33.166  1.00  0.00    -0.014 A 
BRANCH  32  33
ATOM     33  C   UNL A   1      37.154  32.840  33.541  1.00  0.00     0.031 A 
ATOM     34  C   UNL A   1      37.854  33.122  34.840  1.00  0.00     0.074 A 
ATOM     35  C   UNL A   1      37.660  31.938  32.679  1.00  0.00     0.049 A 
ATOM     36  N   UNL A   1      38.983  32.641  35.295  1.00  0.00    -0.248 NA
ATOM     37  C   UNL A   1      37.214  34.101  35.733  1.00  0.00     0.031 C 
ATOM     38  C   UNL A   1      37.092  31.603  31.372  1.00  0.00     0.029 A 
ATOM     39  N   UNL A   1      38.780  31.148  32.766  1.00  0.00    -0.354 N 
ATOM     40  C   UNL A   1      39.198  33.274  36.511  1.00  0.00     0.074 A 
ATOM     41  C   UNL A   1      38.109  34.206  36.704  1.00  0.00     0.031 C 
ATOM     42  C   UNL A   1      37.860  30.671  30.785  1.00  0.00     0.029 A 
ATOM     43  C   UNL A   1      38.992  30.370  31.655  1.00  0.00     0.049 A 
ATOM     44  H   UNL A   1      39.375  31.142  33.551  1.00  0.00     0.167 HD
ATOM     45  C   UNL A   1      40.204  33.080  37.397  1.00  0.00     0.037 A 
ATOM     46  C   UNL A   1      39.995  29.517  31.369  1.00  0.00     0.037 A 
ATOM     47  C   UNL A   1      41.267  32.127  37.217  1.00  0.00     0.049 A 
ATOM     48  C   UNL A   1      41.098  29.315  32.373  1.00  0.00     0.074 A 
ATOM     49  C   UNL A   1      42.303  31.816  38.080  1.00  0.00     0.029 A 
ATOM     50  N   UNL A   1      41.426  31.327  36.095  1.00  0.00    -0.354 N 
ATOM     51  N   UNL A   1      41.263  29.879  33.545  1.00  0.00    -0.248 NA
ATOM     52  C   UNL A   1      42.152  28.354  32.018  1.00  0.00     0.031 C 
ATOM     53  C   UNL A   1      43.109  30.852  37.466  1.00  0.00     0.029 A 
ATOM     54  C   UNL A   1      42.550  30.530  36.240  1.00  0.00     0.049 A 
ATOM     55  H   UNL A   1      40.829  31.324  35.313  1.00  0.00     0.167 HD
ATOM     56  C   UNL A   1      42.414  29.317  34.081  1.00  0.00     0.074 A 
ATOM     57  C   UNL A   1      42.905  28.364  33.108  1.00  0.00     0.031 C 
ATOM     58  C   UNL A   1      43.010  29.569  35.271  1.00  0.00     0.037 A 
BRANCH  45  59
ATOM     59  C   UNL A   1      40.199  33.912  38.645  1.00  0.00     0.064 A 
ATOM     60  C   UNL A   1      40.872  35.140  38.713  1.00  0.00     0.173 A 
ATOM     61  C   UNL A   1      39.482  33.493  39.777  1.00  0.00     0.173 A 
ATOM     62  F   UNL A   1      41.582  35.579  37.663  1.00  0.00    -0.203 F 
ATOM     63  C   UNL A   1      40.853  35.906  39.875  1.00  0.00     0.198 A 
ATOM     64  C   UNL A   1      39.441  34.275  40.928  1.00  0.00     0.198 A 
ATOM     65  F   UNL A   1      38.816  32.328  39.763  1.00  0.00    -0.203 F 
ATOM     66  F   UNL A   1      41.544  37.053  39.932  1.00  0.00    -0.200 F 
ATOM     67  C   UNL A   1      40.132  35.476  40.978  1.00  0.00     0.200 A 
ATOM     68  F   UNL A   1      38.733  33.865  41.990  1.00  0.00    -0.200 F 
ATOM     69  F   UNL A   1      40.109  36.217  42.095  1.00  0.00    -0.200 F 
ENDBRANCH  45  59
BRANCH  46  70
ATOM     70  C   UNL A   1      39.992  28.770  30.084  1.00  0.00     0.064 A 
ATOM     71  C   UNL A   1      39.408  27.499  29.996  1.00  0.00     0.173 A 
ATOM     72  C   UNL A   1      40.576  29.302  28.927  1.00  0.00     0.173 A 
ATOM     73  F   UNL A   1      38.854  26.940  31.083  1.00  0.00    -0.203 F 
ATOM     74  C   UNL A   1      39.427  26.779  28.804  1.00  0.00     0.198 A 
ATOM     75  C   UNL A   1      40.571  28.592  27.727  1.00  0.00     0.198 A 
ATOM     76  F   UNL A   1      41.144  30.517  28.957  1.00  0.00    -0.203 F 
ATOM     77  F   UNL A   1      38.902  25.547  28.759  1.00  0.00    -0.200 F 
ATOM     78  C   UNL A   1      40.004  27.327  27.669  1.00  0.00     0.200 A 
ATOM     79  F   UNL A   1      41.119  29.131  26.630  1.00  0.00    -0.200 F 
ATOM     80  F   UNL A   1      40.022  26.636  26.522  1.00  0.00    -0.200 F 
ENDBRANCH  46  70
BRANCH  58  81
ATOM     81  C   UNL A   1      44.229  28.767  35.617  1.00  0.00     0.064 A 
ATOM     82  C   UNL A   1      45.518  29.200  35.276  1.00  0.00     0.173 A 
ATOM     83  C   UNL A   1      44.105  27.577  36.351  1.00  0.00     0.173 A 
ATOM     84  F   UNL A   1      45.685  30.324  34.562  1.00  0.00    -0.203 F 
ATOM     85  C   UNL A   1      46.639  28.461  35.643  1.00  0.00     0.198 A 
ATOM     86  C   UNL A   1      45.230  26.855  36.739  1.00  0.00     0.198 A 
ATOM     87  F   UNL A   1      42.893  27.124  36.706  1.00  0.00    -0.203 F 
ATOM     88  F   UNL A   1      47.860  28.874  35.275  1.00  0.00    -0.200 F 
ATOM     89  C   UNL A   1      46.495  27.296  36.381  1.00  0.00     0.200 A 
ATOM     90  F   UNL A   1      45.090  25.736  37.462  1.00  0.00    -0.200 F 
ATOM     91  F   UNL A   1      47.577  26.592  36.743  1.00  0.00    -0.200 F 
ENDBRANCH  58  81
ENDBRANCH  32  33
ENDBRANCH  24  27
ENDBRANCH  22  23
ENDBRANCH  21  22
ENDBRANCH  20  21
ENDBRANCH   1  20
TORSDOF 15
ENDMDL
MODEL 2
REMARK VINA RESULT:     -11.1      1.768      7.817
REMARK SMILES O=C(CC1CC1)NCc1ccc(C(=O)NCCCCNC(=O)c2ccc(-c3c4nc(c(-c5c(F)c(F)c(F)c(F)c5F)c5ccc([nH]5)c(-c5c(F)c(F)c(F)c(F)c5F)c5nc(c(-c6c(F)c(F)c(F)c(F)c6F)c6ccc3[nH]6)C=C5)C=C4)cc2)o1
REMARK SMILES IDX 16 1 15 2 13 3 14 4 12 6 9 7 10 8 86 9 11 10 8 11 7 12 1 13
REMARK SMILES IDX 2 14 3 16 4 17 5 18 6 19 17 20 18 21 19 22 20 23 21 24 22 26
REMARK SMILES IDX 23 27 24 28 85 29 25 30 84 31 26 32 27 33 28 34 78 35 29 36
REMARK SMILES IDX 83 37 77 38 79 39 30 40 82 41 76 42 75 43 31 45 63 46 43 47
REMARK SMILES IDX 62 48 44 49 47 50 61 51 80 52 45 53 46 54 60 56 81 57 48 58
REMARK SMILES IDX 32 59 33 60 41 61 34 62 35 63 39 64 42 65 36 66 37 67 40 68
REMARK SMILES IDX 38 69 64 70 65 71 73 72 66 73 67 74 71 75 74 76 68 77 69 78
REMARK SMILES IDX 72 79 70 80 49 81 50 82 58 83 51 84 52 85 56 86 59 87 53 88
REMARK SMILES IDX 54 89 57 90 55 91
REMARK H PARENT 15 5 7 15 20 25 79 44 47 55
REMARK Flexibility Score: inf
ROOT
ATOM      1  C   UNL A   1      32.418  29.498  26.638  1.00  0.00     0.116 C 
ENDROOT
BRANCH   1   2
ATOM      2  N   UNL A   1      33.268  28.831  25.677  1.00  0.00    -0.349 N 
ATOM      3  C   UNL A   1      33.066  27.693  24.931  1.00  0.00     0.286 C 
ATOM      4  O   UNL A   1      33.969  27.415  24.137  1.00  0.00    -0.266 OA
ATOM      5  H   UNL A   1      34.139  29.265  25.532  1.00  0.00     0.163 HD
BRANCH   3   6
ATOM      6  C   UNL A   1      31.863  26.890  25.066  1.00  0.00     0.191 A 
ATOM      7  C   UNL A   1      29.748  26.446  24.571  1.00  0.00     0.124 A 
ATOM      8  C   UNL A   1      30.142  25.481  25.469  1.00  0.00     0.048 A 
ATOM      9  O   UNL A   1      30.779  27.296  24.320  1.00  0.00    -0.454 OA
ATOM     10  C   UNL A   1      31.502  25.748  25.763  1.00  0.00     0.056 A 
BRANCH   7  11
ATOM     11  C   UNL A   1      28.486  26.696  23.840  1.00  0.00     0.191 C 
BRANCH  11  12
ATOM     12  N   UNL A   1      28.618  27.948  23.135  1.00  0.00    -0.349 N 
ATOM     13  O   UNL A   1      26.445  28.599  23.440  1.00  0.00    -0.275 OA
ATOM     14  C   UNL A   1      27.571  28.827  23.005  1.00  0.00     0.220 C 
ATOM     15  H   UNL A   1      29.487  28.181  22.734  1.00  0.00     0.163 HD
BRANCH  14  16
ATOM     16  C   UNL A   1      27.888  30.085  22.219  1.00  0.00     0.103 C 
BRANCH  16  17
ATOM     17  C   UNL A   1      27.790  31.368  23.004  1.00  0.00    -0.002 C 
ATOM     18  C   UNL A   1      28.950  31.810  23.864  1.00  0.00     0.004 C 
ATOM     19  C   UNL A   1      28.599  32.588  22.630  1.00  0.00     0.004 C 
ENDBRANCH  16  17
ENDBRANCH  14  16
ENDBRANCH  11  12
ENDBRANCH   7  11
ENDBRANCH   3   6
ENDBRANCH   1   2
BRANCH   1  20
ATOM     20  C   UNL A   1      31.767  30.741  26.032  1.00  0.00     0.023 C 
BRANCH  20  21
ATOM     21  C   UNL A   1      31.545  31.882  27.033  1.00  0.00     0.023 C 
BRANCH  21  22
ATOM     22  C   UNL A   1      32.751  32.792  27.258  1.00  0.00     0.116 C 
BRANCH  22  23
ATOM     23  N   UNL A   1      32.391  34.160  27.595  1.00  0.00    -0.352 N 
ATOM     24  C   UNL A   1      32.964  34.990  28.530  1.00  0.00     0.251 C 
ATOM     25  H   UNL A   1      31.639  34.542  27.086  1.00  0.00     0.163 HD
ATOM     26  O   UNL A   1      32.484  36.091  28.764  1.00  0.00    -0.269 OA
BRANCH  24  27
ATOM     27  C   UNL A   1      34.144  34.519  29.284  1.00  0.00     0.039 A 
ATOM     28  C   UNL A   1      33.955  33.947  30.544  1.00  0.00     0.014 A 
ATOM     29  C   UNL A   1      35.425  34.614  28.734  1.00  0.00     0.014 A 
ATOM     30  C   UNL A   1      35.044  33.403  31.226  1.00  0.00     0.010 A 
ATOM     31  C   UNL A   1      36.499  34.016  29.385  1.00  0.00     0.010 A 
ATOM     32  C   UNL A   1      36.318  33.402  30.634  1.00  0.00    -0.014 A 
BRANCH  32  33
ATOM     33  C   UNL A   1      37.482  32.768  31.301  1.00  0.00     0.031 A 
ATOM     34  C   UNL A   1      38.192  31.625  30.634  1.00  0.00     0.074 A 
ATOM     35  C   UNL A   1      37.842  33.163  32.537  1.00  0.00     0.049 A 
ATOM     36  N   UNL A   1      39.144  30.855  31.099  1.00  0.00    -0.248 NA
ATOM     37  C   UNL A   1      37.752  31.282  29.273  1.00  0.00     0.031 C 
ATOM     38  C   UNL A   1      37.206  34.235  33.304  1.00  0.00     0.029 A 
ATOM     39  N   UNL A   1      38.824  32.693  33.376  1.00  0.00    -0.354 N 
ATOM     40  C   UNL A   1      39.397  29.926  30.100  1.00  0.00     0.074 A 
ATOM     41  C   UNL A   1      38.471  30.197  29.022  1.00  0.00     0.031 C 
ATOM     42  C   UNL A   1      37.819  34.348  34.494  1.00  0.00     0.029 A 
ATOM     43  C   UNL A   1      38.864  33.335  34.588  1.00  0.00     0.049 A 
ATOM     44  H   UNL A   1      39.439  31.965  33.129  1.00  0.00     0.167 HD
ATOM     45  C   UNL A   1      40.332  28.946  30.076  1.00  0.00     0.037 A 
ATOM     46  C   UNL A   1      39.652  33.120  35.660  1.00  0.00     0.037 A 
ATOM     47  C   UNL A   1      41.274  28.702  31.136  1.00  0.00     0.049 A 
ATOM     48  C   UNL A   1      40.687  32.029  35.606  1.00  0.00     0.074 A 
ATOM     49  C   UNL A   1      42.296  27.771  31.185  1.00  0.00     0.029 A 
ATOM     50  N   UNL A   1      41.310  29.399  32.334  1.00  0.00    -0.354 N 
ATOM     51  N   UNL A   1      40.955  31.191  34.634  1.00  0.00    -0.248 NA
ATOM     52  C   UNL A   1      41.534  31.857  36.795  1.00  0.00     0.031 C 
ATOM     53  C   UNL A   1      42.929  27.880  32.427  1.00  0.00     0.029 A 
ATOM     54  C   UNL A   1      42.331  28.911  33.133  1.00  0.00     0.049 A 
ATOM     55  H   UNL A   1      40.702  30.134  32.580  1.00  0.00     0.167 HD
ATOM     56  C   UNL A   1      42.020  30.419  35.078  1.00  0.00     0.074 A 
ATOM     57  C   UNL A   1      42.353  30.891  36.406  1.00  0.00     0.031 C 
ATOM     58  C   UNL A   1      42.663  29.410  34.443  1.00  0.00     0.037 A 
BRANCH  45  59
ATOM     59  C   UNL A   1      40.386  28.069  28.860  1.00  0.00     0.064 A 
ATOM     60  C   UNL A   1      41.145  28.421  27.734  1.00  0.00     0.173 A 
ATOM     61  C   UNL A   1      39.701  26.845  28.833  1.00  0.00     0.173 A 
ATOM     62  F   UNL A   1      41.809  29.586  27.704  1.00  0.00    -0.203 F 
ATOM     63  C   UNL A   1      41.193  27.594  26.615  1.00  0.00     0.198 A 
ATOM     64  C   UNL A   1      39.774  26.007  27.724  1.00  0.00     0.198 A 
ATOM     65  F   UNL A   1      38.965  26.459  29.887  1.00  0.00    -0.203 F 
ATOM     66  F   UNL A   1      41.886  27.975  25.532  1.00  0.00    -0.200 F 
ATOM     67  C   UNL A   1      40.514  26.385  26.614  1.00  0.00     0.200 A 
ATOM     68  F   UNL A   1      39.127  24.833  27.729  1.00  0.00    -0.200 F 
ATOM     69  F   UNL A   1      40.566  25.587  25.538  1.00  0.00    -0.200 F 
ENDBRANCH  45  59
BRANCH  46  70
ATOM     70  C   UNL A   1      39.508  33.971  36.871  1.00  0.00     0.064 A 
ATOM     71  C   UNL A   1      40.156  35.211  36.956  1.00  0.00     0.173 A 
ATOM     72  C   UNL A   1      38.734  33.563  37.965  1.00  0.00     0.173 A 
ATOM     73  F   UNL A   1      40.926  35.634  35.941  1.00  0.00    -0.203 F 
ATOM     74  C   UNL A   1      40.053  36.001  38.097  1.00  0.00     0.198 A 
ATOM     75  C   UNL A   1      38.608  34.367  39.097  1.00  0.00     0.198 A 
ATOM     76  F   UNL A   1      38.089  32.387  37.932  1.00  0.00    -0.203 F 
ATOM     77  F   UNL A   1      40.719  37.161  38.170  1.00  0.00    -0.200 F 
ATOM     78  C   UNL A   1      39.275  35.581  39.166  1.00  0.00     0.200 A 
ATOM     79  F   UNL A   1      37.846  33.963  40.122  1.00  0.00    -0.200 F 
ATOM     80  F   UNL A   1      39.174  36.341  40.264  1.00  0.00    -0.200 F 
ENDBRANCH  46  70
BRANCH  58  81
ATOM     81  C   UNL A   1      43.828  28.780  35.148  1.00  0.00     0.064 A 
ATOM     82  C   UNL A   1      45.137  29.250  34.971  1.00  0.00     0.173 A 
ATOM     83  C   UNL A   1      43.619  27.731  36.056  1.00  0.00     0.173 A 
ATOM     84  F   UNL A   1      45.386  30.241  34.102  1.00  0.00    -0.203 F 
ATOM     85  C   UNL A   1      46.199  28.679  35.666  1.00  0.00     0.198 A 
ATOM     86  C   UNL A   1      44.681  27.181  36.769  1.00  0.00     0.198 A 
ATOM     87  F   UNL A   1      42.384  27.251  36.264  1.00  0.00    -0.203 F 
ATOM     88  F   UNL A   1      47.448  29.118  35.455  1.00  0.00    -0.200 F 
ATOM     89  C   UNL A   1      45.969  27.653  36.571  1.00  0.00     0.200 A 
ATOM     90  F   UNL A   1      44.455  26.198  37.650  1.00  0.00    -0.200 F 
ATOM     91  F   UNL A   1      46.993  27.112  37.247  1.00  0.00    -0.200 F 
ENDBRANCH  58  81
ENDBRANCH  32  33
ENDBRANCH  24  27
ENDBRANCH  22  23
ENDBRANCH  21  22
ENDBRANCH  20  21
ENDBRANCH   1  20
TORSDOF 15
ENDMDL
MODEL 3
REMARK VINA RESULT:     -10.9      4.171      8.500
REMARK SMILES O=C(CC1CC1)NCc1ccc(C(=O)NCCCCNC(=O)c2ccc(-c3c4nc(c(-c5c(F)c(F)c(F)c(F)c5F)c5ccc([nH]5)c(-c5c(F)c(F)c(F)c(F)c5F)c5nc(c(-c6c(F)c(F)c(F)c(F)c6F)c6ccc3[nH]6)C=C5)C=C4)cc2)o1
REMARK SMILES IDX 16 1 15 2 13 3 14 4 12 6 9 7 10 8 86 9 11 10 8 11 7 12 1 13
REMARK SMILES IDX 2 14 3 16 4 17 5 18 6 19 17 20 18 21 19 22 20 23 21 24 22 26
REMARK SMILES IDX 23 27 24 28 85 29 25 30 84 31 26 32 27 33 28 34 78 35 29 36
REMARK SMILES IDX 83 37 77 38 79 39 30 40 82 41 76 42 75 43 31 45 63 46 43 47
REMARK SMILES IDX 62 48 44 49 47 50 61 51 80 52 45 53 46 54 60 56 81 57 48 58
REMARK SMILES IDX 32 59 33 60 41 61 34 62 35 63 39 64 42 65 36 66 37 67 40 68
REMARK SMILES IDX 38 69 64 70 65 71 73 72 66 73 67 74 71 75 74 76 68 77 69 78
REMARK SMILES IDX 72 79 70 80 49 81 50 82 58 83 51 84 52 85 56 86 59 87 53 88
REMARK SMILES IDX 54 89 57 90 55 91
REMARK H PARENT 15 5 7 15 20 25 79 44 47 55
REMARK Flexibility Score: inf
ROOT
ATOM      1  C   UNL A   1      38.206  34.270  30.440  1.00  0.00     0.116 C 
ENDROOT
BRANCH   1   2
ATOM      2  N   UNL A   1      37.277  34.690  31.464  1.00  0.00    -0.349 N 
ATOM      3  C   UNL A   1      37.250  34.439  32.817  1.00  0.00     0.286 C 
ATOM      4  O   UNL A   1      36.349  35.006  33.441  1.00  0.00    -0.266 OA
ATOM      5  H   UNL A   1      36.537  35.252  31.138  1.00  0.00     0.163 HD
BRANCH   3   6
ATOM      6  C   UNL A   1      38.229  33.578  33.456  1.00  0.00     0.191 A 
ATOM      7  C   UNL A   1      38.927  31.588  34.138  1.00  0.00     0.124 A 
ATOM      8  C   UNL A   1      39.908  32.481  34.499  1.00  0.00     0.048 A 
ATOM      9  O   UNL A   1      37.914  32.239  33.507  1.00  0.00    -0.454 OA
ATOM     10  C   UNL A   1      39.476  33.749  34.038  1.00  0.00     0.056 A 
BRANCH   7  11
ATOM     11  C   UNL A   1      38.792  30.120  34.273  1.00  0.00     0.191 C 
BRANCH  11  12
ATOM     12  N   UNL A   1      40.117  29.548  34.284  1.00  0.00    -0.349 N 
ATOM     13  O   UNL A   1      39.624  27.832  32.852  1.00  0.00    -0.275 OA
ATOM     14  C   UNL A   1      40.439  28.439  33.542  1.00  0.00     0.220 C 
ATOM     15  H   UNL A   1      40.813  29.967  34.840  1.00  0.00     0.163 HD
BRANCH  14  16
ATOM     16  C   UNL A   1      41.875  27.969  33.688  1.00  0.00     0.103 C 
BRANCH  16  17
ATOM     17  C   UNL A   1      42.202  27.326  35.010  1.00  0.00    -0.002 C 
ATOM     18  C   UNL A   1      41.575  26.002  35.376  1.00  0.00     0.004 C 
ATOM     19  C   UNL A   1      43.047  26.075  35.095  1.00  0.00     0.004 C 
ENDBRANCH  16  17
ENDBRANCH  14  16
ENDBRANCH  11  12
ENDBRANCH   7  11
ENDBRANCH   3   6
ENDBRANCH   1   2
BRANCH   1  20
ATOM     20  C   UNL A   1      37.562  33.261  29.489  1.00  0.00     0.023 C 
BRANCH  20  21
ATOM     21  C   UNL A   1      36.076  33.521  29.214  1.00  0.00     0.023 C 
BRANCH  21  22
ATOM     22  C   UNL A   1      35.114  32.516  29.846  1.00  0.00     0.116 C 
BRANCH  22  23
ATOM     23  N   UNL A   1      34.362  31.741  28.872  1.00  0.00    -0.352 N 
ATOM     24  C   UNL A   1      34.763  30.627  28.171  1.00  0.00     0.251 C 
ATOM     25  H   UNL A   1      33.446  32.054  28.690  1.00  0.00     0.163 HD
ATOM     26  O   UNL A   1      34.044  30.139  27.311  1.00  0.00    -0.269 OA
BRANCH  24  27
ATOM     27  C   UNL A   1      36.097  30.050  28.440  1.00  0.00     0.039 A 
ATOM     28  C   UNL A   1      37.098  30.189  27.476  1.00  0.00     0.014 A 
ATOM     29  C   UNL A   1      36.363  29.403  29.649  1.00  0.00     0.014 A 
ATOM     30  C   UNL A   1      38.390  29.742  27.753  1.00  0.00     0.010 A 
ATOM     31  C   UNL A   1      37.664  29.015  29.949  1.00  0.00     0.010 A 
ATOM     32  C   UNL A   1      38.690  29.184  29.007  1.00  0.00    -0.014 A 
BRANCH  32  33
ATOM     33  C   UNL A   1      40.069  28.765  29.359  1.00  0.00     0.031 A 
ATOM     34  C   UNL A   1      40.941  29.678  30.172  1.00  0.00     0.074 A 
ATOM     35  C   UNL A   1      40.561  27.608  28.876  1.00  0.00     0.049 A 
ATOM     36  N   UNL A   1      42.209  29.559  30.479  1.00  0.00    -0.248 NA
ATOM     37  C   UNL A   1      40.312  30.906  30.683  1.00  0.00     0.031 C 
ATOM     38  C   UNL A   1      39.825  26.656  28.044  1.00  0.00     0.029 A 
ATOM     39  N   UNL A   1      41.807  27.044  29.003  1.00  0.00    -0.354 N 
ATOM     40  C   UNL A   1      42.531  30.703  31.195  1.00  0.00     0.074 A 
ATOM     41  C   UNL A   1      41.342  31.526  31.240  1.00  0.00     0.031 C 
ATOM     42  C   UNL A   1      40.628  25.622  27.743  1.00  0.00     0.029 A 
ATOM     43  C   UNL A   1      41.944  25.856  28.329  1.00  0.00     0.049 A 
ATOM     44  H   UNL A   1      42.534  27.455  29.526  1.00  0.00     0.167 HD
ATOM     45  C   UNL A   1      43.708  31.029  31.779  1.00  0.00     0.037 A 
ATOM     46  C   UNL A   1      43.017  25.053  28.191  1.00  0.00     0.037 A 
ATOM     47  C   UNL A   1      44.878  30.192  31.761  1.00  0.00     0.049 A 
ATOM     48  C   UNL A   1      44.312  25.434  28.856  1.00  0.00     0.074 A 
ATOM     49  C   UNL A   1      46.102  30.406  32.370  1.00  0.00     0.029 A 
ATOM     50  N   UNL A   1      44.967  28.975  31.102  1.00  0.00    -0.354 N 
ATOM     51  N   UNL A   1      44.591  26.493  29.577  1.00  0.00    -0.248 NA
ATOM     52  C   UNL A   1      45.441  24.507  28.692  1.00  0.00     0.031 C 
ATOM     53  C   UNL A   1      46.944  29.335  32.050  1.00  0.00     0.029 A 
ATOM     54  C   UNL A   1      46.229  28.432  31.280  1.00  0.00     0.049 A 
ATOM     55  H   UNL A   1      44.240  28.558  30.585  1.00  0.00     0.167 HD
ATOM     56  C   UNL A   1      45.910  26.343  29.982  1.00  0.00     0.074 A 
ATOM     57  C   UNL A   1      46.376  25.088  29.430  1.00  0.00     0.031 C 
ATOM     58  C   UNL A   1      46.667  27.170  30.742  1.00  0.00     0.037 A 
BRANCH  45  59
ATOM     59  C   UNL A   1      43.787  32.345  32.495  1.00  0.00     0.064 A 
ATOM     60  C   UNL A   1      43.461  32.464  33.854  1.00  0.00     0.173 A 
ATOM     61  C   UNL A   1      44.227  33.496  31.823  1.00  0.00     0.173 A 
ATOM     62  F   UNL A   1      43.022  31.396  34.538  1.00  0.00    -0.203 F 
ATOM     63  C   UNL A   1      43.545  33.689  34.508  1.00  0.00     0.198 A 
ATOM     64  C   UNL A   1      44.338  34.714  32.487  1.00  0.00     0.198 A 
ATOM     65  F   UNL A   1      44.557  33.437  30.523  1.00  0.00    -0.203 F 
ATOM     66  F   UNL A   1      43.182  33.787  35.794  1.00  0.00    -0.200 F 
ATOM     67  C   UNL A   1      43.991  34.812  33.825  1.00  0.00     0.200 A 
ATOM     68  F   UNL A   1      44.780  35.796  31.830  1.00  0.00    -0.200 F 
ATOM     69  F   UNL A   1      44.077  35.990  34.458  1.00  0.00    -0.200 F 
ENDBRANCH  45  59
BRANCH  46  70
ATOM     70  C   UNL A   1      42.907  23.793  27.409  1.00  0.00     0.064 A 
ATOM     71  C   UNL A   1      42.411  22.623  28.002  1.00  0.00     0.173 A 
ATOM     72  C   UNL A   1      43.301  23.728  26.066  1.00  0.00     0.173 A 
ATOM     73  F   UNL A   1      42.040  22.632  29.291  1.00  0.00    -0.203 F 
ATOM     74  C   UNL A   1      42.332  21.431  27.287  1.00  0.00     0.198 A 
ATOM     75  C   UNL A   1      43.197  22.541  25.342  1.00  0.00     0.198 A 
ATOM     76  F   UNL A   1      43.778  24.821  25.452  1.00  0.00    -0.203 F 
ATOM     77  F   UNL A   1      41.897  20.318  27.890  1.00  0.00    -0.200 F 
ATOM     78  C   UNL A   1      42.721  21.391  25.956  1.00  0.00     0.200 A 
ATOM     79  F   UNL A   1      43.561  22.510  24.054  1.00  0.00    -0.200 F 
ATOM     80  F   UNL A   1      42.645  20.245  25.267  1.00  0.00    -0.200 F 
ENDBRANCH  46  70
BRANCH  58  81
ATOM     81  C   UNL A   1      48.061  26.725  31.071  1.00  0.00     0.064 A 
ATOM     82  C   UNL A   1      48.331  25.906  32.176  1.00  0.00     0.173 A 
ATOM     83  C   UNL A   1      49.130  27.078  30.233  1.00  0.00     0.173 A 
ATOM     84  F   UNL A   1      47.343  25.555  33.013  1.00  0.00    -0.203 F 
ATOM     85  C   UNL A   1      49.626  25.469  32.440  1.00  0.00     0.198 A 
ATOM     86  C   UNL A   1      50.419  26.617  30.486  1.00  0.00     0.198 A 
ATOM     87  F   UNL A   1      48.921  27.855  29.160  1.00  0.00    -0.203 F 
ATOM     88  F   UNL A   1      49.870  24.717  33.523  1.00  0.00    -0.200 F 
ATOM     89  C   UNL A   1      50.666  25.817  31.591  1.00  0.00     0.200 A 
ATOM     90  F   UNL A   1      51.420  26.944  29.658  1.00  0.00    -0.200 F 
ATOM     91  F   UNL A   1      51.911  25.386  31.841  1.00  0.00    -0.200 F 
ENDBRANCH  58  81
ENDBRANCH  32  33
ENDBRANCH  24  27
ENDBRANCH  22  23
ENDBRANCH  21  22
ENDBRANCH  20  21
ENDBRANCH   1  20
TORSDOF 15
ENDMDL
