MODEL 1
REMARK VINA RESULT:     -12.2      0.000      0.000
REMARK SMILES O=C(NCCCCNC(=O)c1cc(NC(=O)c2cccs2)ccc1N1CCC[C@H](C[NH+]2CCCC2)C1)c1ccc(-c2c3nc(c(-c4c(F)c(F)c(F)c(F)c4F)c4ccc([nH]4)c(-c4c(F)c(F)c(F)c(F)c4F)c4nc(c(-c5c(F)c(F)c(F)c(F)c5F)c5ccc2[nH]5)C=C4)C=C3)cc1
REMARK SMILES IDX 6 1 5 2 4 3 3 4 1 5 2 6 37 8 38 9 99 10 39 11 98 12 40 13
REMARK SMILES IDX 41 14 42 15 92 16 43 17 97 18 91 19 93 20 44 21 96 22 90 23
REMARK SMILES IDX 89 24 45 26 77 27 57 28 76 29 58 30 61 31 75 32 94 33 59 34
REMARK SMILES IDX 60 35 74 37 95 38 62 39 46 40 47 41 55 42 48 43 49 44 53 45
REMARK SMILES IDX 56 46 50 47 51 48 54 49 52 50 78 51 79 52 87 53 80 54 81 55
REMARK SMILES IDX 85 56 88 57 82 58 83 59 86 60 84 61 63 62 64 63 72 64 65 65
REMARK SMILES IDX 66 66 70 67 73 68 67 69 68 70 71 71 69 72 7 73 8 74 9 75
REMARK SMILES IDX 10 77 11 78 12 79 24 80 13 81 23 82 22 83 25 84 26 85 36 86
REMARK SMILES IDX 27 87 29 88 28 89 30 90 31 91 32 92 35 93 33 95 34 96 14 97
REMARK SMILES IDX 15 98 16 100 17 101 18 102 21 103 19 104 20 105
REMARK H PARENT 3 7 93 25 61 36 8 76 31 94 14 99
REMARK Flexibility Score: inf
ROOT
ATOM      1  C   UNL A   1      36.849  23.329  23.635  1.00  0.00     0.023 C 
ENDROOT
BRANCH   1   2
ATOM      2  C   UNL A   1      37.110  21.934  24.193  1.00  0.00     0.023 C 
BRANCH   2   3
ATOM      3  C   UNL A   1      37.616  21.874  25.629  1.00  0.00     0.116 C 
BRANCH   3   4
ATOM      4  N   UNL A   1      38.619  20.843  25.856  1.00  0.00    -0.352 N 
ATOM      5  O   UNL A   1      40.639  19.982  26.395  1.00  0.00    -0.269 OA
ATOM      6  C   UNL A   1      39.896  20.954  26.365  1.00  0.00     0.251 C 
ATOM      7  H   UNL A   1      38.345  19.929  25.610  1.00  0.00     0.163 HD
BRANCH   6   8
ATOM      8  C   UNL A   1      40.382  22.270  26.840  1.00  0.00     0.039 A 
ATOM      9  C   UNL A   1      39.997  23.441  26.189  1.00  0.00     0.014 A 
ATOM     10  C   UNL A   1      41.259  22.330  27.927  1.00  0.00     0.014 A 
ATOM     11  C   UNL A   1      40.639  24.635  26.489  1.00  0.00     0.010 A 
ATOM     12  C   UNL A   1      41.822  23.555  28.302  1.00  0.00     0.010 A 
ATOM     13  C   UNL A   1      41.553  24.712  27.555  1.00  0.00    -0.014 A 
BRANCH  13  14
ATOM     14  C   UNL A   1      42.156  26.032  27.878  1.00  0.00     0.031 A 
ATOM     15  C   UNL A   1      43.507  26.435  27.353  1.00  0.00     0.074 A 
ATOM     16  C   UNL A   1      41.423  26.907  28.593  1.00  0.00     0.049 A 
ATOM     17  N   UNL A   1      44.129  27.583  27.476  1.00  0.00    -0.248 NA
ATOM     18  C   UNL A   1      44.265  25.425  26.599  1.00  0.00     0.031 C 
ATOM     19  C   UNL A   1      40.109  26.621  29.174  1.00  0.00     0.029 A 
ATOM     20  N   UNL A   1      41.650  28.219  28.922  1.00  0.00    -0.354 N 
ATOM     21  C   UNL A   1      45.350  27.430  26.832  1.00  0.00     0.074 A 
ATOM     22  C   UNL A   1      45.396  26.070  26.338  1.00  0.00     0.031 C 
ATOM     23  C   UNL A   1      39.617  27.739  29.725  1.00  0.00     0.029 A 
ATOM     24  C   UNL A   1      40.605  28.803  29.595  1.00  0.00     0.049 A 
ATOM     25  H   UNL A   1      42.482  28.696  28.697  1.00  0.00     0.167 HD
ATOM     26  C   UNL A   1      46.334  28.345  26.661  1.00  0.00     0.037 A 
ATOM     27  C   UNL A   1      40.457  30.055  30.063  1.00  0.00     0.037 A 
ATOM     28  C   UNL A   1      46.278  29.704  27.140  1.00  0.00     0.049 A 
ATOM     29  C   UNL A   1      41.562  31.047  29.847  1.00  0.00     0.074 A 
ATOM     30  C   UNL A   1      47.223  30.708  27.007  1.00  0.00     0.029 A 
ATOM     31  N   UNL A   1      45.213  30.251  27.841  1.00  0.00    -0.354 N 
ATOM     32  N   UNL A   1      42.703  30.889  29.224  1.00  0.00    -0.248 NA
ATOM     33  C   UNL A   1      41.358  32.390  30.404  1.00  0.00     0.031 C 
ATOM     34  C   UNL A   1      46.744  31.852  27.656  1.00  0.00     0.029 A 
ATOM     35  C   UNL A   1      45.483  31.574  28.158  1.00  0.00     0.049 A 
ATOM     36  H   UNL A   1      44.387  29.771  28.079  1.00  0.00     0.167 HD
ATOM     37  C   UNL A   1      43.356  32.109  29.314  1.00  0.00     0.074 A 
ATOM     38  C   UNL A   1      42.464  33.009  30.016  1.00  0.00     0.031 C 
ATOM     39  C   UNL A   1      44.589  32.449  28.869  1.00  0.00     0.037 A 
BRANCH  26  40
ATOM     40  C   UNL A   1      47.572  27.917  25.926  1.00  0.00     0.064 A 
ATOM     41  C   UNL A   1      48.729  27.515  26.610  1.00  0.00     0.173 A 
ATOM     42  C   UNL A   1      47.577  27.835  24.525  1.00  0.00     0.173 A 
ATOM     43  F   UNL A   1      48.780  27.584  27.948  1.00  0.00    -0.203 F 
ATOM     44  C   UNL A   1      49.847  27.055  25.918  1.00  0.00     0.198 A 
ATOM     45  C   UNL A   1      48.689  27.353  23.838  1.00  0.00     0.198 A 
ATOM     46  F   UNL A   1      46.495  28.202  23.822  1.00  0.00    -0.203 F 
ATOM     47  F   UNL A   1      50.951  26.700  26.591  1.00  0.00    -0.200 F 
ATOM     48  C   UNL A   1      49.824  26.966  24.535  1.00  0.00     0.200 A 
ATOM     49  F   UNL A   1      48.660  27.256  22.501  1.00  0.00    -0.200 F 
ATOM     50  F   UNL A   1      50.895  26.509  23.872  1.00  0.00    -0.200 F 
ENDBRANCH  26  40
BRANCH  27  51
ATOM     51  C   UNL A   1      39.218  30.427  30.793  1.00  0.00     0.064 A 
ATOM     52  C   UNL A   1      39.106  30.236  32.177  1.00  0.00     0.173 A 
ATOM     53  C   UNL A   1      38.124  30.992  30.120  1.00  0.00     0.173 A 
ATOM     54  F   UNL A   1      40.118  29.682  32.861  1.00  0.00    -0.203 F 
ATOM     55  C   UNL A   1      37.939  30.580  32.856  1.00  0.00     0.198 A 
ATOM     56  C   UNL A   1      36.972  31.365  30.805  1.00  0.00     0.198 A 
ATOM     57  F   UNL A   1      38.186  31.201  28.796  1.00  0.00    -0.203 F 
ATOM     58  F   UNL A   1      37.840  30.347  34.172  1.00  0.00    -0.200 F 
ATOM     59  C   UNL A   1      36.877  31.151  32.171  1.00  0.00     0.200 A 
ATOM     60  F   UNL A   1      35.957  31.935  30.142  1.00  0.00    -0.200 F 
ATOM     61  F   UNL A   1      35.759  31.490  32.828  1.00  0.00    -0.200 F 
ENDBRANCH  27  51
BRANCH  39  62
ATOM     62  C   UNL A   1      45.035  33.856  29.136  1.00  0.00     0.064 A 
ATOM     63  C   UNL A   1      44.761  34.892  28.231  1.00  0.00     0.173 A 
ATOM     64  C   UNL A   1      45.745  34.171  30.304  1.00  0.00     0.173 A 
ATOM     65  F   UNL A   1      44.101  34.635  27.091  1.00  0.00    -0.203 F 
ATOM     66  C   UNL A   1      45.212  36.187  28.469  1.00  0.00     0.198 A 
ATOM     67  C   UNL A   1      46.171  35.472  30.552  1.00  0.00     0.198 A 
ATOM     68  F   UNL A   1      46.028  33.215  31.202  1.00  0.00    -0.203 F 
ATOM     69  F   UNL A   1      44.989  37.149  27.564  1.00  0.00    -0.200 F 
ATOM     70  C   UNL A   1      45.913  36.476  29.630  1.00  0.00     0.200 A 
ATOM     71  F   UNL A   1      46.841  35.753  31.677  1.00  0.00    -0.200 F 
ATOM     72  F   UNL A   1      46.352  37.722  29.855  1.00  0.00    -0.200 F 
ENDBRANCH  39  62
ENDBRANCH  13  14
ENDBRANCH   6   8
ENDBRANCH   3   4
ENDBRANCH   2   3
ENDBRANCH   1   2
BRANCH   1  73
ATOM     73  C   UNL A   1      35.383  23.722  23.511  1.00  0.00     0.116 C 
BRANCH  73  74
ATOM     74  N   UNL A   1      34.551  22.782  22.790  1.00  0.00    -0.352 N 
ATOM     75  C   UNL A   1      33.199  22.893  22.546  1.00  0.00     0.253 C 
ATOM     76  H   UNL A   1      34.998  21.979  22.435  1.00  0.00     0.163 HD
ATOM     77  O   UNL A   1      32.646  22.107  21.784  1.00  0.00    -0.269 OA
BRANCH  75  78
ATOM     78  C   UNL A   1      32.399  23.887  23.302  1.00  0.00     0.065 A 
ATOM     79  C   UNL A   1      32.054  25.019  22.544  1.00  0.00     0.042 A 
ATOM     80  C   UNL A   1      31.921  23.700  24.613  1.00  0.00     0.050 A 
ATOM     81  C   UNL A   1      31.108  25.927  22.997  1.00  0.00     0.042 A 
ATOM     82  C   UNL A   1      31.004  24.659  25.074  1.00  0.00     0.029 A 
ATOM     83  C   UNL A   1      30.596  25.744  24.282  1.00  0.00     0.028 A 
BRANCH  80  84
ATOM     84  N   UNL A   1      32.340  22.695  25.471  1.00  0.00    -0.370 N 
ATOM     85  C   UNL A   1      33.594  22.802  26.221  1.00  0.00     0.116 C 
ATOM     86  C   UNL A   1      31.418  21.606  25.808  1.00  0.00     0.126 C 
ATOM     87  C   UNL A   1      34.313  21.460  26.302  1.00  0.00     0.022 C 
ATOM     88  C   UNL A   1      32.152  20.254  25.735  1.00  0.00     0.064 C 
ATOM     89  C   UNL A   1      33.358  20.329  26.684  1.00  0.00     0.013 C 
BRANCH  88  90
ATOM     90  C   UNL A   1      32.480  19.928  24.251  1.00  0.00     0.267 C 
BRANCH  90  91
ATOM     91  N   UNL A   1      32.274  18.574  23.730  1.00  0.00    -0.335 N 
ATOM     92  C   UNL A   1      32.244  17.515  24.734  1.00  0.00     0.262 C 
ATOM     93  C   UNL A   1      33.152  18.145  22.647  1.00  0.00     0.262 C 
ATOM     94  H   UNL A   1      31.339  18.698  23.341  1.00  0.00     0.348 HD
ATOM     95  C   UNL A   1      33.600  16.847  24.641  1.00  0.00     0.067 C 
ATOM     96  C   UNL A   1      33.968  16.970  23.174  1.00  0.00     0.067 C 
ENDBRANCH  90  91
ENDBRANCH  88  90
ENDBRANCH  80  84
BRANCH  81  97
ATOM     97  N   UNL A   1      30.639  27.031  22.260  1.00  0.00    -0.321 N 
ATOM     98  C   UNL A   1      30.568  28.385  22.534  1.00  0.00     0.265 C 
ATOM     99  H   UNL A   1      30.291  26.790  21.371  1.00  0.00     0.170 HD
ATOM    100  O   UNL A   1      29.918  29.078  21.746  1.00  0.00    -0.268 OA
BRANCH  98 101
ATOM    101  C   UNL A   1      31.285  28.947  23.660  1.00  0.00     0.092 A 
ATOM    102  C   UNL A   1      30.795  29.611  24.771  1.00  0.00     0.025 A 
ATOM    103  S   UNL A   1      32.991  28.808  23.714  1.00  0.00    -0.139 S 
ATOM    104  C   UNL A   1      31.839  30.128  25.593  1.00  0.00     0.012 A 
ATOM    105  C   UNL A   1      33.085  29.780  25.119  1.00  0.00     0.065 A 
ENDBRANCH  98 101
ENDBRANCH  81  97
ENDBRANCH  75  78
ENDBRANCH  73  74
ENDBRANCH   1  73
TORSDOF 16
ENDMDL
MODEL 2
REMARK VINA RESULT:     -12.2      6.662     11.786
REMARK SMILES O=C(NCCCCNC(=O)c1cc(NC(=O)c2cccs2)ccc1N1CCC[C@H](C[NH+]2CCCC2)C1)c1ccc(-c2c3nc(c(-c4c(F)c(F)c(F)c(F)c4F)c4ccc([nH]4)c(-c4c(F)c(F)c(F)c(F)c4F)c4nc(c(-c5c(F)c(F)c(F)c(F)c5F)c5ccc2[nH]5)C=C4)C=C3)cc1
REMARK SMILES IDX 6 1 5 2 4 3 3 4 1 5 2 6 37 8 38 9 99 10 39 11 98 12 40 13
REMARK SMILES IDX 41 14 42 15 92 16 43 17 97 18 91 19 93 20 44 21 96 22 90 23
REMARK SMILES IDX 89 24 45 26 77 27 57 28 76 29 58 30 61 31 75 32 94 33 59 34
REMARK SMILES IDX 60 35 74 37 95 38 62 39 46 40 47 41 55 42 48 43 49 44 53 45
REMARK SMILES IDX 56 46 50 47 51 48 54 49 52 50 78 51 79 52 87 53 80 54 81 55
REMARK SMILES IDX 85 56 88 57 82 58 83 59 86 60 84 61 63 62 64 63 72 64 65 65
REMARK SMILES IDX 66 66 70 67 73 68 67 69 68 70 71 71 69 72 7 73 8 74 9 75
REMARK SMILES IDX 10 77 11 78 12 79 24 80 13 81 23 82 22 83 25 84 26 85 36 86
REMARK SMILES IDX 27 87 29 88 28 89 30 90 31 91 32 92 35 93 33 95 34 96 14 97
REMARK SMILES IDX 15 98 16 100 17 101 18 102 21 103 19 104 20 105
REMARK H PARENT 3 7 93 25 61 36 8 76 31 94 14 99
REMARK Flexibility Score: inf
ROOT
ATOM      1  C   UNL A   1      42.084  34.273  32.427  1.00  0.00     0.023 C 
ENDROOT
BRANCH   1   2
ATOM      2  C   UNL A   1      42.533  35.703  32.705  1.00  0.00     0.023 C 
BRANCH   2   3
ATOM      3  C   UNL A   1      43.434  35.895  33.919  1.00  0.00     0.116 C 
BRANCH   3   4
ATOM      4  N   UNL A   1      44.676  36.595  33.624  1.00  0.00    -0.352 N 
ATOM      5  O   UNL A   1      46.778  36.868  32.836  1.00  0.00    -0.269 OA
ATOM      6  C   UNL A   1      45.772  36.174  32.899  1.00  0.00     0.251 C 
ATOM      7  H   UNL A   1      44.746  37.503  33.997  1.00  0.00     0.163 HD
BRANCH   6   8
ATOM      8  C   UNL A   1      45.741  34.855  32.227  1.00  0.00     0.039 A 
ATOM      9  C   UNL A   1      45.667  34.772  30.837  1.00  0.00     0.014 A 
ATOM     10  C   UNL A   1      45.753  33.688  32.998  1.00  0.00     0.014 A 
ATOM     11  C   UNL A   1      45.400  33.549  30.237  1.00  0.00     0.010 A 
ATOM     12  C   UNL A   1      45.597  32.442  32.379  1.00  0.00     0.010 A 
ATOM     13  C   UNL A   1      45.371  32.366  30.996  1.00  0.00    -0.014 A 
BRANCH  13  14
ATOM     14  C   UNL A   1      45.154  31.076  30.290  1.00  0.00     0.031 A 
ATOM     15  C   UNL A   1      46.291  30.137  29.990  1.00  0.00     0.074 A 
ATOM     16  C   UNL A   1      43.890  30.720  29.989  1.00  0.00     0.049 A 
ATOM     17  N   UNL A   1      46.250  28.939  29.458  1.00  0.00    -0.248 NA
ATOM     18  C   UNL A   1      47.649  30.595  30.322  1.00  0.00     0.031 C 
ATOM     19  C   UNL A   1      42.709  31.558  30.211  1.00  0.00     0.029 A 
ATOM     20  N   UNL A   1      43.377  29.557  29.475  1.00  0.00    -0.354 N 
ATOM     21  C   UNL A   1      47.569  28.509  29.378  1.00  0.00     0.074 A 
ATOM     22  C   UNL A   1      48.392  29.582  29.893  1.00  0.00     0.031 C 
ATOM     23  C   UNL A   1      41.608  30.860  29.903  1.00  0.00     0.029 A 
ATOM     24  C   UNL A   1      42.006  29.551  29.401  1.00  0.00     0.049 A 
ATOM     25  H   UNL A   1      43.938  28.800  29.187  1.00  0.00     0.167 HD
ATOM     26  C   UNL A   1      48.044  27.323  28.926  1.00  0.00     0.037 A 
ATOM     27  C   UNL A   1      41.158  28.600  28.970  1.00  0.00     0.037 A 
ATOM     28  C   UNL A   1      47.219  26.249  28.428  1.00  0.00     0.049 A 
ATOM     29  C   UNL A   1      41.716  27.293  28.486  1.00  0.00     0.074 A 
ATOM     30  C   UNL A   1      47.608  25.006  27.957  1.00  0.00     0.029 A 
ATOM     31  N   UNL A   1      45.835  26.291  28.344  1.00  0.00    -0.354 N 
ATOM     32  N   UNL A   1      42.963  26.899  28.430  1.00  0.00    -0.248 NA
ATOM     33  C   UNL A   1      40.747  26.302  28.002  1.00  0.00     0.031 C 
ATOM     34  C   UNL A   1      46.463  24.309  27.556  1.00  0.00     0.029 A 
ATOM     35  C   UNL A   1      45.357  25.101  27.816  1.00  0.00     0.049 A 
ATOM     36  H   UNL A   1      45.274  27.053  28.618  1.00  0.00     0.167 HD
ATOM     37  C   UNL A   1      42.933  25.617  27.904  1.00  0.00     0.074 A 
ATOM     38  C   UNL A   1      41.538  25.285  27.696  1.00  0.00     0.031 C 
ATOM     39  C   UNL A   1      43.966  24.794  27.604  1.00  0.00     0.037 A 
BRANCH  26  40
ATOM     40  C   UNL A   1      49.530  27.110  28.938  1.00  0.00     0.064 A 
ATOM     41  C   UNL A   1      50.179  26.528  30.038  1.00  0.00     0.173 A 
ATOM     42  C   UNL A   1      50.304  27.418  27.809  1.00  0.00     0.173 A 
ATOM     43  F   UNL A   1      49.487  26.224  31.146  1.00  0.00    -0.203 F 
ATOM     44  C   UNL A   1      51.548  26.273  30.009  1.00  0.00     0.198 A 
ATOM     45  C   UNL A   1      51.668  27.140  27.775  1.00  0.00     0.198 A 
ATOM     46  F   UNL A   1      49.733  27.970  26.728  1.00  0.00    -0.203 F 
ATOM     47  F   UNL A   1      52.151  25.741  31.082  1.00  0.00    -0.200 F 
ATOM     48  C   UNL A   1      52.290  26.570  28.877  1.00  0.00     0.200 A 
ATOM     49  F   UNL A   1      52.382  27.416  26.674  1.00  0.00    -0.200 F 
ATOM     50  F   UNL A   1      53.604  26.310  28.846  1.00  0.00    -0.200 F 
ENDBRANCH  26  40
BRANCH  27  51
ATOM     51  C   UNL A   1      39.696  28.861  28.968  1.00  0.00     0.064 A 
ATOM     52  C   UNL A   1      38.928  28.694  30.128  1.00  0.00     0.173 A 
ATOM     53  C   UNL A   1      39.040  29.296  27.807  1.00  0.00     0.173 A 
ATOM     54  F   UNL A   1      39.506  28.262  31.259  1.00  0.00    -0.203 F 
ATOM     55  C   UNL A   1      37.555  28.934  30.120  1.00  0.00     0.198 A 
ATOM     56  C   UNL A   1      37.675  29.567  27.809  1.00  0.00     0.198 A 
ATOM     57  F   UNL A   1      39.734  29.478  26.673  1.00  0.00    -0.203 F 
ATOM     58  F   UNL A   1      36.835  28.724  31.230  1.00  0.00    -0.200 F 
ATOM     59  C   UNL A   1      36.932  29.377  28.963  1.00  0.00     0.200 A 
ATOM     60  F   UNL A   1      37.082  30.014  26.694  1.00  0.00    -0.200 F 
ATOM     61  F   UNL A   1      35.614  29.617  28.960  1.00  0.00    -0.200 F 
ENDBRANCH  27  51
BRANCH  39  62
ATOM     62  C   UNL A   1      43.615  23.459  27.019  1.00  0.00     0.064 A 
ATOM     63  C   UNL A   1      43.890  23.155  25.677  1.00  0.00     0.173 A 
ATOM     64  C   UNL A   1      42.996  22.475  27.804  1.00  0.00     0.173 A 
ATOM     65  F   UNL A   1      44.464  24.071  24.883  1.00  0.00    -0.203 F 
ATOM     66  C   UNL A   1      43.525  21.927  25.133  1.00  0.00     0.198 A 
ATOM     67  C   UNL A   1      42.658  21.238  27.264  1.00  0.00     0.198 A 
ATOM     68  F   UNL A   1      42.717  22.716  29.094  1.00  0.00    -0.203 F 
ATOM     69  F   UNL A   1      43.746  21.681  23.835  1.00  0.00    -0.200 F 
ATOM     70  C   UNL A   1      42.914  20.969  25.927  1.00  0.00     0.200 A 
ATOM     71  F   UNL A   1      42.073  20.309  28.033  1.00  0.00    -0.200 F 
ATOM     72  F   UNL A   1      42.558  19.790  25.400  1.00  0.00    -0.200 F 
ENDBRANCH  39  62
ENDBRANCH  13  14
ENDBRANCH   6   8
ENDBRANCH   3   4
ENDBRANCH   2   3
ENDBRANCH   1   2
BRANCH   1  73
ATOM     73  C   UNL A   1      40.732  34.131  31.742  1.00  0.00     0.116 C 
BRANCH  73  74
ATOM     74  N   UNL A   1      39.627  34.777  32.417  1.00  0.00    -0.352 N 
ATOM     75  C   UNL A   1      38.799  34.218  33.367  1.00  0.00     0.253 C 
ATOM     76  H   UNL A   1      39.448  35.714  32.173  1.00  0.00     0.163 HD
ATOM     77  O   UNL A   1      38.001  34.923  33.978  1.00  0.00    -0.269 OA
BRANCH  75  78
ATOM     78  C   UNL A   1      38.791  32.747  33.556  1.00  0.00     0.065 A 
ATOM     79  C   UNL A   1      39.754  32.298  34.476  1.00  0.00     0.042 A 
ATOM     80  C   UNL A   1      37.856  31.870  32.974  1.00  0.00     0.050 A 
ATOM     81  C   UNL A   1      39.730  31.001  34.966  1.00  0.00     0.042 A 
ATOM     82  C   UNL A   1      37.883  30.546  33.445  1.00  0.00     0.029 A 
ATOM     83  C   UNL A   1      38.791  30.120  34.428  1.00  0.00     0.028 A 
BRANCH  80  84
ATOM     84  N   UNL A   1      36.986  32.208  31.950  1.00  0.00    -0.370 N 
ATOM     85  C   UNL A   1      37.477  32.624  30.634  1.00  0.00     0.116 C 
ATOM     86  C   UNL A   1      35.553  31.938  32.105  1.00  0.00     0.126 C 
ATOM     87  C   UNL A   1      36.626  33.746  30.049  1.00  0.00     0.022 C 
ATOM     88  C   UNL A   1      34.735  33.155  31.637  1.00  0.00     0.064 C 
ATOM     89  C   UNL A   1      35.132  33.451  30.183  1.00  0.00     0.013 C 
BRANCH  88  90
ATOM     90  C   UNL A   1      34.935  34.325  32.641  1.00  0.00     0.267 C 
BRANCH  90  91
ATOM     91  N   UNL A   1      33.832  35.244  32.934  1.00  0.00    -0.335 N 
ATOM     92  C   UNL A   1      32.890  35.459  31.840  1.00  0.00     0.262 C 
ATOM     93  C   UNL A   1      34.189  36.546  33.487  1.00  0.00     0.262 C 
ATOM     94  H   UNL A   1      33.376  34.708  33.673  1.00  0.00     0.348 HD
ATOM     95  C   UNL A   1      33.256  36.813  31.269  1.00  0.00     0.067 C 
ATOM     96  C   UNL A   1      33.753  37.595  32.471  1.00  0.00     0.067 C 
ENDBRANCH  90  91
ENDBRANCH  88  90
ENDBRANCH  80  84
BRANCH  81  97
ATOM     97  N   UNL A   1      40.597  30.502  35.957  1.00  0.00    -0.321 N 
ATOM     98  C   UNL A   1      41.625  29.576  35.930  1.00  0.00     0.265 C 
ATOM     99  H   UNL A   1      40.439  30.889  36.848  1.00  0.00     0.170 HD
ATOM    100  O   UNL A   1      42.071  29.209  37.021  1.00  0.00    -0.268 OA
BRANCH  98 101
ATOM    101  C   UNL A   1      42.176  29.124  34.669  1.00  0.00     0.092 A 
ATOM    102  C   UNL A   1      41.645  28.242  33.744  1.00  0.00     0.025 A 
ATOM    103  S   UNL A   1      43.699  29.723  34.164  1.00  0.00    -0.139 S 
ATOM    104  C   UNL A   1      42.560  27.955  32.689  1.00  0.00     0.012 A 
ATOM    105  C   UNL A   1      43.726  28.679  32.809  1.00  0.00     0.065 A 
ENDBRANCH  98 101
ENDBRANCH  81  97
ENDBRANCH  75  78
ENDBRANCH  73  74
ENDBRANCH   1  73
TORSDOF 16
ENDMDL
MODEL 3
REMARK VINA RESULT:     -11.7      6.906     11.286
REMARK SMILES O=C(NCCCCNC(=O)c1cc(NC(=O)c2cccs2)ccc1N1CCC[C@H](C[NH+]2CCCC2)C1)c1ccc(-c2c3nc(c(-c4c(F)c(F)c(F)c(F)c4F)c4ccc([nH]4)c(-c4c(F)c(F)c(F)c(F)c4F)c4nc(c(-c5c(F)c(F)c(F)c(F)c5F)c5ccc2[nH]5)C=C4)C=C3)cc1
REMARK SMILES IDX 6 1 5 2 4 3 3 4 1 5 2 6 37 8 38 9 99 10 39 11 98 12 40 13
REMARK SMILES IDX 41 14 42 15 92 16 43 17 97 18 91 19 93 20 44 21 96 22 90 23
REMARK SMILES IDX 89 24 45 26 77 27 57 28 76 29 58 30 61 31 75 32 94 33 59 34
REMARK SMILES IDX 60 35 74 37 95 38 62 39 46 40 47 41 55 42 48 43 49 44 53 45
REMARK SMILES IDX 56 46 50 47 51 48 54 49 52 50 78 51 79 52 87 53 80 54 81 55
REMARK SMILES IDX 85 56 88 57 82 58 83 59 86 60 84 61 63 62 64 63 72 64 65 65
REMARK SMILES IDX 66 66 70 67 73 68 67 69 68 70 71 71 69 72 7 73 8 74 9 75
REMARK SMILES IDX 10 77 11 78 12 79 24 80 13 81 23 82 22 83 25 84 26 85 36 86
REMARK SMILES IDX 27 87 29 88 28 89 30 90 31 91 32 92 35 93 33 95 34 96 14 97
REMARK SMILES IDX 15 98 16 100 17 101 18 102 21 103 19 104 20 105
REMARK H PARENT 3 7 93 25 61 36 8 76 31 94 14 99
REMARK Flexibility Score: inf
ROOT
ATOM      1  C   UNL A   1      38.263  34.493  33.708  1.00  0.00     0.023 C 
ENDROOT
BRANCH   1   2
ATOM      2  C   UNL A   1      37.252  34.176  34.805  1.00  0.00     0.023 C 
BRANCH   2   3
ATOM      3  C   UNL A   1      37.792  34.171  36.229  1.00  0.00     0.116 C 
BRANCH   3   4
ATOM      4  N   UNL A   1      37.423  32.988  36.994  1.00  0.00    -0.352 N 
ATOM      5  O   UNL A   1      37.403  30.802  37.571  1.00  0.00    -0.269 OA
ATOM      6  C   UNL A   1      37.904  31.698  36.905  1.00  0.00     0.251 C 
ATOM      7  H   UNL A   1      36.727  33.129  37.676  1.00  0.00     0.163 HD
BRANCH   6   8
ATOM      8  C   UNL A   1      39.009  31.392  35.968  1.00  0.00     0.039 A 
ATOM      9  C   UNL A   1      38.753  30.726  34.770  1.00  0.00     0.014 A 
ATOM     10  C   UNL A   1      40.319  31.745  36.306  1.00  0.00     0.014 A 
ATOM     11  C   UNL A   1      39.813  30.236  34.018  1.00  0.00     0.010 A 
ATOM     12  C   UNL A   1      41.382  31.347  35.487  1.00  0.00     0.010 A 
ATOM     13  C   UNL A   1      41.141  30.547  34.360  1.00  0.00    -0.014 A 
BRANCH  13  14
ATOM     14  C   UNL A   1      42.233  30.058  33.477  1.00  0.00     0.031 A 
ATOM     15  C   UNL A   1      42.786  30.901  32.360  1.00  0.00     0.074 A 
ATOM     16  C   UNL A   1      42.781  28.857  33.750  1.00  0.00     0.049 A 
ATOM     17  N   UNL A   1      43.793  30.648  31.560  1.00  0.00    -0.248 NA
ATOM     18  C   UNL A   1      42.127  32.190  32.099  1.00  0.00     0.031 C 
ATOM     19  C   UNL A   1      42.313  27.941  34.792  1.00  0.00     0.029 A 
ATOM     20  N   UNL A   1      43.867  28.218  33.211  1.00  0.00    -0.354 N 
ATOM     21  C   UNL A   1      43.879  31.733  30.696  1.00  0.00     0.074 A 
ATOM     22  C   UNL A   1      42.807  32.638  31.051  1.00  0.00     0.031 C 
ATOM     23  C   UNL A   1      43.146  26.894  34.865  1.00  0.00     0.029 A 
ATOM     24  C   UNL A   1      44.166  27.031  33.833  1.00  0.00     0.049 A 
ATOM     25  H   UNL A   1      44.382  28.575  32.451  1.00  0.00     0.167 HD
ATOM     26  C   UNL A   1      44.778  31.954  29.706  1.00  0.00     0.037 A 
ATOM     27  C   UNL A   1      45.149  26.143  33.598  1.00  0.00     0.037 A 
ATOM     28  C   UNL A   1      45.855  31.057  29.365  1.00  0.00     0.049 A 
ATOM     29  C   UNL A   1      46.135  26.424  32.501  1.00  0.00     0.074 A 
ATOM     30  C   UNL A   1      46.822  31.200  28.384  1.00  0.00     0.029 A 
ATOM     31  N   UNL A   1      46.109  29.851  30.002  1.00  0.00    -0.354 N 
ATOM     32  N   UNL A   1      46.210  27.461  31.704  1.00  0.00    -0.248 NA
ATOM     33  C   UNL A   1      47.170  25.409  32.270  1.00  0.00     0.031 C 
ATOM     34  C   UNL A   1      47.641  30.065  28.404  1.00  0.00     0.029 A 
ATOM     35  C   UNL A   1      47.210  29.234  29.426  1.00  0.00     0.049 A 
ATOM     36  H   UNL A   1      45.586  29.486  30.752  1.00  0.00     0.167 HD
ATOM     37  C   UNL A   1      47.296  27.224  30.875  1.00  0.00     0.074 A 
ATOM     38  C   UNL A   1      47.874  25.964  31.295  1.00  0.00     0.031 C 
ATOM     39  C   UNL A   1      47.763  27.974  29.849  1.00  0.00     0.037 A 
BRANCH  26  40
ATOM     40  C   UNL A   1      44.644  33.217  28.904  1.00  0.00     0.064 A 
ATOM     41  C   UNL A   1      45.143  34.441  29.374  1.00  0.00     0.173 A 
ATOM     42  C   UNL A   1      44.082  33.189  27.618  1.00  0.00     0.173 A 
ATOM     43  F   UNL A   1      45.680  34.524  30.600  1.00  0.00    -0.203 F 
ATOM     44  C   UNL A   1      45.074  35.591  28.591  1.00  0.00     0.198 A 
ATOM     45  C   UNL A   1      44.035  34.335  26.829  1.00  0.00     0.198 A 
ATOM     46  F   UNL A   1      43.596  32.043  27.118  1.00  0.00    -0.203 F 
ATOM     47  F   UNL A   1      45.533  36.755  29.072  1.00  0.00    -0.200 F 
ATOM     48  C   UNL A   1      44.529  35.536  27.317  1.00  0.00     0.200 A 
ATOM     49  F   UNL A   1      43.520  34.278  25.593  1.00  0.00    -0.200 F 
ATOM     50  F   UNL A   1      44.478  36.641  26.560  1.00  0.00    -0.200 F 
ENDBRANCH  26  40
BRANCH  27  51
ATOM     51  C   UNL A   1      45.234  24.905  34.412  1.00  0.00     0.064 A 
ATOM     52  C   UNL A   1      45.873  24.898  35.659  1.00  0.00     0.173 A 
ATOM     53  C   UNL A   1      44.666  23.703  33.962  1.00  0.00     0.173 A 
ATOM     54  F   UNL A   1      46.448  26.018  36.124  1.00  0.00    -0.203 F 
ATOM     55  C   UNL A   1      45.957  23.731  36.416  1.00  0.00     0.198 A 
ATOM     56  C   UNL A   1      44.721  22.547  34.735  1.00  0.00     0.198 A 
ATOM     57  F   UNL A   1      44.037  23.660  32.778  1.00  0.00    -0.203 F 
ATOM     58  F   UNL A   1      46.612  23.740  37.585  1.00  0.00    -0.200 F 
ATOM     59  C   UNL A   1      45.375  22.559  35.957  1.00  0.00     0.200 A 
ATOM     60  F   UNL A   1      44.140  21.422  34.296  1.00  0.00    -0.200 F 
ATOM     61  F   UNL A   1      45.447  21.441  36.691  1.00  0.00    -0.200 F 
ENDBRANCH  27  51
BRANCH  39  62
ATOM     62  C   UNL A   1      48.957  27.441  29.115  1.00  0.00     0.064 A 
ATOM     63  C   UNL A   1      48.813  26.616  27.989  1.00  0.00     0.173 A 
ATOM     64  C   UNL A   1      50.256  27.753  29.543  1.00  0.00     0.173 A 
ATOM     65  F   UNL A   1      47.590  26.276  27.554  1.00  0.00    -0.203 F 
ATOM     66  C   UNL A   1      49.927  26.095  27.338  1.00  0.00     0.198 A 
ATOM     67  C   UNL A   1      51.368  27.252  28.872  1.00  0.00     0.198 A 
ATOM     68  F   UNL A   1      50.445  28.541  30.612  1.00  0.00    -0.203 F 
ATOM     69  F   UNL A   1      49.765  25.264  26.300  1.00  0.00    -0.200 F 
ATOM     70  C   UNL A   1      51.203  26.416  27.778  1.00  0.00     0.200 A 
ATOM     71  F   UNL A   1      52.600  27.568  29.292  1.00  0.00    -0.200 F 
ATOM     72  F   UNL A   1      52.274  25.909  27.154  1.00  0.00    -0.200 F 
ENDBRANCH  39  62
ENDBRANCH  13  14
ENDBRANCH   6   8
ENDBRANCH   3   4
ENDBRANCH   2   3
ENDBRANCH   1   2
BRANCH   1  73
ATOM     73  C   UNL A   1      38.237  33.563  32.503  1.00  0.00     0.116 C 
BRANCH  73  74
ATOM     74  N   UNL A   1      38.703  34.146  31.262  1.00  0.00    -0.352 N 
ATOM     75  C   UNL A   1      38.649  33.576  30.009  1.00  0.00     0.253 C 
ATOM     76  H   UNL A   1      39.100  35.046  31.320  1.00  0.00     0.163 HD
ATOM     77  O   UNL A   1      38.932  34.242  29.018  1.00  0.00    -0.269 OA
BRANCH  75  78
ATOM     78  C   UNL A   1      38.370  32.125  29.878  1.00  0.00     0.065 A 
ATOM     79  C   UNL A   1      39.489  31.316  30.139  1.00  0.00     0.042 A 
ATOM     80  C   UNL A   1      37.098  31.574  29.627  1.00  0.00     0.050 A 
ATOM     81  C   UNL A   1      39.360  29.946  30.311  1.00  0.00     0.042 A 
ATOM     82  C   UNL A   1      37.001  30.178  29.754  1.00  0.00     0.029 A 
ATOM     83  C   UNL A   1      38.103  29.379  30.099  1.00  0.00     0.028 A 
BRANCH  80  84
ATOM     84  N   UNL A   1      35.992  32.296  29.211  1.00  0.00    -0.370 N 
ATOM     85  C   UNL A   1      36.014  33.090  27.980  1.00  0.00     0.116 C 
ATOM     86  C   UNL A   1      34.706  32.096  29.886  1.00  0.00     0.126 C 
ATOM     87  C   UNL A   1      35.254  34.401  28.147  1.00  0.00     0.022 C 
ATOM     88  C   UNL A   1      34.041  33.455  30.166  1.00  0.00     0.064 C 
ATOM     89  C   UNL A   1      33.900  34.188  28.823  1.00  0.00     0.013 C 
BRANCH  88  90
ATOM     90  C   UNL A   1      34.847  34.206  31.263  1.00  0.00     0.267 C 
BRANCH  90  91
ATOM     91  N   UNL A   1      34.149  34.947  32.316  1.00  0.00    -0.335 N 
ATOM     92  C   UNL A   1      32.792  35.372  31.987  1.00  0.00     0.262 C 
ATOM     93  C   UNL A   1      34.852  36.087  32.895  1.00  0.00     0.262 C 
ATOM     94  H   UNL A   1      34.111  34.213  33.024  1.00  0.00     0.348 HD
ATOM     95  C   UNL A   1      32.910  36.847  31.666  1.00  0.00     0.067 C 
ATOM     96  C   UNL A   1      34.031  37.329  32.567  1.00  0.00     0.067 C 
ENDBRANCH  90  91
ENDBRANCH  88  90
ENDBRANCH  80  84
BRANCH  81  97
ATOM     97  N   UNL A   1      40.412  29.080  30.667  1.00  0.00    -0.321 N 
ATOM     98  C   UNL A   1      41.325  28.351  29.925  1.00  0.00     0.265 C 
ATOM     99  H   UNL A   1      40.519  28.972  31.639  1.00  0.00     0.170 HD
ATOM    100  O   UNL A   1      42.007  27.526  30.539  1.00  0.00    -0.268 OA
BRANCH  98 101
ATOM    101  C   UNL A   1      41.495  28.607  28.510  1.00  0.00     0.092 A 
ATOM    102  C   UNL A   1      40.545  28.663  27.505  1.00  0.00     0.025 A 
ATOM    103  S   UNL A   1      43.069  28.905  27.902  1.00  0.00    -0.139 S 
ATOM    104  C   UNL A   1      41.134  28.810  26.216  1.00  0.00     0.012 A 
ATOM    105  C   UNL A   1      42.504  28.932  26.287  1.00  0.00     0.065 A 
ENDBRANCH  98 101
ENDBRANCH  81  97
ENDBRANCH  75  78
ENDBRANCH  73  74
ENDBRANCH   1  73
TORSDOF 16
ENDMDL
