MODEL 1
REMARK VINA RESULT:     -13.4      0.000      0.000
REMARK SMILES C[C@H](NC(=O)N1CC[C@@H](C(=O)NCCCCNC(=O)c2ccc(-c3c4nc(c(-c5c(F)c(F)c(F)c(F)c5F)c5ccc([nH]5)c(-c5c(F)c(F)c(F)c(F)c5F)c5nc(c(-c6c(F)c(F)c(F)c(F)c6F)c6ccc3[nH]6)C=C5)C=C4)cc2)[C@H]1C)c1ccc(Cl)cc1
REMARK SMILES IDX 14 1 13 2 12 3 10 4 11 5 9 7 6 8 7 9 83 10 8 11 84 12 4 13
REMARK SMILES IDX 3 14 5 16 2 17 1 18 85 19 86 20 91 21 87 22 90 23 88 24
REMARK SMILES IDX 89 25 15 26 16 27 17 28 18 29 19 31 20 32 21 33 82 34 22 35
REMARK SMILES IDX 81 36 23 37 24 38 25 39 75 40 26 41 80 42 74 43 76 44 27 45
REMARK SMILES IDX 79 46 73 47 72 48 28 50 60 51 40 52 59 53 41 54 44 55 58 56
REMARK SMILES IDX 77 57 42 58 43 59 57 61 78 62 45 63 29 64 30 65 38 66 31 67
REMARK SMILES IDX 32 68 36 69 39 70 33 71 34 72 37 73 35 74 61 75 62 76 70 77
REMARK SMILES IDX 63 78 64 79 68 80 71 81 65 82 66 83 69 84 67 85 46 86 47 87
REMARK SMILES IDX 55 88 48 89 49 90 53 91 56 92 50 93 51 94 54 95 52 96
REMARK H PARENT 12 6 3 15 17 30 76 49 44 60
REMARK Flexibility Score: inf
ROOT
ATOM      1  C   UNL A   1      31.809  30.652  26.289  1.00  0.00     0.023 C 
ENDROOT
BRANCH   1   2
ATOM      2  C   UNL A   1      32.584  29.679  27.171  1.00  0.00     0.116 C 
BRANCH   2   3
ATOM      3  N   UNL A   1      31.882  28.430  27.372  1.00  0.00    -0.356 N 
ATOM      4  C   UNL A   1      31.410  27.507  26.497  1.00  0.00     0.225 C 
ATOM      5  O   UNL A   1      30.845  26.525  26.994  1.00  0.00    -0.275 OA
ATOM      6  H   UNL A   1      31.716  28.210  28.317  1.00  0.00     0.163 HD
BRANCH   4   7
ATOM      7  C   UNL A   1      31.523  27.614  24.982  1.00  0.00     0.102 C 
ATOM      8  N   UNL A   1      32.384  26.111  23.345  1.00  0.00    -0.321 N 
ATOM      9  C   UNL A   1      31.046  26.466  22.921  1.00  0.00     0.122 C 
ATOM     10  C   UNL A   1      32.822  27.116  24.316  1.00  0.00     0.096 C 
ATOM     11  C   UNL A   1      30.373  26.994  24.176  1.00  0.00     0.037 C 
ATOM     12  C   UNL A   1      33.959  26.678  25.224  1.00  0.00     0.032 C 
BRANCH   8  13
ATOM     13  C   UNL A   1      33.268  25.696  22.375  1.00  0.00     0.318 C 
ATOM     14  N   UNL A   1      33.830  24.470  22.559  1.00  0.00    -0.331 N 
ATOM     15  H   UNL A   1      34.610  24.257  21.999  1.00  0.00     0.165 HD
ATOM     16  O   UNL A   1      33.531  26.353  21.373  1.00  0.00    -0.249 OA
BRANCH  14  17
ATOM     17  C   UNL A   1      33.407  23.439  23.495  1.00  0.00     0.111 C 
ATOM     18  C   UNL A   1      32.268  22.630  22.873  1.00  0.00     0.036 C 
BRANCH  17  19
ATOM     19  C   UNL A   1      34.544  22.562  24.006  1.00  0.00    -0.026 A 
ATOM     20  C   UNL A   1      35.871  22.939  23.724  1.00  0.00     0.007 A 
ATOM     21  C   UNL A   1      34.341  21.351  24.686  1.00  0.00     0.007 A 
ATOM     22  C   UNL A   1      36.949  22.107  24.032  1.00  0.00     0.021 A 
ATOM     23  C   UNL A   1      35.423  20.528  25.025  1.00  0.00     0.021 A 
ATOM     24  C   UNL A   1      36.718  20.898  24.676  1.00  0.00     0.041 A 
ATOM     25  Cl  UNL A   1      38.039  19.856  25.032  1.00  0.00    -0.084 Cl
ENDBRANCH  17  19
ENDBRANCH  14  17
ENDBRANCH   8  13
ENDBRANCH   4   7
ENDBRANCH   2   3
ENDBRANCH   1   2
BRANCH   1  26
ATOM     26  C   UNL A   1      31.488  32.013  26.891  1.00  0.00     0.023 C 
BRANCH  26  27
ATOM     27  C   UNL A   1      32.698  32.799  27.369  1.00  0.00     0.116 C 
BRANCH  27  28
ATOM     28  N   UNL A   1      32.398  34.193  27.679  1.00  0.00    -0.352 N 
ATOM     29  C   UNL A   1      32.974  35.037  28.603  1.00  0.00     0.251 C 
ATOM     30  H   UNL A   1      31.673  34.592  27.146  1.00  0.00     0.163 HD
ATOM     31  O   UNL A   1      32.500  36.145  28.799  1.00  0.00    -0.269 OA
BRANCH  29  32
ATOM     32  C   UNL A   1      34.148  34.581  29.378  1.00  0.00     0.039 A 
ATOM     33  C   UNL A   1      33.956  34.066  30.664  1.00  0.00     0.014 A 
ATOM     34  C   UNL A   1      35.428  34.630  28.826  1.00  0.00     0.014 A 
ATOM     35  C   UNL A   1      35.040  33.517  31.355  1.00  0.00     0.010 A 
ATOM     36  C   UNL A   1      36.479  33.988  29.468  1.00  0.00     0.010 A 
ATOM     37  C   UNL A   1      36.299  33.431  30.742  1.00  0.00    -0.014 A 
BRANCH  37  38
ATOM     38  C   UNL A   1      37.454  32.782  31.411  1.00  0.00     0.031 A 
ATOM     39  C   UNL A   1      38.153  31.631  30.739  1.00  0.00     0.074 A 
ATOM     40  C   UNL A   1      37.808  33.159  32.655  1.00  0.00     0.049 A 
ATOM     41  N   UNL A   1      39.092  30.846  31.202  1.00  0.00    -0.248 NA
ATOM     42  C   UNL A   1      37.702  31.286  29.380  1.00  0.00     0.031 C 
ATOM     43  C   UNL A   1      37.159  34.209  33.442  1.00  0.00     0.029 A 
ATOM     44  N   UNL A   1      38.792  32.685  33.487  1.00  0.00    -0.354 N 
ATOM     45  C   UNL A   1      39.311  29.897  30.211  1.00  0.00     0.074 A 
ATOM     46  C   UNL A   1      38.376  30.170  29.145  1.00  0.00     0.031 C 
ATOM     47  C   UNL A   1      37.775  34.315  34.631  1.00  0.00     0.029 A 
ATOM     48  C   UNL A   1      38.840  33.320  34.704  1.00  0.00     0.049 A 
ATOM     49  H   UNL A   1      39.407  31.958  33.234  1.00  0.00     0.167 HD
ATOM     50  C   UNL A   1      40.232  28.905  30.183  1.00  0.00     0.037 A 
ATOM     51  C   UNL A   1      39.651  33.118  35.760  1.00  0.00     0.037 A 
ATOM     52  C   UNL A   1      41.206  28.682  31.216  1.00  0.00     0.049 A 
ATOM     53  C   UNL A   1      40.713  32.055  35.670  1.00  0.00     0.074 A 
ATOM     54  C   UNL A   1      42.240  27.764  31.244  1.00  0.00     0.029 A 
ATOM     55  N   UNL A   1      41.273  29.400  32.401  1.00  0.00    -0.354 N 
ATOM     56  N   UNL A   1      40.962  31.214  34.696  1.00  0.00    -0.248 NA
ATOM     57  C   UNL A   1      41.617  31.921  36.822  1.00  0.00     0.031 C 
ATOM     58  C   UNL A   1      42.916  27.905  32.460  1.00  0.00     0.029 A 
ATOM     59  C   UNL A   1      42.328  28.939  33.171  1.00  0.00     0.049 A 
ATOM     60  H   UNL A   1      40.662  30.127  32.658  1.00  0.00     0.167 HD
ATOM     61  C   UNL A   1      42.064  30.475  35.101  1.00  0.00     0.074 A 
ATOM     62  C   UNL A   1      42.447  30.976  36.405  1.00  0.00     0.031 C 
ATOM     63  C   UNL A   1      42.703  29.469  34.455  1.00  0.00     0.037 A 
BRANCH  50  64
ATOM     64  C   UNL A   1      40.244  27.999  28.987  1.00  0.00     0.064 A 
ATOM     65  C   UNL A   1      40.976  28.314  27.832  1.00  0.00     0.173 A 
ATOM     66  C   UNL A   1      39.548  26.781  29.012  1.00  0.00     0.173 A 
ATOM     67  F   UNL A   1      41.646  29.474  27.754  1.00  0.00    -0.203 F 
ATOM     68  C   UNL A   1      40.990  27.455  26.737  1.00  0.00     0.198 A 
ATOM     69  C   UNL A   1      39.590  25.910  27.925  1.00  0.00     0.198 A 
ATOM     70  F   UNL A   1      38.835  26.429  30.092  1.00  0.00    -0.203 F 
ATOM     71  F   UNL A   1      41.658  27.801  25.627  1.00  0.00    -0.200 F 
ATOM     72  C   UNL A   1      40.305  26.251  26.786  1.00  0.00     0.200 A 
ATOM     73  F   UNL A   1      38.936  24.741  27.979  1.00  0.00    -0.200 F 
ATOM     74  F   UNL A   1      40.328  25.421  25.735  1.00  0.00    -0.200 F 
ENDBRANCH  50  64
BRANCH  51  75
ATOM     75  C   UNL A   1      39.520  33.959  36.978  1.00  0.00     0.064 A 
ATOM     76  C   UNL A   1      38.777  33.515  38.081  1.00  0.00     0.173 A 
ATOM     77  C   UNL A   1      40.116  35.225  37.060  1.00  0.00     0.173 A 
ATOM     78  F   UNL A   1      38.173  32.319  38.042  1.00  0.00    -0.203 F 
ATOM     79  C   UNL A   1      38.610  34.317  39.208  1.00  0.00     0.198 A 
ATOM     80  C   UNL A   1      39.973  36.015  38.200  1.00  0.00     0.198 A 
ATOM     81  F   UNL A   1      40.845  35.693  36.036  1.00  0.00    -0.203 F 
ATOM     82  F   UNL A   1      37.851  33.889  40.226  1.00  0.00    -0.200 F 
ATOM     83  C   UNL A   1      39.211  35.565  39.268  1.00  0.00     0.200 A 
ATOM     84  F   UNL A   1      40.565  37.215  38.259  1.00  0.00    -0.200 F 
ATOM     85  F   UNL A   1      39.048  36.338  40.351  1.00  0.00    -0.200 F 
ENDBRANCH  51  75
BRANCH  63  86
ATOM     86  C   UNL A   1      43.905  28.876  35.127  1.00  0.00     0.064 A 
ATOM     87  C   UNL A   1      43.800  27.766  35.976  1.00  0.00     0.173 A 
ATOM     88  C   UNL A   1      45.183  29.401  34.880  1.00  0.00     0.173 A 
ATOM     89  F   UNL A   1      42.598  27.239  36.253  1.00  0.00    -0.203 F 
ATOM     90  C   UNL A   1      44.930  27.217  36.576  1.00  0.00     0.198 A 
ATOM     91  C   UNL A   1      46.312  28.832  35.459  1.00  0.00     0.198 A 
ATOM     92  F   UNL A   1      45.334  30.457  34.068  1.00  0.00    -0.203 F 
ATOM     93  F   UNL A   1      44.803  26.185  37.421  1.00  0.00    -0.200 F 
ATOM     94  C   UNL A   1      46.185  27.746  36.311  1.00  0.00     0.200 A 
ATOM     95  F   UNL A   1      47.525  29.336  35.192  1.00  0.00    -0.200 F 
ATOM     96  F   UNL A   1      47.272  27.212  36.884  1.00  0.00    -0.200 F 
ENDBRANCH  63  86
ENDBRANCH  37  38
ENDBRANCH  29  32
ENDBRANCH  27  28
ENDBRANCH  26  27
ENDBRANCH   1  26
TORSDOF 14
ENDMDL
MODEL 2
REMARK VINA RESULT:     -13.4      5.812     11.391
REMARK SMILES C[C@H](NC(=O)N1CC[C@@H](C(=O)NCCCCNC(=O)c2ccc(-c3c4nc(c(-c5c(F)c(F)c(F)c(F)c5F)c5ccc([nH]5)c(-c5c(F)c(F)c(F)c(F)c5F)c5nc(c(-c6c(F)c(F)c(F)c(F)c6F)c6ccc3[nH]6)C=C5)C=C4)cc2)[C@H]1C)c1ccc(Cl)cc1
REMARK SMILES IDX 14 1 13 2 12 3 10 4 11 5 9 7 6 8 7 9 83 10 8 11 84 12 4 13
REMARK SMILES IDX 3 14 5 16 2 17 1 18 85 19 86 20 91 21 87 22 90 23 88 24
REMARK SMILES IDX 89 25 15 26 16 27 17 28 18 29 19 31 20 32 21 33 82 34 22 35
REMARK SMILES IDX 81 36 23 37 24 38 25 39 75 40 26 41 80 42 74 43 76 44 27 45
REMARK SMILES IDX 79 46 73 47 72 48 28 50 60 51 40 52 59 53 41 54 44 55 58 56
REMARK SMILES IDX 77 57 42 58 43 59 57 61 78 62 45 63 29 64 30 65 38 66 31 67
REMARK SMILES IDX 32 68 36 69 39 70 33 71 34 72 37 73 35 74 61 75 62 76 70 77
REMARK SMILES IDX 63 78 64 79 68 80 71 81 65 82 66 83 69 84 67 85 46 86 47 87
REMARK SMILES IDX 55 88 48 89 49 90 53 91 56 92 50 93 51 94 54 95 52 96
REMARK H PARENT 12 6 3 15 17 30 76 49 44 60
REMARK Flexibility Score: inf
ROOT
ATOM      1  C   UNL A   1      37.066  20.699  25.046  1.00  0.00     0.023 C 
ENDROOT
BRANCH   1   2
ATOM      2  C   UNL A   1      37.356  22.188  24.893  1.00  0.00     0.116 C 
BRANCH   2   3
ATOM      3  N   UNL A   1      36.633  22.786  23.792  1.00  0.00    -0.356 N 
ATOM      4  C   UNL A   1      35.307  22.856  23.512  1.00  0.00     0.225 C 
ATOM      5  O   UNL A   1      35.001  23.451  22.471  1.00  0.00    -0.275 OA
ATOM      6  H   UNL A   1      37.208  23.222  23.123  1.00  0.00     0.163 HD
BRANCH   4   7
ATOM      7  C   UNL A   1      34.208  22.251  24.375  1.00  0.00     0.102 C 
ATOM      8  N   UNL A   1      32.414  23.246  25.588  1.00  0.00    -0.321 N 
ATOM      9  C   UNL A   1      31.829  22.227  24.742  1.00  0.00     0.122 C 
ATOM     10  C   UNL A   1      33.847  22.965  25.694  1.00  0.00     0.096 C 
ATOM     11  C   UNL A   1      32.874  21.973  23.669  1.00  0.00     0.037 C 
ATOM     12  C   UNL A   1      34.704  24.148  26.113  1.00  0.00     0.032 C 
BRANCH   8  13
ATOM     13  C   UNL A   1      31.721  23.603  26.723  1.00  0.00     0.318 C 
ATOM     14  N   UNL A   1      31.463  24.931  26.877  1.00  0.00    -0.331 N 
ATOM     15  H   UNL A   1      31.166  25.218  27.770  1.00  0.00     0.165 HD
ATOM     16  O   UNL A   1      31.317  22.794  27.551  1.00  0.00    -0.249 OA
BRANCH  14  17
ATOM     17  C   UNL A   1      31.580  25.973  25.869  1.00  0.00     0.111 C 
ATOM     18  C   UNL A   1      30.203  26.243  25.260  1.00  0.00     0.036 C 
BRANCH  17  19
ATOM     19  C   UNL A   1      32.266  27.241  26.365  1.00  0.00    -0.026 A 
ATOM     20  C   UNL A   1      31.491  28.224  27.007  1.00  0.00     0.007 A 
ATOM     21  C   UNL A   1      33.625  27.519  26.153  1.00  0.00     0.007 A 
ATOM     22  C   UNL A   1      32.025  29.468  27.352  1.00  0.00     0.021 A 
ATOM     23  C   UNL A   1      34.172  28.754  26.524  1.00  0.00     0.021 A 
ATOM     24  C   UNL A   1      33.365  29.730  27.101  1.00  0.00     0.041 A 
ATOM     25  Cl  UNL A   1      34.021  31.269  27.495  1.00  0.00    -0.084 Cl
ENDBRANCH  17  19
ENDBRANCH  14  17
ENDBRANCH   8  13
ENDBRANCH   4   7
ENDBRANCH   2   3
ENDBRANCH   1   2
BRANCH   1  26
ATOM     26  C   UNL A   1      38.248  19.752  24.891  1.00  0.00     0.023 C 
BRANCH  26  27
ATOM     27  C   UNL A   1      39.462  20.107  25.734  1.00  0.00     0.116 C 
BRANCH  27  28
ATOM     28  N   UNL A   1      40.430  19.021  25.844  1.00  0.00    -0.352 N 
ATOM     29  C   UNL A   1      41.785  19.065  26.082  1.00  0.00     0.251 C 
ATOM     30  H   UNL A   1      40.055  18.117  25.730  1.00  0.00     0.163 HD
ATOM     31  O   UNL A   1      42.452  18.043  26.019  1.00  0.00    -0.269 OA
BRANCH  29  32
ATOM     32  C   UNL A   1      42.434  20.359  26.382  1.00  0.00     0.039 A 
ATOM     33  C   UNL A   1      43.070  21.057  25.352  1.00  0.00     0.014 A 
ATOM     34  C   UNL A   1      42.385  20.899  27.668  1.00  0.00     0.014 A 
ATOM     35  C   UNL A   1      43.575  22.337  25.595  1.00  0.00     0.010 A 
ATOM     36  C   UNL A   1      42.789  22.210  27.881  1.00  0.00     0.010 A 
ATOM     37  C   UNL A   1      43.395  22.941  26.849  1.00  0.00    -0.014 A 
BRANCH  37  38
ATOM     38  C   UNL A   1      43.845  24.329  27.123  1.00  0.00     0.031 A 
ATOM     39  C   UNL A   1      42.852  25.352  27.605  1.00  0.00     0.074 A 
ATOM     40  C   UNL A   1      45.112  24.692  26.843  1.00  0.00     0.049 A 
ATOM     41  N   UNL A   1      43.005  26.640  27.779  1.00  0.00    -0.248 NA
ATOM     42  C   UNL A   1      41.489  24.869  27.886  1.00  0.00     0.031 C 
ATOM     43  C   UNL A   1      46.148  23.812  26.299  1.00  0.00     0.029 A 
ATOM     44  N   UNL A   1      45.741  25.906  26.962  1.00  0.00    -0.354 N 
ATOM     45  C   UNL A   1      41.755  27.121  28.148  1.00  0.00     0.074 A 
ATOM     46  C   UNL A   1      40.843  26.000  28.123  1.00  0.00     0.031 C 
ATOM     47  C   UNL A   1      47.287  24.508  26.151  1.00  0.00     0.029 A 
ATOM     48  C   UNL A   1      47.054  25.890  26.558  1.00  0.00     0.049 A 
ATOM     49  H   UNL A   1      45.293  26.714  27.304  1.00  0.00     0.167 HD
ATOM     50  C   UNL A   1      41.407  28.380  28.502  1.00  0.00     0.037 A 
ATOM     51  C   UNL A   1      47.965  26.881  26.520  1.00  0.00     0.037 A 
ATOM     52  C   UNL A   1      42.334  29.475  28.592  1.00  0.00     0.049 A 
ATOM     53  C   UNL A   1      47.568  28.255  26.991  1.00  0.00     0.074 A 
ATOM     54  C   UNL A   1      42.103  30.767  29.029  1.00  0.00     0.029 A 
ATOM     55  N   UNL A   1      43.676  29.399  28.252  1.00  0.00    -0.354 N 
ATOM     56  N   UNL A   1      46.402  28.681  27.411  1.00  0.00    -0.248 NA
ATOM     57  C   UNL A   1      48.618  29.283  26.994  1.00  0.00     0.031 C 
ATOM     58  C   UNL A   1      43.300  31.483  28.924  1.00  0.00     0.029 A 
ATOM     59  C   UNL A   1      44.285  30.625  28.461  1.00  0.00     0.049 A 
ATOM     60  H   UNL A   1      44.129  28.594  27.911  1.00  0.00     0.167 HD
ATOM     61  C   UNL A   1      46.583  30.013  27.756  1.00  0.00     0.074 A 
ATOM     62  C   UNL A   1      47.976  30.321  27.511  1.00  0.00     0.031 C 
ATOM     63  C   UNL A   1      45.678  30.902  28.231  1.00  0.00     0.037 A 
BRANCH  50  64
ATOM     64  C   UNL A   1      39.968  28.637  28.841  1.00  0.00     0.064 A 
ATOM     65  C   UNL A   1      39.462  28.401  30.129  1.00  0.00     0.173 A 
ATOM     66  C   UNL A   1      39.094  29.163  27.878  1.00  0.00     0.173 A 
ATOM     67  F   UNL A   1      40.254  27.885  31.081  1.00  0.00    -0.203 F 
ATOM     68  C   UNL A   1      38.129  28.660  30.432  1.00  0.00     0.198 A 
ATOM     69  C   UNL A   1      37.768  29.448  28.195  1.00  0.00     0.198 A 
ATOM     70  F   UNL A   1      39.527  29.409  26.633  1.00  0.00    -0.203 F 
ATOM     71  F   UNL A   1      37.657  28.382  31.656  1.00  0.00    -0.200 F 
ATOM     72  C   UNL A   1      37.285  29.190  29.469  1.00  0.00     0.200 A 
ATOM     73  F   UNL A   1      36.956  29.971  27.265  1.00  0.00    -0.200 F 
ATOM     74  F   UNL A   1      36.004  29.448  29.766  1.00  0.00    -0.200 F 
ENDBRANCH  50  64
BRANCH  51  75
ATOM     75  C   UNL A   1      49.350  26.608  26.056  1.00  0.00     0.064 A 
ATOM     76  C   UNL A   1      49.740  26.909  24.743  1.00  0.00     0.173 A 
ATOM     77  C   UNL A   1      50.305  26.030  26.904  1.00  0.00     0.173 A 
ATOM     78  F   UNL A   1      48.856  27.446  23.889  1.00  0.00    -0.203 F 
ATOM     79  C   UNL A   1      51.022  26.613  24.286  1.00  0.00     0.198 A 
ATOM     80  C   UNL A   1      51.597  25.761  26.454  1.00  0.00     0.198 A 
ATOM     81  F   UNL A   1      49.987  25.732  28.171  1.00  0.00    -0.203 F 
ATOM     82  F   UNL A   1      51.351  26.862  23.011  1.00  0.00    -0.200 F 
ATOM     83  C   UNL A   1      51.951  26.043  25.143  1.00  0.00     0.200 A 
ATOM     84  F   UNL A   1      52.496  25.222  27.288  1.00  0.00    -0.200 F 
ATOM     85  F   UNL A   1      53.184  25.756  24.702  1.00  0.00    -0.200 F 
ENDBRANCH  51  75
BRANCH  63  86
ATOM     86  C   UNL A   1      46.175  32.278  28.559  1.00  0.00     0.064 A 
ATOM     87  C   UNL A   1      46.160  33.311  27.611  1.00  0.00     0.173 A 
ATOM     88  C   UNL A   1      46.631  32.575  29.852  1.00  0.00     0.173 A 
ATOM     89  F   UNL A   1      45.747  33.070  26.358  1.00  0.00    -0.203 F 
ATOM     90  C   UNL A   1      46.609  34.587  27.939  1.00  0.00     0.198 A 
ATOM     91  C   UNL A   1      47.051  33.859  30.184  1.00  0.00     0.198 A 
ATOM     92  F   UNL A   1      46.656  31.622  30.795  1.00  0.00    -0.203 F 
ATOM     93  F   UNL A   1      46.629  35.548  27.006  1.00  0.00    -0.200 F 
ATOM     94  C   UNL A   1      47.046  34.861  29.226  1.00  0.00     0.200 A 
ATOM     95  F   UNL A   1      47.461  34.126  31.432  1.00  0.00    -0.200 F 
ATOM     96  F   UNL A   1      47.470  36.092  29.542  1.00  0.00    -0.200 F 
ENDBRANCH  63  86
ENDBRANCH  37  38
ENDBRANCH  29  32
ENDBRANCH  27  28
ENDBRANCH  26  27
ENDBRANCH   1  26
TORSDOF 14
ENDMDL
MODEL 3
REMARK VINA RESULT:     -13.4      0.777      7.272
REMARK SMILES C[C@H](NC(=O)N1CC[C@@H](C(=O)NCCCCNC(=O)c2ccc(-c3c4nc(c(-c5c(F)c(F)c(F)c(F)c5F)c5ccc([nH]5)c(-c5c(F)c(F)c(F)c(F)c5F)c5nc(c(-c6c(F)c(F)c(F)c(F)c6F)c6ccc3[nH]6)C=C5)C=C4)cc2)[C@H]1C)c1ccc(Cl)cc1
REMARK SMILES IDX 14 1 13 2 12 3 10 4 11 5 9 7 6 8 7 9 83 10 8 11 84 12 4 13
REMARK SMILES IDX 3 14 5 16 2 17 1 18 85 19 86 20 91 21 87 22 90 23 88 24
REMARK SMILES IDX 89 25 15 26 16 27 17 28 18 29 19 31 20 32 21 33 82 34 22 35
REMARK SMILES IDX 81 36 23 37 24 38 25 39 75 40 26 41 80 42 74 43 76 44 27 45
REMARK SMILES IDX 79 46 73 47 72 48 28 50 60 51 40 52 59 53 41 54 44 55 58 56
REMARK SMILES IDX 77 57 42 58 43 59 57 61 78 62 45 63 29 64 30 65 38 66 31 67
REMARK SMILES IDX 32 68 36 69 39 70 33 71 34 72 37 73 35 74 61 75 62 76 70 77
REMARK SMILES IDX 63 78 64 79 68 80 71 81 65 82 66 83 69 84 67 85 46 86 47 87
REMARK SMILES IDX 55 88 48 89 49 90 53 91 56 92 50 93 51 94 54 95 52 96
REMARK H PARENT 12 6 3 15 17 30 76 49 44 60
REMARK Flexibility Score: inf
ROOT
ATOM      1  C   UNL A   1      31.565  30.846  26.147  1.00  0.00     0.023 C 
ENDROOT
BRANCH   1   2
ATOM      2  C   UNL A   1      32.493  29.962  26.973  1.00  0.00     0.116 C 
BRANCH   2   3
ATOM      3  N   UNL A   1      31.893  28.690  27.313  1.00  0.00    -0.356 N 
ATOM      4  C   UNL A   1      31.464  27.657  26.545  1.00  0.00     0.225 C 
ATOM      5  O   UNL A   1      30.989  26.689  27.149  1.00  0.00    -0.275 OA
ATOM      6  H   UNL A   1      31.774  28.547  28.280  1.00  0.00     0.163 HD
BRANCH   4   7
ATOM      7  C   UNL A   1      31.520  27.631  25.022  1.00  0.00     0.102 C 
ATOM      8  N   UNL A   1      32.525  26.098  23.499  1.00  0.00    -0.321 N 
ATOM      9  C   UNL A   1      31.141  26.237  23.097  1.00  0.00     0.122 C 
ATOM     10  C   UNL A   1      32.854  27.240  24.354  1.00  0.00     0.096 C 
ATOM     11  C   UNL A   1      30.440  26.795  24.323  1.00  0.00     0.037 C 
ATOM     12  C   UNL A   1      34.063  27.040  25.254  1.00  0.00     0.032 C 
BRANCH   8  13
ATOM     13  C   UNL A   1      33.429  25.706  22.537  1.00  0.00     0.318 C 
ATOM     14  N   UNL A   1      34.149  24.584  22.811  1.00  0.00    -0.331 N 
ATOM     15  H   UNL A   1      34.935  24.419  22.243  1.00  0.00     0.165 HD
ATOM     16  O   UNL A   1      33.578  26.292  21.470  1.00  0.00    -0.249 OA
BRANCH  14  17
ATOM     17  C   UNL A   1      33.888  23.603  23.853  1.00  0.00     0.111 C 
ATOM     18  C   UNL A   1      32.990  22.499  23.293  1.00  0.00     0.036 C 
BRANCH  17  19
ATOM     19  C   UNL A   1      35.145  23.060  24.522  1.00  0.00    -0.026 A 
ATOM     20  C   UNL A   1      35.948  23.938  25.274  1.00  0.00     0.007 A 
ATOM     21  C   UNL A   1      35.592  21.738  24.370  1.00  0.00     0.007 A 
ATOM     22  C   UNL A   1      37.185  23.542  25.786  1.00  0.00     0.021 A 
ATOM     23  C   UNL A   1      36.820  21.328  24.908  1.00  0.00     0.021 A 
ATOM     24  C   UNL A   1      37.619  22.237  25.594  1.00  0.00     0.041 A 
ATOM     25  Cl  UNL A   1      39.155  21.753  26.196  1.00  0.00    -0.084 Cl
ENDBRANCH  17  19
ENDBRANCH  14  17
ENDBRANCH   8  13
ENDBRANCH   4   7
ENDBRANCH   2   3
ENDBRANCH   1   2
BRANCH   1  26
ATOM     26  C   UNL A   1      31.367  32.274  26.637  1.00  0.00     0.023 C 
BRANCH  26  27
ATOM     27  C   UNL A   1      32.591  32.900  27.284  1.00  0.00     0.116 C 
BRANCH  27  28
ATOM     28  N   UNL A   1      32.382  34.281  27.706  1.00  0.00    -0.352 N 
ATOM     29  C   UNL A   1      33.013  35.012  28.688  1.00  0.00     0.251 C 
ATOM     30  H   UNL A   1      31.681  34.765  27.212  1.00  0.00     0.163 HD
ATOM     31  O   UNL A   1      32.611  36.129  28.974  1.00  0.00    -0.269 OA
BRANCH  29  32
ATOM     32  C   UNL A   1      34.158  34.423  29.415  1.00  0.00     0.039 A 
ATOM     33  C   UNL A   1      33.920  33.682  30.576  1.00  0.00     0.014 A 
ATOM     34  C   UNL A   1      35.460  34.573  28.934  1.00  0.00     0.014 A 
ATOM     35  C   UNL A   1      34.979  33.018  31.200  1.00  0.00     0.010 A 
ATOM     36  C   UNL A   1      36.489  33.826  29.491  1.00  0.00     0.010 A 
ATOM     37  C   UNL A   1      36.263  33.046  30.634  1.00  0.00    -0.014 A 
BRANCH  37  38
ATOM     38  C   UNL A   1      37.396  32.287  31.221  1.00  0.00     0.031 A 
ATOM     39  C   UNL A   1      37.896  32.641  32.595  1.00  0.00     0.074 A 
ATOM     40  C   UNL A   1      38.033  31.357  30.484  1.00  0.00     0.049 A 
ATOM     41  N   UNL A   1      38.946  32.195  33.236  1.00  0.00    -0.248 NA
ATOM     42  C   UNL A   1      37.139  33.669  33.329  1.00  0.00     0.031 C 
ATOM     43  C   UNL A   1      37.692  30.978  29.111  1.00  0.00     0.029 A 
ATOM     44  N   UNL A   1      39.118  30.569  30.782  1.00  0.00    -0.354 N 
ATOM     45  C   UNL A   1      38.995  32.915  34.423  1.00  0.00     0.074 A 
ATOM     46  C   UNL A   1      37.904  33.862  34.393  1.00  0.00     0.031 C 
ATOM     47  C   UNL A   1      38.535  30.019  28.695  1.00  0.00     0.029 A 
ATOM     48  C   UNL A   1      39.495  29.737  29.756  1.00  0.00     0.049 A 
ATOM     49  H   UNL A   1      39.582  30.599  31.650  1.00  0.00     0.167 HD
ATOM     50  C   UNL A   1      39.859  32.778  35.457  1.00  0.00     0.037 A 
ATOM     51  C   UNL A   1      40.505  28.850  29.683  1.00  0.00     0.037 A 
ATOM     52  C   UNL A   1      40.899  31.787  35.510  1.00  0.00     0.049 A 
ATOM     53  C   UNL A   1      41.404  28.667  30.877  1.00  0.00     0.074 A 
ATOM     54  C   UNL A   1      41.768  31.503  36.548  1.00  0.00     0.029 A 
ATOM     55  N   UNL A   1      41.199  30.907  34.482  1.00  0.00    -0.354 N 
ATOM     56  N   UNL A   1      41.394  29.300  32.025  1.00  0.00    -0.248 NA
ATOM     57  C   UNL A   1      42.447  27.637  30.770  1.00  0.00     0.031 C 
ATOM     58  C   UNL A   1      42.616  30.470  36.137  1.00  0.00     0.029 A 
ATOM     59  C   UNL A   1      42.246  30.083  34.858  1.00  0.00     0.049 A 
ATOM     60  H   UNL A   1      40.737  30.872  33.613  1.00  0.00     0.167 HD
ATOM     61  C   UNL A   1      42.403  28.727  32.786  1.00  0.00     0.074 A 
ATOM     62  C   UNL A   1      42.997  27.685  31.975  1.00  0.00     0.031 C 
ATOM     63  C   UNL A   1      42.806  29.038  34.042  1.00  0.00     0.037 A 
BRANCH  50  64
ATOM     64  C   UNL A   1      39.700  33.706  36.625  1.00  0.00     0.064 A 
ATOM     65  C   UNL A   1      40.325  34.962  36.658  1.00  0.00     0.173 A 
ATOM     66  C   UNL A   1      38.881  33.352  37.707  1.00  0.00     0.173 A 
ATOM     67  F   UNL A   1      41.131  35.341  35.654  1.00  0.00    -0.203 F 
ATOM     68  C   UNL A   1      40.155  35.819  37.741  1.00  0.00     0.198 A 
ATOM     69  C   UNL A   1      38.689  34.225  38.776  1.00  0.00     0.198 A 
ATOM     70  F   UNL A   1      38.258  32.164  37.726  1.00  0.00    -0.203 F 
ATOM     71  F   UNL A   1      40.800  36.994  37.771  1.00  0.00    -0.200 F 
ATOM     72  C   UNL A   1      39.331  35.454  38.795  1.00  0.00     0.200 A 
ATOM     73  F   UNL A   1      37.883  33.875  39.789  1.00  0.00    -0.200 F 
ATOM     74  F   UNL A   1      39.160  36.284  39.833  1.00  0.00    -0.200 F 
ENDBRANCH  50  64
BRANCH  51  75
ATOM     75  C   UNL A   1      40.702  28.038  28.454  1.00  0.00     0.064 A 
ATOM     76  C   UNL A   1      40.120  26.769  28.329  1.00  0.00     0.173 A 
ATOM     77  C   UNL A   1      41.485  28.503  27.388  1.00  0.00     0.173 A 
ATOM     78  F   UNL A   1      39.377  26.274  29.330  1.00  0.00    -0.203 F 
ATOM     79  C   UNL A   1      40.338  25.983  27.201  1.00  0.00     0.198 A 
ATOM     80  C   UNL A   1      41.680  27.728  26.246  1.00  0.00     0.198 A 
ATOM     81  F   UNL A   1      42.058  29.714  27.453  1.00  0.00    -0.203 F 
ATOM     82  F   UNL A   1      39.812  24.752  27.132  1.00  0.00    -0.200 F 
ATOM     83  C   UNL A   1      41.115  26.464  26.158  1.00  0.00     0.200 A 
ATOM     84  F   UNL A   1      42.421  28.201  25.235  1.00  0.00    -0.200 F 
ATOM     85  F   UNL A   1      41.327  25.706  25.073  1.00  0.00    -0.200 F 
ENDBRANCH  51  75
BRANCH  63  86
ATOM     86  C   UNL A   1      43.909  28.211  34.632  1.00  0.00     0.064 A 
ATOM     87  C   UNL A   1      45.250  28.611  34.553  1.00  0.00     0.173 A 
ATOM     88  C   UNL A   1      43.612  27.028  35.325  1.00  0.00     0.173 A 
ATOM     89  F   UNL A   1      45.583  29.728  33.889  1.00  0.00    -0.203 F 
ATOM     90  C   UNL A   1      46.259  27.841  35.123  1.00  0.00     0.198 A 
ATOM     91  C   UNL A   1      44.620  26.275  35.918  1.00  0.00     0.198 A 
ATOM     92  F   UNL A   1      42.343  26.609  35.435  1.00  0.00    -0.203 F 
ATOM     93  F   UNL A   1      47.539  28.217  34.997  1.00  0.00    -0.200 F 
ATOM     94  C   UNL A   1      45.943  26.678  35.811  1.00  0.00     0.200 A 
ATOM     95  F   UNL A   1      44.312  25.160  36.594  1.00  0.00    -0.200 F 
ATOM     96  F   UNL A   1      46.915  25.942  36.366  1.00  0.00    -0.200 F 
ENDBRANCH  63  86
ENDBRANCH  37  38
ENDBRANCH  29  32
ENDBRANCH  27  28
ENDBRANCH  26  27
ENDBRANCH   1  26
TORSDOF 14
ENDMDL
