MODEL 1
REMARK VINA RESULT:     -12.9      0.000      0.000
REMARK SMILES CC1(C)[C@H]2CC[C@]1(C)C(=O)N(CC(=O)NCCCCNC(=O)c1ccc(-c3c4nc(c(-c5c(F)c(F)c(F)c(F)c5F)c5ccc([nH]5)c(-c5c(F)c(F)c(F)c(F)c5F)c5nc(c(-c6c(F)c(F)c(F)c(F)c6F)c6ccc3[nH]6)C=C5)C=C4)cc1)C2=O
REMARK SMILES IDX 18 1 17 2 16 3 15 4 13 5 14 6 12 8 11 9 1 10 2 11 4 12 7 13
REMARK SMILES IDX 3 14 5 15 86 16 6 17 9 18 8 19 87 20 10 21 19 22 20 23 21 24
REMARK SMILES IDX 22 26 23 27 24 28 85 29 25 30 84 31 26 32 27 33 28 34 78 35
REMARK SMILES IDX 29 36 83 37 77 38 79 39 30 40 82 41 76 42 75 43 31 45 63 46
REMARK SMILES IDX 43 47 62 48 44 49 47 50 61 51 80 52 45 53 46 54 60 56 81 57
REMARK SMILES IDX 48 58 32 59 33 60 41 61 34 62 35 63 39 64 42 65 36 66 37 67
REMARK SMILES IDX 40 68 38 69 64 70 65 71 73 72 66 73 67 74 71 75 74 76 68 77
REMARK SMILES IDX 69 78 72 79 70 80 49 81 50 82 58 83 51 84 52 85 56 86 59 87
REMARK SMILES IDX 53 88 54 89 57 90 55 91
REMARK H PARENT 15 7 20 25 79 44 47 55
REMARK Flexibility Score: inf
ROOT
ATOM      1  C   UNL A   1      31.697  31.984  26.878  1.00  0.00     0.023 C 
ENDROOT
BRANCH   1   2
ATOM      2  C   UNL A   1      32.083  30.541  26.639  1.00  0.00     0.023 C 
BRANCH   2   3
ATOM      3  C   UNL A   1      31.839  29.929  25.261  1.00  0.00     0.116 C 
BRANCH   3   4
ATOM      4  N   UNL A   1      33.058  29.668  24.505  1.00  0.00    -0.355 N 
ATOM      5  C   UNL A   1      33.276  28.949  23.356  1.00  0.00     0.240 C 
ATOM      6  O   UNL A   1      34.430  28.953  22.916  1.00  0.00    -0.273 OA
ATOM      7  H   UNL A   1      33.866  30.083  24.884  1.00  0.00     0.163 HD
BRANCH   5   8
ATOM      8  C   UNL A   1      32.200  28.027  22.739  1.00  0.00     0.228 C 
BRANCH   8   9
ATOM      9  N   UNL A   1      32.425  26.711  23.319  1.00  0.00    -0.272 N 
ATOM     10  C   UNL A   1      32.667  23.085  25.837  1.00  0.00     0.013 C 
ATOM     11  C   UNL A   1      32.343  24.084  24.696  1.00  0.00    -0.010 C 
ATOM     12  C   UNL A   1      32.028  25.439  25.317  1.00  0.00     0.086 C 
ATOM     13  C   UNL A   1      33.562  24.551  23.821  1.00  0.00     0.053 C 
ATOM     14  C   UNL A   1      31.158  23.482  23.919  1.00  0.00     0.013 C 
ATOM     15  C   UNL A   1      33.413  25.964  25.792  1.00  0.00     0.015 C 
ATOM     16  C   UNL A   1      31.465  26.243  24.153  1.00  0.00     0.233 C 
ATOM     17  C   UNL A   1      34.446  25.272  24.869  1.00  0.00     0.018 C 
ATOM     18  C   UNL A   1      33.238  25.726  22.801  1.00  0.00     0.236 C 
ATOM     19  C   UNL A   1      34.251  23.393  23.117  1.00  0.00     0.022 C 
ATOM     20  O   UNL A   1      30.272  26.281  23.855  1.00  0.00    -0.274 OA
ATOM     21  O   UNL A   1      33.700  25.767  21.665  1.00  0.00    -0.274 OA
ENDBRANCH   8   9
ENDBRANCH   5   8
ENDBRANCH   3   4
ENDBRANCH   2   3
ENDBRANCH   1   2
BRANCH   1  22
ATOM     22  C   UNL A   1      32.873  32.854  27.249  1.00  0.00     0.116 C 
BRANCH  22  23
ATOM     23  N   UNL A   1      32.511  34.203  27.686  1.00  0.00    -0.352 N 
ATOM     24  C   UNL A   1      33.074  34.986  28.671  1.00  0.00     0.251 C 
ATOM     25  H   UNL A   1      31.755  34.611  27.206  1.00  0.00     0.163 HD
ATOM     26  O   UNL A   1      32.620  36.084  28.939  1.00  0.00    -0.269 OA
BRANCH  24  27
ATOM     27  C   UNL A   1      34.205  34.435  29.445  1.00  0.00     0.039 A 
ATOM     28  C   UNL A   1      33.942  33.637  30.560  1.00  0.00     0.014 A 
ATOM     29  C   UNL A   1      35.509  34.616  28.993  1.00  0.00     0.014 A 
ATOM     30  C   UNL A   1      34.991  32.943  31.161  1.00  0.00     0.010 A 
ATOM     31  C   UNL A   1      36.512  33.802  29.481  1.00  0.00     0.010 A 
ATOM     32  C   UNL A   1      36.272  32.981  30.590  1.00  0.00    -0.014 A 
BRANCH  32  33
ATOM     33  C   UNL A   1      37.412  32.228  31.158  1.00  0.00     0.031 A 
ATOM     34  C   UNL A   1      37.890  32.570  32.543  1.00  0.00     0.074 A 
ATOM     35  C   UNL A   1      38.067  31.326  30.403  1.00  0.00     0.049 A 
ATOM     36  N   UNL A   1      38.951  32.155  33.181  1.00  0.00    -0.248 NA
ATOM     37  C   UNL A   1      37.101  33.571  33.285  1.00  0.00     0.031 C 
ATOM     38  C   UNL A   1      37.740  30.975  29.019  1.00  0.00     0.029 A 
ATOM     39  N   UNL A   1      39.154  30.545  30.694  1.00  0.00    -0.354 N 
ATOM     40  C   UNL A   1      38.977  32.876  34.368  1.00  0.00     0.074 A 
ATOM     41  C   UNL A   1      37.879  33.812  34.326  1.00  0.00     0.031 C 
ATOM     42  C   UNL A   1      38.583  30.019  28.596  1.00  0.00     0.029 A 
ATOM     43  C   UNL A   1      39.530  29.718  29.664  1.00  0.00     0.049 A 
ATOM     44  H   UNL A   1      39.623  30.575  31.559  1.00  0.00     0.167 HD
ATOM     45  C   UNL A   1      39.816  32.737  35.420  1.00  0.00     0.037 A 
ATOM     46  C   UNL A   1      40.527  28.817  29.601  1.00  0.00     0.037 A 
ATOM     47  C   UNL A   1      40.851  31.744  35.478  1.00  0.00     0.049 A 
ATOM     48  C   UNL A   1      41.404  28.628  30.808  1.00  0.00     0.074 A 
ATOM     49  C   UNL A   1      41.703  31.442  36.523  1.00  0.00     0.029 A 
ATOM     50  N   UNL A   1      41.160  30.875  34.440  1.00  0.00    -0.354 N 
ATOM     51  N   UNL A   1      41.378  29.264  31.956  1.00  0.00    -0.248 NA
ATOM     52  C   UNL A   1      42.440  27.592  30.718  1.00  0.00     0.031 C 
ATOM     53  C   UNL A   1      42.549  30.409  36.106  1.00  0.00     0.029 A 
ATOM     54  C   UNL A   1      42.197  30.041  34.817  1.00  0.00     0.049 A 
ATOM     55  H   UNL A   1      40.707  30.855  33.566  1.00  0.00     0.167 HD
ATOM     56  C   UNL A   1      42.375  28.691  32.732  1.00  0.00     0.074 A 
ATOM     57  C   UNL A   1      42.976  27.645  31.930  1.00  0.00     0.031 C 
ATOM     58  C   UNL A   1      42.763  29.002  33.993  1.00  0.00     0.037 A 
BRANCH  45  59
ATOM     59  C   UNL A   1      39.621  33.662  36.586  1.00  0.00     0.064 A 
ATOM     60  C   UNL A   1      38.814  33.311  37.681  1.00  0.00     0.173 A 
ATOM     61  C   UNL A   1      40.239  34.920  36.606  1.00  0.00     0.173 A 
ATOM     62  F   UNL A   1      38.184  32.126  37.703  1.00  0.00    -0.203 F 
ATOM     63  C   UNL A   1      38.599  34.201  38.729  1.00  0.00     0.198 A 
ATOM     64  C   UNL A   1      40.050  35.795  37.674  1.00  0.00     0.198 A 
ATOM     65  F   UNL A   1      41.019  35.308  35.586  1.00  0.00    -0.203 F 
ATOM     66  F   UNL A   1      37.767  33.870  39.726  1.00  0.00    -0.200 F 
ATOM     67  C   UNL A   1      39.221  35.440  38.728  1.00  0.00     0.200 A 
ATOM     68  F   UNL A   1      40.658  36.989  37.676  1.00  0.00    -0.200 F 
ATOM     69  F   UNL A   1      39.012  36.297  39.737  1.00  0.00    -0.200 F 
ENDBRANCH  45  59
BRANCH  46  70
ATOM     70  C   UNL A   1      40.706  27.993  28.378  1.00  0.00     0.064 A 
ATOM     71  C   UNL A   1      40.092  26.737  28.265  1.00  0.00     0.173 A 
ATOM     72  C   UNL A   1      41.469  28.445  27.292  1.00  0.00     0.173 A 
ATOM     73  F   UNL A   1      39.363  26.256  29.283  1.00  0.00    -0.203 F 
ATOM     74  C   UNL A   1      40.248  25.957  27.121  1.00  0.00     0.198 A 
ATOM     75  C   UNL A   1      41.605  27.674  26.138  1.00  0.00     0.198 A 
ATOM     76  F   UNL A   1      42.068  29.643  27.345  1.00  0.00    -0.203 F 
ATOM     77  F   UNL A   1      39.680  24.746  27.056  1.00  0.00    -0.200 F 
ATOM     78  C   UNL A   1      41.000  26.429  26.056  1.00  0.00     0.200 A 
ATOM     79  F   UNL A   1      42.319  28.141  25.104  1.00  0.00    -0.200 F 
ATOM     80  F   UNL A   1      41.145  25.682  24.953  1.00  0.00    -0.200 F 
ENDBRANCH  46  70
BRANCH  58  81
ATOM     81  C   UNL A   1      43.866  28.183  34.589  1.00  0.00     0.064 A 
ATOM     82  C   UNL A   1      45.204  28.597  34.520  1.00  0.00     0.173 A 
ATOM     83  C   UNL A   1      43.574  26.998  35.281  1.00  0.00     0.173 A 
ATOM     84  F   UNL A   1      45.531  29.717  33.857  1.00  0.00    -0.203 F 
ATOM     85  C   UNL A   1      46.215  27.842  35.106  1.00  0.00     0.198 A 
ATOM     86  C   UNL A   1      44.585  26.260  35.890  1.00  0.00     0.198 A 
ATOM     87  F   UNL A   1      42.308  26.567  35.380  1.00  0.00    -0.203 F 
ATOM     88  F   UNL A   1      47.491  28.232  34.994  1.00  0.00    -0.200 F 
ATOM     89  C   UNL A   1      45.903  26.679  35.797  1.00  0.00     0.200 A 
ATOM     90  F   UNL A   1      44.281  25.146  36.568  1.00  0.00    -0.200 F 
ATOM     91  F   UNL A   1      46.878  25.958  36.369  1.00  0.00    -0.200 F 
ENDBRANCH  58  81
ENDBRANCH  32  33
ENDBRANCH  24  27
ENDBRANCH  22  23
ENDBRANCH   1  22
TORSDOF 12
ENDMDL
MODEL 2
REMARK VINA RESULT:     -12.9      0.077      1.612
REMARK SMILES CC1(C)[C@H]2CC[C@]1(C)C(=O)N(CC(=O)NCCCCNC(=O)c1ccc(-c3c4nc(c(-c5c(F)c(F)c(F)c(F)c5F)c5ccc([nH]5)c(-c5c(F)c(F)c(F)c(F)c5F)c5nc(c(-c6c(F)c(F)c(F)c(F)c6F)c6ccc3[nH]6)C=C5)C=C4)cc1)C2=O
REMARK SMILES IDX 18 1 17 2 16 3 15 4 13 5 14 6 12 8 11 9 1 10 2 11 4 12 7 13
REMARK SMILES IDX 3 14 5 15 86 16 6 17 9 18 8 19 87 20 10 21 19 22 20 23 21 24
REMARK SMILES IDX 22 26 23 27 24 28 85 29 25 30 84 31 26 32 27 33 28 34 78 35
REMARK SMILES IDX 29 36 83 37 77 38 79 39 30 40 82 41 76 42 75 43 31 45 63 46
REMARK SMILES IDX 43 47 62 48 44 49 47 50 61 51 80 52 45 53 46 54 60 56 81 57
REMARK SMILES IDX 48 58 32 59 33 60 41 61 34 62 35 63 39 64 42 65 36 66 37 67
REMARK SMILES IDX 40 68 38 69 64 70 65 71 73 72 66 73 67 74 71 75 74 76 68 77
REMARK SMILES IDX 69 78 72 79 70 80 49 81 50 82 58 83 51 84 52 85 56 86 59 87
REMARK SMILES IDX 53 88 54 89 57 90 55 91
REMARK H PARENT 15 7 20 25 79 44 47 55
REMARK Flexibility Score: inf
ROOT
ATOM      1  C   UNL A   1      31.605  31.947  26.879  1.00  0.00     0.023 C 
ENDROOT
BRANCH   1   2
ATOM      2  C   UNL A   1      31.971  30.494  26.672  1.00  0.00     0.023 C 
BRANCH   2   3
ATOM      3  C   UNL A   1      31.790  29.875  25.287  1.00  0.00     0.116 C 
BRANCH   3   4
ATOM      4  N   UNL A   1      33.041  29.645  24.575  1.00  0.00    -0.355 N 
ATOM      5  C   UNL A   1      33.311  28.967  23.412  1.00  0.00     0.240 C 
ATOM      6  O   UNL A   1      34.483  28.990  23.022  1.00  0.00    -0.273 OA
ATOM      7  H   UNL A   1      33.831  30.047  25.003  1.00  0.00     0.163 HD
BRANCH   5   8
ATOM      8  C   UNL A   1      32.265  28.065  22.717  1.00  0.00     0.228 C 
BRANCH   8   9
ATOM      9  N   UNL A   1      32.450  26.737  23.282  1.00  0.00    -0.272 N 
ATOM     10  C   UNL A   1      32.570  23.074  25.754  1.00  0.00     0.013 C 
ATOM     11  C   UNL A   1      32.284  24.095  24.623  1.00  0.00    -0.010 C 
ATOM     12  C   UNL A   1      31.999  25.450  25.259  1.00  0.00     0.086 C 
ATOM     13  C   UNL A   1      33.523  24.541  23.766  1.00  0.00     0.053 C 
ATOM     14  C   UNL A   1      31.091  23.535  23.827  1.00  0.00     0.013 C 
ATOM     15  C   UNL A   1      33.393  25.932  25.754  1.00  0.00     0.015 C 
ATOM     16  C   UNL A   1      31.470  26.284  24.101  1.00  0.00     0.233 C 
ATOM     17  C   UNL A   1      34.416  25.224  24.831  1.00  0.00     0.018 C 
ATOM     18  C   UNL A   1      33.241  25.737  22.758  1.00  0.00     0.236 C 
ATOM     19  C   UNL A   1      34.188  23.374  23.053  1.00  0.00     0.022 C 
ATOM     20  O   UNL A   1      30.281  26.358  23.792  1.00  0.00    -0.274 OA
ATOM     21  O   UNL A   1      33.715  25.780  21.628  1.00  0.00    -0.274 OA
ENDBRANCH   8   9
ENDBRANCH   5   8
ENDBRANCH   3   4
ENDBRANCH   2   3
ENDBRANCH   1   2
BRANCH   1  22
ATOM     22  C   UNL A   1      32.790  32.805  27.250  1.00  0.00     0.116 C 
BRANCH  22  23
ATOM     23  N   UNL A   1      32.444  34.167  27.658  1.00  0.00    -0.352 N 
ATOM     24  C   UNL A   1      33.019  34.966  28.623  1.00  0.00     0.251 C 
ATOM     25  H   UNL A   1      31.689  34.573  27.173  1.00  0.00     0.163 HD
ATOM     26  O   UNL A   1      32.576  36.074  28.869  1.00  0.00    -0.269 OA
BRANCH  24  27
ATOM     27  C   UNL A   1      34.147  34.421  29.405  1.00  0.00     0.039 A 
ATOM     28  C   UNL A   1      33.882  33.593  30.497  1.00  0.00     0.014 A 
ATOM     29  C   UNL A   1      35.455  34.639  28.980  1.00  0.00     0.014 A 
ATOM     30  C   UNL A   1      34.934  32.907  31.101  1.00  0.00     0.010 A 
ATOM     31  C   UNL A   1      36.465  33.834  29.467  1.00  0.00     0.010 A 
ATOM     32  C   UNL A   1      36.223  32.984  30.554  1.00  0.00    -0.014 A 
BRANCH  32  33
ATOM     33  C   UNL A   1      37.369  32.241  31.124  1.00  0.00     0.031 A 
ATOM     34  C   UNL A   1      37.850  32.599  32.504  1.00  0.00     0.074 A 
ATOM     35  C   UNL A   1      38.026  31.336  30.376  1.00  0.00     0.049 A 
ATOM     36  N   UNL A   1      38.915  32.194  33.144  1.00  0.00    -0.248 NA
ATOM     37  C   UNL A   1      37.058  33.603  33.240  1.00  0.00     0.031 C 
ATOM     38  C   UNL A   1      37.696  30.971  28.996  1.00  0.00     0.029 A 
ATOM     39  N   UNL A   1      39.118  30.563  30.670  1.00  0.00    -0.354 N 
ATOM     40  C   UNL A   1      38.941  32.926  34.324  1.00  0.00     0.074 A 
ATOM     41  C   UNL A   1      37.839  33.857  34.276  1.00  0.00     0.031 C 
ATOM     42  C   UNL A   1      38.542  30.015  28.579  1.00  0.00     0.029 A 
ATOM     43  C   UNL A   1      39.495  29.728  29.646  1.00  0.00     0.049 A 
ATOM     44  H   UNL A   1      39.589  30.603  31.534  1.00  0.00     0.167 HD
ATOM     45  C   UNL A   1      39.784  32.801  35.374  1.00  0.00     0.037 A 
ATOM     46  C   UNL A   1      40.496  28.831  29.589  1.00  0.00     0.037 A 
ATOM     47  C   UNL A   1      40.824  31.813  35.437  1.00  0.00     0.049 A 
ATOM     48  C   UNL A   1      41.377  28.657  30.795  1.00  0.00     0.074 A 
ATOM     49  C   UNL A   1      41.681  31.525  36.483  1.00  0.00     0.029 A 
ATOM     50  N   UNL A   1      41.134  30.936  34.407  1.00  0.00    -0.354 N 
ATOM     51  N   UNL A   1      41.352  29.304  31.937  1.00  0.00    -0.248 NA
ATOM     52  C   UNL A   1      42.417  27.625  30.711  1.00  0.00     0.031 C 
ATOM     53  C   UNL A   1      42.531  30.492  36.073  1.00  0.00     0.029 A 
ATOM     54  C   UNL A   1      42.176  30.111  34.788  1.00  0.00     0.049 A 
ATOM     55  H   UNL A   1      40.678  30.906  33.534  1.00  0.00     0.167 HD
ATOM     56  C   UNL A   1      42.354  28.743  32.715  1.00  0.00     0.074 A 
ATOM     57  C   UNL A   1      42.958  27.692  31.920  1.00  0.00     0.031 C 
ATOM     58  C   UNL A   1      42.744  29.067  33.972  1.00  0.00     0.037 A 
BRANCH  45  59
ATOM     59  C   UNL A   1      39.588  33.735  36.532  1.00  0.00     0.064 A 
ATOM     60  C   UNL A   1      40.200  34.999  36.573  1.00  0.00     0.173 A 
ATOM     61  C   UNL A   1      38.789  33.360  37.621  1.00  0.00     0.173 A 
ATOM     62  F   UNL A   1      40.991  35.400  35.566  1.00  0.00    -0.203 F 
ATOM     63  C   UNL A   1      40.055  35.832  37.679  1.00  0.00     0.198 A 
ATOM     64  C   UNL A   1      38.615  34.211  38.710  1.00  0.00     0.198 A 
ATOM     65  F   UNL A   1      38.181  32.165  37.635  1.00  0.00    -0.203 F 
ATOM     66  F   UNL A   1      40.707  37.002  37.724  1.00  0.00    -0.200 F 
ATOM     67  C   UNL A   1      39.258  35.441  38.744  1.00  0.00     0.200 A 
ATOM     68  F   UNL A   1      37.839  33.836  39.735  1.00  0.00    -0.200 F 
ATOM     69  F   UNL A   1      39.119  36.243  39.808  1.00  0.00    -0.200 F 
ENDBRANCH  45  59
BRANCH  46  70
ATOM     70  C   UNL A   1      40.674  27.997  28.373  1.00  0.00     0.064 A 
ATOM     71  C   UNL A   1      41.453  28.453  27.299  1.00  0.00     0.173 A 
ATOM     72  C   UNL A   1      40.095  26.724  28.262  1.00  0.00     0.173 A 
ATOM     73  F   UNL A   1      42.016  29.669  27.353  1.00  0.00    -0.203 F 
ATOM     74  C   UNL A   1      41.631  27.677  26.156  1.00  0.00     0.198 A 
ATOM     75  C   UNL A   1      40.294  25.940  27.128  1.00  0.00     0.198 A 
ATOM     76  F   UNL A   1      39.351  26.237  29.266  1.00  0.00    -0.203 F 
ATOM     77  F   UNL A   1      42.350  28.155  25.131  1.00  0.00    -0.200 F 
ATOM     78  C   UNL A   1      41.056  26.419  26.073  1.00  0.00     0.200 A 
ATOM     79  F   UNL A   1      39.750  24.716  27.059  1.00  0.00    -0.200 F 
ATOM     80  F   UNL A   1      41.233  25.671  24.976  1.00  0.00    -0.200 F 
ENDBRANCH  46  70
BRANCH  58  81
ATOM     81  C   UNL A   1      43.854  28.259  34.572  1.00  0.00     0.064 A 
ATOM     82  C   UNL A   1      45.190  28.675  34.489  1.00  0.00     0.173 A 
ATOM     83  C   UNL A   1      43.569  27.082  35.281  1.00  0.00     0.173 A 
ATOM     84  F   UNL A   1      45.510  29.787  33.809  1.00  0.00    -0.203 F 
ATOM     85  C   UNL A   1      46.206  27.930  35.079  1.00  0.00     0.198 A 
ATOM     86  C   UNL A   1      44.586  26.355  35.893  1.00  0.00     0.198 A 
ATOM     87  F   UNL A   1      42.305  26.650  35.393  1.00  0.00    -0.203 F 
ATOM     88  F   UNL A   1      47.481  28.323  34.953  1.00  0.00    -0.200 F 
ATOM     89  C   UNL A   1      45.902  26.776  35.786  1.00  0.00     0.200 A 
ATOM     90  F   UNL A   1      44.289  25.249  36.589  1.00  0.00    -0.200 F 
ATOM     91  F   UNL A   1      46.882  26.065  36.362  1.00  0.00    -0.200 F 
ENDBRANCH  58  81
ENDBRANCH  32  33
ENDBRANCH  24  27
ENDBRANCH  22  23
ENDBRANCH   1  22
TORSDOF 12
ENDMDL
MODEL 3
REMARK VINA RESULT:     -12.9      0.088      1.613
REMARK SMILES CC1(C)[C@H]2CC[C@]1(C)C(=O)N(CC(=O)NCCCCNC(=O)c1ccc(-c3c4nc(c(-c5c(F)c(F)c(F)c(F)c5F)c5ccc([nH]5)c(-c5c(F)c(F)c(F)c(F)c5F)c5nc(c(-c6c(F)c(F)c(F)c(F)c6F)c6ccc3[nH]6)C=C5)C=C4)cc1)C2=O
REMARK SMILES IDX 18 1 17 2 16 3 15 4 13 5 14 6 12 8 11 9 1 10 2 11 4 12 7 13
REMARK SMILES IDX 3 14 5 15 86 16 6 17 9 18 8 19 87 20 10 21 19 22 20 23 21 24
REMARK SMILES IDX 22 26 23 27 24 28 85 29 25 30 84 31 26 32 27 33 28 34 78 35
REMARK SMILES IDX 29 36 83 37 77 38 79 39 30 40 82 41 76 42 75 43 31 45 63 46
REMARK SMILES IDX 43 47 62 48 44 49 47 50 61 51 80 52 45 53 46 54 60 56 81 57
REMARK SMILES IDX 48 58 32 59 33 60 41 61 34 62 35 63 39 64 42 65 36 66 37 67
REMARK SMILES IDX 40 68 38 69 64 70 65 71 73 72 66 73 67 74 71 75 74 76 68 77
REMARK SMILES IDX 69 78 72 79 70 80 49 81 50 82 58 83 51 84 52 85 56 86 59 87
REMARK SMILES IDX 53 88 54 89 57 90 55 91
REMARK H PARENT 15 7 20 25 79 44 47 55
REMARK Flexibility Score: inf
ROOT
ATOM      1  C   UNL A   1      31.684  31.992  26.839  1.00  0.00     0.023 C 
ENDROOT
BRANCH   1   2
ATOM      2  C   UNL A   1      32.041  30.532  26.667  1.00  0.00     0.023 C 
BRANCH   2   3
ATOM      3  C   UNL A   1      31.816  29.871  25.308  1.00  0.00     0.116 C 
BRANCH   3   4
ATOM      4  N   UNL A   1      33.042  29.637  24.555  1.00  0.00    -0.355 N 
ATOM      5  C   UNL A   1      33.272  28.946  23.391  1.00  0.00     0.240 C 
ATOM      6  O   UNL A   1      34.430  28.968  22.959  1.00  0.00    -0.273 OA
ATOM      7  H   UNL A   1      33.845  30.047  24.950  1.00  0.00     0.163 HD
BRANCH   5   8
ATOM      8  C   UNL A   1      32.207  28.032  22.744  1.00  0.00     0.228 C 
BRANCH   8   9
ATOM      9  N   UNL A   1      32.428  26.707  23.305  1.00  0.00    -0.272 N 
ATOM     10  C   UNL A   1      32.660  23.044  25.769  1.00  0.00     0.013 C 
ATOM     11  C   UNL A   1      32.337  24.060  24.643  1.00  0.00    -0.010 C 
ATOM     12  C   UNL A   1      32.028  25.407  25.284  1.00  0.00     0.086 C 
ATOM     13  C   UNL A   1      33.557  24.536  23.773  1.00  0.00     0.053 C 
ATOM     14  C   UNL A   1      31.149  23.474  23.859  1.00  0.00     0.013 C 
ATOM     15  C   UNL A   1      33.417  25.921  25.765  1.00  0.00     0.015 C 
ATOM     16  C   UNL A   1      31.468  26.231  24.134  1.00  0.00     0.233 C 
ATOM     17  C   UNL A   1      34.445  25.238  24.830  1.00  0.00     0.018 C 
ATOM     18  C   UNL A   1      33.236  25.726  22.771  1.00  0.00     0.236 C 
ATOM     19  C   UNL A   1      34.241  23.386  23.052  1.00  0.00     0.022 C 
ATOM     20  O   UNL A   1      30.274  26.277  23.838  1.00  0.00    -0.274 OA
ATOM     21  O   UNL A   1      33.697  25.783  21.635  1.00  0.00    -0.274 OA
ENDBRANCH   8   9
ENDBRANCH   5   8
ENDBRANCH   3   4
ENDBRANCH   2   3
ENDBRANCH   1   2
BRANCH   1  22
ATOM     22  C   UNL A   1      32.864  32.841  27.246  1.00  0.00     0.116 C 
BRANCH  22  23
ATOM     23  N   UNL A   1      32.511  34.194  27.682  1.00  0.00    -0.352 N 
ATOM     24  C   UNL A   1      33.076  34.972  28.669  1.00  0.00     0.251 C 
ATOM     25  H   UNL A   1      31.760  34.608  27.199  1.00  0.00     0.163 HD
ATOM     26  O   UNL A   1      32.630  36.074  28.935  1.00  0.00    -0.269 OA
BRANCH  24  27
ATOM     27  C   UNL A   1      34.199  34.412  29.448  1.00  0.00     0.039 A 
ATOM     28  C   UNL A   1      33.927  33.550  30.512  1.00  0.00     0.014 A 
ATOM     29  C   UNL A   1      35.510  34.652  29.046  1.00  0.00     0.014 A 
ATOM     30  C   UNL A   1      34.977  32.854  31.108  1.00  0.00     0.010 A 
ATOM     31  C   UNL A   1      36.521  33.840  29.521  1.00  0.00     0.010 A 
ATOM     32  C   UNL A   1      36.273  32.956  30.579  1.00  0.00    -0.014 A 
BRANCH  32  33
ATOM     33  C   UNL A   1      37.417  32.205  31.141  1.00  0.00     0.031 A 
ATOM     34  C   UNL A   1      37.899  32.547  32.525  1.00  0.00     0.074 A 
ATOM     35  C   UNL A   1      38.071  31.306  30.383  1.00  0.00     0.049 A 
ATOM     36  N   UNL A   1      38.963  32.134  33.159  1.00  0.00    -0.248 NA
ATOM     37  C   UNL A   1      37.110  33.545  33.271  1.00  0.00     0.031 C 
ATOM     38  C   UNL A   1      37.741  30.956  29.000  1.00  0.00     0.029 A 
ATOM     39  N   UNL A   1      39.162  30.528  30.669  1.00  0.00    -0.354 N 
ATOM     40  C   UNL A   1      38.992  32.853  34.347  1.00  0.00     0.074 A 
ATOM     41  C   UNL A   1      37.891  33.787  34.310  1.00  0.00     0.031 C 
ATOM     42  C   UNL A   1      38.584  30.003  28.572  1.00  0.00     0.029 A 
ATOM     43  C   UNL A   1      39.537  29.703  29.636  1.00  0.00     0.049 A 
ATOM     44  H   UNL A   1      39.634  30.558  31.533  1.00  0.00     0.167 HD
ATOM     45  C   UNL A   1      39.835  32.715  35.395  1.00  0.00     0.037 A 
ATOM     46  C   UNL A   1      40.536  28.805  29.568  1.00  0.00     0.037 A 
ATOM     47  C   UNL A   1      40.873  31.725  35.448  1.00  0.00     0.049 A 
ATOM     48  C   UNL A   1      41.417  28.617  30.772  1.00  0.00     0.074 A 
ATOM     49  C   UNL A   1      41.730  31.424  36.490  1.00  0.00     0.029 A 
ATOM     50  N   UNL A   1      41.180  30.858  34.408  1.00  0.00    -0.354 N 
ATOM     51  N   UNL A   1      41.394  29.251  31.921  1.00  0.00    -0.248 NA
ATOM     52  C   UNL A   1      42.456  27.583  30.677  1.00  0.00     0.031 C 
ATOM     53  C   UNL A   1      42.577  30.393  36.068  1.00  0.00     0.029 A 
ATOM     54  C   UNL A   1      42.221  30.026  34.780  1.00  0.00     0.049 A 
ATOM     55  H   UNL A   1      40.724  30.838  33.536  1.00  0.00     0.167 HD
ATOM     56  C   UNL A   1      42.395  28.680  32.693  1.00  0.00     0.074 A 
ATOM     57  C   UNL A   1      42.996  27.637  31.887  1.00  0.00     0.031 C 
ATOM     58  C   UNL A   1      42.787  28.990  33.953  1.00  0.00     0.037 A 
BRANCH  45  59
ATOM     59  C   UNL A   1      39.642  33.638  36.563  1.00  0.00     0.064 A 
ATOM     60  C   UNL A   1      38.835  33.286  37.658  1.00  0.00     0.173 A 
ATOM     61  C   UNL A   1      40.261  34.895  36.586  1.00  0.00     0.173 A 
ATOM     62  F   UNL A   1      38.203  32.102  37.678  1.00  0.00    -0.203 F 
ATOM     63  C   UNL A   1      38.621  34.174  38.708  1.00  0.00     0.198 A 
ATOM     64  C   UNL A   1      40.074  35.768  37.656  1.00  0.00     0.198 A 
ATOM     65  F   UNL A   1      41.043  35.284  35.567  1.00  0.00    -0.203 F 
ATOM     66  F   UNL A   1      37.789  33.842  39.704  1.00  0.00    -0.200 F 
ATOM     67  C   UNL A   1      39.245  35.412  38.709  1.00  0.00     0.200 A 
ATOM     68  F   UNL A   1      40.685  36.961  37.660  1.00  0.00    -0.200 F 
ATOM     69  F   UNL A   1      39.037  36.267  39.720  1.00  0.00    -0.200 F 
ENDBRANCH  45  59
BRANCH  46  70
ATOM     70  C   UNL A   1      40.712  27.983  28.343  1.00  0.00     0.064 A 
ATOM     71  C   UNL A   1      41.505  28.442  27.282  1.00  0.00     0.173 A 
ATOM     72  C   UNL A   1      40.116  26.720  28.213  1.00  0.00     0.173 A 
ATOM     73  F   UNL A   1      42.085  29.649  27.355  1.00  0.00    -0.203 F 
ATOM     74  C   UNL A   1      41.682  27.678  26.130  1.00  0.00     0.198 A 
ATOM     75  C   UNL A   1      40.313  25.947  27.071  1.00  0.00     0.198 A 
ATOM     76  F   UNL A   1      39.357  26.231  29.205  1.00  0.00    -0.203 F 
ATOM     77  F   UNL A   1      42.415  28.157  25.117  1.00  0.00    -0.200 F 
ATOM     78  C   UNL A   1      41.089  26.428  26.027  1.00  0.00     0.200 A 
ATOM     79  F   UNL A   1      39.752  24.732  26.982  1.00  0.00    -0.200 F 
ATOM     80  F   UNL A   1      41.265  25.691  24.923  1.00  0.00    -0.200 F 
ENDBRANCH  46  70
BRANCH  58  81
ATOM     81  C   UNL A   1      43.895  28.173  34.543  1.00  0.00     0.064 A 
ATOM     82  C   UNL A   1      43.641  26.957  35.194  1.00  0.00     0.173 A 
ATOM     83  C   UNL A   1      45.228  28.586  34.409  1.00  0.00     0.173 A 
ATOM     84  F   UNL A   1      42.379  26.530  35.358  1.00  0.00    -0.203 F 
ATOM     85  C   UNL A   1      44.683  26.193  35.709  1.00  0.00     0.198 A 
ATOM     86  C   UNL A   1      46.270  27.805  34.900  1.00  0.00     0.198 A 
ATOM     87  F   UNL A   1      45.520  29.738  33.786  1.00  0.00    -0.203 F 
ATOM     88  F   UNL A   1      44.417  25.056  36.364  1.00  0.00    -0.200 F 
ATOM     89  C   UNL A   1      45.996  26.614  35.554  1.00  0.00     0.200 A 
ATOM     90  F   UNL A   1      47.538  28.206  34.737  1.00  0.00    -0.200 F 
ATOM     91  F   UNL A   1      47.000  25.871  36.042  1.00  0.00    -0.200 F 
ENDBRANCH  58  81
ENDBRANCH  32  33
ENDBRANCH  24  27
ENDBRANCH  22  23
ENDBRANCH   1  22
TORSDOF 12
ENDMDL
