MODEL 1
REMARK VINA RESULT:     -13.1      0.000      0.000
REMARK SMILES O=C(NCCCCNC(=O)[C@H]1C=C[C@H](NC(=O)c2ccc(Br)c([N+](=O)[O-])c2)C1)c1ccc(-c2c3nc(c(-c4c(F)c(F)c(F)c(F)c4F)c4ccc([nH]4)c(-c4c(F)c(F)c(F)c(F)c4F)c4nc(c(-c5c(F)c(F)c(F)c(F)c5F)c5ccc2[nH]5)C=C4)C=C3)cc1
REMARK SMILES IDX 6 1 5 2 4 3 3 4 1 5 2 6 29 8 30 9 91 10 31 11 90 12 32 13
REMARK SMILES IDX 33 14 34 15 84 16 35 17 89 18 83 19 85 20 36 21 88 22 82 23
REMARK SMILES IDX 81 24 37 26 69 27 49 28 68 29 50 30 53 31 67 32 86 33 51 34
REMARK SMILES IDX 52 35 66 37 87 38 54 39 38 40 39 41 47 42 40 43 41 44 45 45
REMARK SMILES IDX 48 46 42 47 43 48 46 49 44 50 70 51 71 52 79 53 72 54 73 55
REMARK SMILES IDX 77 56 80 57 74 58 75 59 78 60 76 61 55 62 56 63 64 64 57 65
REMARK SMILES IDX 58 66 62 67 65 68 59 69 60 70 63 71 61 72 7 73 8 74 9 75
REMARK SMILES IDX 10 77 11 78 12 79 28 80 13 81 14 82 15 83 16 84 17 86 18 87
REMARK SMILES IDX 19 88 27 89 20 90 23 91 21 92 22 93 24 94 25 95 26 96
REMARK H PARENT 3 7 85 25 53 36 8 76 15 85
REMARK Flexibility Score: inf
ROOT
ATOM      1  C   UNL A   1      31.394  30.724  26.459  1.00  0.00     0.023 C 
ENDROOT
BRANCH   1   2
ATOM      2  C   UNL A   1      31.408  32.256  26.507  1.00  0.00     0.023 C 
BRANCH   2   3
ATOM      3  C   UNL A   1      32.629  32.869  27.183  1.00  0.00     0.116 C 
BRANCH   3   4
ATOM      4  N   UNL A   1      32.390  34.221  27.663  1.00  0.00    -0.352 N 
ATOM      5  O   UNL A   1      32.617  35.993  29.044  1.00  0.00    -0.269 OA
ATOM      6  C   UNL A   1      33.030  34.899  28.671  1.00  0.00     0.251 C 
ATOM      7  H   UNL A   1      31.671  34.715  27.206  1.00  0.00     0.163 HD
BRANCH   6   8
ATOM      8  C   UNL A   1      34.205  34.288  29.323  1.00  0.00     0.039 A 
ATOM      9  C   UNL A   1      35.497  34.591  28.886  1.00  0.00     0.014 A 
ATOM     10  C   UNL A   1      34.008  33.394  30.380  1.00  0.00     0.014 A 
ATOM     11  C   UNL A   1      36.582  33.907  29.419  1.00  0.00     0.010 A 
ATOM     12  C   UNL A   1      35.107  32.763  30.965  1.00  0.00     0.010 A 
ATOM     13  C   UNL A   1      36.399  32.995  30.473  1.00  0.00    -0.014 A 
BRANCH  13  14
ATOM     14  C   UNL A   1      37.584  32.344  31.082  1.00  0.00     0.031 A 
ATOM     15  C   UNL A   1      38.051  32.711  32.460  1.00  0.00     0.074 A 
ATOM     16  C   UNL A   1      38.222  31.389  30.379  1.00  0.00     0.049 A 
ATOM     17  N   UNL A   1      39.059  32.230  33.144  1.00  0.00    -0.248 NA
ATOM     18  C   UNL A   1      37.295  33.757  33.164  1.00  0.00     0.031 C 
ATOM     19  C   UNL A   1      37.860  30.957  29.028  1.00  0.00     0.029 A 
ATOM     20  N   UNL A   1      39.295  30.599  30.705  1.00  0.00    -0.354 N 
ATOM     21  C   UNL A   1      39.069  32.923  34.347  1.00  0.00     0.074 A 
ATOM     22  C   UNL A   1      37.980  33.875  34.294  1.00  0.00     0.031 C 
ATOM     23  C   UNL A   1      38.665  29.951  28.657  1.00  0.00     0.029 A 
ATOM     24  C   UNL A   1      39.635  29.707  29.718  1.00  0.00     0.049 A 
ATOM     25  H   UNL A   1      39.773  30.664  31.563  1.00  0.00     0.167 HD
ATOM     26  C   UNL A   1      39.907  32.768  35.401  1.00  0.00     0.037 A 
ATOM     27  C   UNL A   1      40.630  28.803  29.667  1.00  0.00     0.037 A 
ATOM     28  C   UNL A   1      40.979  31.808  35.452  1.00  0.00     0.049 A 
ATOM     29  C   UNL A   1      41.558  28.672  30.840  1.00  0.00     0.074 A 
ATOM     30  C   UNL A   1      41.864  31.554  36.486  1.00  0.00     0.029 A 
ATOM     31  N   UNL A   1      41.316  30.944  34.420  1.00  0.00    -0.354 N 
ATOM     32  N   UNL A   1      41.539  29.315  31.982  1.00  0.00    -0.248 NA
ATOM     33  C   UNL A   1      42.647  27.696  30.713  1.00  0.00     0.031 C 
ATOM     34  C   UNL A   1      42.761  30.566  36.065  1.00  0.00     0.029 A 
ATOM     35  C   UNL A   1      42.408  30.171  34.785  1.00  0.00     0.049 A 
ATOM     36  H   UNL A   1      40.849  30.887  33.555  1.00  0.00     0.167 HD
ATOM     37  C   UNL A   1      42.602  28.813  32.716  1.00  0.00     0.074 A 
ATOM     38  C   UNL A   1      43.232  27.796  31.898  1.00  0.00     0.031 C 
ATOM     39  C   UNL A   1      43.021  29.165  33.956  1.00  0.00     0.037 A 
BRANCH  26  40
ATOM     40  C   UNL A   1      39.710  33.667  36.587  1.00  0.00     0.064 A 
ATOM     41  C   UNL A   1      40.316  34.931  36.661  1.00  0.00     0.173 A 
ATOM     42  C   UNL A   1      38.860  33.285  37.636  1.00  0.00     0.173 A 
ATOM     43  F   UNL A   1      41.145  35.340  35.691  1.00  0.00    -0.203 F 
ATOM     44  C   UNL A   1      40.092  35.769  37.751  1.00  0.00     0.198 A 
ATOM     45  C   UNL A   1      38.619  34.135  38.712  1.00  0.00     0.198 A 
ATOM     46  F   UNL A   1      38.252  32.089  37.610  1.00  0.00    -0.203 F 
ATOM     47  F   UNL A   1      40.709  36.957  37.819  1.00  0.00    -0.200 F 
ATOM     48  C   UNL A   1      39.238  35.374  38.772  1.00  0.00     0.200 A 
ATOM     49  F   UNL A   1      37.785  33.757  39.690  1.00  0.00    -0.200 F 
ATOM     50  F   UNL A   1      39.017  36.186  39.814  1.00  0.00    -0.200 F 
ENDBRANCH  26  40
BRANCH  27  51
ATOM     51  C   UNL A   1      40.788  27.953  28.460  1.00  0.00     0.064 A 
ATOM     52  C   UNL A   1      40.154  26.709  28.366  1.00  0.00     0.173 A 
ATOM     53  C   UNL A   1      41.560  28.379  27.368  1.00  0.00     0.173 A 
ATOM     54  F   UNL A   1      39.420  26.253  29.393  1.00  0.00    -0.203 F 
ATOM     55  C   UNL A   1      40.292  25.915  27.230  1.00  0.00     0.198 A 
ATOM     56  C   UNL A   1      41.674  27.598  26.221  1.00  0.00     0.198 A 
ATOM     57  F   UNL A   1      42.182  29.566  27.406  1.00  0.00    -0.203 F 
ATOM     58  F   UNL A   1      39.702  24.713  27.179  1.00  0.00    -0.200 F 
ATOM     59  C   UNL A   1      41.045  26.364  26.155  1.00  0.00     0.200 A 
ATOM     60  F   UNL A   1      42.388  28.044  25.178  1.00  0.00    -0.200 F 
ATOM     61  F   UNL A   1      41.169  25.605  25.058  1.00  0.00    -0.200 F 
ENDBRANCH  27  51
BRANCH  39  62
ATOM     62  C   UNL A   1      44.205  28.427  34.507  1.00  0.00     0.064 A 
ATOM     63  C   UNL A   1      45.511  28.915  34.351  1.00  0.00     0.173 A 
ATOM     64  C   UNL A   1      44.028  27.232  35.220  1.00  0.00     0.173 A 
ATOM     65  F   UNL A   1      45.730  30.044  33.661  1.00  0.00    -0.203 F 
ATOM     66  C   UNL A   1      46.600  28.217  34.865  1.00  0.00     0.198 A 
ATOM     67  C   UNL A   1      45.117  26.552  35.756  1.00  0.00     0.198 A 
ATOM     68  F   UNL A   1      42.799  26.727  35.400  1.00  0.00    -0.203 F 
ATOM     69  F   UNL A   1      47.843  28.676  34.663  1.00  0.00    -0.200 F 
ATOM     70  C   UNL A   1      46.402  27.040  35.573  1.00  0.00     0.200 A 
ATOM     71  F   UNL A   1      44.924  25.420  36.447  1.00  0.00    -0.200 F 
ATOM     72  F   UNL A   1      47.452  26.372  36.070  1.00  0.00    -0.200 F 
ENDBRANCH  39  62
ENDBRANCH  13  14
ENDBRANCH   6   8
ENDBRANCH   3   4
ENDBRANCH   2   3
ENDBRANCH   1   2
BRANCH   1  73
ATOM     73  C   UNL A   1      32.745  30.097  26.112  1.00  0.00     0.116 C 
BRANCH  73  74
ATOM     74  N   UNL A   1      32.807  29.753  24.706  1.00  0.00    -0.356 N 
ATOM     75  C   UNL A   1      32.302  28.664  24.056  1.00  0.00     0.227 C 
ATOM     76  H   UNL A   1      33.282  30.399  24.135  1.00  0.00     0.163 HD
ATOM     77  O   UNL A   1      32.605  28.512  22.871  1.00  0.00    -0.274 OA
BRANCH  75  78
ATOM     78  C   UNL A   1      31.325  27.746  24.783  1.00  0.00     0.103 C 
ATOM     79  C   UNL A   1      30.149  27.533  23.876  1.00  0.00    -0.016 C 
ATOM     80  C   UNL A   1      31.874  26.323  24.974  1.00  0.00     0.047 C 
ATOM     81  C   UNL A   1      29.857  26.238  23.741  1.00  0.00    -0.006 C 
ATOM     82  C   UNL A   1      30.749  25.363  24.557  1.00  0.00     0.106 C 
BRANCH  82  83
ATOM     83  N   UNL A   1      30.012  24.848  25.702  1.00  0.00    -0.346 N 
ATOM     84  C   UNL A   1      30.317  23.823  26.561  1.00  0.00     0.251 C 
ATOM     85  H   UNL A   1      29.161  25.306  25.888  1.00  0.00     0.164 HD
ATOM     86  O   UNL A   1      29.560  23.528  27.479  1.00  0.00    -0.269 OA
BRANCH  84  87
ATOM     87  C   UNL A   1      31.521  23.000  26.328  1.00  0.00     0.046 A 
ATOM     88  C   UNL A   1      32.769  23.371  26.826  1.00  0.00     0.015 A 
ATOM     89  C   UNL A   1      31.385  21.848  25.549  1.00  0.00     0.100 A 
ATOM     90  C   UNL A   1      33.903  22.644  26.459  1.00  0.00     0.024 A 
ATOM     91  C   UNL A   1      32.526  21.110  25.195  1.00  0.00     0.284 A 
ATOM     92  C   UNL A   1      33.797  21.523  25.621  1.00  0.00     0.095 A 
ATOM     93  Br  UNL A   1      35.443  20.742  25.081  1.00  0.00    -0.043 Br
BRANCH  91  94
ATOM     94  N   UNL A   1      32.321  19.930  24.356  1.00  0.00     0.063 N 
ATOM     95  O   UNL A   1      32.155  18.849  24.938  1.00  0.00    -0.258 OA
ATOM     96  O   UNL A   1      32.368  20.065  23.128  1.00  0.00    -0.258 OA
ENDBRANCH  91  94
ENDBRANCH  84  87
ENDBRANCH  82  83
ENDBRANCH  75  78
ENDBRANCH  73  74
ENDBRANCH   1  73
TORSDOF 14
ENDMDL
MODEL 2
REMARK VINA RESULT:     -13.1      0.373      7.417
REMARK SMILES O=C(NCCCCNC(=O)[C@H]1C=C[C@H](NC(=O)c2ccc(Br)c([N+](=O)[O-])c2)C1)c1ccc(-c2c3nc(c(-c4c(F)c(F)c(F)c(F)c4F)c4ccc([nH]4)c(-c4c(F)c(F)c(F)c(F)c4F)c4nc(c(-c5c(F)c(F)c(F)c(F)c5F)c5ccc2[nH]5)C=C4)C=C3)cc1
REMARK SMILES IDX 6 1 5 2 4 3 3 4 1 5 2 6 29 8 30 9 91 10 31 11 90 12 32 13
REMARK SMILES IDX 33 14 34 15 84 16 35 17 89 18 83 19 85 20 36 21 88 22 82 23
REMARK SMILES IDX 81 24 37 26 69 27 49 28 68 29 50 30 53 31 67 32 86 33 51 34
REMARK SMILES IDX 52 35 66 37 87 38 54 39 38 40 39 41 47 42 40 43 41 44 45 45
REMARK SMILES IDX 48 46 42 47 43 48 46 49 44 50 70 51 71 52 79 53 72 54 73 55
REMARK SMILES IDX 77 56 80 57 74 58 75 59 78 60 76 61 55 62 56 63 64 64 57 65
REMARK SMILES IDX 58 66 62 67 65 68 59 69 60 70 63 71 61 72 7 73 8 74 9 75
REMARK SMILES IDX 10 77 11 78 12 79 28 80 13 81 14 82 15 83 16 84 17 86 18 87
REMARK SMILES IDX 19 88 27 89 20 90 23 91 21 92 22 93 24 94 25 95 26 96
REMARK H PARENT 3 7 85 25 53 36 8 76 15 85
REMARK Flexibility Score: inf
ROOT
ATOM      1  C   UNL A   1      31.342  30.786  26.651  1.00  0.00     0.023 C 
ENDROOT
BRANCH   1   2
ATOM      2  C   UNL A   1      31.446  32.309  26.520  1.00  0.00     0.023 C 
BRANCH   2   3
ATOM      3  C   UNL A   1      32.673  32.931  27.175  1.00  0.00     0.116 C 
BRANCH   3   4
ATOM      4  N   UNL A   1      32.436  34.285  27.649  1.00  0.00    -0.352 N 
ATOM      5  O   UNL A   1      32.636  36.050  29.043  1.00  0.00    -0.269 OA
ATOM      6  C   UNL A   1      33.046  34.951  28.684  1.00  0.00     0.251 C 
ATOM      7  H   UNL A   1      31.745  34.792  27.165  1.00  0.00     0.163 HD
BRANCH   6   8
ATOM      8  C   UNL A   1      34.185  34.320  29.381  1.00  0.00     0.039 A 
ATOM      9  C   UNL A   1      35.497  34.586  28.981  1.00  0.00     0.014 A 
ATOM     10  C   UNL A   1      33.931  33.444  30.441  1.00  0.00     0.014 A 
ATOM     11  C   UNL A   1      36.547  33.882  29.557  1.00  0.00     0.010 A 
ATOM     12  C   UNL A   1      34.996  32.794  31.069  1.00  0.00     0.010 A 
ATOM     13  C   UNL A   1      36.308  32.988  30.615  1.00  0.00    -0.014 A 
BRANCH  13  14
ATOM     14  C   UNL A   1      37.457  32.316  31.270  1.00  0.00     0.031 A 
ATOM     15  C   UNL A   1      38.224  31.231  30.574  1.00  0.00     0.074 A 
ATOM     16  C   UNL A   1      37.817  32.721  32.503  1.00  0.00     0.049 A 
ATOM     17  N   UNL A   1      39.259  30.550  30.999  1.00  0.00    -0.248 NA
ATOM     18  C   UNL A   1      37.771  30.853  29.227  1.00  0.00     0.031 C 
ATOM     19  C   UNL A   1      37.138  33.762  33.277  1.00  0.00     0.029 A 
ATOM     20  N   UNL A   1      38.849  32.322  33.314  1.00  0.00    -0.354 N 
ATOM     21  C   UNL A   1      39.571  29.656  29.984  1.00  0.00     0.074 A 
ATOM     22  C   UNL A   1      38.602  29.863  28.929  1.00  0.00     0.031 C 
ATOM     23  C   UNL A   1      37.796  33.952  34.430  1.00  0.00     0.029 A 
ATOM     24  C   UNL A   1      38.905  33.008  34.502  1.00  0.00     0.049 A 
ATOM     25  H   UNL A   1      39.487  31.614  33.068  1.00  0.00     0.167 HD
ATOM     26  C   UNL A   1      40.580  28.753  29.938  1.00  0.00     0.037 A 
ATOM     27  C   UNL A   1      39.747  32.879  35.543  1.00  0.00     0.037 A 
ATOM     28  C   UNL A   1      41.549  28.564  30.988  1.00  0.00     0.049 A 
ATOM     29  C   UNL A   1      40.840  31.853  35.473  1.00  0.00     0.074 A 
ATOM     30  C   UNL A   1      42.627  27.696  31.023  1.00  0.00     0.029 A 
ATOM     31  N   UNL A   1      41.555  29.254  32.192  1.00  0.00    -0.354 N 
ATOM     32  N   UNL A   1      41.140  31.032  34.496  1.00  0.00    -0.248 NA
ATOM     33  C   UNL A   1      41.707  31.731  36.652  1.00  0.00     0.031 C 
ATOM     34  C   UNL A   1      43.260  27.831  32.263  1.00  0.00     0.029 A 
ATOM     35  C   UNL A   1      42.605  28.815  32.984  1.00  0.00     0.049 A 
ATOM     36  H   UNL A   1      40.909  29.952  32.446  1.00  0.00     0.167 HD
ATOM     37  C   UNL A   1      42.237  30.307  34.934  1.00  0.00     0.074 A 
ATOM     38  C   UNL A   1      42.563  30.800  36.257  1.00  0.00     0.031 C 
ATOM     39  C   UNL A   1      42.912  29.318  34.299  1.00  0.00     0.037 A 
BRANCH  26  40
ATOM     40  C   UNL A   1      40.686  27.885  28.718  1.00  0.00     0.064 A 
ATOM     41  C   UNL A   1      39.971  26.683  28.606  1.00  0.00     0.173 A 
ATOM     42  C   UNL A   1      41.465  28.288  27.624  1.00  0.00     0.173 A 
ATOM     43  F   UNL A   1      39.220  26.247  29.628  1.00  0.00    -0.203 F 
ATOM     44  C   UNL A   1      40.049  25.908  27.451  1.00  0.00     0.198 A 
ATOM     45  C   UNL A   1      41.522  27.524  26.462  1.00  0.00     0.198 A 
ATOM     46  F   UNL A   1      42.164  29.433  27.677  1.00  0.00    -0.203 F 
ATOM     47  F   UNL A   1      39.386  24.745  27.380  1.00  0.00    -0.200 F 
ATOM     48  C   UNL A   1      40.818  26.332  26.377  1.00  0.00     0.200 A 
ATOM     49  F   UNL A   1      42.256  27.942  25.421  1.00  0.00    -0.200 F 
ATOM     50  F   UNL A   1      40.884  25.590  25.264  1.00  0.00    -0.200 F 
ENDBRANCH  26  40
BRANCH  27  51
ATOM     51  C   UNL A   1      39.584  33.752  36.732  1.00  0.00     0.064 A 
ATOM     52  C   UNL A   1      40.192  35.012  36.790  1.00  0.00     0.173 A 
ATOM     53  C   UNL A   1      38.799  33.353  37.824  1.00  0.00     0.173 A 
ATOM     54  F   UNL A   1      40.967  35.429  35.776  1.00  0.00    -0.203 F 
ATOM     55  C   UNL A   1      40.031  35.838  37.900  1.00  0.00     0.198 A 
ATOM     56  C   UNL A   1      38.615  34.191  38.921  1.00  0.00     0.198 A 
ATOM     57  F   UNL A   1      38.190  32.158  37.814  1.00  0.00    -0.203 F 
ATOM     58  F   UNL A   1      40.651  37.024  37.946  1.00  0.00    -0.200 F 
ATOM     59  C   UNL A   1      39.236  35.430  38.961  1.00  0.00     0.200 A 
ATOM     60  F   UNL A   1      37.832  33.799  39.936  1.00  0.00    -0.200 F 
ATOM     61  F   UNL A   1      39.073  36.228  40.024  1.00  0.00    -0.200 F 
ENDBRANCH  27  51
BRANCH  39  62
ATOM     62  C   UNL A   1      44.083  28.722  35.023  1.00  0.00     0.064 A 
ATOM     63  C   UNL A   1      43.940  27.594  35.845  1.00  0.00     0.173 A 
ATOM     64  C   UNL A   1      45.365  29.270  34.873  1.00  0.00     0.173 A 
ATOM     65  F   UNL A   1      42.730  27.046  36.032  1.00  0.00    -0.203 F 
ATOM     66  C   UNL A   1      45.035  27.054  36.512  1.00  0.00     0.198 A 
ATOM     67  C   UNL A   1      46.462  28.711  35.521  1.00  0.00     0.198 A 
ATOM     68  F   UNL A   1      45.554  30.346  34.095  1.00  0.00    -0.203 F 
ATOM     69  F   UNL A   1      44.868  26.006  37.330  1.00  0.00    -0.200 F 
ATOM     70  C   UNL A   1      46.296  27.608  36.345  1.00  0.00     0.200 A 
ATOM     71  F   UNL A   1      47.680  29.241  35.351  1.00  0.00    -0.200 F 
ATOM     72  F   UNL A   1      47.349  27.085  36.987  1.00  0.00    -0.200 F 
ENDBRANCH  39  62
ENDBRANCH  13  14
ENDBRANCH   6   8
ENDBRANCH   3   4
ENDBRANCH   2   3
ENDBRANCH   1   2
BRANCH   1  73
ATOM     73  C   UNL A   1      32.550  30.027  26.102  1.00  0.00     0.116 C 
BRANCH  73  74
ATOM     74  N   UNL A   1      32.431  29.837  24.670  1.00  0.00    -0.356 N 
ATOM     75  C   UNL A   1      31.841  28.822  23.975  1.00  0.00     0.227 C 
ATOM     76  H   UNL A   1      32.836  30.544  24.117  1.00  0.00     0.163 HD
ATOM     77  O   UNL A   1      31.991  28.800  22.752  1.00  0.00    -0.274 OA
BRANCH  75  78
ATOM     78  C   UNL A   1      30.956  27.824  24.716  1.00  0.00     0.103 C 
ATOM     79  C   UNL A   1      29.867  27.404  23.774  1.00  0.00    -0.016 C 
ATOM     80  C   UNL A   1      31.677  26.502  25.023  1.00  0.00     0.047 C 
ATOM     81  C   UNL A   1      29.755  26.076  23.710  1.00  0.00    -0.006 C 
ATOM     82  C   UNL A   1      30.710  25.377  24.618  1.00  0.00     0.106 C 
BRANCH  82  83
ATOM     83  N   UNL A   1      29.989  24.835  25.761  1.00  0.00    -0.346 N 
ATOM     84  C   UNL A   1      30.313  23.801  26.602  1.00  0.00     0.251 C 
ATOM     85  H   UNL A   1      29.133  25.279  25.961  1.00  0.00     0.164 HD
ATOM     86  O   UNL A   1      29.567  23.481  27.520  1.00  0.00    -0.269 OA
BRANCH  84  87
ATOM     87  C   UNL A   1      31.525  22.997  26.347  1.00  0.00     0.046 A 
ATOM     88  C   UNL A   1      32.775  23.386  26.826  1.00  0.00     0.015 A 
ATOM     89  C   UNL A   1      31.395  21.845  25.567  1.00  0.00     0.100 A 
ATOM     90  C   UNL A   1      33.915  22.677  26.439  1.00  0.00     0.024 A 
ATOM     91  C   UNL A   1      32.542  21.125  25.192  1.00  0.00     0.284 A 
ATOM     92  C   UNL A   1      33.812  21.558  25.599  1.00  0.00     0.095 A 
ATOM     93  Br  UNL A   1      35.461  20.803  25.031  1.00  0.00    -0.043 Br
BRANCH  91  94
ATOM     94  N   UNL A   1      32.341  19.945  24.353  1.00  0.00     0.063 N 
ATOM     95  O   UNL A   1      32.269  20.132  23.130  1.00  0.00    -0.258 OA
ATOM     96  O   UNL A   1      32.209  18.846  24.903  1.00  0.00    -0.258 OA
ENDBRANCH  91  94
ENDBRANCH  84  87
ENDBRANCH  82  83
ENDBRANCH  75  78
ENDBRANCH  73  74
ENDBRANCH   1  73
TORSDOF 14
ENDMDL
MODEL 3
REMARK VINA RESULT:     -13.1      0.122      1.166
REMARK SMILES O=C(NCCCCNC(=O)[C@H]1C=C[C@H](NC(=O)c2ccc(Br)c([N+](=O)[O-])c2)C1)c1ccc(-c2c3nc(c(-c4c(F)c(F)c(F)c(F)c4F)c4ccc([nH]4)c(-c4c(F)c(F)c(F)c(F)c4F)c4nc(c(-c5c(F)c(F)c(F)c(F)c5F)c5ccc2[nH]5)C=C4)C=C3)cc1
REMARK SMILES IDX 6 1 5 2 4 3 3 4 1 5 2 6 29 8 30 9 91 10 31 11 90 12 32 13
REMARK SMILES IDX 33 14 34 15 84 16 35 17 89 18 83 19 85 20 36 21 88 22 82 23
REMARK SMILES IDX 81 24 37 26 69 27 49 28 68 29 50 30 53 31 67 32 86 33 51 34
REMARK SMILES IDX 52 35 66 37 87 38 54 39 38 40 39 41 47 42 40 43 41 44 45 45
REMARK SMILES IDX 48 46 42 47 43 48 46 49 44 50 70 51 71 52 79 53 72 54 73 55
REMARK SMILES IDX 77 56 80 57 74 58 75 59 78 60 76 61 55 62 56 63 64 64 57 65
REMARK SMILES IDX 58 66 62 67 65 68 59 69 60 70 63 71 61 72 7 73 8 74 9 75
REMARK SMILES IDX 10 77 11 78 12 79 28 80 13 81 14 82 15 83 16 84 17 86 18 87
REMARK SMILES IDX 19 88 27 89 20 90 23 91 21 92 22 93 24 94 25 95 26 96
REMARK H PARENT 3 7 85 25 53 36 8 76 15 85
REMARK Flexibility Score: inf
ROOT
ATOM      1  C   UNL A   1      31.397  30.702  26.419  1.00  0.00     0.023 C 
ENDROOT
BRANCH   1   2
ATOM      2  C   UNL A   1      31.396  32.232  26.504  1.00  0.00     0.023 C 
BRANCH   2   3
ATOM      3  C   UNL A   1      32.605  32.841  27.204  1.00  0.00     0.116 C 
BRANCH   3   4
ATOM      4  N   UNL A   1      32.373  34.206  27.649  1.00  0.00    -0.352 N 
ATOM      5  O   UNL A   1      32.611  36.014  28.981  1.00  0.00    -0.269 OA
ATOM      6  C   UNL A   1      33.018  34.909  28.637  1.00  0.00     0.251 C 
ATOM      7  H   UNL A   1      31.656  34.692  27.180  1.00  0.00     0.163 HD
BRANCH   6   8
ATOM      8  C   UNL A   1      34.191  34.310  29.303  1.00  0.00     0.039 A 
ATOM      9  C   UNL A   1      35.478  34.526  28.804  1.00  0.00     0.014 A 
ATOM     10  C   UNL A   1      33.997  33.515  30.436  1.00  0.00     0.014 A 
ATOM     11  C   UNL A   1      36.556  33.848  29.361  1.00  0.00     0.010 A 
ATOM     12  C   UNL A   1      35.092  32.893  31.040  1.00  0.00     0.010 A 
ATOM     13  C   UNL A   1      36.375  33.034  30.492  1.00  0.00    -0.014 A 
BRANCH  13  14
ATOM     14  C   UNL A   1      37.555  32.392  31.119  1.00  0.00     0.031 A 
ATOM     15  C   UNL A   1      38.004  32.769  32.501  1.00  0.00     0.074 A 
ATOM     16  C   UNL A   1      38.206  31.436  30.429  1.00  0.00     0.049 A 
ATOM     17  N   UNL A   1      39.006  32.297  33.199  1.00  0.00    -0.248 NA
ATOM     18  C   UNL A   1      37.235  33.816  33.189  1.00  0.00     0.031 C 
ATOM     19  C   UNL A   1      37.862  30.995  29.075  1.00  0.00     0.029 A 
ATOM     20  N   UNL A   1      39.278  30.652  30.772  1.00  0.00    -0.354 N 
ATOM     21  C   UNL A   1      38.999  32.996  34.398  1.00  0.00     0.074 A 
ATOM     22  C   UNL A   1      37.906  33.943  34.326  1.00  0.00     0.031 C 
ATOM     23  C   UNL A   1      38.675  29.991  28.720  1.00  0.00     0.029 A 
ATOM     24  C   UNL A   1      39.634  29.757  29.794  1.00  0.00     0.049 A 
ATOM     25  H   UNL A   1      39.746  30.725  31.635  1.00  0.00     0.167 HD
ATOM     26  C   UNL A   1      39.825  32.851  35.462  1.00  0.00     0.037 A 
ATOM     27  C   UNL A   1      40.633  28.858  29.759  1.00  0.00     0.037 A 
ATOM     28  C   UNL A   1      40.901  31.895  35.531  1.00  0.00     0.049 A 
ATOM     29  C   UNL A   1      41.547  28.737  30.944  1.00  0.00     0.074 A 
ATOM     30  C   UNL A   1      41.775  31.651  36.577  1.00  0.00     0.029 A 
ATOM     31  N   UNL A   1      41.254  31.027  34.508  1.00  0.00    -0.354 N 
ATOM     32  N   UNL A   1      41.512  29.386  32.082  1.00  0.00    -0.248 NA
ATOM     33  C   UNL A   1      42.643  27.765  30.835  1.00  0.00     0.031 C 
ATOM     34  C   UNL A   1      42.680  30.665  36.172  1.00  0.00     0.029 A 
ATOM     35  C   UNL A   1      42.344  30.261  34.891  1.00  0.00     0.049 A 
ATOM     36  H   UNL A   1      40.797  30.964  33.638  1.00  0.00     0.167 HD
ATOM     37  C   UNL A   1      42.569  28.892  32.832  1.00  0.00     0.074 A 
ATOM     38  C   UNL A   1      43.213  27.874  32.026  1.00  0.00     0.031 C 
ATOM     39  C   UNL A   1      42.972  29.253  34.075  1.00  0.00     0.037 A 
BRANCH  26  40
ATOM     40  C   UNL A   1      39.611  33.755  36.641  1.00  0.00     0.064 A 
ATOM     41  C   UNL A   1      38.811  33.370  37.728  1.00  0.00     0.173 A 
ATOM     42  C   UNL A   1      40.259  34.998  36.712  1.00  0.00     0.173 A 
ATOM     43  F   UNL A   1      38.162  32.197  37.706  1.00  0.00    -0.203 F 
ATOM     44  C   UNL A   1      38.654  34.205  38.833  1.00  0.00     0.198 A 
ATOM     45  C   UNL A   1      40.119  35.818  37.827  1.00  0.00     0.198 A 
ATOM     46  F   UNL A   1      41.039  35.410  35.701  1.00  0.00    -0.203 F 
ATOM     47  F   UNL A   1      37.857  33.833  39.844  1.00  0.00    -0.200 F 
ATOM     48  C   UNL A   1      39.313  35.425  38.885  1.00  0.00     0.200 A 
ATOM     49  F   UNL A   1      40.766  36.991  37.881  1.00  0.00    -0.200 F 
ATOM     50  F   UNL A   1      39.168  36.221  39.952  1.00  0.00    -0.200 F 
ENDBRANCH  26  40
BRANCH  27  51
ATOM     51  C   UNL A   1      40.810  28.002  28.559  1.00  0.00     0.064 A 
ATOM     52  C   UNL A   1      40.154  26.770  28.450  1.00  0.00     0.173 A 
ATOM     53  C   UNL A   1      41.620  28.410  27.489  1.00  0.00     0.173 A 
ATOM     54  F   UNL A   1      39.382  26.331  29.456  1.00  0.00    -0.203 F 
ATOM     55  C   UNL A   1      40.309  25.971  27.320  1.00  0.00     0.198 A 
ATOM     56  C   UNL A   1      41.752  27.624  26.347  1.00  0.00     0.198 A 
ATOM     57  F   UNL A   1      42.264  29.585  27.543  1.00  0.00    -0.203 F 
ATOM     58  F   UNL A   1      39.697  24.780  27.254  1.00  0.00    -0.200 F 
ATOM     59  C   UNL A   1      41.101  26.402  26.265  1.00  0.00     0.200 A 
ATOM     60  F   UNL A   1      42.505  28.053  25.325  1.00  0.00    -0.200 F 
ATOM     61  F   UNL A   1      41.242  25.638  25.174  1.00  0.00    -0.200 F 
ENDBRANCH  27  51
BRANCH  39  62
ATOM     62  C   UNL A   1      44.152  28.523  34.644  1.00  0.00     0.064 A 
ATOM     63  C   UNL A   1      45.458  29.016  34.499  1.00  0.00     0.173 A 
ATOM     64  C   UNL A   1      43.973  27.331  35.361  1.00  0.00     0.173 A 
ATOM     65  F   UNL A   1      45.681  30.142  33.806  1.00  0.00    -0.203 F 
ATOM     66  C   UNL A   1      46.544  28.326  35.031  1.00  0.00     0.198 A 
ATOM     67  C   UNL A   1      45.058  26.659  35.914  1.00  0.00     0.198 A 
ATOM     68  F   UNL A   1      42.743  26.823  35.529  1.00  0.00    -0.203 F 
ATOM     69  F   UNL A   1      47.787  28.789  34.840  1.00  0.00    -0.200 F 
ATOM     70  C   UNL A   1      46.343  27.153  35.742  1.00  0.00     0.200 A 
ATOM     71  F   UNL A   1      44.862  25.531  36.609  1.00  0.00    -0.200 F 
ATOM     72  F   UNL A   1      47.389  26.492  36.255  1.00  0.00    -0.200 F 
ENDBRANCH  39  62
ENDBRANCH  13  14
ENDBRANCH   6   8
ENDBRANCH   3   4
ENDBRANCH   2   3
ENDBRANCH   1   2
BRANCH   1  73
ATOM     73  C   UNL A   1      32.755  30.096  26.065  1.00  0.00     0.116 C 
BRANCH  73  74
ATOM     74  N   UNL A   1      32.810  29.743  24.661  1.00  0.00    -0.356 N 
ATOM     75  C   UNL A   1      32.301  28.650  24.020  1.00  0.00     0.227 C 
ATOM     76  H   UNL A   1      33.283  30.385  24.083  1.00  0.00     0.163 HD
ATOM     77  O   UNL A   1      32.599  28.489  22.835  1.00  0.00    -0.274 OA
BRANCH  75  78
ATOM     78  C   UNL A   1      31.327  27.737  24.758  1.00  0.00     0.103 C 
ATOM     79  C   UNL A   1      30.146  27.521  23.860  1.00  0.00    -0.016 C 
ATOM     80  C   UNL A   1      31.876  26.315  24.955  1.00  0.00     0.047 C 
ATOM     81  C   UNL A   1      29.852  26.226  23.734  1.00  0.00    -0.006 C 
ATOM     82  C   UNL A   1      30.747  25.354  24.549  1.00  0.00     0.106 C 
BRANCH  82  83
ATOM     83  N   UNL A   1      30.017  24.847  25.702  1.00  0.00    -0.346 N 
ATOM     84  C   UNL A   1      30.324  23.825  26.564  1.00  0.00     0.251 C 
ATOM     85  H   UNL A   1      29.168  25.309  25.892  1.00  0.00     0.164 HD
ATOM     86  O   UNL A   1      29.572  23.536  27.488  1.00  0.00    -0.269 OA
BRANCH  84  87
ATOM     87  C   UNL A   1      31.523  22.997  26.327  1.00  0.00     0.046 A 
ATOM     88  C   UNL A   1      32.766  23.342  26.856  1.00  0.00     0.015 A 
ATOM     89  C   UNL A   1      31.390  21.870  25.512  1.00  0.00     0.100 A 
ATOM     90  C   UNL A   1      33.900  22.614  26.487  1.00  0.00     0.024 A 
ATOM     91  C   UNL A   1      32.530  21.131  25.156  1.00  0.00     0.284 A 
ATOM     92  C   UNL A   1      33.797  21.519  25.614  1.00  0.00     0.095 A 
ATOM     93  Br  UNL A   1      35.445  20.738  25.079  1.00  0.00    -0.043 Br
BRANCH  91  94
ATOM     94  N   UNL A   1      32.328  19.978  24.279  1.00  0.00     0.063 N 
ATOM     95  O   UNL A   1      32.255  20.204  23.063  1.00  0.00    -0.258 OA
ATOM     96  O   UNL A   1      32.194  18.862  24.794  1.00  0.00    -0.258 OA
ENDBRANCH  91  94
ENDBRANCH  84  87
ENDBRANCH  82  83
ENDBRANCH  75  78
ENDBRANCH  73  74
ENDBRANCH   1  73
TORSDOF 14
ENDMDL
