MODEL 1
REMARK VINA RESULT:     -11.3      0.000      0.000
REMARK SMILES C[C@H](C(=O)NCCCCNC(=O)c1ccc(-c2c3nc(c(-c4c(F)c(F)c(F)c(F)c4F)c4ccc([nH]4)c(-c4c(F)c(F)c(F)c(F)c4F)c4nc(c(-c5c(F)c(F)c(F)c(F)c5F)c5ccc2[nH]5)C=C4)C=C3)cc1)c1ccc2c(c1)[nH]c1ccc(Cl)cc12
REMARK SMILES IDX 8 1 7 2 6 3 5 4 3 5 4 6 2 8 1 9 76 10 77 11 81 12 78 13
REMARK SMILES IDX 80 14 79 15 82 16 89 17 83 18 88 20 84 21 86 22 85 23 87 24
REMARK SMILES IDX 9 25 10 26 11 27 12 29 13 30 14 31 75 32 15 33 74 34 16 35
REMARK SMILES IDX 17 36 18 37 68 38 19 39 73 40 67 41 69 42 20 43 72 44 66 45
REMARK SMILES IDX 65 46 21 48 53 49 33 50 52 51 34 52 37 53 51 54 70 55 35 56
REMARK SMILES IDX 36 57 50 59 71 60 38 61 22 62 23 63 31 64 24 65 25 66 29 67
REMARK SMILES IDX 32 68 26 69 27 70 30 71 28 72 54 73 55 74 63 75 56 76 57 77
REMARK SMILES IDX 61 78 64 79 58 80 59 81 62 82 60 83 39 84 40 85 48 86 41 87
REMARK SMILES IDX 42 88 46 89 49 90 43 91 44 92 47 93 45 94
REMARK H PARENT 5 7 82 19 10 28 69 47 37 58
REMARK Flexibility Score: inf
ROOT
ATOM      1  C   UNL A   1      33.703  33.801  28.385  1.00  0.00     0.023 C 
ENDROOT
BRANCH   1   2
ATOM      2  C   UNL A   1      34.408  35.105  28.749  1.00  0.00     0.023 C 
BRANCH   2   3
ATOM      3  C   UNL A   1      33.468  36.263  29.091  1.00  0.00     0.116 C 
BRANCH   3   4
ATOM      4  N   UNL A   1      32.528  35.897  30.132  1.00  0.00    -0.356 N 
ATOM      5  C   UNL A   1      32.727  35.715  31.473  1.00  0.00     0.227 C 
ATOM      6  O   UNL A   1      31.762  35.328  32.137  1.00  0.00    -0.274 OA
ATOM      7  H   UNL A   1      31.603  35.758  29.826  1.00  0.00     0.163 HD
BRANCH   5   8
ATOM      8  C   UNL A   1      34.096  36.013  32.107  1.00  0.00     0.105 C 
ATOM      9  C   UNL A   1      33.908  36.828  33.391  1.00  0.00     0.023 C 
BRANCH   8  10
ATOM     10  C   UNL A   1      34.923  34.747  32.310  1.00  0.00    -0.034 A 
ATOM     11  C   UNL A   1      34.496  33.476  31.903  1.00  0.00     0.005 A 
ATOM     12  C   UNL A   1      36.192  34.874  32.895  1.00  0.00     0.031 A 
ATOM     13  C   UNL A   1      35.326  32.343  32.036  1.00  0.00     0.011 A 
ATOM     14  C   UNL A   1      37.027  33.758  32.958  1.00  0.00     0.047 A 
ATOM     15  C   UNL A   1      36.633  32.488  32.551  1.00  0.00     0.007 A 
ATOM     16  N   UNL A   1      38.326  33.672  33.388  1.00  0.00    -0.355 N 
ATOM     17  C   UNL A   1      37.738  31.604  32.809  1.00  0.00     0.009 A 
ATOM     18  C   UNL A   1      38.764  32.374  33.362  1.00  0.00     0.047 A 
ATOM     19  H   UNL A   1      38.871  34.439  33.675  1.00  0.00     0.167 HD
ATOM     20  C   UNL A   1      37.963  30.221  32.644  1.00  0.00     0.031 A 
ATOM     21  C   UNL A   1      39.985  31.843  33.789  1.00  0.00     0.028 A 
ATOM     22  C   UNL A   1      39.180  29.675  33.074  1.00  0.00     0.041 A 
ATOM     23  C   UNL A   1      40.170  30.468  33.648  1.00  0.00     0.022 A 
ATOM     24  Cl  UNL A   1      39.459  27.983  32.899  1.00  0.00    -0.084 Cl
ENDBRANCH   8  10
ENDBRANCH   5   8
ENDBRANCH   3   4
ENDBRANCH   2   3
ENDBRANCH   1   2
BRANCH   1  25
ATOM     25  C   UNL A   1      34.617  32.590  28.281  1.00  0.00     0.116 C 
BRANCH  25  26
ATOM     26  N   UNL A   1      33.901  31.351  28.015  1.00  0.00    -0.352 N 
ATOM     27  C   UNL A   1      34.405  30.077  27.888  1.00  0.00     0.251 C 
ATOM     28  H   UNL A   1      32.926  31.437  27.911  1.00  0.00     0.163 HD
ATOM     29  O   UNL A   1      33.684  29.159  27.530  1.00  0.00    -0.269 OA
BRANCH  27  30
ATOM     30  C   UNL A   1      35.840  29.838  28.163  1.00  0.00     0.039 A 
ATOM     31  C   UNL A   1      36.215  29.328  29.407  1.00  0.00     0.014 A 
ATOM     32  C   UNL A   1      36.804  30.095  27.186  1.00  0.00     0.014 A 
ATOM     33  C   UNL A   1      37.557  29.028  29.651  1.00  0.00     0.010 A 
ATOM     34  C   UNL A   1      38.121  29.703  27.395  1.00  0.00     0.010 A 
ATOM     35  C   UNL A   1      38.516  29.187  28.637  1.00  0.00    -0.014 A 
BRANCH  35  36
ATOM     36  C   UNL A   1      39.947  28.867  28.868  1.00  0.00     0.031 A 
ATOM     37  C   UNL A   1      40.835  29.870  29.552  1.00  0.00     0.074 A 
ATOM     38  C   UNL A   1      40.459  27.707  28.416  1.00  0.00     0.049 A 
ATOM     39  N   UNL A   1      42.118  29.805  29.808  1.00  0.00    -0.248 NA
ATOM     40  C   UNL A   1      40.205  31.130  29.974  1.00  0.00     0.031 C 
ATOM     41  C   UNL A   1      39.712  26.676  27.695  1.00  0.00     0.029 A 
ATOM     42  N   UNL A   1      41.732  27.203  28.494  1.00  0.00    -0.354 N 
ATOM     43  C   UNL A   1      42.446  31.019  30.396  1.00  0.00     0.074 A 
ATOM     44  C   UNL A   1      41.247  31.828  30.396  1.00  0.00     0.031 C 
ATOM     45  C   UNL A   1      40.531  25.645  27.431  1.00  0.00     0.029 A 
ATOM     46  C   UNL A   1      41.868  25.959  27.927  1.00  0.00     0.049 A 
ATOM     47  H   UNL A   1      42.479  27.687  28.916  1.00  0.00     0.167 HD
ATOM     48  C   UNL A   1      43.632  31.417  30.918  1.00  0.00     0.037 A 
ATOM     49  C   UNL A   1      42.949  25.163  27.825  1.00  0.00     0.037 A 
ATOM     50  C   UNL A   1      44.815  30.598  30.937  1.00  0.00     0.049 A 
ATOM     51  C   UNL A   1      44.257  25.626  28.406  1.00  0.00     0.074 A 
ATOM     52  C   UNL A   1      46.049  30.876  31.495  1.00  0.00     0.029 A 
ATOM     53  N   UNL A   1      44.910  29.338  30.363  1.00  0.00    -0.354 N 
ATOM     54  N   UNL A   1      44.540  26.744  29.031  1.00  0.00    -0.248 NA
ATOM     55  C   UNL A   1      45.397  24.707  28.279  1.00  0.00     0.031 C 
ATOM     56  C   UNL A   1      46.909  29.810  31.208  1.00  0.00     0.029 A 
ATOM     57  C   UNL A   1      46.192  28.836  30.532  1.00  0.00     0.049 A 
ATOM     58  H   UNL A   1      44.177  28.868  29.904  1.00  0.00     0.167 HD
ATOM     59  C   UNL A   1      45.873  26.646  29.406  1.00  0.00     0.074 A 
ATOM     60  C   UNL A   1      46.341  25.355  28.945  1.00  0.00     0.031 C 
ATOM     61  C   UNL A   1      46.639  27.542  30.078  1.00  0.00     0.037 A 
BRANCH  48  62
ATOM     62  C   UNL A   1      43.702  32.802  31.496  1.00  0.00     0.064 A 
ATOM     63  C   UNL A   1      43.530  33.043  32.870  1.00  0.00     0.173 A 
ATOM     64  C   UNL A   1      43.943  33.908  30.667  1.00  0.00     0.173 A 
ATOM     65  F   UNL A   1      43.284  32.025  33.709  1.00  0.00    -0.203 F 
ATOM     66  C   UNL A   1      43.545  34.339  33.380  1.00  0.00     0.198 A 
ATOM     67  C   UNL A   1      43.998  35.198  31.187  1.00  0.00     0.198 A 
ATOM     68  F   UNL A   1      44.122  33.738  29.348  1.00  0.00    -0.203 F 
ATOM     69  F   UNL A   1      43.301  34.548  34.681  1.00  0.00    -0.200 F 
ATOM     70  C   UNL A   1      43.784  35.414  32.540  1.00  0.00     0.200 A 
ATOM     71  F   UNL A   1      44.245  36.235  30.375  1.00  0.00    -0.200 F 
ATOM     72  F   UNL A   1      43.797  36.661  33.030  1.00  0.00    -0.200 F 
ENDBRANCH  48  62
BRANCH  49  73
ATOM     73  C   UNL A   1      42.825  23.824  27.193  1.00  0.00     0.064 A 
ATOM     74  C   UNL A   1      43.229  23.618  25.866  1.00  0.00     0.173 A 
ATOM     75  C   UNL A   1      42.312  22.724  27.896  1.00  0.00     0.173 A 
ATOM     76  F   UNL A   1      43.708  24.642  25.146  1.00  0.00    -0.203 F 
ATOM     77  C   UNL A   1      43.104  22.370  25.260  1.00  0.00     0.198 A 
ATOM     78  C   UNL A   1      42.215  21.469  27.298  1.00  0.00     0.198 A 
ATOM     79  F   UNL A   1      41.918  22.866  29.170  1.00  0.00    -0.203 F 
ATOM     80  F   UNL A   1      43.456  22.212  23.977  1.00  0.00    -0.200 F 
ATOM     81  C   UNL A   1      42.604  21.294  25.978  1.00  0.00     0.200 A 
ATOM     82  F   UNL A   1      41.746  20.428  28.001  1.00  0.00    -0.200 F 
ATOM     83  F   UNL A   1      42.492  20.092  25.398  1.00  0.00    -0.200 F 
ENDBRANCH  49  73
BRANCH  61  84
ATOM     84  C   UNL A   1      48.048  27.135  30.410  1.00  0.00     0.064 A 
ATOM     85  C   UNL A   1      49.136  27.488  29.600  1.00  0.00     0.173 A 
ATOM     86  C   UNL A   1      48.311  26.405  31.580  1.00  0.00     0.173 A 
ATOM     87  F   UNL A   1      48.939  28.175  28.465  1.00  0.00    -0.203 F 
ATOM     88  C   UNL A   1      50.431  27.095  29.930  1.00  0.00     0.198 A 
ATOM     89  C   UNL A   1      49.610  26.045  31.925  1.00  0.00     0.198 A 
ATOM     90  F   UNL A   1      47.307  26.048  32.396  1.00  0.00    -0.203 F 
ATOM     91  F   UNL A   1      51.449  27.392  29.110  1.00  0.00    -0.200 F 
ATOM     92  C   UNL A   1      50.668  26.381  31.095  1.00  0.00     0.200 A 
ATOM     93  F   UNL A   1      49.838  25.371  33.061  1.00  0.00    -0.200 F 
ATOM     94  F   UNL A   1      51.915  26.009  31.413  1.00  0.00    -0.200 F 
ENDBRANCH  61  84
ENDBRANCH  35  36
ENDBRANCH  27  30
ENDBRANCH  25  26
ENDBRANCH   1  25
TORSDOF 12
ENDMDL
MODEL 2
REMARK VINA RESULT:     -11.2      4.915     10.666
REMARK SMILES C[C@H](C(=O)NCCCCNC(=O)c1ccc(-c2c3nc(c(-c4c(F)c(F)c(F)c(F)c4F)c4ccc([nH]4)c(-c4c(F)c(F)c(F)c(F)c4F)c4nc(c(-c5c(F)c(F)c(F)c(F)c5F)c5ccc2[nH]5)C=C4)C=C3)cc1)c1ccc2c(c1)[nH]c1ccc(Cl)cc12
REMARK SMILES IDX 8 1 7 2 6 3 5 4 3 5 4 6 2 8 1 9 76 10 77 11 81 12 78 13
REMARK SMILES IDX 80 14 79 15 82 16 89 17 83 18 88 20 84 21 86 22 85 23 87 24
REMARK SMILES IDX 9 25 10 26 11 27 12 29 13 30 14 31 75 32 15 33 74 34 16 35
REMARK SMILES IDX 17 36 18 37 68 38 19 39 73 40 67 41 69 42 20 43 72 44 66 45
REMARK SMILES IDX 65 46 21 48 53 49 33 50 52 51 34 52 37 53 51 54 70 55 35 56
REMARK SMILES IDX 36 57 50 59 71 60 38 61 22 62 23 63 31 64 24 65 25 66 29 67
REMARK SMILES IDX 32 68 26 69 27 70 30 71 28 72 54 73 55 74 63 75 56 76 57 77
REMARK SMILES IDX 61 78 64 79 58 80 59 81 62 82 60 83 39 84 40 85 48 86 41 87
REMARK SMILES IDX 42 88 46 89 49 90 43 91 44 92 47 93 45 94
REMARK H PARENT 5 7 82 19 10 28 69 47 37 58
REMARK Flexibility Score: inf
ROOT
ATOM      1  C   UNL A   1      31.492  32.197  26.530  1.00  0.00     0.023 C 
ENDROOT
BRANCH   1   2
ATOM      2  C   UNL A   1      31.488  30.670  26.534  1.00  0.00     0.023 C 
BRANCH   2   3
ATOM      3  C   UNL A   1      32.849  30.029  26.255  1.00  0.00     0.116 C 
BRANCH   3   4
ATOM      4  N   UNL A   1      33.060  29.824  24.836  1.00  0.00    -0.356 N 
ATOM      5  C   UNL A   1      32.410  29.000  23.959  1.00  0.00     0.227 C 
ATOM      6  O   UNL A   1      32.840  28.958  22.804  1.00  0.00    -0.274 OA
ATOM      7  H   UNL A   1      33.784  30.362  24.442  1.00  0.00     0.163 HD
BRANCH   5   8
ATOM      8  C   UNL A   1      31.183  28.191  24.411  1.00  0.00     0.105 C 
ATOM      9  C   UNL A   1      30.010  28.452  23.461  1.00  0.00     0.023 C 
BRANCH   8  10
ATOM     10  C   UNL A   1      31.504  26.709  24.584  1.00  0.00    -0.034 A 
ATOM     11  C   UNL A   1      31.701  26.106  25.833  1.00  0.00     0.005 A 
ATOM     12  C   UNL A   1      31.558  25.907  23.433  1.00  0.00     0.031 A 
ATOM     13  C   UNL A   1      31.916  24.716  25.953  1.00  0.00     0.011 A 
ATOM     14  C   UNL A   1      31.704  24.526  23.573  1.00  0.00     0.047 A 
ATOM     15  C   UNL A   1      31.891  23.900  24.801  1.00  0.00     0.007 A 
ATOM     16  N   UNL A   1      31.681  23.552  22.609  1.00  0.00    -0.355 N 
ATOM     17  C   UNL A   1      32.043  22.495  24.535  1.00  0.00     0.009 A 
ATOM     18  C   UNL A   1      31.939  22.321  23.153  1.00  0.00     0.047 A 
ATOM     19  H   UNL A   1      31.504  23.715  21.655  1.00  0.00     0.167 HD
ATOM     20  C   UNL A   1      32.275  21.353  25.331  1.00  0.00     0.031 A 
ATOM     21  C   UNL A   1      32.086  21.085  22.516  1.00  0.00     0.028 A 
ATOM     22  C   UNL A   1      32.431  20.109  24.705  1.00  0.00     0.041 A 
ATOM     23  C   UNL A   1      32.351  19.977  23.321  1.00  0.00     0.022 A 
ATOM     24  Cl  UNL A   1      32.738  18.710  25.663  1.00  0.00    -0.084 Cl
ENDBRANCH   8  10
ENDBRANCH   5   8
ENDBRANCH   3   4
ENDBRANCH   2   3
ENDBRANCH   1   2
BRANCH   1  25
ATOM     25  C   UNL A   1      32.642  32.834  27.291  1.00  0.00     0.116 C 
BRANCH  25  26
ATOM     26  N   UNL A   1      32.399  34.225  27.643  1.00  0.00    -0.352 N 
ATOM     27  C   UNL A   1      33.008  34.986  28.614  1.00  0.00     0.251 C 
ATOM     28  H   UNL A   1      31.705  34.682  27.115  1.00  0.00     0.163 HD
ATOM     29  O   UNL A   1      32.593  36.105  28.874  1.00  0.00    -0.269 OA
BRANCH  27  30
ATOM     30  C   UNL A   1      34.153  34.420  29.363  1.00  0.00     0.039 A 
ATOM     31  C   UNL A   1      33.907  33.693  30.529  1.00  0.00     0.014 A 
ATOM     32  C   UNL A   1      35.459  34.589  28.900  1.00  0.00     0.014 A 
ATOM     33  C   UNL A   1      34.972  33.091  31.203  1.00  0.00     0.010 A 
ATOM     34  C   UNL A   1      36.503  33.908  29.514  1.00  0.00     0.010 A 
ATOM     35  C   UNL A   1      36.274  33.171  30.685  1.00  0.00    -0.014 A 
BRANCH  35  36
ATOM     36  C   UNL A   1      37.423  32.533  31.376  1.00  0.00     0.031 A 
ATOM     37  C   UNL A   1      38.165  31.408  30.708  1.00  0.00     0.074 A 
ATOM     38  C   UNL A   1      37.761  32.921  32.620  1.00  0.00     0.049 A 
ATOM     39  N   UNL A   1      39.163  30.688  31.157  1.00  0.00    -0.248 NA
ATOM     40  C   UNL A   1      37.702  31.017  29.368  1.00  0.00     0.031 C 
ATOM     41  C   UNL A   1      37.087  33.965  33.393  1.00  0.00     0.029 A 
ATOM     42  N   UNL A   1      38.756  32.478  33.454  1.00  0.00    -0.354 N 
ATOM     43  C   UNL A   1      39.426  29.751  30.167  1.00  0.00     0.074 A 
ATOM     44  C   UNL A   1      38.441  29.946  29.126  1.00  0.00     0.031 C 
ATOM     45  C   UNL A   1      37.712  34.109  34.573  1.00  0.00     0.029 A 
ATOM     46  C   UNL A   1      38.803  33.143  34.655  1.00  0.00     0.049 A 
ATOM     47  H   UNL A   1      39.377  31.753  33.214  1.00  0.00     0.167 HD
ATOM     48  C   UNL A   1      40.417  28.828  30.114  1.00  0.00     0.037 A 
ATOM     49  C   UNL A   1      39.637  32.989  35.702  1.00  0.00     0.037 A 
ATOM     50  C   UNL A   1      41.408  28.656  31.142  1.00  0.00     0.049 A 
ATOM     51  C   UNL A   1      40.727  31.955  35.624  1.00  0.00     0.074 A 
ATOM     52  C   UNL A   1      42.492  27.797  31.161  1.00  0.00     0.029 A 
ATOM     53  N   UNL A   1      41.431  29.355  32.340  1.00  0.00    -0.354 N 
ATOM     54  N   UNL A   1      41.018  31.125  34.651  1.00  0.00    -0.248 NA
ATOM     55  C   UNL A   1      41.616  31.845  36.789  1.00  0.00     0.031 C 
ATOM     56  C   UNL A   1      43.136  27.933  32.396  1.00  0.00     0.029 A 
ATOM     57  C   UNL A   1      42.497  28.928  33.118  1.00  0.00     0.049 A 
ATOM     58  H   UNL A   1      40.786  30.053  32.600  1.00  0.00     0.167 HD
ATOM     59  C   UNL A   1      42.143  30.426  35.066  1.00  0.00     0.074 A 
ATOM     60  C   UNL A   1      42.487  30.935  36.378  1.00  0.00     0.031 C 
ATOM     61  C   UNL A   1      42.834  29.454  34.418  1.00  0.00     0.037 A 
BRANCH  48  62
ATOM     62  C   UNL A   1      40.462  27.932  28.907  1.00  0.00     0.064 A 
ATOM     63  C   UNL A   1      41.208  28.263  27.764  1.00  0.00     0.173 A 
ATOM     64  C   UNL A   1      39.747  26.725  28.892  1.00  0.00     0.173 A 
ATOM     65  F   UNL A   1      41.901  29.411  27.719  1.00  0.00    -0.203 F 
ATOM     66  C   UNL A   1      41.195  27.446  26.636  1.00  0.00     0.198 A 
ATOM     67  C   UNL A   1      39.769  25.891  27.776  1.00  0.00     0.198 A 
ATOM     68  F   UNL A   1      39.022  26.353  29.958  1.00  0.00    -0.203 F 
ATOM     69  F   UNL A   1      41.854  27.823  25.531  1.00  0.00    -0.200 F 
ATOM     70  C   UNL A   1      40.481  26.259  26.645  1.00  0.00     0.200 A 
ATOM     71  F   UNL A   1      39.090  24.736  27.793  1.00  0.00    -0.200 F 
ATOM     72  F   UNL A   1      40.467  25.475  25.559  1.00  0.00    -0.200 F 
ENDBRANCH  48  62
BRANCH  49  73
ATOM     73  C   UNL A   1      39.506  33.873  36.889  1.00  0.00     0.064 A 
ATOM     74  C   UNL A   1      40.125  35.131  36.917  1.00  0.00     0.173 A 
ATOM     75  C   UNL A   1      38.761  33.488  38.013  1.00  0.00     0.173 A 
ATOM     76  F   UNL A   1      40.865  35.535  35.874  1.00  0.00    -0.203 F 
ATOM     77  C   UNL A   1      40.020  35.961  38.030  1.00  0.00     0.198 A 
ATOM     78  C   UNL A   1      38.632  34.332  39.114  1.00  0.00     0.198 A 
ATOM     79  F   UNL A   1      38.144  32.298  38.034  1.00  0.00    -0.203 F 
ATOM     80  F   UNL A   1      40.658  37.140  38.047  1.00  0.00    -0.200 F 
ATOM     81  C   UNL A   1      39.268  35.565  39.125  1.00  0.00     0.200 A 
ATOM     82  F   UNL A   1      37.891  33.952  40.165  1.00  0.00    -0.200 F 
ATOM     83  F   UNL A   1      39.160  36.367  40.193  1.00  0.00    -0.200 F 
ENDBRANCH  49  73
BRANCH  61  84
ATOM     84  C   UNL A   1      44.068  28.919  35.089  1.00  0.00     0.064 A 
ATOM     85  C   UNL A   1      44.030  27.801  35.934  1.00  0.00     0.173 A 
ATOM     86  C   UNL A   1      45.314  29.520  34.852  1.00  0.00     0.173 A 
ATOM     87  F   UNL A   1      42.863  27.196  36.205  1.00  0.00    -0.203 F 
ATOM     88  C   UNL A   1      45.189  27.327  36.546  1.00  0.00     0.198 A 
ATOM     89  C   UNL A   1      46.475  29.021  35.435  1.00  0.00     0.198 A 
ATOM     90  F   UNL A   1      45.409  30.587  34.043  1.00  0.00    -0.203 F 
ATOM     91  F   UNL A   1      45.120  26.295  37.398  1.00  0.00    -0.200 F 
ATOM     92  C   UNL A   1      46.410  27.932  36.290  1.00  0.00     0.200 A 
ATOM     93  F   UNL A   1      47.656  29.597  35.171  1.00  0.00    -0.200 F 
ATOM     94  F   UNL A   1      47.524  27.471  36.875  1.00  0.00    -0.200 F 
ENDBRANCH  61  84
ENDBRANCH  35  36
ENDBRANCH  27  30
ENDBRANCH  25  26
ENDBRANCH   1  25
TORSDOF 12
ENDMDL
MODEL 3
REMARK VINA RESULT:     -11.2      5.175     10.160
REMARK SMILES C[C@H](C(=O)NCCCCNC(=O)c1ccc(-c2c3nc(c(-c4c(F)c(F)c(F)c(F)c4F)c4ccc([nH]4)c(-c4c(F)c(F)c(F)c(F)c4F)c4nc(c(-c5c(F)c(F)c(F)c(F)c5F)c5ccc2[nH]5)C=C4)C=C3)cc1)c1ccc2c(c1)[nH]c1ccc(Cl)cc12
REMARK SMILES IDX 8 1 7 2 6 3 5 4 3 5 4 6 2 8 1 9 76 10 77 11 81 12 78 13
REMARK SMILES IDX 80 14 79 15 82 16 89 17 83 18 88 20 84 21 86 22 85 23 87 24
REMARK SMILES IDX 9 25 10 26 11 27 12 29 13 30 14 31 75 32 15 33 74 34 16 35
REMARK SMILES IDX 17 36 18 37 68 38 19 39 73 40 67 41 69 42 20 43 72 44 66 45
REMARK SMILES IDX 65 46 21 48 53 49 33 50 52 51 34 52 37 53 51 54 70 55 35 56
REMARK SMILES IDX 36 57 50 59 71 60 38 61 22 62 23 63 31 64 24 65 25 66 29 67
REMARK SMILES IDX 32 68 26 69 27 70 30 71 28 72 54 73 55 74 63 75 56 76 57 77
REMARK SMILES IDX 61 78 64 79 58 80 59 81 62 82 60 83 39 84 40 85 48 86 41 87
REMARK SMILES IDX 42 88 46 89 49 90 43 91 44 92 47 93 45 94
REMARK H PARENT 5 7 82 19 10 28 69 47 37 58
REMARK Flexibility Score: inf
ROOT
ATOM      1  C   UNL A   1      38.106  19.709  25.256  1.00  0.00     0.023 C 
ENDROOT
BRANCH   1   2
ATOM      2  C   UNL A   1      37.430  20.856  24.508  1.00  0.00     0.023 C 
BRANCH   2   3
ATOM      3  C   UNL A   1      36.975  22.015  25.397  1.00  0.00     0.116 C 
BRANCH   3   4
ATOM      4  N   UNL A   1      35.900  21.617  26.284  1.00  0.00    -0.356 N 
ATOM      5  C   UNL A   1      34.579  21.383  26.016  1.00  0.00     0.227 C 
ATOM      6  O   UNL A   1      33.849  21.125  26.976  1.00  0.00    -0.274 OA
ATOM      7  H   UNL A   1      36.161  21.495  27.225  1.00  0.00     0.163 HD
BRANCH   5   8
ATOM      8  C   UNL A   1      34.057  21.421  24.570  1.00  0.00     0.105 C 
ATOM      9  C   UNL A   1      33.110  20.240  24.329  1.00  0.00     0.023 C 
BRANCH   8  10
ATOM     10  C   UNL A   1      33.442  22.771  24.216  1.00  0.00    -0.034 A 
ATOM     11  C   UNL A   1      34.120  23.758  23.489  1.00  0.00     0.005 A 
ATOM     12  C   UNL A   1      32.115  23.014  24.604  1.00  0.00     0.031 A 
ATOM     13  C   UNL A   1      33.486  24.962  23.113  1.00  0.00     0.011 A 
ATOM     14  C   UNL A   1      31.481  24.178  24.167  1.00  0.00     0.047 A 
ATOM     15  C   UNL A   1      32.127  25.169  23.435  1.00  0.00     0.007 A 
ATOM     16  N   UNL A   1      30.178  24.569  24.335  1.00  0.00    -0.355 N 
ATOM     17  C   UNL A   1      31.169  26.217  23.214  1.00  0.00     0.009 A 
ATOM     18  C   UNL A   1      29.973  25.822  23.819  1.00  0.00     0.047 A 
ATOM     19  H   UNL A   1      29.483  24.023  24.768  1.00  0.00     0.167 HD
ATOM     20  C   UNL A   1      31.202  27.475  22.573  1.00  0.00     0.031 A 
ATOM     21  C   UNL A   1      28.823  26.616  23.852  1.00  0.00     0.028 A 
ATOM     22  C   UNL A   1      30.058  28.283  22.604  1.00  0.00     0.041 A 
ATOM     23  C   UNL A   1      28.892  27.869  23.242  1.00  0.00     0.022 A 
ATOM     24  Cl  UNL A   1      30.091  29.830  21.845  1.00  0.00    -0.084 Cl
ENDBRANCH   8  10
ENDBRANCH   5   8
ENDBRANCH   3   4
ENDBRANCH   2   3
ENDBRANCH   1   2
BRANCH   1  25
ATOM     25  C   UNL A   1      39.360  20.098  26.020  1.00  0.00     0.116 C 
BRANCH  25  26
ATOM     26  N   UNL A   1      40.401  19.081  25.975  1.00  0.00    -0.352 N 
ATOM     27  C   UNL A   1      41.765  19.242  26.055  1.00  0.00     0.251 C 
ATOM     28  H   UNL A   1      40.085  18.154  25.873  1.00  0.00     0.163 HD
ATOM     29  O   UNL A   1      42.512  18.294  25.865  1.00  0.00    -0.269 OA
BRANCH  27  30
ATOM     30  C   UNL A   1      42.318  20.584  26.344  1.00  0.00     0.039 A 
ATOM     31  C   UNL A   1      42.704  21.400  25.280  1.00  0.00     0.014 A 
ATOM     32  C   UNL A   1      42.432  21.039  27.659  1.00  0.00     0.014 A 
ATOM     33  C   UNL A   1      43.158  22.696  25.535  1.00  0.00     0.010 A 
ATOM     34  C   UNL A   1      42.788  22.360  27.905  1.00  0.00     0.010 A 
ATOM     35  C   UNL A   1      43.177  23.195  26.848  1.00  0.00    -0.014 A 
BRANCH  35  36
ATOM     36  C   UNL A   1      43.645  24.572  27.146  1.00  0.00     0.031 A 
ATOM     37  C   UNL A   1      42.681  25.585  27.700  1.00  0.00     0.074 A 
ATOM     38  C   UNL A   1      44.914  24.927  26.868  1.00  0.00     0.049 A 
ATOM     39  N   UNL A   1      42.875  26.848  27.984  1.00  0.00    -0.248 NA
ATOM     40  C   UNL A   1      41.303  25.126  27.931  1.00  0.00     0.031 C 
ATOM     41  C   UNL A   1      45.929  24.050  26.284  1.00  0.00     0.029 A 
ATOM     42  N   UNL A   1      45.563  26.123  27.037  1.00  0.00    -0.354 N 
ATOM     43  C   UNL A   1      41.644  27.333  28.404  1.00  0.00     0.074 A 
ATOM     44  C   UNL A   1      40.694  26.251  28.271  1.00  0.00     0.031 C 
ATOM     45  C   UNL A   1      47.085  24.727  26.180  1.00  0.00     0.029 A 
ATOM     46  C   UNL A   1      46.881  26.094  26.651  1.00  0.00     0.049 A 
ATOM     47  H   UNL A   1      45.126  26.927  27.401  1.00  0.00     0.167 HD
ATOM     48  C   UNL A   1      41.335  28.562  28.886  1.00  0.00     0.037 A 
ATOM     49  C   UNL A   1      47.817  27.061  26.679  1.00  0.00     0.037 A 
ATOM     50  C   UNL A   1      42.290  29.626  29.039  1.00  0.00     0.049 A 
ATOM     51  C   UNL A   1      47.452  28.419  27.213  1.00  0.00     0.074 A 
ATOM     52  C   UNL A   1      42.100  30.887  29.575  1.00  0.00     0.029 A 
ATOM     53  N   UNL A   1      43.620  29.556  28.648  1.00  0.00    -0.354 N 
ATOM     54  N   UNL A   1      46.304  28.847  27.681  1.00  0.00    -0.248 NA
ATOM     55  C   UNL A   1      48.520  29.428  27.234  1.00  0.00     0.031 C 
ATOM     56  C   UNL A   1      43.297  31.600  29.453  1.00  0.00     0.029 A 
ATOM     57  C   UNL A   1      44.255  30.760  28.906  1.00  0.00     0.049 A 
ATOM     58  H   UNL A   1      44.049  28.766  28.245  1.00  0.00     0.167 HD
ATOM     59  C   UNL A   1      46.520  30.156  28.090  1.00  0.00     0.074 A 
ATOM     60  C   UNL A   1      47.913  30.450  27.821  1.00  0.00     0.031 C 
ATOM     61  C   UNL A   1      45.646  31.034  28.644  1.00  0.00     0.037 A 
BRANCH  48  62
ATOM     62  C   UNL A   1      39.903  28.814  29.268  1.00  0.00     0.064 A 
ATOM     63  C   UNL A   1      39.429  28.573  30.569  1.00  0.00     0.173 A 
ATOM     64  C   UNL A   1      38.990  29.299  28.321  1.00  0.00     0.173 A 
ATOM     65  F   UNL A   1      40.255  28.096  31.512  1.00  0.00    -0.203 F 
ATOM     66  C   UNL A   1      38.086  28.762  30.890  1.00  0.00     0.198 A 
ATOM     67  C   UNL A   1      37.657  29.525  28.657  1.00  0.00     0.198 A 
ATOM     68  F   UNL A   1      39.387  29.554  27.065  1.00  0.00    -0.203 F 
ATOM     69  F   UNL A   1      37.643  28.453  32.116  1.00  0.00    -0.200 F 
ATOM     70  C   UNL A   1      37.204  29.243  29.936  1.00  0.00     0.200 A 
ATOM     71  F   UNL A   1      36.809  30.005  27.737  1.00  0.00    -0.200 F 
ATOM     72  F   UNL A   1      35.912  29.423  30.245  1.00  0.00    -0.200 F 
ENDBRANCH  48  62
BRANCH  49  73
ATOM     73  C   UNL A   1      49.204  26.762  26.237  1.00  0.00     0.064 A 
ATOM     74  C   UNL A   1      49.604  27.009  24.915  1.00  0.00     0.173 A 
ATOM     75  C   UNL A   1      50.159  26.233  27.118  1.00  0.00     0.173 A 
ATOM     76  F   UNL A   1      48.722  27.496  24.031  1.00  0.00    -0.203 F 
ATOM     77  C   UNL A   1      50.897  26.719  24.487  1.00  0.00     0.198 A 
ATOM     78  C   UNL A   1      51.460  25.972  26.697  1.00  0.00     0.198 A 
ATOM     79  F   UNL A   1      49.829  25.985  28.394  1.00  0.00    -0.203 F 
ATOM     80  F   UNL A   1      51.239  26.924  23.208  1.00  0.00    -0.200 F 
ATOM     81  C   UNL A   1      51.827  26.208  25.380  1.00  0.00     0.200 A 
ATOM     82  F   UNL A   1      52.361  25.492  27.566  1.00  0.00    -0.200 F 
ATOM     83  F   UNL A   1      53.074  25.937  24.970  1.00  0.00    -0.200 F 
ENDBRANCH  49  73
BRANCH  61  84
ATOM     84  C   UNL A   1      46.183  32.377  29.054  1.00  0.00     0.064 A 
ATOM     85  C   UNL A   1      46.738  32.601  30.322  1.00  0.00     0.173 A 
ATOM     86  C   UNL A   1      46.167  33.447  28.146  1.00  0.00     0.173 A 
ATOM     87  F   UNL A   1      46.767  31.616  31.232  1.00  0.00    -0.203 F 
ATOM     88  C   UNL A   1      47.226  33.857  30.677  1.00  0.00     0.198 A 
ATOM     89  C   UNL A   1      46.689  34.690  28.492  1.00  0.00     0.198 A 
ATOM     90  F   UNL A   1      45.655  33.285  26.916  1.00  0.00    -0.203 F 
ATOM     91  F   UNL A   1      47.697  34.065  31.915  1.00  0.00    -0.200 F 
ATOM     92  C   UNL A   1      47.207  34.898  29.761  1.00  0.00     0.200 A 
ATOM     93  F   UNL A   1      46.686  35.689  27.598  1.00  0.00    -0.200 F 
ATOM     94  F   UNL A   1      47.682  36.103  30.103  1.00  0.00    -0.200 F 
ENDBRANCH  61  84
ENDBRANCH  35  36
ENDBRANCH  27  30
ENDBRANCH  25  26
ENDBRANCH   1  25
TORSDOF 12
ENDMDL
