MODEL 1
REMARK VINA RESULT:     -11.9      0.000      0.000
REMARK SMILES Cc1cc(CNC(=O)C[C@H](C)CC(=O)NCCCCNC(=O)c2ccc(-c3c4nc(c(-c5c(F)c(F)c(F)c(F)c5F)c5ccc([nH]5)c(-c5c(F)c(F)c(F)c(F)c5F)c5nc(c(-c6c(F)c(F)c(F)c(F)c6F)c6ccc3[nH]6)C=C5)C=C4)cc2)cc(C)c1F
REMARK SMILES IDX 16 1 15 2 13 3 14 4 12 6 10 7 11 8 9 9 7 10 6 11 8 13 5 14
REMARK SMILES IDX 4 15 1 16 2 17 3 18 89 19 87 20 90 21 86 22 88 23 17 24
REMARK SMILES IDX 18 25 19 26 20 27 21 28 22 30 23 31 24 32 85 33 25 34 84 35
REMARK SMILES IDX 26 36 27 37 28 38 78 39 29 40 83 41 77 42 79 43 30 44 82 45
REMARK SMILES IDX 76 46 75 47 31 49 63 50 43 51 62 52 44 53 47 54 61 55 80 56
REMARK SMILES IDX 45 57 46 58 60 60 81 61 48 62 32 63 33 64 41 65 34 66 35 67
REMARK SMILES IDX 39 68 42 69 36 70 37 71 40 72 38 73 64 74 65 75 73 76 66 77
REMARK SMILES IDX 67 78 71 79 74 80 68 81 69 82 72 83 70 84 49 85 50 86 58 87
REMARK SMILES IDX 51 88 52 89 56 90 59 91 53 92 54 93 57 94 55 95
REMARK H PARENT 15 5 6 12 20 29 79 48 47 59
REMARK Flexibility Score: inf
ROOT
ATOM      1  C   UNL A   1      36.147  21.359  25.472  1.00  0.00     0.116 C 
ENDROOT
BRANCH   1   2
ATOM      2  N   UNL A   1      35.113  20.369  25.251  1.00  0.00    -0.356 N 
ATOM      3  C   UNL A   1      33.838  20.538  24.804  1.00  0.00     0.220 C 
ATOM      4  O   UNL A   1      33.080  19.566  24.813  1.00  0.00    -0.275 OA
ATOM      5  H   UNL A   1      35.370  19.440  25.453  1.00  0.00     0.163 HD
BRANCH   3   6
ATOM      6  C   UNL A   1      33.364  21.895  24.307  1.00  0.00     0.103 C 
BRANCH   6   7
ATOM      7  C   UNL A   1      32.852  22.815  25.435  1.00  0.00     0.004 C 
ATOM      8  C   UNL A   1      33.672  24.110  25.516  1.00  0.00     0.009 C 
BRANCH   7   9
ATOM      9  C   UNL A   1      31.358  23.147  25.246  1.00  0.00     0.103 C 
BRANCH   9  10
ATOM     10  C   UNL A   1      30.715  23.696  26.510  1.00  0.00     0.220 C 
ATOM     11  N   UNL A   1      29.847  24.742  26.438  1.00  0.00    -0.352 N 
ATOM     12  H   UNL A   1      29.251  24.860  27.213  1.00  0.00     0.163 HD
ATOM     13  O   UNL A   1      30.912  23.159  27.602  1.00  0.00    -0.275 OA
BRANCH  11  14
ATOM     14  C   UNL A   1      29.687  25.702  25.370  1.00  0.00     0.151 C 
BRANCH  14  15
ATOM     15  C   UNL A   1      30.904  26.571  25.159  1.00  0.00    -0.028 A 
ATOM     16  C   UNL A   1      33.452  27.325  22.421  1.00  0.00     0.047 C 
ATOM     17  C   UNL A   1      32.743  27.340  23.739  1.00  0.00    -0.015 A 
ATOM     18  C   UNL A   1      31.527  26.661  23.903  1.00  0.00     0.012 A 
ATOM     19  C   UNL A   1      33.328  27.946  24.850  1.00  0.00     0.129 A 
ATOM     20  C   UNL A   1      32.715  27.910  26.104  1.00  0.00    -0.015 A 
ATOM     21  F   UNL A   1      34.510  28.565  24.710  1.00  0.00    -0.206 F 
ATOM     22  C   UNL A   1      31.502  27.221  26.249  1.00  0.00     0.012 A 
ATOM     23  C   UNL A   1      33.344  28.581  27.287  1.00  0.00     0.047 C 
ENDBRANCH  14  15
ENDBRANCH  11  14
ENDBRANCH   9  10
ENDBRANCH   7   9
ENDBRANCH   6   7
ENDBRANCH   3   6
ENDBRANCH   1   2
BRANCH   1  24
ATOM     24  C   UNL A   1      37.349  21.086  24.564  1.00  0.00     0.023 C 
BRANCH  24  25
ATOM     25  C   UNL A   1      38.125  19.835  24.947  1.00  0.00     0.023 C 
BRANCH  25  26
ATOM     26  C   UNL A   1      39.186  20.109  26.005  1.00  0.00     0.116 C 
BRANCH  26  27
ATOM     27  N   UNL A   1      40.271  19.132  25.978  1.00  0.00    -0.352 N 
ATOM     28  C   UNL A   1      41.632  19.328  26.049  1.00  0.00     0.251 C 
ATOM     29  H   UNL A   1      39.987  18.192  25.899  1.00  0.00     0.163 HD
ATOM     30  O   UNL A   1      42.410  18.406  25.856  1.00  0.00    -0.269 OA
BRANCH  28  31
ATOM     31  C   UNL A   1      42.139  20.684  26.332  1.00  0.00     0.039 A 
ATOM     32  C   UNL A   1      42.396  21.556  25.273  1.00  0.00     0.014 A 
ATOM     33  C   UNL A   1      42.300  21.102  27.654  1.00  0.00     0.014 A 
ATOM     34  C   UNL A   1      42.732  22.883  25.546  1.00  0.00     0.010 A 
ATOM     35  C   UNL A   1      42.520  22.443  27.922  1.00  0.00     0.010 A 
ATOM     36  C   UNL A   1      42.756  23.343  26.872  1.00  0.00    -0.014 A 
BRANCH  36  37
ATOM     37  C   UNL A   1      43.102  24.742  27.211  1.00  0.00     0.031 A 
ATOM     38  C   UNL A   1      44.508  25.217  26.967  1.00  0.00     0.074 A 
ATOM     39  C   UNL A   1      42.194  25.551  27.790  1.00  0.00     0.049 A 
ATOM     40  N   UNL A   1      45.075  26.343  27.312  1.00  0.00    -0.248 NA
ATOM     41  C   UNL A   1      45.408  24.279  26.273  1.00  0.00     0.031 C 
ATOM     42  C   UNL A   1      40.810  25.191  28.101  1.00  0.00     0.029 A 
ATOM     43  N   UNL A   1      42.307  26.847  28.225  1.00  0.00    -0.354 N 
ATOM     44  C   UNL A   1      46.395  26.238  26.893  1.00  0.00     0.074 A 
ATOM     45  C   UNL A   1      46.567  24.916  26.339  1.00  0.00     0.031 C 
ATOM     46  C   UNL A   1      40.191  26.255  28.642  1.00  0.00     0.029 A 
ATOM     47  C   UNL A   1      41.144  27.355  28.751  1.00  0.00     0.049 A 
ATOM     48  H   UNL A   1      43.142  27.363  28.167  1.00  0.00     0.167 HD
ATOM     49  C   UNL A   1      47.366  27.178  26.928  1.00  0.00     0.037 A 
ATOM     50  C   UNL A   1      40.886  28.576  29.258  1.00  0.00     0.037 A 
ATOM     51  C   UNL A   1      47.176  28.508  27.434  1.00  0.00     0.049 A 
ATOM     52  C   UNL A   1      41.992  29.596  29.303  1.00  0.00     0.074 A 
ATOM     53  C   UNL A   1      48.088  29.546  27.493  1.00  0.00     0.029 A 
ATOM     54  N   UNL A   1      45.982  28.987  27.948  1.00  0.00    -0.354 N 
ATOM     55  N   UNL A   1      43.231  29.493  28.887  1.00  0.00    -0.248 NA
ATOM     56  C   UNL A   1      41.664  30.904  29.890  1.00  0.00     0.031 C 
ATOM     57  C   UNL A   1      47.448  30.651  28.061  1.00  0.00     0.029 A 
ATOM     58  C   UNL A   1      46.131  30.309  28.327  1.00  0.00     0.049 A 
ATOM     59  H   UNL A   1      45.151  28.464  28.033  1.00  0.00     0.167 HD
ATOM     60  C   UNL A   1      43.819  30.727  29.131  1.00  0.00     0.074 A 
ATOM     61  C   UNL A   1      42.800  31.567  29.723  1.00  0.00     0.031 C 
ATOM     62  C   UNL A   1      45.090  31.128  28.888  1.00  0.00     0.037 A 
BRANCH  49  63
ATOM     63  C   UNL A   1      48.703  26.810  26.361  1.00  0.00     0.064 A 
ATOM     64  C   UNL A   1      49.011  27.053  25.013  1.00  0.00     0.173 A 
ATOM     65  C   UNL A   1      49.697  26.244  27.172  1.00  0.00     0.173 A 
ATOM     66  F   UNL A   1      48.085  27.573  24.194  1.00  0.00    -0.203 F 
ATOM     67  C   UNL A   1      50.259  26.726  24.494  1.00  0.00     0.198 A 
ATOM     68  C   UNL A   1      50.954  25.943  26.655  1.00  0.00     0.198 A 
ATOM     69  F   UNL A   1      49.452  25.991  28.466  1.00  0.00    -0.203 F 
ATOM     70  F   UNL A   1      50.516  26.927  23.194  1.00  0.00    -0.200 F 
ATOM     71  C   UNL A   1      51.233  26.180  25.317  1.00  0.00     0.200 A 
ATOM     72  F   UNL A   1      51.898  25.424  27.452  1.00  0.00    -0.200 F 
ATOM     73  F   UNL A   1      52.438  25.875  24.817  1.00  0.00    -0.200 F 
ENDBRANCH  49  63
BRANCH  50  74
ATOM     74  C   UNL A   1      39.516  28.923  29.718  1.00  0.00     0.064 A 
ATOM     75  C   UNL A   1      38.596  29.501  28.831  1.00  0.00     0.173 A 
ATOM     76  C   UNL A   1      39.102  28.705  31.039  1.00  0.00     0.173 A 
ATOM     77  F   UNL A   1      38.955  29.748  27.563  1.00  0.00    -0.203 F 
ATOM     78  C   UNL A   1      37.321  29.868  29.254  1.00  0.00     0.198 A 
ATOM     79  C   UNL A   1      37.816  29.052  31.455  1.00  0.00     0.198 A 
ATOM     80  F   UNL A   1      39.942  28.153  31.925  1.00  0.00    -0.203 F 
ATOM     81  F   UNL A   1      36.477  30.462  28.397  1.00  0.00    -0.200 F 
ATOM     82  C   UNL A   1      36.930  29.641  30.564  1.00  0.00     0.200 A 
ATOM     83  F   UNL A   1      37.439  28.823  32.720  1.00  0.00    -0.200 F 
ATOM     84  F   UNL A   1      35.703  29.997  30.972  1.00  0.00    -0.200 F 
ENDBRANCH  50  74
BRANCH  62  85
ATOM     85  C   UNL A   1      45.445  32.545  29.224  1.00  0.00     0.064 A 
ATOM     86  C   UNL A   1      46.025  32.881  30.454  1.00  0.00     0.173 A 
ATOM     87  C   UNL A   1      45.284  33.559  28.268  1.00  0.00     0.173 A 
ATOM     88  F   UNL A   1      46.188  31.944  31.400  1.00  0.00    -0.203 F 
ATOM     89  C   UNL A   1      46.425  34.186  30.720  1.00  0.00     0.198 A 
ATOM     90  C   UNL A   1      45.708  34.859  28.528  1.00  0.00     0.198 A 
ATOM     91  F   UNL A   1      44.742  33.283  27.073  1.00  0.00    -0.203 F 
ATOM     92  F   UNL A   1      46.955  34.492  31.912  1.00  0.00    -0.200 F 
ATOM     93  C   UNL A   1      46.275  35.171  29.754  1.00  0.00     0.200 A 
ATOM     94  F   UNL A   1      45.577  35.805  27.589  1.00  0.00    -0.200 F 
ATOM     95  F   UNL A   1      46.679  36.424  30.006  1.00  0.00    -0.200 F 
ENDBRANCH  62  85
ENDBRANCH  36  37
ENDBRANCH  28  31
ENDBRANCH  26  27
ENDBRANCH  25  26
ENDBRANCH  24  25
ENDBRANCH   1  24
TORSDOF 16
ENDMDL
MODEL 2
REMARK VINA RESULT:     -11.8      5.474      9.892
REMARK SMILES Cc1cc(CNC(=O)C[C@H](C)CC(=O)NCCCCNC(=O)c2ccc(-c3c4nc(c(-c5c(F)c(F)c(F)c(F)c5F)c5ccc([nH]5)c(-c5c(F)c(F)c(F)c(F)c5F)c5nc(c(-c6c(F)c(F)c(F)c(F)c6F)c6ccc3[nH]6)C=C5)C=C4)cc2)cc(C)c1F
REMARK SMILES IDX 16 1 15 2 13 3 14 4 12 6 10 7 11 8 9 9 7 10 6 11 8 13 5 14
REMARK SMILES IDX 4 15 1 16 2 17 3 18 89 19 87 20 90 21 86 22 88 23 17 24
REMARK SMILES IDX 18 25 19 26 20 27 21 28 22 30 23 31 24 32 85 33 25 34 84 35
REMARK SMILES IDX 26 36 27 37 28 38 78 39 29 40 83 41 77 42 79 43 30 44 82 45
REMARK SMILES IDX 76 46 75 47 31 49 63 50 43 51 62 52 44 53 47 54 61 55 80 56
REMARK SMILES IDX 45 57 46 58 60 60 81 61 48 62 32 63 33 64 41 65 34 66 35 67
REMARK SMILES IDX 39 68 42 69 36 70 37 71 40 72 38 73 64 74 65 75 73 76 66 77
REMARK SMILES IDX 67 78 71 79 74 80 68 81 69 82 72 83 70 84 49 85 50 86 58 87
REMARK SMILES IDX 51 88 52 89 56 90 59 91 53 92 54 93 57 94 55 95
REMARK H PARENT 15 5 6 12 20 29 79 48 47 59
REMARK Flexibility Score: inf
ROOT
ATOM      1  C   UNL A   1      33.244  30.108  26.502  1.00  0.00     0.116 C 
ENDROOT
BRANCH   1   2
ATOM      2  N   UNL A   1      33.473  29.422  25.248  1.00  0.00    -0.356 N 
ATOM      3  C   UNL A   1      33.632  28.091  25.009  1.00  0.00     0.220 C 
ATOM      4  O   UNL A   1      33.947  27.733  23.873  1.00  0.00    -0.275 OA
ATOM      5  H   UNL A   1      33.522  30.002  24.454  1.00  0.00     0.163 HD
BRANCH   3   6
ATOM      6  C   UNL A   1      33.422  27.074  26.121  1.00  0.00     0.103 C 
BRANCH   6   7
ATOM      7  C   UNL A   1      32.056  26.359  26.045  1.00  0.00     0.004 C 
ATOM      8  C   UNL A   1      31.027  27.201  25.280  1.00  0.00     0.009 C 
BRANCH   7   9
ATOM      9  C   UNL A   1      32.193  24.969  25.390  1.00  0.00     0.103 C 
BRANCH   9  10
ATOM     10  C   UNL A   1      31.478  23.879  26.174  1.00  0.00     0.220 C 
ATOM     11  N   UNL A   1      31.500  22.592  25.732  1.00  0.00    -0.352 N 
ATOM     12  H   UNL A   1      31.289  21.904  26.404  1.00  0.00     0.163 HD
ATOM     13  O   UNL A   1      30.936  24.131  27.252  1.00  0.00    -0.275 OA
BRANCH  11  14
ATOM     14  C   UNL A   1      31.791  22.105  24.403  1.00  0.00     0.151 C 
BRANCH  14  15
ATOM     15  C   UNL A   1      32.854  21.033  24.378  1.00  0.00    -0.028 A 
ATOM     16  C   UNL A   1      33.096  17.239  24.059  1.00  0.00     0.047 C 
ATOM     17  C   UNL A   1      33.486  18.674  24.236  1.00  0.00    -0.015 A 
ATOM     18  C   UNL A   1      32.532  19.693  24.107  1.00  0.00     0.012 A 
ATOM     19  C   UNL A   1      34.781  19.012  24.626  1.00  0.00     0.129 A 
ATOM     20  C   UNL A   1      35.146  20.339  24.864  1.00  0.00    -0.015 A 
ATOM     21  F   UNL A   1      35.690  18.038  24.788  1.00  0.00    -0.206 F 
ATOM     22  C   UNL A   1      34.175  21.343  24.736  1.00  0.00     0.012 A 
ATOM     23  C   UNL A   1      36.545  20.692  25.266  1.00  0.00     0.047 C 
ENDBRANCH  14  15
ENDBRANCH  11  14
ENDBRANCH   9  10
ENDBRANCH   7   9
ENDBRANCH   6   7
ENDBRANCH   3   6
ENDBRANCH   1   2
BRANCH   1  24
ATOM     24  C   UNL A   1      31.778  30.536  26.617  1.00  0.00     0.023 C 
BRANCH  24  25
ATOM     25  C   UNL A   1      31.590  32.045  26.666  1.00  0.00     0.023 C 
BRANCH  25  26
ATOM     26  C   UNL A   1      32.757  32.755  27.340  1.00  0.00     0.116 C 
BRANCH  26  27
ATOM     27  N   UNL A   1      32.473  34.159  27.621  1.00  0.00    -0.352 N 
ATOM     28  C   UNL A   1      33.006  34.988  28.583  1.00  0.00     0.251 C 
ATOM     29  H   UNL A   1      31.800  34.576  27.035  1.00  0.00     0.163 HD
ATOM     30  O   UNL A   1      32.542  36.101  28.781  1.00  0.00    -0.269 OA
BRANCH  28  31
ATOM     31  C   UNL A   1      34.133  34.496  29.397  1.00  0.00     0.039 A 
ATOM     32  C   UNL A   1      33.878  33.876  30.620  1.00  0.00     0.014 A 
ATOM     33  C   UNL A   1      35.438  34.601  28.910  1.00  0.00     0.014 A 
ATOM     34  C   UNL A   1      34.930  33.280  31.317  1.00  0.00     0.010 A 
ATOM     35  C   UNL A   1      36.459  33.912  29.544  1.00  0.00     0.010 A 
ATOM     36  C   UNL A   1      36.219  33.260  30.762  1.00  0.00    -0.014 A 
BRANCH  36  37
ATOM     37  C   UNL A   1      37.365  32.636  31.461  1.00  0.00     0.031 A 
ATOM     38  C   UNL A   1      38.101  31.514  30.782  1.00  0.00     0.074 A 
ATOM     39  C   UNL A   1      37.696  33.018  32.710  1.00  0.00     0.049 A 
ATOM     40  N   UNL A   1      39.035  30.729  31.252  1.00  0.00    -0.248 NA
ATOM     41  C   UNL A   1      37.705  31.211  29.395  1.00  0.00     0.031 C 
ATOM     42  C   UNL A   1      37.036  34.074  33.479  1.00  0.00     0.029 A 
ATOM     43  N   UNL A   1      38.675  32.554  33.552  1.00  0.00    -0.354 N 
ATOM     44  C   UNL A   1      39.320  29.835  30.229  1.00  0.00     0.074 A 
ATOM     45  C   UNL A   1      38.413  30.121  29.142  1.00  0.00     0.031 C 
ATOM     46  C   UNL A   1      37.654  34.203  34.666  1.00  0.00     0.029 A 
ATOM     47  C   UNL A   1      38.724  33.215  34.755  1.00  0.00     0.049 A 
ATOM     48  H   UNL A   1      39.283  31.818  33.317  1.00  0.00     0.167 HD
ATOM     49  C   UNL A   1      40.283  28.888  30.182  1.00  0.00     0.037 A 
ATOM     50  C   UNL A   1      39.549  33.038  35.805  1.00  0.00     0.037 A 
ATOM     51  C   UNL A   1      41.216  28.641  31.245  1.00  0.00     0.049 A 
ATOM     52  C   UNL A   1      40.599  31.962  35.735  1.00  0.00     0.074 A 
ATOM     53  C   UNL A   1      42.247  27.720  31.291  1.00  0.00     0.029 A 
ATOM     54  N   UNL A   1      41.241  29.337  32.444  1.00  0.00    -0.354 N 
ATOM     55  N   UNL A   1      40.873  31.135  34.754  1.00  0.00    -0.248 NA
ATOM     56  C   UNL A   1      41.456  31.793  36.918  1.00  0.00     0.031 C 
ATOM     57  C   UNL A   1      42.885  27.849  32.528  1.00  0.00     0.029 A 
ATOM     58  C   UNL A   1      42.271  28.869  33.237  1.00  0.00     0.049 A 
ATOM     59  H   UNL A   1      40.616  30.058  32.693  1.00  0.00     0.167 HD
ATOM     60  C   UNL A   1      41.949  30.372  35.188  1.00  0.00     0.074 A 
ATOM     61  C   UNL A   1      42.286  30.840  36.516  1.00  0.00     0.031 C 
ATOM     62  C   UNL A   1      42.600  29.373  34.545  1.00  0.00     0.037 A 
BRANCH  49  63
ATOM     63  C   UNL A   1      40.402  28.085  28.923  1.00  0.00     0.064 A 
ATOM     64  C   UNL A   1      41.215  28.515  27.862  1.00  0.00     0.173 A 
ATOM     65  C   UNL A   1      39.731  26.862  28.785  1.00  0.00     0.173 A 
ATOM     66  F   UNL A   1      41.859  29.689  27.941  1.00  0.00    -0.203 F 
ATOM     67  C   UNL A   1      41.335  27.759  26.702  1.00  0.00     0.198 A 
ATOM     68  C   UNL A   1      39.876  26.094  27.632  1.00  0.00     0.198 A 
ATOM     69  F   UNL A   1      38.941  26.408  29.769  1.00  0.00    -0.203 F 
ATOM     70  F   UNL A   1      42.083  28.211  25.685  1.00  0.00    -0.200 F 
ATOM     71  C   UNL A   1      40.674  26.545  26.591  1.00  0.00     0.200 A 
ATOM     72  F   UNL A   1      39.244  24.917  27.528  1.00  0.00    -0.200 F 
ATOM     73  F   UNL A   1      40.800  25.814  25.475  1.00  0.00    -0.200 F 
ENDBRANCH  49  63
BRANCH  50  74
ATOM     74  C   UNL A   1      39.454  33.926  36.993  1.00  0.00     0.064 A 
ATOM     75  C   UNL A   1      40.111  35.165  37.005  1.00  0.00     0.173 A 
ATOM     76  C   UNL A   1      38.730  33.559  38.135  1.00  0.00     0.173 A 
ATOM     77  F   UNL A   1      40.833  35.550  35.943  1.00  0.00    -0.203 F 
ATOM     78  C   UNL A   1      40.065  35.994  38.124  1.00  0.00     0.198 A 
ATOM     79  C   UNL A   1      38.665  34.401  39.246  1.00  0.00     0.198 A 
ATOM     80  F   UNL A   1      38.082  32.386  38.173  1.00  0.00    -0.203 F 
ATOM     81  F   UNL A   1      40.740  37.153  38.126  1.00  0.00    -0.200 F 
ATOM     82  C   UNL A   1      39.339  35.614  39.242  1.00  0.00     0.200 A 
ATOM     83  F   UNL A   1      37.956  34.034  40.321  1.00  0.00    -0.200 F 
ATOM     84  F   UNL A   1      39.297  36.410  40.320  1.00  0.00    -0.200 F 
ENDBRANCH  50  74
BRANCH  62  85
ATOM     85  C   UNL A   1      43.765  28.742  35.245  1.00  0.00     0.064 A 
ATOM     86  C   UNL A   1      45.064  29.242  35.096  1.00  0.00     0.173 A 
ATOM     87  C   UNL A   1      43.560  27.683  36.143  1.00  0.00     0.173 A 
ATOM     88  F   UNL A   1      45.307  30.247  34.241  1.00  0.00    -0.203 F 
ATOM     89  C   UNL A   1      46.123  28.698  35.816  1.00  0.00     0.198 A 
ATOM     90  C   UNL A   1      44.618  27.159  36.880  1.00  0.00     0.198 A 
ATOM     91  F   UNL A   1      42.331  27.178  36.325  1.00  0.00    -0.203 F 
ATOM     92  F   UNL A   1      47.364  29.174  35.641  1.00  0.00    -0.200 F 
ATOM     93  C   UNL A   1      45.898  27.664  36.713  1.00  0.00     0.200 A 
ATOM     94  F   UNL A   1      44.395  26.171  37.757  1.00  0.00    -0.200 F 
ATOM     95  F   UNL A   1      46.916  27.156  37.420  1.00  0.00    -0.200 F 
ENDBRANCH  62  85
ENDBRANCH  36  37
ENDBRANCH  28  31
ENDBRANCH  26  27
ENDBRANCH  25  26
ENDBRANCH  24  25
ENDBRANCH   1  24
TORSDOF 16
ENDMDL
MODEL 3
REMARK VINA RESULT:     -11.8      5.480      9.607
REMARK SMILES Cc1cc(CNC(=O)C[C@H](C)CC(=O)NCCCCNC(=O)c2ccc(-c3c4nc(c(-c5c(F)c(F)c(F)c(F)c5F)c5ccc([nH]5)c(-c5c(F)c(F)c(F)c(F)c5F)c5nc(c(-c6c(F)c(F)c(F)c(F)c6F)c6ccc3[nH]6)C=C5)C=C4)cc2)cc(C)c1F
REMARK SMILES IDX 16 1 15 2 13 3 14 4 12 6 10 7 11 8 9 9 7 10 6 11 8 13 5 14
REMARK SMILES IDX 4 15 1 16 2 17 3 18 89 19 87 20 90 21 86 22 88 23 17 24
REMARK SMILES IDX 18 25 19 26 20 27 21 28 22 30 23 31 24 32 85 33 25 34 84 35
REMARK SMILES IDX 26 36 27 37 28 38 78 39 29 40 83 41 77 42 79 43 30 44 82 45
REMARK SMILES IDX 76 46 75 47 31 49 63 50 43 51 62 52 44 53 47 54 61 55 80 56
REMARK SMILES IDX 45 57 46 58 60 60 81 61 48 62 32 63 33 64 41 65 34 66 35 67
REMARK SMILES IDX 39 68 42 69 36 70 37 71 40 72 38 73 64 74 65 75 73 76 66 77
REMARK SMILES IDX 67 78 71 79 74 80 68 81 69 82 72 83 70 84 49 85 50 86 58 87
REMARK SMILES IDX 51 88 52 89 56 90 59 91 53 92 54 93 57 94 55 95
REMARK H PARENT 15 5 6 12 20 29 79 48 47 59
REMARK Flexibility Score: inf
ROOT
ATOM      1  C   UNL A   1      33.224  30.026  26.483  1.00  0.00     0.116 C 
ENDROOT
BRANCH   1   2
ATOM      2  N   UNL A   1      33.320  29.487  25.142  1.00  0.00    -0.356 N 
ATOM      3  C   UNL A   1      33.706  28.246  24.736  1.00  0.00     0.220 C 
ATOM      4  O   UNL A   1      33.839  28.039  23.529  1.00  0.00    -0.275 OA
ATOM      5  H   UNL A   1      33.071  30.109  24.420  1.00  0.00     0.163 HD
BRANCH   3   6
ATOM      6  C   UNL A   1      33.963  27.144  25.753  1.00  0.00     0.103 C 
BRANCH   6   7
ATOM      7  C   UNL A   1      33.037  25.922  25.577  1.00  0.00     0.004 C 
ATOM      8  C   UNL A   1      33.686  24.646  26.130  1.00  0.00     0.009 C 
BRANCH   7   9
ATOM      9  C   UNL A   1      31.673  26.157  26.256  1.00  0.00     0.103 C 
BRANCH   9  10
ATOM     10  C   UNL A   1      30.674  25.049  25.962  1.00  0.00     0.220 C 
ATOM     11  N   UNL A   1      30.399  24.698  24.675  1.00  0.00    -0.352 N 
ATOM     12  H   UNL A   1      29.992  23.810  24.549  1.00  0.00     0.163 HD
ATOM     13  O   UNL A   1      30.158  24.405  26.878  1.00  0.00    -0.275 OA
BRANCH  11  14
ATOM     14  C   UNL A   1      30.627  25.462  23.470  1.00  0.00     0.151 C 
BRANCH  14  15
ATOM     15  C   UNL A   1      29.769  26.702  23.376  1.00  0.00    -0.028 A 
ATOM     16  C   UNL A   1      26.131  27.721  23.906  1.00  0.00     0.047 C 
ATOM     17  C   UNL A   1      27.586  27.791  23.562  1.00  0.00    -0.015 A 
ATOM     18  C   UNL A   1      28.427  26.693  23.792  1.00  0.00     0.012 A 
ATOM     19  C   UNL A   1      28.108  28.914  22.920  1.00  0.00     0.129 A 
ATOM     20  C   UNL A   1      29.447  28.971  22.529  1.00  0.00    -0.015 A 
ATOM     21  F   UNL A   1      27.300  29.954  22.663  1.00  0.00    -0.206 F 
ATOM     22  C   UNL A   1      30.270  27.859  22.762  1.00  0.00     0.012 A 
ATOM     23  C   UNL A   1      30.001  30.189  21.855  1.00  0.00     0.047 C 
ENDBRANCH  14  15
ENDBRANCH  11  14
ENDBRANCH   9  10
ENDBRANCH   7   9
ENDBRANCH   6   7
ENDBRANCH   3   6
ENDBRANCH   1   2
BRANCH   1  24
ATOM     24  C   UNL A   1      31.791  30.478  26.775  1.00  0.00     0.023 C 
BRANCH  24  25
ATOM     25  C   UNL A   1      31.610  31.988  26.720  1.00  0.00     0.023 C 
BRANCH  25  26
ATOM     26  C   UNL A   1      32.799  32.738  27.306  1.00  0.00     0.116 C 
BRANCH  26  27
ATOM     27  N   UNL A   1      32.489  34.133  27.608  1.00  0.00    -0.352 N 
ATOM     28  C   UNL A   1      33.011  34.959  28.578  1.00  0.00     0.251 C 
ATOM     29  H   UNL A   1      31.806  34.544  27.031  1.00  0.00     0.163 HD
ATOM     30  O   UNL A   1      32.527  36.059  28.793  1.00  0.00    -0.269 OA
BRANCH  28  31
ATOM     31  C   UNL A   1      34.152  34.478  29.379  1.00  0.00     0.039 A 
ATOM     32  C   UNL A   1      33.916  33.847  30.601  1.00  0.00     0.014 A 
ATOM     33  C   UNL A   1      35.451  34.603  28.882  1.00  0.00     0.014 A 
ATOM     34  C   UNL A   1      34.982  33.261  31.286  1.00  0.00     0.010 A 
ATOM     35  C   UNL A   1      36.487  33.925  29.503  1.00  0.00     0.010 A 
ATOM     36  C   UNL A   1      36.267  33.262  30.720  1.00  0.00    -0.014 A 
BRANCH  36  37
ATOM     37  C   UNL A   1      37.427  32.650  31.405  1.00  0.00     0.031 A 
ATOM     38  C   UNL A   1      38.164  31.533  30.719  1.00  0.00     0.074 A 
ATOM     39  C   UNL A   1      37.770  33.038  32.649  1.00  0.00     0.049 A 
ATOM     40  N   UNL A   1      39.111  30.758  31.179  1.00  0.00    -0.248 NA
ATOM     41  C   UNL A   1      37.753  31.223  29.338  1.00  0.00     0.031 C 
ATOM     42  C   UNL A   1      37.110  34.089  33.424  1.00  0.00     0.029 A 
ATOM     43  N   UNL A   1      38.763  32.584  33.480  1.00  0.00    -0.354 N 
ATOM     44  C   UNL A   1      39.391  29.864  30.154  1.00  0.00     0.074 A 
ATOM     45  C   UNL A   1      38.468  30.140  29.078  1.00  0.00     0.031 C 
ATOM     46  C   UNL A   1      37.742  34.226  34.603  1.00  0.00     0.029 A 
ATOM     47  C   UNL A   1      38.822  33.248  34.681  1.00  0.00     0.049 A 
ATOM     48  H   UNL A   1      39.375  31.853  33.238  1.00  0.00     0.167 HD
ATOM     49  C   UNL A   1      40.362  28.926  30.097  1.00  0.00     0.037 A 
ATOM     50  C   UNL A   1      39.662  33.080  35.721  1.00  0.00     0.037 A 
ATOM     51  C   UNL A   1      41.310  28.689  31.148  1.00  0.00     0.049 A 
ATOM     52  C   UNL A   1      40.721  32.013  35.639  1.00  0.00     0.074 A 
ATOM     53  C   UNL A   1      42.350  27.778  31.183  1.00  0.00     0.029 A 
ATOM     54  N   UNL A   1      41.344  29.388  32.345  1.00  0.00    -0.354 N 
ATOM     55  N   UNL A   1      40.990  31.187  34.657  1.00  0.00    -0.248 NA
ATOM     56  C   UNL A   1      41.594  31.854  36.811  1.00  0.00     0.031 C 
ATOM     57  C   UNL A   1      43.003  27.915  32.411  1.00  0.00     0.029 A 
ATOM     58  C   UNL A   1      42.388  28.931  33.127  1.00  0.00     0.049 A 
ATOM     59  H   UNL A   1      40.716  30.103  32.601  1.00  0.00     0.167 HD
ATOM     60  C   UNL A   1      42.078  30.435  35.078  1.00  0.00     0.074 A 
ATOM     61  C   UNL A   1      42.427  30.908  36.401  1.00  0.00     0.031 C 
ATOM     62  C   UNL A   1      42.729  29.440  34.428  1.00  0.00     0.037 A 
BRANCH  49  63
ATOM     63  C   UNL A   1      40.472  28.121  28.838  1.00  0.00     0.064 A 
ATOM     64  C   UNL A   1      41.267  28.556  27.766  1.00  0.00     0.173 A 
ATOM     65  C   UNL A   1      39.810  26.891  28.710  1.00  0.00     0.173 A 
ATOM     66  F   UNL A   1      41.901  29.736  27.834  1.00  0.00    -0.203 F 
ATOM     67  C   UNL A   1      41.379  27.799  26.605  1.00  0.00     0.198 A 
ATOM     68  C   UNL A   1      39.948  26.123  27.558  1.00  0.00     0.198 A 
ATOM     69  F   UNL A   1      39.038  26.432  29.706  1.00  0.00    -0.203 F 
ATOM     70  F   UNL A   1      42.110  28.255  25.578  1.00  0.00    -0.200 F 
ATOM     71  C   UNL A   1      40.728  26.579  26.505  1.00  0.00     0.200 A 
ATOM     72  F   UNL A   1      39.326  24.940  27.464  1.00  0.00    -0.200 F 
ATOM     73  F   UNL A   1      40.846  25.846  25.390  1.00  0.00    -0.200 F 
ENDBRANCH  49  63
BRANCH  50  74
ATOM     74  C   UNL A   1      39.573  33.970  36.908  1.00  0.00     0.064 A 
ATOM     75  C   UNL A   1      38.826  33.582  38.030  1.00  0.00     0.173 A 
ATOM     76  C   UNL A   1      40.209  35.218  36.946  1.00  0.00     0.173 A 
ATOM     77  F   UNL A   1      38.182  32.406  38.030  1.00  0.00    -0.203 F 
ATOM     78  C   UNL A   1      38.700  34.419  39.136  1.00  0.00     0.198 A 
ATOM     79  C   UNL A   1      40.102  36.044  38.064  1.00  0.00     0.198 A 
ATOM     80  F   UNL A   1      40.937  35.634  35.901  1.00  0.00    -0.203 F 
ATOM     81  F   UNL A   1      37.942  34.043  40.176  1.00  0.00    -0.200 F 
ATOM     82  C   UNL A   1      39.341  35.648  39.155  1.00  0.00     0.200 A 
ATOM     83  F   UNL A   1      40.729  37.228  38.083  1.00  0.00    -0.200 F 
ATOM     84  F   UNL A   1      39.218  36.455  40.218  1.00  0.00    -0.200 F 
ENDBRANCH  50  74
BRANCH  62  85
ATOM     85  C   UNL A   1      43.908  28.821  35.115  1.00  0.00     0.064 A 
ATOM     86  C   UNL A   1      43.759  27.724  35.973  1.00  0.00     0.173 A 
ATOM     87  C   UNL A   1      45.206  29.275  34.839  1.00  0.00     0.173 A 
ATOM     88  F   UNL A   1      42.535  27.263  36.274  1.00  0.00    -0.203 F 
ATOM     89  C   UNL A   1      44.870  27.107  36.540  1.00  0.00     0.198 A 
ATOM     90  C   UNL A   1      46.316  28.640  35.387  1.00  0.00     0.198 A 
ATOM     91  F   UNL A   1      45.398  30.316  34.016  1.00  0.00    -0.203 F 
ATOM     92  F   UNL A   1      44.705  26.075  37.378  1.00  0.00    -0.200 F 
ATOM     93  C   UNL A   1      46.147  27.559  36.239  1.00  0.00     0.200 A 
ATOM     94  F   UNL A   1      47.549  29.068  35.083  1.00  0.00    -0.200 F 
ATOM     95  F   UNL A   1      47.216  26.950  36.770  1.00  0.00    -0.200 F 
ENDBRANCH  62  85
ENDBRANCH  36  37
ENDBRANCH  28  31
ENDBRANCH  26  27
ENDBRANCH  25  26
ENDBRANCH  24  25
ENDBRANCH   1  24
TORSDOF 16
ENDMDL
