MODEL 1
REMARK VINA RESULT:     -12.9      0.000      0.000
REMARK SMILES O=C(Cc1ccccc1Nc1c(F)cccc1C(F)(F)F)NCCCCNC(=O)c1ccc(-c2c3nc(c(-c4c(F)c(F)c(F)c(F)c4F)c4ccc([nH]4)c(-c4c(F)c(F)c(F)c(F)c4F)c4nc(c(-c5c(F)c(F)c(F)c(F)c5F)c5ccc2[nH]5)C=C4)C=C3)cc1
REMARK SMILES IDX 23 1 22 2 1 3 2 4 3 6 4 7 5 8 9 9 6 10 8 11 7 12 10 13 11 15
REMARK SMILES IDX 12 16 17 17 13 18 14 19 16 20 15 21 18 22 19 23 20 24 21 25
REMARK SMILES IDX 24 26 25 27 26 28 27 29 28 30 29 32 30 33 31 34 92 35 32 36
REMARK SMILES IDX 91 37 33 38 34 39 35 40 85 41 36 42 90 43 84 44 86 45 37 46
REMARK SMILES IDX 89 47 83 48 82 49 38 51 70 52 50 53 69 54 51 55 54 56 68 57
REMARK SMILES IDX 87 58 52 59 53 60 67 62 88 63 55 64 39 65 40 66 48 67 41 68
REMARK SMILES IDX 42 69 46 70 49 71 43 72 44 73 47 74 45 75 71 76 72 77 80 78
REMARK SMILES IDX 73 79 74 80 78 81 81 82 75 83 76 84 79 85 77 86 56 87 57 88
REMARK SMILES IDX 65 89 58 90 59 91 63 92 66 93 60 94 61 95 64 96 62 97
REMARK H PARENT 22 5 10 14 27 31 86 50 54 61
REMARK Flexibility Score: inf
ROOT
ATOM      1  C   UNL A   1      32.521  25.581  25.504  1.00  0.00     0.116 C 
ENDROOT
BRANCH   1   2
ATOM      2  N   UNL A   1      33.375  24.503  25.956  1.00  0.00    -0.356 N 
ATOM      3  O   UNL A   1      31.815  23.460  27.274  1.00  0.00    -0.275 OA
ATOM      4  C   UNL A   1      32.955  23.518  26.819  1.00  0.00     0.224 C 
ATOM      5  H   UNL A   1      34.304  24.473  25.629  1.00  0.00     0.163 HD
BRANCH   4   6
ATOM      6  C   UNL A   1      34.044  22.565  27.279  1.00  0.00     0.137 C 
BRANCH   6   7
ATOM      7  C   UNL A   1      35.228  22.416  26.347  1.00  0.00    -0.015 A 
ATOM      8  C   UNL A   1      36.176  23.459  26.308  1.00  0.00     0.006 A 
ATOM      9  C   UNL A   1      35.409  21.291  25.513  1.00  0.00     0.042 A 
ATOM     10  C   UNL A   1      37.265  23.410  25.439  1.00  0.00     0.000 A 
ATOM     11  C   UNL A   1      36.502  21.276  24.629  1.00  0.00     0.026 A 
ATOM     12  C   UNL A   1      37.422  22.324  24.591  1.00  0.00     0.002 A 
BRANCH   9  13
ATOM     13  N   UNL A   1      34.525  20.187  25.593  1.00  0.00    -0.352 N 
ATOM     14  H   UNL A   1      34.253  19.930  26.503  1.00  0.00     0.167 HD
BRANCH  13  15
ATOM     15  C   UNL A   1      33.979  19.402  24.551  1.00  0.00     0.087 A 
ATOM     16  C   UNL A   1      34.530  18.119  24.358  1.00  0.00     0.147 A 
ATOM     17  C   UNL A   1      32.886  19.781  23.751  1.00  0.00     0.082 A 
ATOM     18  F   UNL A   1      35.609  17.761  25.073  1.00  0.00    -0.205 F 
ATOM     19  C   UNL A   1      33.989  17.200  23.467  1.00  0.00     0.041 A 
ATOM     20  C   UNL A   1      32.313  18.823  22.884  1.00  0.00     0.015 A 
ATOM     21  C   UNL A   1      32.854  17.543  22.750  1.00  0.00     0.004 A 
BRANCH  17  22
ATOM     22  C   UNL A   1      32.306  21.176  23.710  1.00  0.00     0.418 C 
ATOM     23  F   UNL A   1      31.460  21.325  22.643  1.00  0.00    -0.166 F 
ATOM     24  F   UNL A   1      31.558  21.479  24.803  1.00  0.00    -0.166 F 
ATOM     25  F   UNL A   1      33.219  22.171  23.556  1.00  0.00    -0.166 F 
ENDBRANCH  17  22
ENDBRANCH  13  15
ENDBRANCH   9  13
ENDBRANCH   6   7
ENDBRANCH   4   6
ENDBRANCH   1   2
BRANCH   1  26
ATOM     26  C   UNL A   1      32.494  26.747  26.494  1.00  0.00     0.023 C 
BRANCH  26  27
ATOM     27  C   UNL A   1      31.849  28.037  25.973  1.00  0.00     0.023 C 
BRANCH  27  28
ATOM     28  C   UNL A   1      32.817  29.146  25.569  1.00  0.00     0.116 C 
BRANCH  28  29
ATOM     29  N   UNL A   1      32.413  30.460  26.042  1.00  0.00    -0.352 N 
ATOM     30  C   UNL A   1      33.004  31.284  26.968  1.00  0.00     0.251 C 
ATOM     31  H   UNL A   1      31.589  30.813  25.636  1.00  0.00     0.163 HD
ATOM     32  O   UNL A   1      32.435  32.318  27.320  1.00  0.00    -0.269 OA
BRANCH  30  33
ATOM     33  C   UNL A   1      34.306  30.933  27.579  1.00  0.00     0.039 A 
ATOM     34  C   UNL A   1      35.264  31.937  27.754  1.00  0.00     0.014 A 
ATOM     35  C   UNL A   1      34.603  29.622  27.953  1.00  0.00     0.014 A 
ATOM     36  C   UNL A   1      36.480  31.645  28.383  1.00  0.00     0.010 A 
ATOM     37  C   UNL A   1      35.793  29.349  28.630  1.00  0.00     0.010 A 
ATOM     38  C   UNL A   1      36.737  30.357  28.878  1.00  0.00    -0.014 A 
BRANCH  38  39
ATOM     39  C   UNL A   1      37.960  30.053  29.676  1.00  0.00     0.031 A 
ATOM     40  C   UNL A   1      39.011  29.109  29.155  1.00  0.00     0.074 A 
ATOM     41  C   UNL A   1      38.092  30.563  30.919  1.00  0.00     0.049 A 
ATOM     42  N   UNL A   1      40.092  28.662  29.746  1.00  0.00    -0.248 NA
ATOM     43  C   UNL A   1      38.803  28.567  27.804  1.00  0.00     0.031 C 
ATOM     44  C   UNL A   1      37.123  31.437  31.582  1.00  0.00     0.029 A 
ATOM     45  N   UNL A   1      39.092  30.413  31.851  1.00  0.00    -0.354 N 
ATOM     46  C   UNL A   1      40.682  27.781  28.848  1.00  0.00     0.074 A 
ATOM     47  C   UNL A   1      39.805  27.706  27.699  1.00  0.00     0.031 C 
ATOM     48  C   UNL A   1      37.587  31.770  32.796  1.00  0.00     0.029 A 
ATOM     49  C   UNL A   1      38.865  31.102  33.020  1.00  0.00     0.049 A 
ATOM     50  H   UNL A   1      39.893  29.863  31.697  1.00  0.00     0.167 HD
ATOM     51  C   UNL A   1      41.859  27.117  28.955  1.00  0.00     0.037 A 
ATOM     52  C   UNL A   1      39.600  31.185  34.147  1.00  0.00     0.037 A 
ATOM     53  C   UNL A   1      42.754  27.216  30.079  1.00  0.00     0.049 A 
ATOM     54  C   UNL A   1      40.908  30.447  34.237  1.00  0.00     0.074 A 
ATOM     55  C   UNL A   1      43.997  26.629  30.246  1.00  0.00     0.029 A 
ATOM     56  N   UNL A   1      42.503  27.950  31.229  1.00  0.00    -0.354 N 
ATOM     57  N   UNL A   1      41.483  29.671  33.352  1.00  0.00    -0.248 NA
ATOM     58  C   UNL A   1      41.673  30.601  35.483  1.00  0.00     0.031 C 
ATOM     59  C   UNL A   1      44.479  26.971  31.514  1.00  0.00     0.029 A 
ATOM     60  C   UNL A   1      43.560  27.814  32.117  1.00  0.00     0.049 A 
ATOM     61  H   UNL A   1      41.694  28.488  31.390  1.00  0.00     0.167 HD
ATOM     62  C   UNL A   1      42.686  29.270  33.919  1.00  0.00     0.074 A 
ATOM     63  C   UNL A   1      42.766  29.899  35.220  1.00  0.00     0.031 C 
ATOM     64  C   UNL A   1      43.637  28.451  33.406  1.00  0.00     0.037 A 
BRANCH  51  65
ATOM     65  C   UNL A   1      42.261  26.229  27.811  1.00  0.00     0.064 A 
ATOM     66  C   UNL A   1      41.711  24.947  27.649  1.00  0.00     0.173 A 
ATOM     67  C   UNL A   1      43.170  26.678  26.842  1.00  0.00     0.173 A 
ATOM     68  F   UNL A   1      40.843  24.465  28.551  1.00  0.00    -0.203 F 
ATOM     69  C   UNL A   1      42.083  24.137  26.579  1.00  0.00     0.198 A 
ATOM     70  C   UNL A   1      43.514  25.879  25.755  1.00  0.00     0.198 A 
ATOM     71  F   UNL A   1      43.718  27.898  26.943  1.00  0.00    -0.203 F 
ATOM     72  F   UNL A   1      41.585  22.897  26.474  1.00  0.00    -0.200 F 
ATOM     73  C   UNL A   1      42.978  24.606  25.629  1.00  0.00     0.200 A 
ATOM     74  F   UNL A   1      44.367  26.340  24.829  1.00  0.00    -0.200 F 
ATOM     75  F   UNL A   1      43.329  23.828  24.595  1.00  0.00    -0.200 F 
ENDBRANCH  51  65
BRANCH  52  76
ATOM     76  C   UNL A   1      39.125  32.020  35.283  1.00  0.00     0.064 A 
ATOM     77  C   UNL A   1      39.401  33.394  35.333  1.00  0.00     0.173 A 
ATOM     78  C   UNL A   1      38.400  31.462  36.346  1.00  0.00     0.173 A 
ATOM     79  F   UNL A   1      40.111  33.970  34.351  1.00  0.00    -0.203 F 
ATOM     80  C   UNL A   1      38.991  34.173  36.413  1.00  0.00     0.198 A 
ATOM     81  C   UNL A   1      37.964  32.248  37.410  1.00  0.00     0.198 A 
ATOM     82  F   UNL A   1      38.105  30.154  36.344  1.00  0.00    -0.203 F 
ATOM     83  F   UNL A   1      39.313  35.473  36.459  1.00  0.00    -0.200 F 
ATOM     84  C   UNL A   1      38.267  33.601  37.448  1.00  0.00     0.200 A 
ATOM     85  F   UNL A   1      37.253  31.694  38.401  1.00  0.00    -0.200 F 
ATOM     86  F   UNL A   1      37.871  34.351  38.486  1.00  0.00    -0.200 F 
ENDBRANCH  52  76
BRANCH  64  87
ATOM     87  C   UNL A   1      44.867  28.215  34.235  1.00  0.00     0.064 A 
ATOM     88  C   UNL A   1      45.985  29.059  34.154  1.00  0.00     0.173 A 
ATOM     89  C   UNL A   1      44.912  27.154  35.152  1.00  0.00     0.173 A 
ATOM     90  F   UNL A   1      45.999  30.079  33.283  1.00  0.00    -0.203 F 
ATOM     91  C   UNL A   1      47.111  28.833  34.943  1.00  0.00     0.198 A 
ATOM     92  C   UNL A   1      46.026  26.949  35.960  1.00  0.00     0.198 A 
ATOM     93  F   UNL A   1      43.867  26.321  35.273  1.00  0.00    -0.203 F 
ATOM     94  F   UNL A   1      48.186  29.624  34.813  1.00  0.00    -0.200 F 
ATOM     95  C   UNL A   1      47.128  27.784  35.849  1.00  0.00     0.200 A 
ATOM     96  F   UNL A   1      46.035  25.943  36.846  1.00  0.00    -0.200 F 
ATOM     97  F   UNL A   1      48.209  27.574  36.612  1.00  0.00    -0.200 F 
ENDBRANCH  64  87
ENDBRANCH  38  39
ENDBRANCH  30  33
ENDBRANCH  28  29
ENDBRANCH  27  28
ENDBRANCH  26  27
ENDBRANCH   1  26
TORSDOF 15
ENDMDL
MODEL 2
REMARK VINA RESULT:     -12.8      2.114      3.713
REMARK SMILES O=C(Cc1ccccc1Nc1c(F)cccc1C(F)(F)F)NCCCCNC(=O)c1ccc(-c2c3nc(c(-c4c(F)c(F)c(F)c(F)c4F)c4ccc([nH]4)c(-c4c(F)c(F)c(F)c(F)c4F)c4nc(c(-c5c(F)c(F)c(F)c(F)c5F)c5ccc2[nH]5)C=C4)C=C3)cc1
REMARK SMILES IDX 23 1 22 2 1 3 2 4 3 6 4 7 5 8 9 9 6 10 8 11 7 12 10 13 11 15
REMARK SMILES IDX 12 16 17 17 13 18 14 19 16 20 15 21 18 22 19 23 20 24 21 25
REMARK SMILES IDX 24 26 25 27 26 28 27 29 28 30 29 32 30 33 31 34 92 35 32 36
REMARK SMILES IDX 91 37 33 38 34 39 35 40 85 41 36 42 90 43 84 44 86 45 37 46
REMARK SMILES IDX 89 47 83 48 82 49 38 51 70 52 50 53 69 54 51 55 54 56 68 57
REMARK SMILES IDX 87 58 52 59 53 60 67 62 88 63 55 64 39 65 40 66 48 67 41 68
REMARK SMILES IDX 42 69 46 70 49 71 43 72 44 73 47 74 45 75 71 76 72 77 80 78
REMARK SMILES IDX 73 79 74 80 78 81 81 82 75 83 76 84 79 85 77 86 56 87 57 88
REMARK SMILES IDX 65 89 58 90 59 91 63 92 66 93 60 94 61 95 64 96 62 97
REMARK H PARENT 22 5 10 14 27 31 86 50 54 61
REMARK Flexibility Score: inf
ROOT
ATOM      1  C   UNL A   1      32.310  29.780  27.141  1.00  0.00     0.116 C 
ENDROOT
BRANCH   1   2
ATOM      2  N   UNL A   1      33.115  28.758  26.506  1.00  0.00    -0.356 N 
ATOM      3  O   UNL A   1      31.613  27.043  26.754  1.00  0.00    -0.275 OA
ATOM      4  C   UNL A   1      32.703  27.453  26.364  1.00  0.00     0.224 C 
ATOM      5  H   UNL A   1      34.001  29.009  26.158  1.00  0.00     0.163 HD
BRANCH   4   6
ATOM      6  C   UNL A   1      33.752  26.511  25.800  1.00  0.00     0.137 C 
BRANCH   6   7
ATOM      7  C   UNL A   1      33.485  25.984  24.405  1.00  0.00    -0.015 A 
ATOM      8  C   UNL A   1      33.575  26.888  23.327  1.00  0.00     0.006 A 
ATOM      9  C   UNL A   1      33.139  24.640  24.147  1.00  0.00     0.042 A 
ATOM     10  C   UNL A   1      33.295  26.484  22.023  1.00  0.00     0.000 A 
ATOM     11  C   UNL A   1      32.839  24.262  22.827  1.00  0.00     0.026 A 
ATOM     12  C   UNL A   1      32.916  25.173  21.773  1.00  0.00     0.002 A 
BRANCH   9  13
ATOM     13  N   UNL A   1      33.127  23.687  25.195  1.00  0.00    -0.352 N 
ATOM     14  H   UNL A   1      32.779  24.012  26.057  1.00  0.00     0.167 HD
BRANCH  13  15
ATOM     15  C   UNL A   1      33.545  22.336  25.180  1.00  0.00     0.087 A 
ATOM     16  C   UNL A   1      32.535  21.352  25.155  1.00  0.00     0.147 A 
ATOM     17  C   UNL A   1      34.885  21.912  25.116  1.00  0.00     0.082 A 
ATOM     18  F   UNL A   1      31.253  21.734  25.272  1.00  0.00    -0.205 F 
ATOM     19  C   UNL A   1      32.814  20.001  24.995  1.00  0.00     0.041 A 
ATOM     20  C   UNL A   1      35.155  20.542  24.904  1.00  0.00     0.015 A 
ATOM     21  C   UNL A   1      34.131  19.597  24.835  1.00  0.00     0.004 A 
BRANCH  17  22
ATOM     22  C   UNL A   1      36.075  22.824  25.316  1.00  0.00     0.418 C 
ATOM     23  F   UNL A   1      37.240  22.105  25.366  1.00  0.00    -0.166 F 
ATOM     24  F   UNL A   1      36.248  23.712  24.302  1.00  0.00    -0.166 F 
ATOM     25  F   UNL A   1      36.066  23.531  26.476  1.00  0.00    -0.166 F 
ENDBRANCH  17  22
ENDBRANCH  13  15
ENDBRANCH   9  13
ENDBRANCH   6   7
ENDBRANCH   4   6
ENDBRANCH   1   2
BRANCH   1  26
ATOM     26  C   UNL A   1      31.600  30.671  26.120  1.00  0.00     0.023 C 
BRANCH  26  27
ATOM     27  C   UNL A   1      31.391  32.128  26.549  1.00  0.00     0.023 C 
BRANCH  27  28
ATOM     28  C   UNL A   1      32.568  32.784  27.265  1.00  0.00     0.116 C 
BRANCH  28  29
ATOM     29  N   UNL A   1      32.322  34.173  27.618  1.00  0.00    -0.352 N 
ATOM     30  C   UNL A   1      32.942  34.969  28.550  1.00  0.00     0.251 C 
ATOM     31  H   UNL A   1      31.600  34.609  27.112  1.00  0.00     0.163 HD
ATOM     32  O   UNL A   1      32.503  36.096  28.783  1.00  0.00    -0.269 OA
BRANCH  30  33
ATOM     33  C   UNL A   1      34.116  34.481  29.307  1.00  0.00     0.039 A 
ATOM     34  C   UNL A   1      33.918  33.907  30.567  1.00  0.00     0.014 A 
ATOM     35  C   UNL A   1      35.411  34.608  28.802  1.00  0.00     0.014 A 
ATOM     36  C   UNL A   1      35.004  33.383  31.278  1.00  0.00     0.010 A 
ATOM     37  C   UNL A   1      36.482  34.034  29.490  1.00  0.00     0.010 A 
ATOM     38  C   UNL A   1      36.293  33.392  30.723  1.00  0.00    -0.014 A 
BRANCH  38  39
ATOM     39  C   UNL A   1      37.441  32.715  31.395  1.00  0.00     0.031 A 
ATOM     40  C   UNL A   1      38.148  31.557  30.740  1.00  0.00     0.074 A 
ATOM     41  C   UNL A   1      37.801  33.086  32.641  1.00  0.00     0.049 A 
ATOM     42  N   UNL A   1      39.104  30.795  31.212  1.00  0.00    -0.248 NA
ATOM     43  C   UNL A   1      37.698  31.183  29.391  1.00  0.00     0.031 C 
ATOM     44  C   UNL A   1      37.163  34.144  33.426  1.00  0.00     0.029 A 
ATOM     45  N   UNL A   1      38.786  32.608  33.473  1.00  0.00    -0.354 N 
ATOM     46  C   UNL A   1      39.358  29.848  30.227  1.00  0.00     0.074 A 
ATOM     47  C   UNL A   1      38.412  30.091  29.160  1.00  0.00     0.031 C 
ATOM     48  C   UNL A   1      37.791  34.257  34.607  1.00  0.00     0.029 A 
ATOM     49  C   UNL A   1      38.847  33.253  34.686  1.00  0.00     0.049 A 
ATOM     50  H   UNL A   1      39.390  31.872  33.223  1.00  0.00     0.167 HD
ATOM     51  C   UNL A   1      40.311  28.884  30.199  1.00  0.00     0.037 A 
ATOM     52  C   UNL A   1      39.657  33.058  35.745  1.00  0.00     0.037 A 
ATOM     53  C   UNL A   1      41.279  28.661  31.242  1.00  0.00     0.049 A 
ATOM     54  C   UNL A   1      40.713  31.988  35.685  1.00  0.00     0.074 A 
ATOM     55  C   UNL A   1      42.320  27.748  31.271  1.00  0.00     0.029 A 
ATOM     56  N   UNL A   1      41.326  29.357  32.440  1.00  0.00    -0.354 N 
ATOM     57  N   UNL A   1      40.984  31.146  34.719  1.00  0.00    -0.248 NA
ATOM     58  C   UNL A   1      41.581  31.845  36.863  1.00  0.00     0.031 C 
ATOM     59  C   UNL A   1      42.971  27.861  32.504  1.00  0.00     0.029 A 
ATOM     60  C   UNL A   1      42.368  28.880  33.223  1.00  0.00     0.049 A 
ATOM     61  H   UNL A   1      40.713  30.082  32.697  1.00  0.00     0.167 HD
ATOM     62  C   UNL A   1      42.068  30.396  35.158  1.00  0.00     0.074 A 
ATOM     63  C   UNL A   1      42.415  30.891  36.472  1.00  0.00     0.031 C 
ATOM     64  C   UNL A   1      42.714  29.385  34.526  1.00  0.00     0.037 A 
BRANCH  51  65
ATOM     65  C   UNL A   1      40.365  27.997  28.986  1.00  0.00     0.064 A 
ATOM     66  C   UNL A   1      39.654  26.788  28.928  1.00  0.00     0.173 A 
ATOM     67  C   UNL A   1      41.097  28.380  27.853  1.00  0.00     0.173 A 
ATOM     68  F   UNL A   1      38.944  26.371  29.987  1.00  0.00    -0.203 F 
ATOM     69  C   UNL A   1      39.703  25.981  27.795  1.00  0.00     0.198 A 
ATOM     70  C   UNL A   1      41.117  27.587  26.709  1.00  0.00     0.198 A 
ATOM     71  F   UNL A   1      41.788  29.531  27.851  1.00  0.00    -0.203 F 
ATOM     72  F   UNL A   1      39.059  24.805  27.783  1.00  0.00    -0.200 F 
ATOM     73  C   UNL A   1      40.428  26.384  26.684  1.00  0.00     0.200 A 
ATOM     74  F   UNL A   1      41.805  27.986  25.630  1.00  0.00    -0.200 F 
ATOM     75  F   UNL A   1      40.468  25.609  25.590  1.00  0.00    -0.200 F 
ENDBRANCH  51  65
BRANCH  52  76
ATOM     76  C   UNL A   1      39.517  33.914  36.954  1.00  0.00     0.064 A 
ATOM     77  C   UNL A   1      38.788  33.473  38.068  1.00  0.00     0.173 A 
ATOM     78  C   UNL A   1      40.096  35.190  37.016  1.00  0.00     0.173 A 
ATOM     79  F   UNL A   1      38.197  32.270  38.047  1.00  0.00    -0.203 F 
ATOM     80  C   UNL A   1      38.622  34.286  39.188  1.00  0.00     0.198 A 
ATOM     81  C   UNL A   1      39.955  35.989  38.149  1.00  0.00     0.198 A 
ATOM     82  F   UNL A   1      40.807  35.656  35.980  1.00  0.00    -0.203 F 
ATOM     83  F   UNL A   1      37.878  33.861  40.217  1.00  0.00    -0.200 F 
ATOM     84  C   UNL A   1      39.211  35.541  39.231  1.00  0.00     0.200 A 
ATOM     85  F   UNL A   1      40.538  37.194  38.191  1.00  0.00    -0.200 F 
ATOM     86  F   UNL A   1      39.054  36.321  40.308  1.00  0.00    -0.200 F 
ENDBRANCH  52  76
BRANCH  64  87
ATOM     87  C   UNL A   1      43.889  28.769  35.230  1.00  0.00     0.064 A 
ATOM     88  C   UNL A   1      43.738  27.686  36.111  1.00  0.00     0.173 A 
ATOM     89  C   UNL A   1      45.188  29.241  34.990  1.00  0.00     0.173 A 
ATOM     90  F   UNL A   1      42.515  27.207  36.386  1.00  0.00    -0.203 F 
ATOM     91  C   UNL A   1      44.841  27.117  36.742  1.00  0.00     0.198 A 
ATOM     92  C   UNL A   1      46.292  28.650  35.599  1.00  0.00     0.198 A 
ATOM     93  F   UNL A   1      45.389  30.269  34.152  1.00  0.00    -0.203 F 
ATOM     94  F   UNL A   1      44.667  26.116  37.616  1.00  0.00    -0.200 F 
ATOM     95  C   UNL A   1      46.116  27.594  36.480  1.00  0.00     0.200 A 
ATOM     96  F   UNL A   1      47.525  29.104  35.334  1.00  0.00    -0.200 F 
ATOM     97  F   UNL A   1      47.177  27.040  37.084  1.00  0.00    -0.200 F 
ENDBRANCH  64  87
ENDBRANCH  38  39
ENDBRANCH  30  33
ENDBRANCH  28  29
ENDBRANCH  27  28
ENDBRANCH  26  27
ENDBRANCH   1  26
TORSDOF 15
ENDMDL
MODEL 3
REMARK VINA RESULT:     -12.8      2.091      3.399
REMARK SMILES O=C(Cc1ccccc1Nc1c(F)cccc1C(F)(F)F)NCCCCNC(=O)c1ccc(-c2c3nc(c(-c4c(F)c(F)c(F)c(F)c4F)c4ccc([nH]4)c(-c4c(F)c(F)c(F)c(F)c4F)c4nc(c(-c5c(F)c(F)c(F)c(F)c5F)c5ccc2[nH]5)C=C4)C=C3)cc1
REMARK SMILES IDX 23 1 22 2 1 3 2 4 3 6 4 7 5 8 9 9 6 10 8 11 7 12 10 13 11 15
REMARK SMILES IDX 12 16 17 17 13 18 14 19 16 20 15 21 18 22 19 23 20 24 21 25
REMARK SMILES IDX 24 26 25 27 26 28 27 29 28 30 29 32 30 33 31 34 92 35 32 36
REMARK SMILES IDX 91 37 33 38 34 39 35 40 85 41 36 42 90 43 84 44 86 45 37 46
REMARK SMILES IDX 89 47 83 48 82 49 38 51 70 52 50 53 69 54 51 55 54 56 68 57
REMARK SMILES IDX 87 58 52 59 53 60 67 62 88 63 55 64 39 65 40 66 48 67 41 68
REMARK SMILES IDX 42 69 46 70 49 71 43 72 44 73 47 74 45 75 71 76 72 77 80 78
REMARK SMILES IDX 73 79 74 80 78 81 81 82 75 83 76 84 79 85 77 86 56 87 57 88
REMARK SMILES IDX 65 89 58 90 59 91 63 92 66 93 60 94 61 95 64 96 62 97
REMARK H PARENT 22 5 10 14 27 31 86 50 54 61
REMARK Flexibility Score: inf
ROOT
ATOM      1  C   UNL A   1      32.393  29.860  27.193  1.00  0.00     0.116 C 
ENDROOT
BRANCH   1   2
ATOM      2  N   UNL A   1      33.152  28.809  26.549  1.00  0.00    -0.356 N 
ATOM      3  O   UNL A   1      31.507  27.213  26.613  1.00  0.00    -0.275 OA
ATOM      4  C   UNL A   1      32.648  27.551  26.311  1.00  0.00     0.224 C 
ATOM      5  H   UNL A   1      34.075  29.004  26.267  1.00  0.00     0.163 HD
BRANCH   4   6
ATOM      6  C   UNL A   1      33.653  26.556  25.756  1.00  0.00     0.137 C 
BRANCH   6   7
ATOM      7  C   UNL A   1      33.425  26.117  24.324  1.00  0.00    -0.015 A 
ATOM      8  C   UNL A   1      33.317  27.115  23.335  1.00  0.00     0.006 A 
ATOM      9  C   UNL A   1      33.305  24.761  23.949  1.00  0.00     0.042 A 
ATOM     10  C   UNL A   1      33.060  26.785  22.005  1.00  0.00     0.000 A 
ATOM     11  C   UNL A   1      33.023  24.456  22.607  1.00  0.00     0.026 A 
ATOM     12  C   UNL A   1      32.901  25.456  21.642  1.00  0.00     0.002 A 
BRANCH   9  13
ATOM     13  N   UNL A   1      33.498  23.731  24.903  1.00  0.00    -0.352 N 
ATOM     14  H   UNL A   1      32.877  23.742  25.666  1.00  0.00     0.167 HD
BRANCH  13  15
ATOM     15  C   UNL A   1      34.456  22.691  24.914  1.00  0.00     0.087 A 
ATOM     16  C   UNL A   1      35.789  23.049  25.202  1.00  0.00     0.147 A 
ATOM     17  C   UNL A   1      34.160  21.327  24.733  1.00  0.00     0.082 A 
ATOM     18  F   UNL A   1      36.100  24.350  25.322  1.00  0.00    -0.205 F 
ATOM     19  C   UNL A   1      36.792  22.106  25.383  1.00  0.00     0.041 A 
ATOM     20  C   UNL A   1      35.176  20.374  24.968  1.00  0.00     0.015 A 
ATOM     21  C   UNL A   1      36.477  20.758  25.298  1.00  0.00     0.004 A 
BRANCH  17  22
ATOM     22  C   UNL A   1      32.829  20.805  24.244  1.00  0.00     0.418 C 
ATOM     23  F   UNL A   1      32.528  21.310  23.006  1.00  0.00    -0.166 F 
ATOM     24  F   UNL A   1      32.803  19.455  24.093  1.00  0.00    -0.166 F 
ATOM     25  F   UNL A   1      31.762  21.146  25.013  1.00  0.00    -0.166 F 
ENDBRANCH  17  22
ENDBRANCH  13  15
ENDBRANCH   9  13
ENDBRANCH   6   7
ENDBRANCH   4   6
ENDBRANCH   1   2
BRANCH   1  26
ATOM     26  C   UNL A   1      31.582  30.682  26.189  1.00  0.00     0.023 C 
BRANCH  26  27
ATOM     27  C   UNL A   1      31.412  32.165  26.536  1.00  0.00     0.023 C 
BRANCH  27  28
ATOM     28  C   UNL A   1      32.579  32.810  27.278  1.00  0.00     0.116 C 
BRANCH  28  29
ATOM     29  N   UNL A   1      32.340  34.203  27.622  1.00  0.00    -0.352 N 
ATOM     30  C   UNL A   1      32.960  35.000  28.554  1.00  0.00     0.251 C 
ATOM     31  H   UNL A   1      31.624  34.641  27.109  1.00  0.00     0.163 HD
ATOM     32  O   UNL A   1      32.527  36.131  28.777  1.00  0.00    -0.269 OA
BRANCH  30  33
ATOM     33  C   UNL A   1      34.126  34.508  29.320  1.00  0.00     0.039 A 
ATOM     34  C   UNL A   1      33.927  34.020  30.616  1.00  0.00     0.014 A 
ATOM     35  C   UNL A   1      35.416  34.550  28.790  1.00  0.00     0.014 A 
ATOM     36  C   UNL A   1      35.002  33.493  31.341  1.00  0.00     0.010 A 
ATOM     37  C   UNL A   1      36.474  33.972  29.494  1.00  0.00     0.010 A 
ATOM     38  C   UNL A   1      36.280  33.414  30.767  1.00  0.00    -0.014 A 
BRANCH  38  39
ATOM     39  C   UNL A   1      37.411  32.730  31.460  1.00  0.00     0.031 A 
ATOM     40  C   UNL A   1      38.116  31.561  30.825  1.00  0.00     0.074 A 
ATOM     41  C   UNL A   1      37.755  33.106  32.710  1.00  0.00     0.049 A 
ATOM     42  N   UNL A   1      39.057  30.792  31.316  1.00  0.00    -0.248 NA
ATOM     43  C   UNL A   1      37.683  31.182  29.471  1.00  0.00     0.031 C 
ATOM     44  C   UNL A   1      37.116  34.175  33.478  1.00  0.00     0.029 A 
ATOM     45  N   UNL A   1      38.722  32.623  33.560  1.00  0.00    -0.354 N 
ATOM     46  C   UNL A   1      39.317  29.837  30.342  1.00  0.00     0.074 A 
ATOM     47  C   UNL A   1      38.390  30.082  29.258  1.00  0.00     0.031 C 
ATOM     48  C   UNL A   1      37.726  34.290  34.668  1.00  0.00     0.029 A 
ATOM     49  C   UNL A   1      38.771  33.276  34.770  1.00  0.00     0.049 A 
ATOM     50  H   UNL A   1      39.323  31.880  33.325  1.00  0.00     0.167 HD
ATOM     51  C   UNL A   1      40.260  28.862  30.335  1.00  0.00     0.037 A 
ATOM     52  C   UNL A   1      39.562  33.080  35.842  1.00  0.00     0.037 A 
ATOM     53  C   UNL A   1      41.209  28.636  31.394  1.00  0.00     0.049 A 
ATOM     54  C   UNL A   1      40.608  31.999  35.806  1.00  0.00     0.074 A 
ATOM     55  C   UNL A   1      42.240  27.713  31.445  1.00  0.00     0.029 A 
ATOM     56  N   UNL A   1      41.245  29.340  32.588  1.00  0.00    -0.354 N 
ATOM     57  N   UNL A   1      40.886  31.147  34.850  1.00  0.00    -0.248 NA
ATOM     58  C   UNL A   1      41.456  31.854  36.999  1.00  0.00     0.031 C 
ATOM     59  C   UNL A   1      42.873  27.828  32.687  1.00  0.00     0.029 A 
ATOM     60  C   UNL A   1      42.269  28.858  33.391  1.00  0.00     0.049 A 
ATOM     61  H   UNL A   1      40.635  30.073  32.830  1.00  0.00     0.167 HD
ATOM     62  C   UNL A   1      41.955  30.389  35.310  1.00  0.00     0.074 A 
ATOM     63  C   UNL A   1      42.286  30.890  36.627  1.00  0.00     0.031 C 
ATOM     64  C   UNL A   1      42.600  29.368  34.695  1.00  0.00     0.037 A 
BRANCH  51  65
ATOM     65  C   UNL A   1      40.324  27.967  29.129  1.00  0.00     0.064 A 
ATOM     66  C   UNL A   1      39.617  26.755  29.075  1.00  0.00     0.173 A 
ATOM     67  C   UNL A   1      41.061  28.345  27.997  1.00  0.00     0.173 A 
ATOM     68  F   UNL A   1      38.902  26.343  30.133  1.00  0.00    -0.203 F 
ATOM     69  C   UNL A   1      39.675  25.940  27.948  1.00  0.00     0.198 A 
ATOM     70  C   UNL A   1      41.090  27.543  26.859  1.00  0.00     0.198 A 
ATOM     71  F   UNL A   1      41.748  29.498  27.991  1.00  0.00    -0.203 F 
ATOM     72  F   UNL A   1      39.035  24.763  27.941  1.00  0.00    -0.200 F 
ATOM     73  C   UNL A   1      40.405  26.338  26.839  1.00  0.00     0.200 A 
ATOM     74  F   UNL A   1      41.783  27.937  25.781  1.00  0.00    -0.200 F 
ATOM     75  F   UNL A   1      40.454  25.555  25.751  1.00  0.00    -0.200 F 
ENDBRANCH  51  65
BRANCH  52  76
ATOM     76  C   UNL A   1      39.412  33.945  37.044  1.00  0.00     0.064 A 
ATOM     77  C   UNL A   1      40.022  35.206  37.105  1.00  0.00     0.173 A 
ATOM     78  C   UNL A   1      38.671  33.524  38.158  1.00  0.00     0.173 A 
ATOM     79  F   UNL A   1      40.760  35.643  36.074  1.00  0.00    -0.203 F 
ATOM     80  C   UNL A   1      39.916  36.003  38.243  1.00  0.00     0.198 A 
ATOM     81  C   UNL A   1      38.541  34.335  39.283  1.00  0.00     0.198 A 
ATOM     82  F   UNL A   1      38.065  32.328  38.149  1.00  0.00    -0.203 F 
ATOM     83  F   UNL A   1      40.552  37.182  38.293  1.00  0.00    -0.200 F 
ATOM     84  C   UNL A   1      39.171  35.571  39.329  1.00  0.00     0.200 A 
ATOM     85  F   UNL A   1      37.808  33.919  40.324  1.00  0.00    -0.200 F 
ATOM     86  F   UNL A   1      39.067  36.338  40.422  1.00  0.00    -0.200 F 
ENDBRANCH  52  76
BRANCH  64  87
ATOM     87  C   UNL A   1      43.757  28.745  35.422  1.00  0.00     0.064 A 
ATOM     88  C   UNL A   1      45.076  29.182  35.225  1.00  0.00     0.173 A 
ATOM     89  C   UNL A   1      43.540  27.722  36.358  1.00  0.00     0.173 A 
ATOM     90  F   UNL A   1      45.339  30.147  34.330  1.00  0.00    -0.203 F 
ATOM     91  C   UNL A   1      46.135  28.603  35.919  1.00  0.00     0.198 A 
ATOM     92  C   UNL A   1      44.597  27.166  37.073  1.00  0.00     0.198 A 
ATOM     93  F   UNL A   1      42.298  27.271  36.590  1.00  0.00    -0.203 F 
ATOM     94  F   UNL A   1      47.391  29.005  35.679  1.00  0.00    -0.200 F 
ATOM     95  C   UNL A   1      45.894  27.601  36.848  1.00  0.00     0.200 A 
ATOM     96  F   UNL A   1      44.360  26.208  37.980  1.00  0.00    -0.200 F 
ATOM     97  F   UNL A   1      46.914  27.050  37.520  1.00  0.00    -0.200 F 
ENDBRANCH  64  87
ENDBRANCH  38  39
ENDBRANCH  30  33
ENDBRANCH  28  29
ENDBRANCH  27  28
ENDBRANCH  26  27
ENDBRANCH   1  26
TORSDOF 15
ENDMDL
