MODEL 1
REMARK VINA RESULT:     -12.8      0.000      0.000
REMARK SMILES O=C(NCCCCNC(=O)[C@H]1CCCN1S(=O)(=O)c1cccc([N+](=O)[O-])c1)c1ccc(-c2c3nc(c(-c4c(F)c(F)c(F)c(F)c4F)c4ccc([nH]4)c(-c4c(F)c(F)c(F)c(F)c4F)c4nc(c(-c5c(F)c(F)c(F)c(F)c5F)c5ccc2[nH]5)C=C4)C=C3)cc1
REMARK SMILES IDX 6 1 5 2 4 3 3 4 1 5 2 6 28 8 29 9 90 10 30 11 89 12 31 13
REMARK SMILES IDX 32 14 33 15 83 16 34 17 88 18 82 19 84 20 35 21 87 22 81 23
REMARK SMILES IDX 80 24 36 26 68 27 48 28 67 29 49 30 52 31 66 32 85 33 50 34
REMARK SMILES IDX 51 35 65 37 86 38 53 39 37 40 38 41 46 42 39 43 40 44 44 45
REMARK SMILES IDX 47 46 41 47 42 48 45 49 43 50 69 51 70 52 78 53 71 54 72 55
REMARK SMILES IDX 76 56 79 57 73 58 74 59 77 60 75 61 54 62 55 63 63 64 56 65
REMARK SMILES IDX 57 66 61 67 64 68 58 69 59 70 62 71 60 72 7 73 8 74 9 75
REMARK SMILES IDX 10 77 11 78 12 79 15 80 13 81 14 82 16 83 17 84 18 85 19 86
REMARK SMILES IDX 20 87 27 88 21 89 23 90 22 91 24 92 25 93 26 94
REMARK H PARENT 3 7 84 25 52 36 8 76
REMARK Flexibility Score: inf
ROOT
ATOM      1  C   UNL A   1      37.143  20.368  24.630  1.00  0.00     0.023 C 
ENDROOT
BRANCH   1   2
ATOM      2  C   UNL A   1      38.183  19.311  25.002  1.00  0.00     0.023 C 
BRANCH   2   3
ATOM      3  C   UNL A   1      39.372  19.830  25.801  1.00  0.00     0.116 C 
BRANCH   3   4
ATOM      4  N   UNL A   1      40.454  18.863  25.893  1.00  0.00    -0.352 N 
ATOM      5  O   UNL A   1      42.594  18.153  25.959  1.00  0.00    -0.269 OA
ATOM      6  C   UNL A   1      41.801  19.084  26.057  1.00  0.00     0.251 C 
ATOM      7  H   UNL A   1      40.185  17.918  25.826  1.00  0.00     0.163 HD
BRANCH   6   8
ATOM      8  C   UNL A   1      42.292  20.452  26.323  1.00  0.00     0.039 A 
ATOM      9  C   UNL A   1      42.348  20.949  27.629  1.00  0.00     0.014 A 
ATOM     10  C   UNL A   1      42.702  21.248  25.250  1.00  0.00     0.014 A 
ATOM     11  C   UNL A   1      42.682  22.281  27.846  1.00  0.00     0.010 A 
ATOM     12  C   UNL A   1      43.113  22.562  25.479  1.00  0.00     0.010 A 
ATOM     13  C   UNL A   1      43.078  23.098  26.776  1.00  0.00    -0.014 A 
BRANCH  13  14
ATOM     14  C   UNL A   1      43.512  24.492  27.040  1.00  0.00     0.031 A 
ATOM     15  C   UNL A   1      42.554  25.518  27.571  1.00  0.00     0.074 A 
ATOM     16  C   UNL A   1      44.794  24.825  26.795  1.00  0.00     0.049 A 
ATOM     17  N   UNL A   1      42.766  26.782  27.843  1.00  0.00    -0.248 NA
ATOM     18  C   UNL A   1      41.175  25.075  27.818  1.00  0.00     0.031 C 
ATOM     19  C   UNL A   1      45.808  23.917  26.257  1.00  0.00     0.029 A 
ATOM     20  N   UNL A   1      45.462  26.010  26.963  1.00  0.00    -0.354 N 
ATOM     21  C   UNL A   1      41.547  27.289  28.273  1.00  0.00     0.074 A 
ATOM     22  C   UNL A   1      40.593  26.203  28.205  1.00  0.00     0.031 C 
ATOM     23  C   UNL A   1      46.975  24.569  26.160  1.00  0.00     0.029 A 
ATOM     24  C   UNL A   1      46.778  25.953  26.577  1.00  0.00     0.049 A 
ATOM     25  H   UNL A   1      45.040  26.822  27.326  1.00  0.00     0.167 HD
ATOM     26  C   UNL A   1      41.258  28.545  28.693  1.00  0.00     0.037 A 
ATOM     27  C   UNL A   1      47.718  26.914  26.539  1.00  0.00     0.037 A 
ATOM     28  C   UNL A   1      42.219  29.615  28.775  1.00  0.00     0.049 A 
ATOM     29  C   UNL A   1      47.370  28.297  27.001  1.00  0.00     0.074 A 
ATOM     30  C   UNL A   1      42.038  30.905  29.247  1.00  0.00     0.029 A 
ATOM     31  N   UNL A   1      43.543  29.523  28.368  1.00  0.00    -0.354 N 
ATOM     32  N   UNL A   1      46.227  28.751  27.455  1.00  0.00    -0.248 NA
ATOM     33  C   UNL A   1      48.439  29.303  26.946  1.00  0.00     0.031 C 
ATOM     34  C   UNL A   1      43.238  31.605  29.079  1.00  0.00     0.029 A 
ATOM     35  C   UNL A   1      44.181  30.740  28.549  1.00  0.00     0.049 A 
ATOM     36  H   UNL A   1      43.966  28.711  28.004  1.00  0.00     0.167 HD
ATOM     37  C   UNL A   1      46.439  30.090  27.748  1.00  0.00     0.074 A 
ATOM     38  C   UNL A   1      47.827  30.371  27.440  1.00  0.00     0.031 C 
ATOM     39  C   UNL A   1      45.561  31.005  28.226  1.00  0.00     0.037 A 
BRANCH  26  40
ATOM     40  C   UNL A   1      39.837  28.840  29.077  1.00  0.00     0.064 A 
ATOM     41  C   UNL A   1      38.895  29.291  28.141  1.00  0.00     0.173 A 
ATOM     42  C   UNL A   1      39.402  28.629  30.395  1.00  0.00     0.173 A 
ATOM     43  F   UNL A   1      39.262  29.518  26.871  1.00  0.00    -0.203 F 
ATOM     44  C   UNL A   1      37.578  29.548  28.515  1.00  0.00     0.198 A 
ATOM     45  C   UNL A   1      38.079  28.861  30.761  1.00  0.00     0.198 A 
ATOM     46  F   UNL A   1      40.260  28.191  31.329  1.00  0.00    -0.203 F 
ATOM     47  F   UNL A   1      36.707  30.022  27.614  1.00  0.00    -0.200 F 
ATOM     48  C   UNL A   1      37.170  29.327  29.823  1.00  0.00     0.200 A 
ATOM     49  F   UNL A   1      37.683  28.636  32.021  1.00  0.00    -0.200 F 
ATOM     50  F   UNL A   1      35.901  29.570  30.180  1.00  0.00    -0.200 F 
ENDBRANCH  26  40
BRANCH  27  51
ATOM     51  C   UNL A   1      49.072  26.582  26.030  1.00  0.00     0.064 A 
ATOM     52  C   UNL A   1      49.443  26.881  24.713  1.00  0.00     0.173 A 
ATOM     53  C   UNL A   1      50.037  26.003  26.868  1.00  0.00     0.173 A 
ATOM     54  F   UNL A   1      48.549  27.420  23.871  1.00  0.00    -0.203 F 
ATOM     55  C   UNL A   1      50.730  26.610  24.252  1.00  0.00     0.198 A 
ATOM     56  C   UNL A   1      51.330  25.758  26.414  1.00  0.00     0.198 A 
ATOM     57  F   UNL A   1      49.730  25.706  28.140  1.00  0.00    -0.203 F 
ATOM     58  F   UNL A   1      51.054  26.882  22.981  1.00  0.00    -0.200 F 
ATOM     59  C   UNL A   1      51.674  26.058  25.105  1.00  0.00     0.200 A 
ATOM     60  F   UNL A   1      52.244  25.242  27.247  1.00  0.00    -0.200 F 
ATOM     61  F   UNL A   1      52.916  25.815  24.665  1.00  0.00    -0.200 F 
ENDBRANCH  27  51
BRANCH  39  62
ATOM     62  C   UNL A   1      46.080  32.393  28.456  1.00  0.00     0.064 A 
ATOM     63  C   UNL A   1      45.995  33.378  27.461  1.00  0.00     0.173 A 
ATOM     64  C   UNL A   1      46.634  32.752  29.693  1.00  0.00     0.173 A 
ATOM     65  F   UNL A   1      45.490  33.078  26.255  1.00  0.00    -0.203 F 
ATOM     66  C   UNL A   1      46.466  34.668  27.691  1.00  0.00     0.198 A 
ATOM     67  C   UNL A   1      47.080  34.048  29.928  1.00  0.00     0.198 A 
ATOM     68  F   UNL A   1      46.734  31.845  30.677  1.00  0.00    -0.203 F 
ATOM     69  F   UNL A   1      46.414  35.583  26.712  1.00  0.00    -0.200 F 
ATOM     70  C   UNL A   1      47.002  35.003  28.926  1.00  0.00     0.200 A 
ATOM     71  F   UNL A   1      47.588  34.374  31.124  1.00  0.00    -0.200 F 
ATOM     72  F   UNL A   1      47.448  36.247  29.146  1.00  0.00    -0.200 F 
ENDBRANCH  39  62
ENDBRANCH  13  14
ENDBRANCH   6   8
ENDBRANCH   3   4
ENDBRANCH   2   3
ENDBRANCH   1   2
BRANCH   1  73
ATOM     73  C   UNL A   1      37.545  21.800  24.967  1.00  0.00     0.116 C 
BRANCH  73  74
ATOM     74  N   UNL A   1      36.986  22.762  24.050  1.00  0.00    -0.355 N 
ATOM     75  C   UNL A   1      35.712  23.253  23.994  1.00  0.00     0.238 C 
ATOM     76  H   UNL A   1      37.606  23.114  23.371  1.00  0.00     0.163 HD
ATOM     77  O   UNL A   1      35.473  24.074  23.105  1.00  0.00    -0.273 OA
BRANCH  75  78
ATOM     78  C   UNL A   1      34.655  22.801  25.026  1.00  0.00     0.162 C 
ATOM     79  C   UNL A   1      33.823  23.994  25.493  1.00  0.00     0.032 C 
ATOM     80  N   UNL A   1      33.644  21.885  24.392  1.00  0.00    -0.185 NA
ATOM     81  C   UNL A   1      32.781  24.166  24.399  1.00  0.00     0.019 C 
ATOM     82  C   UNL A   1      32.681  22.813  23.699  1.00  0.00     0.103 C 
BRANCH  80  83
ATOM     83  S   UNL A   1      32.840  20.759  25.411  1.00  0.00     0.244 S 
ATOM     84  O   UNL A   1      33.553  20.681  26.666  1.00  0.00    -0.207 OA
ATOM     85  O   UNL A   1      31.428  21.077  25.375  1.00  0.00    -0.207 OA
BRANCH  83  86
ATOM     86  C   UNL A   1      33.025  19.180  24.607  1.00  0.00     0.089 A 
ATOM     87  C   UNL A   1      32.527  18.995  23.310  1.00  0.00     0.022 A 
ATOM     88  C   UNL A   1      33.607  18.113  25.299  1.00  0.00     0.107 A 
ATOM     89  C   UNL A   1      32.654  17.753  22.682  1.00  0.00     0.008 A 
ATOM     90  C   UNL A   1      33.783  16.893  24.634  1.00  0.00     0.270 A 
ATOM     91  C   UNL A   1      33.300  16.701  23.333  1.00  0.00     0.086 A 
BRANCH  90  92
ATOM     92  N   UNL A   1      34.551  15.830  25.286  1.00  0.00     0.062 N 
ATOM     93  O   UNL A   1      34.029  14.712  25.376  1.00  0.00    -0.258 OA
ATOM     94  O   UNL A   1      35.695  16.114  25.667  1.00  0.00    -0.258 OA
ENDBRANCH  90  92
ENDBRANCH  83  86
ENDBRANCH  80  83
ENDBRANCH  75  78
ENDBRANCH  73  74
ENDBRANCH   1  73
TORSDOF 14
ENDMDL
MODEL 2
REMARK VINA RESULT:     -12.8      6.637     12.082
REMARK SMILES O=C(NCCCCNC(=O)[C@H]1CCCN1S(=O)(=O)c1cccc([N+](=O)[O-])c1)c1ccc(-c2c3nc(c(-c4c(F)c(F)c(F)c(F)c4F)c4ccc([nH]4)c(-c4c(F)c(F)c(F)c(F)c4F)c4nc(c(-c5c(F)c(F)c(F)c(F)c5F)c5ccc2[nH]5)C=C4)C=C3)cc1
REMARK SMILES IDX 6 1 5 2 4 3 3 4 1 5 2 6 28 8 29 9 90 10 30 11 89 12 31 13
REMARK SMILES IDX 32 14 33 15 83 16 34 17 88 18 82 19 84 20 35 21 87 22 81 23
REMARK SMILES IDX 80 24 36 26 68 27 48 28 67 29 49 30 52 31 66 32 85 33 50 34
REMARK SMILES IDX 51 35 65 37 86 38 53 39 37 40 38 41 46 42 39 43 40 44 44 45
REMARK SMILES IDX 47 46 41 47 42 48 45 49 43 50 69 51 70 52 78 53 71 54 72 55
REMARK SMILES IDX 76 56 79 57 73 58 74 59 77 60 75 61 54 62 55 63 63 64 56 65
REMARK SMILES IDX 57 66 61 67 64 68 58 69 59 70 62 71 60 72 7 73 8 74 9 75
REMARK SMILES IDX 10 77 11 78 12 79 15 80 13 81 14 82 16 83 17 84 18 85 19 86
REMARK SMILES IDX 20 87 27 88 21 89 23 90 22 91 24 92 25 93 26 94
REMARK H PARENT 3 7 84 25 52 36 8 76
REMARK Flexibility Score: inf
ROOT
ATOM      1  C   UNL A   1      31.587  30.907  26.433  1.00  0.00     0.023 C 
ENDROOT
BRANCH   1   2
ATOM      2  C   UNL A   1      31.408  32.358  26.878  1.00  0.00     0.023 C 
BRANCH   2   3
ATOM      3  C   UNL A   1      32.696  33.083  27.248  1.00  0.00     0.116 C 
BRANCH   3   4
ATOM      4  N   UNL A   1      32.463  34.429  27.745  1.00  0.00    -0.352 N 
ATOM      5  O   UNL A   1      32.639  36.167  29.172  1.00  0.00    -0.269 OA
ATOM      6  C   UNL A   1      33.069  35.083  28.792  1.00  0.00     0.251 C 
ATOM      7  H   UNL A   1      31.773  34.944  27.266  1.00  0.00     0.163 HD
BRANCH   6   8
ATOM      8  C   UNL A   1      34.222  34.461  29.475  1.00  0.00     0.039 A 
ATOM      9  C   UNL A   1      35.509  34.562  28.940  1.00  0.00     0.014 A 
ATOM     10  C   UNL A   1      34.010  33.765  30.669  1.00  0.00     0.014 A 
ATOM     11  C   UNL A   1      36.556  33.857  29.522  1.00  0.00     0.010 A 
ATOM     12  C   UNL A   1      35.079  33.122  31.296  1.00  0.00     0.010 A 
ATOM     13  C   UNL A   1      36.355  33.139  30.712  1.00  0.00    -0.014 A 
BRANCH  13  14
ATOM     14  C   UNL A   1      37.504  32.463  31.362  1.00  0.00     0.031 A 
ATOM     15  C   UNL A   1      38.232  31.339  30.684  1.00  0.00     0.074 A 
ATOM     16  C   UNL A   1      37.887  32.879  32.584  1.00  0.00     0.049 A 
ATOM     17  N   UNL A   1      39.247  30.633  31.118  1.00  0.00    -0.248 NA
ATOM     18  C   UNL A   1      37.756  30.948  29.349  1.00  0.00     0.031 C 
ATOM     19  C   UNL A   1      37.239  33.946  33.349  1.00  0.00     0.029 A 
ATOM     20  N   UNL A   1      38.909  32.459  33.396  1.00  0.00    -0.354 N 
ATOM     21  C   UNL A   1      39.517  29.703  30.123  1.00  0.00     0.074 A 
ATOM     22  C   UNL A   1      38.546  29.919  29.071  1.00  0.00     0.031 C 
ATOM     23  C   UNL A   1      37.891  34.113  34.508  1.00  0.00     0.029 A 
ATOM     24  C   UNL A   1      38.966  33.131  34.591  1.00  0.00     0.049 A 
ATOM     25  H   UNL A   1      39.539  31.746  33.147  1.00  0.00     0.167 HD
ATOM     26  C   UNL A   1      40.491  28.762  30.093  1.00  0.00     0.037 A 
ATOM     27  C   UNL A   1      39.778  32.961  35.650  1.00  0.00     0.037 A 
ATOM     28  C   UNL A   1      41.465  28.566  31.136  1.00  0.00     0.049 A 
ATOM     29  C   UNL A   1      40.843  31.906  35.593  1.00  0.00     0.074 A 
ATOM     30  C   UNL A   1      42.530  27.681  31.169  1.00  0.00     0.029 A 
ATOM     31  N   UNL A   1      41.487  29.261  32.337  1.00  0.00    -0.354 N 
ATOM     32  N   UNL A   1      41.122  31.068  34.625  1.00  0.00    -0.248 NA
ATOM     33  C   UNL A   1      41.707  31.773  36.774  1.00  0.00     0.031 C 
ATOM     34  C   UNL A   1      43.166  27.808  32.409  1.00  0.00     0.029 A 
ATOM     35  C   UNL A   1      42.529  28.805  33.131  1.00  0.00     0.049 A 
ATOM     36  H   UNL A   1      40.856  29.974  32.589  1.00  0.00     0.167 HD
ATOM     37  C   UNL A   1      42.196  30.314  35.073  1.00  0.00     0.074 A 
ATOM     38  C   UNL A   1      42.533  30.808  36.393  1.00  0.00     0.031 C 
ATOM     39  C   UNL A   1      42.842  29.301  34.447  1.00  0.00     0.037 A 
BRANCH  26  40
ATOM     40  C   UNL A   1      40.543  27.853  28.898  1.00  0.00     0.064 A 
ATOM     41  C   UNL A   1      39.787  26.674  28.831  1.00  0.00     0.173 A 
ATOM     42  C   UNL A   1      41.332  28.190  27.787  1.00  0.00     0.173 A 
ATOM     43  F   UNL A   1      39.024  26.302  29.870  1.00  0.00    -0.203 F 
ATOM     44  C   UNL A   1      39.840  25.851  27.709  1.00  0.00     0.198 A 
ATOM     45  C   UNL A   1      41.364  27.378  26.655  1.00  0.00     0.198 A 
ATOM     46  F   UNL A   1      42.070  29.310  27.795  1.00  0.00    -0.203 F 
ATOM     47  F   UNL A   1      39.143  24.706  27.686  1.00  0.00    -0.200 F 
ATOM     48  C   UNL A   1      40.623  26.206  26.620  1.00  0.00     0.200 A 
ATOM     49  F   UNL A   1      42.111  27.729  25.600  1.00  0.00    -0.200 F 
ATOM     50  F   UNL A   1      40.669  25.415  25.539  1.00  0.00    -0.200 F 
ENDBRANCH  26  40
BRANCH  27  51
ATOM     51  C   UNL A   1      39.591  33.813  36.850  1.00  0.00     0.064 A 
ATOM     52  C   UNL A   1      40.137  35.101  36.915  1.00  0.00     0.173 A 
ATOM     53  C   UNL A   1      38.818  33.373  37.936  1.00  0.00     0.173 A 
ATOM     54  F   UNL A   1      40.895  35.559  35.909  1.00  0.00    -0.203 F 
ATOM     55  C   UNL A   1      39.919  35.917  38.025  1.00  0.00     0.198 A 
ATOM     56  C   UNL A   1      38.580  34.198  39.031  1.00  0.00     0.198 A 
ATOM     57  F   UNL A   1      38.268  32.149  37.915  1.00  0.00    -0.203 F 
ATOM     58  F   UNL A   1      40.473  37.135  38.075  1.00  0.00    -0.200 F 
ATOM     59  C   UNL A   1      39.135  35.468  39.077  1.00  0.00     0.200 A 
ATOM     60  F   UNL A   1      37.805  33.767  40.036  1.00  0.00    -0.200 F 
ATOM     61  F   UNL A   1      38.912  36.260  40.134  1.00  0.00    -0.200 F 
ENDBRANCH  27  51
BRANCH  39  62
ATOM     62  C   UNL A   1      43.987  28.666  35.180  1.00  0.00     0.064 A 
ATOM     63  C   UNL A   1      45.303  29.125  35.017  1.00  0.00     0.173 A 
ATOM     64  C   UNL A   1      43.763  27.615  36.080  1.00  0.00     0.173 A 
ATOM     65  F   UNL A   1      45.570  30.116  34.153  1.00  0.00    -0.203 F 
ATOM     66  C   UNL A   1      46.355  28.539  35.714  1.00  0.00     0.198 A 
ATOM     67  C   UNL A   1      44.813  27.049  36.795  1.00  0.00     0.198 A 
ATOM     68  F   UNL A   1      42.521  27.144  36.273  1.00  0.00    -0.203 F 
ATOM     69  F   UNL A   1      47.610  28.964  35.512  1.00  0.00    -0.200 F 
ATOM     70  C   UNL A   1      46.108  27.506  36.607  1.00  0.00     0.200 A 
ATOM     71  F   UNL A   1      44.573  26.058  37.664  1.00  0.00    -0.200 F 
ATOM     72  F   UNL A   1      47.122  26.948  37.282  1.00  0.00    -0.200 F 
ENDBRANCH  39  62
ENDBRANCH  13  14
ENDBRANCH   6   8
ENDBRANCH   3   4
ENDBRANCH   2   3
ENDBRANCH   1   2
BRANCH   1  73
ATOM     73  C   UNL A   1      32.734  30.171  27.117  1.00  0.00     0.116 C 
BRANCH  73  74
ATOM     74  N   UNL A   1      32.389  28.815  27.468  1.00  0.00    -0.355 N 
ATOM     75  C   UNL A   1      32.284  27.720  26.659  1.00  0.00     0.238 C 
ATOM     76  H   UNL A   1      32.204  28.657  28.423  1.00  0.00     0.163 HD
ATOM     77  O   UNL A   1      31.967  26.658  27.202  1.00  0.00    -0.273 OA
BRANCH  75  78
ATOM     78  C   UNL A   1      32.581  27.834  25.148  1.00  0.00     0.162 C 
ATOM     79  C   UNL A   1      33.570  26.753  24.717  1.00  0.00     0.032 C 
ATOM     80  N   UNL A   1      31.350  27.537  24.336  1.00  0.00    -0.185 NA
ATOM     81  C   UNL A   1      32.705  25.518  24.523  1.00  0.00     0.019 C 
ATOM     82  C   UNL A   1      31.287  26.033  24.287  1.00  0.00     0.103 C 
BRANCH  80  83
ATOM     83  S   UNL A   1      31.238  28.243  22.773  1.00  0.00     0.244 S 
ATOM     84  O   UNL A   1      32.311  29.201  22.620  1.00  0.00    -0.207 OA
ATOM     85  O   UNL A   1      31.065  27.162  21.824  1.00  0.00    -0.207 OA
BRANCH  83  86
ATOM     86  C   UNL A   1      29.714  29.163  22.778  1.00  0.00     0.089 A 
ATOM     87  C   UNL A   1      28.511  28.518  23.095  1.00  0.00     0.022 A 
ATOM     88  C   UNL A   1      29.714  30.510  22.401  1.00  0.00     0.107 A 
ATOM     89  C   UNL A   1      27.309  29.232  23.083  1.00  0.00     0.008 A 
ATOM     90  C   UNL A   1      28.513  31.227  22.454  1.00  0.00     0.270 A 
ATOM     91  C   UNL A   1      27.307  30.595  22.782  1.00  0.00     0.086 A 
BRANCH  90  92
ATOM     92  N   UNL A   1      28.536  32.675  22.238  1.00  0.00     0.062 N 
ATOM     93  O   UNL A   1      29.249  33.360  22.982  1.00  0.00    -0.258 OA
ATOM     94  O   UNL A   1      27.868  33.114  21.290  1.00  0.00    -0.258 OA
ENDBRANCH  90  92
ENDBRANCH  83  86
ENDBRANCH  80  83
ENDBRANCH  75  78
ENDBRANCH  73  74
ENDBRANCH   1  73
TORSDOF 14
ENDMDL
MODEL 3
REMARK VINA RESULT:     -12.8      0.127      1.589
REMARK SMILES O=C(NCCCCNC(=O)[C@H]1CCCN1S(=O)(=O)c1cccc([N+](=O)[O-])c1)c1ccc(-c2c3nc(c(-c4c(F)c(F)c(F)c(F)c4F)c4ccc([nH]4)c(-c4c(F)c(F)c(F)c(F)c4F)c4nc(c(-c5c(F)c(F)c(F)c(F)c5F)c5ccc2[nH]5)C=C4)C=C3)cc1
REMARK SMILES IDX 6 1 5 2 4 3 3 4 1 5 2 6 28 8 29 9 90 10 30 11 89 12 31 13
REMARK SMILES IDX 32 14 33 15 83 16 34 17 88 18 82 19 84 20 35 21 87 22 81 23
REMARK SMILES IDX 80 24 36 26 68 27 48 28 67 29 49 30 52 31 66 32 85 33 50 34
REMARK SMILES IDX 51 35 65 37 86 38 53 39 37 40 38 41 46 42 39 43 40 44 44 45
REMARK SMILES IDX 47 46 41 47 42 48 45 49 43 50 69 51 70 52 78 53 71 54 72 55
REMARK SMILES IDX 76 56 79 57 73 58 74 59 77 60 75 61 54 62 55 63 63 64 56 65
REMARK SMILES IDX 57 66 61 67 64 68 58 69 59 70 62 71 60 72 7 73 8 74 9 75
REMARK SMILES IDX 10 77 11 78 12 79 15 80 13 81 14 82 16 83 17 84 18 85 19 86
REMARK SMILES IDX 20 87 27 88 21 89 23 90 22 91 24 92 25 93 26 94
REMARK H PARENT 3 7 84 25 52 36 8 76
REMARK Flexibility Score: inf
ROOT
ATOM      1  C   UNL A   1      37.129  20.383  24.704  1.00  0.00     0.023 C 
ENDROOT
BRANCH   1   2
ATOM      2  C   UNL A   1      38.188  19.322  25.001  1.00  0.00     0.023 C 
BRANCH   2   3
ATOM      3  C   UNL A   1      39.359  19.800  25.851  1.00  0.00     0.116 C 
BRANCH   3   4
ATOM      4  N   UNL A   1      40.453  18.842  25.893  1.00  0.00    -0.352 N 
ATOM      5  O   UNL A   1      42.600  18.153  25.890  1.00  0.00    -0.269 OA
ATOM      6  C   UNL A   1      41.801  19.073  26.029  1.00  0.00     0.251 C 
ATOM      7  H   UNL A   1      40.191  17.897  25.813  1.00  0.00     0.163 HD
BRANCH   6   8
ATOM      8  C   UNL A   1      42.285  20.440  26.314  1.00  0.00     0.039 A 
ATOM      9  C   UNL A   1      42.349  20.916  27.626  1.00  0.00     0.014 A 
ATOM     10  C   UNL A   1      42.681  21.256  25.250  1.00  0.00     0.014 A 
ATOM     11  C   UNL A   1      42.676  22.247  27.863  1.00  0.00     0.010 A 
ATOM     12  C   UNL A   1      43.085  22.569  25.497  1.00  0.00     0.010 A 
ATOM     13  C   UNL A   1      43.058  23.084  26.803  1.00  0.00    -0.014 A 
BRANCH  13  14
ATOM     14  C   UNL A   1      43.485  24.476  27.087  1.00  0.00     0.031 A 
ATOM     15  C   UNL A   1      42.528  25.483  27.655  1.00  0.00     0.074 A 
ATOM     16  C   UNL A   1      44.759  24.825  26.823  1.00  0.00     0.049 A 
ATOM     17  N   UNL A   1      42.735  26.743  27.949  1.00  0.00    -0.248 NA
ATOM     18  C   UNL A   1      41.158  25.022  27.920  1.00  0.00     0.031 C 
ATOM     19  C   UNL A   1      45.770  23.937  26.247  1.00  0.00     0.029 A 
ATOM     20  N   UNL A   1      45.420  26.012  27.002  1.00  0.00    -0.354 N 
ATOM     21  C   UNL A   1      41.520  27.230  28.413  1.00  0.00     0.074 A 
ATOM     22  C   UNL A   1      40.574  26.137  28.341  1.00  0.00     0.031 C 
ATOM     23  C   UNL A   1      46.929  24.601  26.142  1.00  0.00     0.029 A 
ATOM     24  C   UNL A   1      46.728  25.974  26.590  1.00  0.00     0.049 A 
ATOM     25  H   UNL A   1      44.998  26.813  27.388  1.00  0.00     0.167 HD
ATOM     26  C   UNL A   1      41.229  28.475  28.862  1.00  0.00     0.037 A 
ATOM     27  C   UNL A   1      47.660  26.944  26.552  1.00  0.00     0.037 A 
ATOM     28  C   UNL A   1      42.182  29.552  28.947  1.00  0.00     0.049 A 
ATOM     29  C   UNL A   1      47.308  28.316  27.048  1.00  0.00     0.074 A 
ATOM     30  C   UNL A   1      41.999  30.830  29.448  1.00  0.00     0.029 A 
ATOM     31  N   UNL A   1      43.499  29.479  28.513  1.00  0.00    -0.354 N 
ATOM     32  N   UNL A   1      46.171  28.750  27.534  1.00  0.00    -0.248 NA
ATOM     33  C   UNL A   1      48.368  29.332  26.993  1.00  0.00     0.031 C 
ATOM     34  C   UNL A   1      43.189  31.545  29.271  1.00  0.00     0.029 A 
ATOM     35  C   UNL A   1      44.130  30.698  28.706  1.00  0.00     0.049 A 
ATOM     36  H   UNL A   1      43.921  28.679  28.125  1.00  0.00     0.167 HD
ATOM     37  C   UNL A   1      46.377  30.085  27.849  1.00  0.00     0.074 A 
ATOM     38  C   UNL A   1      47.756  30.384  27.520  1.00  0.00     0.031 C 
ATOM     39  C   UNL A   1      45.500  30.982  28.362  1.00  0.00     0.037 A 
BRANCH  26  40
ATOM     40  C   UNL A   1      39.813  28.750  29.280  1.00  0.00     0.064 A 
ATOM     41  C   UNL A   1      39.389  28.590  30.607  1.00  0.00     0.173 A 
ATOM     42  C   UNL A   1      38.877  29.218  28.345  1.00  0.00     0.173 A 
ATOM     43  F   UNL A   1      40.241  28.136  31.538  1.00  0.00    -0.203 F 
ATOM     44  C   UNL A   1      38.074  28.862  30.977  1.00  0.00     0.198 A 
ATOM     45  C   UNL A   1      37.570  29.514  28.722  1.00  0.00     0.198 A 
ATOM     46  F   UNL A   1      39.231  29.395  27.063  1.00  0.00    -0.203 F 
ATOM     47  F   UNL A   1      37.679  28.659  32.242  1.00  0.00    -0.200 F 
ATOM     48  C   UNL A   1      37.167  29.329  30.036  1.00  0.00     0.200 A 
ATOM     49  F   UNL A   1      36.699  29.976  27.815  1.00  0.00    -0.200 F 
ATOM     50  F   UNL A   1      35.903  29.594  30.396  1.00  0.00    -0.200 F 
ENDBRANCH  26  40
BRANCH  27  51
ATOM     51  C   UNL A   1      49.006  26.635  26.011  1.00  0.00     0.064 A 
ATOM     52  C   UNL A   1      49.344  26.950  24.689  1.00  0.00     0.173 A 
ATOM     53  C   UNL A   1      49.997  26.061  26.823  1.00  0.00     0.173 A 
ATOM     54  F   UNL A   1      48.425  27.485  23.872  1.00  0.00    -0.203 F 
ATOM     55  C   UNL A   1      50.624  26.701  24.197  1.00  0.00     0.198 A 
ATOM     56  C   UNL A   1      51.282  25.837  26.338  1.00  0.00     0.198 A 
ATOM     57  F   UNL A   1      49.722  25.749  28.098  1.00  0.00    -0.203 F 
ATOM     58  F   UNL A   1      50.916  26.989  22.922  1.00  0.00    -0.200 F 
ATOM     59  C   UNL A   1      51.594  26.153  25.024  1.00  0.00     0.200 A 
ATOM     60  F   UNL A   1      52.221  25.325  27.146  1.00  0.00    -0.200 F 
ATOM     61  F   UNL A   1      52.829  25.930  24.556  1.00  0.00    -0.200 F 
ENDBRANCH  27  51
BRANCH  39  62
ATOM     62  C   UNL A   1      46.012  32.370  28.609  1.00  0.00     0.064 A 
ATOM     63  C   UNL A   1      46.615  32.720  29.827  1.00  0.00     0.173 A 
ATOM     64  C   UNL A   1      45.931  33.349  27.609  1.00  0.00     0.173 A 
ATOM     65  F   UNL A   1      46.699  31.823  30.821  1.00  0.00    -0.203 F 
ATOM     66  C   UNL A   1      47.101  34.007  30.039  1.00  0.00     0.198 A 
ATOM     67  C   UNL A   1      46.440  34.626  27.815  1.00  0.00     0.198 A 
ATOM     68  F   UNL A   1      45.366  33.061  26.426  1.00  0.00    -0.203 F 
ATOM     69  F   UNL A   1      47.635  34.332  31.225  1.00  0.00    -0.200 F 
ATOM     70  C   UNL A   1      47.019  34.957  29.031  1.00  0.00     0.200 A 
ATOM     71  F   UNL A   1      46.370  35.540  26.838  1.00  0.00    -0.200 F 
ATOM     72  F   UNL A   1      47.492  36.193  29.236  1.00  0.00    -0.200 F 
ENDBRANCH  39  62
ENDBRANCH  13  14
ENDBRANCH   6   8
ENDBRANCH   3   4
ENDBRANCH   2   3
ENDBRANCH   1   2
BRANCH   1  73
ATOM     73  C   UNL A   1      37.559  21.813  25.012  1.00  0.00     0.116 C 
BRANCH  73  74
ATOM     74  N   UNL A   1      37.014  22.768  24.079  1.00  0.00    -0.355 N 
ATOM     75  C   UNL A   1      35.742  23.258  24.000  1.00  0.00     0.238 C 
ATOM     76  H   UNL A   1      37.645  23.114  23.407  1.00  0.00     0.163 HD
ATOM     77  O   UNL A   1      35.517  24.073  23.100  1.00  0.00    -0.273 OA
BRANCH  75  78
ATOM     78  C   UNL A   1      34.669  22.815  25.018  1.00  0.00     0.162 C 
ATOM     79  C   UNL A   1      33.805  24.005  25.433  1.00  0.00     0.032 C 
ATOM     80  N   UNL A   1      33.689  21.865  24.385  1.00  0.00    -0.185 NA
ATOM     81  C   UNL A   1      32.787  24.129  24.311  1.00  0.00     0.019 C 
ATOM     82  C   UNL A   1      32.727  22.756  23.645  1.00  0.00     0.103 C 
BRANCH  80  83
ATOM     83  S   UNL A   1      32.881  20.751  25.415  1.00  0.00     0.244 S 
ATOM     84  O   UNL A   1      33.593  20.682  26.671  1.00  0.00    -0.207 OA
ATOM     85  O   UNL A   1      31.470  21.075  25.376  1.00  0.00    -0.207 OA
BRANCH  83  86
ATOM     86  C   UNL A   1      33.059  19.164  24.626  1.00  0.00     0.089 A 
ATOM     87  C   UNL A   1      32.528  18.958  23.346  1.00  0.00     0.022 A 
ATOM     88  C   UNL A   1      33.670  18.112  25.315  1.00  0.00     0.107 A 
ATOM     89  C   UNL A   1      32.649  17.709  22.730  1.00  0.00     0.008 A 
ATOM     90  C   UNL A   1      33.840  16.885  24.661  1.00  0.00     0.270 A 
ATOM     91  C   UNL A   1      33.324  16.672  23.377  1.00  0.00     0.086 A 
BRANCH  90  92
ATOM     92  N   UNL A   1      34.637  15.838  25.304  1.00  0.00     0.062 N 
ATOM     93  O   UNL A   1      34.149  14.703  25.376  1.00  0.00    -0.258 OA
ATOM     94  O   UNL A   1      35.769  16.152  25.697  1.00  0.00    -0.258 OA
ENDBRANCH  90  92
ENDBRANCH  83  86
ENDBRANCH  80  83
ENDBRANCH  75  78
ENDBRANCH  73  74
ENDBRANCH   1  73
TORSDOF 14
ENDMDL
