MODEL 1
REMARK VINA RESULT:     -12.6      0.000      0.000
REMARK SMILES C[C@@H]1C(=O)NC(=O)CN1C(=O)NC1(CC(=O)NCCCCNC(=O)c2ccc(-c3c4nc(c(-c5c(F)c(F)c(F)c(F)c5F)c5ccc([nH]5)c(-c5c(F)c(F)c(F)c(F)c5F)c5nc(c(-c6c(F)c(F)c(F)c(F)c6F)c6ccc3[nH]6)C=C5)C=C4)cc2)CCC1
REMARK SMILES IDX 19 1 18 2 17 3 15 4 16 5 14 7 13 8 88 9 90 10 89 11 12 12
REMARK SMILES IDX 10 13 11 14 9 16 1 17 2 18 3 19 4 20 5 21 8 22 6 23 7 25
REMARK SMILES IDX 20 26 21 27 22 28 23 29 24 31 25 32 26 33 87 34 27 35 86 36
REMARK SMILES IDX 28 37 29 38 30 39 80 40 31 41 85 42 79 43 81 44 32 45 84 46
REMARK SMILES IDX 78 47 77 48 33 50 65 51 45 52 64 53 46 54 49 55 63 56 82 57
REMARK SMILES IDX 47 58 48 59 62 61 83 62 50 63 34 64 35 65 43 66 36 67 37 68
REMARK SMILES IDX 41 69 44 70 38 71 39 72 42 73 40 74 66 75 67 76 75 77 68 78
REMARK SMILES IDX 69 79 73 80 76 81 70 82 71 83 74 84 72 85 51 86 52 87 60 88
REMARK SMILES IDX 53 89 54 90 58 91 61 92 55 93 56 94 59 95 57 96
REMARK H PARENT 17 6 12 15 5 24 22 30 81 49 49 60
REMARK Flexibility Score: inf
ROOT
ATOM      1  C   UNL A   1      31.901  30.184  26.882  1.00  0.00     0.023 C 
ENDROOT
BRANCH   1   2
ATOM      2  C   UNL A   1      33.216  29.456  26.633  1.00  0.00     0.116 C 
BRANCH   2   3
ATOM      3  N   UNL A   1      33.649  29.680  25.271  1.00  0.00    -0.356 N 
ATOM      4  C   UNL A   1      33.332  28.965  24.158  1.00  0.00     0.222 C 
ATOM      5  O   UNL A   1      33.970  29.164  23.128  1.00  0.00    -0.275 OA
ATOM      6  H   UNL A   1      34.248  30.450  25.132  1.00  0.00     0.163 HD
BRANCH   4   7
ATOM      7  C   UNL A   1      32.139  28.049  24.206  1.00  0.00     0.128 C 
BRANCH   7   8
ATOM      8  C   UNL A   1      31.408  27.756  22.902  1.00  0.00     0.051 C 
ATOM      9  C   UNL A   1      30.557  28.940  22.333  1.00  0.00     0.029 C 
ATOM     10  C   UNL A   1      30.022  27.047  23.139  1.00  0.00     0.029 C 
ATOM     11  C   UNL A   1      29.373  28.441  23.186  1.00  0.00     0.005 C 
BRANCH   8  12
ATOM     12  N   UNL A   1      32.184  27.058  21.858  1.00  0.00    -0.332 N 
ATOM     13  C   UNL A   1      32.700  25.828  21.659  1.00  0.00     0.318 C 
ATOM     14  O   UNL A   1      33.022  25.578  20.492  1.00  0.00    -0.249 OA
ATOM     15  H   UNL A   1      32.378  27.653  21.098  1.00  0.00     0.165 HD
BRANCH  13  16
ATOM     16  N   UNL A   1      32.848  24.900  22.641  1.00  0.00    -0.304 N 
ATOM     17  C   UNL A   1      31.172  24.055  24.286  1.00  0.00     0.042 C 
ATOM     18  C   UNL A   1      31.946  23.800  22.996  1.00  0.00     0.174 C 
ATOM     19  C   UNL A   1      32.744  22.489  23.141  1.00  0.00     0.249 C 
ATOM     20  O   UNL A   1      32.199  21.385  23.138  1.00  0.00    -0.272 OA
ATOM     21  N   UNL A   1      34.089  22.601  23.393  1.00  0.00    -0.293 N 
ATOM     22  C   UNL A   1      34.011  25.062  23.515  1.00  0.00     0.222 C 
ATOM     23  C   UNL A   1      34.793  23.759  23.623  1.00  0.00     0.246 C 
ATOM     24  H   UNL A   1      34.604  21.761  23.410  1.00  0.00     0.173 HD
ATOM     25  O   UNL A   1      35.939  23.703  24.067  1.00  0.00    -0.273 OA
ENDBRANCH  13  16
ENDBRANCH   8  12
ENDBRANCH   7   8
ENDBRANCH   4   7
ENDBRANCH   2   3
ENDBRANCH   1   2
BRANCH   1  26
ATOM     26  C   UNL A   1      31.952  31.666  26.526  1.00  0.00     0.023 C 
BRANCH  26  27
ATOM     27  C   UNL A   1      32.930  32.468  27.368  1.00  0.00     0.116 C 
BRANCH  27  28
ATOM     28  N   UNL A   1      32.479  33.828  27.646  1.00  0.00    -0.352 N 
ATOM     29  C   UNL A   1      33.019  34.732  28.522  1.00  0.00     0.251 C 
ATOM     30  H   UNL A   1      31.689  34.132  27.143  1.00  0.00     0.163 HD
ATOM     31  O   UNL A   1      32.517  35.835  28.700  1.00  0.00    -0.269 OA
BRANCH  29  32
ATOM     32  C   UNL A   1      34.194  34.301  29.286  1.00  0.00     0.039 A 
ATOM     33  C   UNL A   1      33.996  33.467  30.385  1.00  0.00     0.014 A 
ATOM     34  C   UNL A   1      35.473  34.581  28.797  1.00  0.00     0.014 A 
ATOM     35  C   UNL A   1      35.098  32.852  30.966  1.00  0.00     0.010 A 
ATOM     36  C   UNL A   1      36.557  33.897  29.323  1.00  0.00     0.010 A 
ATOM     37  C   UNL A   1      36.378  33.034  30.414  1.00  0.00    -0.014 A 
BRANCH  37  38
ATOM     38  C   UNL A   1      37.545  32.328  30.983  1.00  0.00     0.031 A 
ATOM     39  C   UNL A   1      38.024  32.687  32.358  1.00  0.00     0.074 A 
ATOM     40  C   UNL A   1      38.185  31.403  30.244  1.00  0.00     0.049 A 
ATOM     41  N   UNL A   1      39.023  32.190  33.039  1.00  0.00    -0.248 NA
ATOM     42  C   UNL A   1      37.307  33.772  33.048  1.00  0.00     0.031 C 
ATOM     43  C   UNL A   1      37.847  31.036  28.866  1.00  0.00     0.029 A 
ATOM     44  N   UNL A   1      39.253  30.600  30.549  1.00  0.00    -0.354 N 
ATOM     45  C   UNL A   1      39.061  32.910  34.224  1.00  0.00     0.074 A 
ATOM     46  C   UNL A   1      38.033  33.922  34.145  1.00  0.00     0.031 C 
ATOM     47  C   UNL A   1      38.669  30.055  28.459  1.00  0.00     0.029 A 
ATOM     48  C   UNL A   1      39.603  29.741  29.536  1.00  0.00     0.049 A 
ATOM     49  H   UNL A   1      39.726  30.637  31.411  1.00  0.00     0.167 HD
ATOM     50  C   UNL A   1      39.861  32.719  35.298  1.00  0.00     0.037 A 
ATOM     51  C   UNL A   1      40.564  28.801  29.494  1.00  0.00     0.037 A 
ATOM     52  C   UNL A   1      40.856  31.683  35.379  1.00  0.00     0.049 A 
ATOM     53  C   UNL A   1      41.413  28.583  30.716  1.00  0.00     0.074 A 
ATOM     54  C   UNL A   1      41.672  31.351  36.443  1.00  0.00     0.029 A 
ATOM     55  N   UNL A   1      41.163  30.810  34.345  1.00  0.00    -0.354 N 
ATOM     56  N   UNL A   1      41.382  29.208  31.868  1.00  0.00    -0.248 NA
ATOM     57  C   UNL A   1      42.422  27.517  30.637  1.00  0.00     0.031 C 
ATOM     58  C   UNL A   1      42.502  30.298  36.041  1.00  0.00     0.029 A 
ATOM     59  C   UNL A   1      42.171  29.947  34.742  1.00  0.00     0.049 A 
ATOM     60  H   UNL A   1      40.729  30.803  33.462  1.00  0.00     0.167 HD
ATOM     61  C   UNL A   1      42.351  28.605  32.657  1.00  0.00     0.074 A 
ATOM     62  C   UNL A   1      42.933  27.544  31.860  1.00  0.00     0.031 C 
ATOM     63  C   UNL A   1      42.731  28.902  33.924  1.00  0.00     0.037 A 
BRANCH  50  64
ATOM     64  C   UNL A   1      39.679  33.639  36.468  1.00  0.00     0.064 A 
ATOM     65  C   UNL A   1      38.859  33.291  37.554  1.00  0.00     0.173 A 
ATOM     66  C   UNL A   1      40.338  34.875  36.513  1.00  0.00     0.173 A 
ATOM     67  F   UNL A   1      38.190  32.129  37.550  1.00  0.00    -0.203 F 
ATOM     68  C   UNL A   1      38.686  34.160  38.628  1.00  0.00     0.198 A 
ATOM     69  C   UNL A   1      40.187  35.728  37.602  1.00  0.00     0.198 A 
ATOM     70  F   UNL A   1      41.131  35.256  35.500  1.00  0.00    -0.203 F 
ATOM     71  F   UNL A   1      37.857  33.830  39.628  1.00  0.00    -0.200 F 
ATOM     72  C   UNL A   1      39.355  35.374  38.655  1.00  0.00     0.200 A 
ATOM     73  F   UNL A   1      40.841  36.898  37.632  1.00  0.00    -0.200 F 
ATOM     74  F   UNL A   1      39.191  36.208  39.692  1.00  0.00    -0.200 F 
ENDBRANCH  50  64
BRANCH  51  75
ATOM     75  C   UNL A   1      40.741  27.968  28.276  1.00  0.00     0.064 A 
ATOM     76  C   UNL A   1      40.108  26.724  28.156  1.00  0.00     0.173 A 
ATOM     77  C   UNL A   1      41.549  28.394  27.212  1.00  0.00     0.173 A 
ATOM     78  F   UNL A   1      39.337  26.266  29.154  1.00  0.00    -0.203 F 
ATOM     79  C   UNL A   1      40.294  25.925  27.029  1.00  0.00     0.198 A 
ATOM     80  C   UNL A   1      41.714  27.607  26.074  1.00  0.00     0.198 A 
ATOM     81  F   UNL A   1      42.171  29.581  27.273  1.00  0.00    -0.203 F 
ATOM     82  F   UNL A   1      39.713  24.720  26.961  1.00  0.00    -0.200 F 
ATOM     83  C   UNL A   1      41.094  26.370  25.987  1.00  0.00     0.200 A 
ATOM     84  F   UNL A   1      42.475  28.046  25.062  1.00  0.00    -0.200 F 
ATOM     85  F   UNL A   1      41.271  25.602  24.902  1.00  0.00    -0.200 F 
ENDBRANCH  51  75
BRANCH  63  86
ATOM     86  C   UNL A   1      43.815  28.056  34.522  1.00  0.00     0.064 A 
ATOM     87  C   UNL A   1      43.524  26.847  35.173  1.00  0.00     0.173 A 
ATOM     88  C   UNL A   1      45.158  28.444  34.421  1.00  0.00     0.173 A 
ATOM     89  F   UNL A   1      42.253  26.442  35.309  1.00  0.00    -0.203 F 
ATOM     90  C   UNL A   1      44.539  26.075  35.730  1.00  0.00     0.198 A 
ATOM     91  C   UNL A   1      46.173  27.654  34.951  1.00  0.00     0.198 A 
ATOM     92  F   UNL A   1      45.488  29.588  33.800  1.00  0.00    -0.203 F 
ATOM     93  F   UNL A   1      44.235  24.952  36.395  1.00  0.00    -0.200 F 
ATOM     94  C   UNL A   1      45.862  26.475  35.613  1.00  0.00     0.200 A 
ATOM     95  F   UNL A   1      47.452  28.034  34.826  1.00  0.00    -0.200 F 
ATOM     96  F   UNL A   1      46.838  25.729  36.147  1.00  0.00    -0.200 F 
ENDBRANCH  63  86
ENDBRANCH  37  38
ENDBRANCH  29  32
ENDBRANCH  27  28
ENDBRANCH  26  27
ENDBRANCH   1  26
TORSDOF 14
ENDMDL
MODEL 2
REMARK VINA RESULT:     -12.6      0.550      1.584
REMARK SMILES C[C@@H]1C(=O)NC(=O)CN1C(=O)NC1(CC(=O)NCCCCNC(=O)c2ccc(-c3c4nc(c(-c5c(F)c(F)c(F)c(F)c5F)c5ccc([nH]5)c(-c5c(F)c(F)c(F)c(F)c5F)c5nc(c(-c6c(F)c(F)c(F)c(F)c6F)c6ccc3[nH]6)C=C5)C=C4)cc2)CCC1
REMARK SMILES IDX 19 1 18 2 17 3 15 4 16 5 14 7 13 8 88 9 90 10 89 11 12 12
REMARK SMILES IDX 10 13 11 14 9 16 1 17 2 18 3 19 4 20 5 21 8 22 6 23 7 25
REMARK SMILES IDX 20 26 21 27 22 28 23 29 24 31 25 32 26 33 87 34 27 35 86 36
REMARK SMILES IDX 28 37 29 38 30 39 80 40 31 41 85 42 79 43 81 44 32 45 84 46
REMARK SMILES IDX 78 47 77 48 33 50 65 51 45 52 64 53 46 54 49 55 63 56 82 57
REMARK SMILES IDX 47 58 48 59 62 61 83 62 50 63 34 64 35 65 43 66 36 67 37 68
REMARK SMILES IDX 41 69 44 70 38 71 39 72 42 73 40 74 66 75 67 76 75 77 68 78
REMARK SMILES IDX 69 79 73 80 76 81 70 82 71 83 74 84 72 85 51 86 52 87 60 88
REMARK SMILES IDX 53 89 54 90 58 91 61 92 55 93 56 94 59 95 57 96
REMARK H PARENT 17 6 12 15 5 24 22 30 81 49 49 60
REMARK Flexibility Score: inf
ROOT
ATOM      1  C   UNL A   1      31.925  30.098  26.808  1.00  0.00     0.023 C 
ENDROOT
BRANCH   1   2
ATOM      2  C   UNL A   1      33.301  29.483  26.584  1.00  0.00     0.116 C 
BRANCH   2   3
ATOM      3  N   UNL A   1      33.712  29.689  25.213  1.00  0.00    -0.356 N 
ATOM      4  C   UNL A   1      33.448  28.912  24.128  1.00  0.00     0.222 C 
ATOM      5  O   UNL A   1      34.067  29.121  23.088  1.00  0.00    -0.275 OA
ATOM      6  H   UNL A   1      34.250  30.496  25.043  1.00  0.00     0.163 HD
BRANCH   4   7
ATOM      7  C   UNL A   1      32.329  27.910  24.215  1.00  0.00     0.128 C 
BRANCH   7   8
ATOM      8  C   UNL A   1      31.545  27.599  22.946  1.00  0.00     0.051 C 
ATOM      9  C   UNL A   1      30.679  28.779  22.391  1.00  0.00     0.029 C 
ATOM     10  C   UNL A   1      30.165  26.904  23.250  1.00  0.00     0.029 C 
ATOM     11  C   UNL A   1      29.527  28.303  23.298  1.00  0.00     0.005 C 
BRANCH   8  12
ATOM     12  N   UNL A   1      32.275  26.878  21.885  1.00  0.00    -0.332 N 
ATOM     13  C   UNL A   1      32.818  25.657  21.706  1.00  0.00     0.318 C 
ATOM     14  O   UNL A   1      33.072  25.364  20.532  1.00  0.00    -0.249 OA
ATOM     15  H   UNL A   1      32.399  27.444  21.088  1.00  0.00     0.165 HD
BRANCH  13  16
ATOM     16  N   UNL A   1      33.060  24.780  22.716  1.00  0.00    -0.304 N 
ATOM     17  C   UNL A   1      35.060  23.344  23.121  1.00  0.00     0.042 C 
ATOM     18  C   UNL A   1      34.290  24.607  23.494  1.00  0.00     0.174 C 
ATOM     19  C   UNL A   1      33.961  24.566  24.999  1.00  0.00     0.249 C 
ATOM     20  O   UNL A   1      34.822  24.726  25.864  1.00  0.00    -0.272 OA
ATOM     21  N   UNL A   1      32.678  24.224  25.350  1.00  0.00    -0.293 N 
ATOM     22  C   UNL A   1      31.990  23.827  23.016  1.00  0.00     0.222 C 
ATOM     23  C   UNL A   1      31.670  23.823  24.505  1.00  0.00     0.246 C 
ATOM     24  H   UNL A   1      32.457  24.273  26.308  1.00  0.00     0.173 HD
ATOM     25  O   UNL A   1      30.645  23.323  24.966  1.00  0.00    -0.273 OA
ENDBRANCH  13  16
ENDBRANCH   8  12
ENDBRANCH   7   8
ENDBRANCH   4   7
ENDBRANCH   2   3
ENDBRANCH   1   2
BRANCH   1  26
ATOM     26  C   UNL A   1      31.884  31.599  26.547  1.00  0.00     0.023 C 
BRANCH  26  27
ATOM     27  C   UNL A   1      32.865  32.398  27.388  1.00  0.00     0.116 C 
BRANCH  27  28
ATOM     28  N   UNL A   1      32.445  33.776  27.621  1.00  0.00    -0.352 N 
ATOM     29  C   UNL A   1      33.010  34.699  28.461  1.00  0.00     0.251 C 
ATOM     30  H   UNL A   1      31.658  34.079  27.112  1.00  0.00     0.163 HD
ATOM     31  O   UNL A   1      32.533  35.818  28.602  1.00  0.00    -0.269 OA
BRANCH  29  32
ATOM     32  C   UNL A   1      34.181  34.270  29.231  1.00  0.00     0.039 A 
ATOM     33  C   UNL A   1      33.979  33.432  30.327  1.00  0.00     0.014 A 
ATOM     34  C   UNL A   1      35.463  34.555  28.752  1.00  0.00     0.014 A 
ATOM     35  C   UNL A   1      35.080  32.820  30.914  1.00  0.00     0.010 A 
ATOM     36  C   UNL A   1      36.546  33.875  29.283  1.00  0.00     0.010 A 
ATOM     37  C   UNL A   1      36.363  33.007  30.370  1.00  0.00    -0.014 A 
BRANCH  37  38
ATOM     38  C   UNL A   1      37.528  32.304  30.946  1.00  0.00     0.031 A 
ATOM     39  C   UNL A   1      37.997  32.661  32.325  1.00  0.00     0.074 A 
ATOM     40  C   UNL A   1      38.177  31.384  30.208  1.00  0.00     0.049 A 
ATOM     41  N   UNL A   1      38.994  32.167  33.011  1.00  0.00    -0.248 NA
ATOM     42  C   UNL A   1      37.272  33.742  33.013  1.00  0.00     0.031 C 
ATOM     43  C   UNL A   1      37.850  31.019  28.827  1.00  0.00     0.029 A 
ATOM     44  N   UNL A   1      39.246  30.585  30.518  1.00  0.00    -0.354 N 
ATOM     45  C   UNL A   1      39.020  32.883  34.199  1.00  0.00     0.074 A 
ATOM     46  C   UNL A   1      37.989  33.891  34.115  1.00  0.00     0.031 C 
ATOM     47  C   UNL A   1      38.678  30.043  28.423  1.00  0.00     0.029 A 
ATOM     48  C   UNL A   1      39.606  29.730  29.505  1.00  0.00     0.049 A 
ATOM     49  H   UNL A   1      39.713  30.620  31.384  1.00  0.00     0.167 HD
ATOM     50  C   UNL A   1      39.814  32.692  35.277  1.00  0.00     0.037 A 
ATOM     51  C   UNL A   1      40.571  28.793  29.467  1.00  0.00     0.037 A 
ATOM     52  C   UNL A   1      40.812  31.660  35.362  1.00  0.00     0.049 A 
ATOM     53  C   UNL A   1      41.412  28.574  30.694  1.00  0.00     0.074 A 
ATOM     54  C   UNL A   1      41.623  31.327  36.431  1.00  0.00     0.029 A 
ATOM     55  N   UNL A   1      41.129  30.790  34.328  1.00  0.00    -0.354 N 
ATOM     56  N   UNL A   1      41.372  29.197  31.848  1.00  0.00    -0.248 NA
ATOM     57  C   UNL A   1      42.426  27.513  30.619  1.00  0.00     0.031 C 
ATOM     58  C   UNL A   1      42.458  30.279  36.032  1.00  0.00     0.029 A 
ATOM     59  C   UNL A   1      42.138  29.930  34.729  1.00  0.00     0.049 A 
ATOM     60  H   UNL A   1      40.701  30.785  33.442  1.00  0.00     0.167 HD
ATOM     61  C   UNL A   1      42.337  28.595  32.641  1.00  0.00     0.074 A 
ATOM     62  C   UNL A   1      42.929  27.538  31.845  1.00  0.00     0.031 C 
ATOM     63  C   UNL A   1      42.708  28.889  33.912  1.00  0.00     0.037 A 
BRANCH  50  64
ATOM     64  C   UNL A   1      39.620  33.608  36.449  1.00  0.00     0.064 A 
ATOM     65  C   UNL A   1      38.795  33.254  37.528  1.00  0.00     0.173 A 
ATOM     66  C   UNL A   1      40.274  34.846  36.501  1.00  0.00     0.173 A 
ATOM     67  F   UNL A   1      38.131  32.089  37.517  1.00  0.00    -0.203 F 
ATOM     68  C   UNL A   1      38.611  34.119  38.603  1.00  0.00     0.198 A 
ATOM     69  C   UNL A   1      40.112  35.696  37.592  1.00  0.00     0.198 A 
ATOM     70  F   UNL A   1      41.072  35.234  35.495  1.00  0.00    -0.203 F 
ATOM     71  F   UNL A   1      37.778  33.782  39.597  1.00  0.00    -0.200 F 
ATOM     72  C   UNL A   1      39.275  35.336  38.638  1.00  0.00     0.200 A 
ATOM     73  F   UNL A   1      40.761  36.869  37.628  1.00  0.00    -0.200 F 
ATOM     74  F   UNL A   1      39.101  36.166  39.676  1.00  0.00    -0.200 F 
ENDBRANCH  50  64
BRANCH  51  75
ATOM     75  C   UNL A   1      40.760  27.964  28.248  1.00  0.00     0.064 A 
ATOM     76  C   UNL A   1      40.139  26.714  28.123  1.00  0.00     0.173 A 
ATOM     77  C   UNL A   1      41.566  28.400  27.187  1.00  0.00     0.173 A 
ATOM     78  F   UNL A   1      39.370  26.247  29.119  1.00  0.00    -0.203 F 
ATOM     79  C   UNL A   1      40.336  25.919  26.996  1.00  0.00     0.198 A 
ATOM     80  C   UNL A   1      41.741  27.617  26.048  1.00  0.00     0.198 A 
ATOM     81  F   UNL A   1      42.176  29.593  27.252  1.00  0.00    -0.203 F 
ATOM     82  F   UNL A   1      39.767  24.709  26.924  1.00  0.00    -0.200 F 
ATOM     83  C   UNL A   1      41.134  26.374  25.957  1.00  0.00     0.200 A 
ATOM     84  F   UNL A   1      42.501  28.065  25.039  1.00  0.00    -0.200 F 
ATOM     85  F   UNL A   1      41.322  25.610  24.871  1.00  0.00    -0.200 F 
ENDBRANCH  51  75
BRANCH  63  86
ATOM     86  C   UNL A   1      43.791  28.046  34.515  1.00  0.00     0.064 A 
ATOM     87  C   UNL A   1      45.137  28.441  34.469  1.00  0.00     0.173 A 
ATOM     88  C   UNL A   1      43.477  26.846  35.169  1.00  0.00     0.173 A 
ATOM     89  F   UNL A   1      45.486  29.574  33.841  1.00  0.00    -0.203 F 
ATOM     90  C   UNL A   1      46.133  27.646  35.028  1.00  0.00     0.198 A 
ATOM     91  C   UNL A   1      44.473  26.070  35.754  1.00  0.00     0.198 A 
ATOM     92  F   UNL A   1      42.204  26.430  35.246  1.00  0.00    -0.203 F 
ATOM     93  F   UNL A   1      47.417  28.015  34.925  1.00  0.00    -0.200 F 
ATOM     94  C   UNL A   1      45.800  26.465  35.675  1.00  0.00     0.200 A 
ATOM     95  F   UNL A   1      44.149  24.936  36.390  1.00  0.00    -0.200 F 
ATOM     96  F   UNL A   1      46.760  25.703  36.215  1.00  0.00    -0.200 F 
ENDBRANCH  63  86
ENDBRANCH  37  38
ENDBRANCH  29  32
ENDBRANCH  27  28
ENDBRANCH  26  27
ENDBRANCH   1  26
TORSDOF 14
ENDMDL
MODEL 3
REMARK VINA RESULT:     -12.5      5.594      9.988
REMARK SMILES C[C@@H]1C(=O)NC(=O)CN1C(=O)NC1(CC(=O)NCCCCNC(=O)c2ccc(-c3c4nc(c(-c5c(F)c(F)c(F)c(F)c5F)c5ccc([nH]5)c(-c5c(F)c(F)c(F)c(F)c5F)c5nc(c(-c6c(F)c(F)c(F)c(F)c6F)c6ccc3[nH]6)C=C5)C=C4)cc2)CCC1
REMARK SMILES IDX 19 1 18 2 17 3 15 4 16 5 14 7 13 8 88 9 90 10 89 11 12 12
REMARK SMILES IDX 10 13 11 14 9 16 1 17 2 18 3 19 4 20 5 21 8 22 6 23 7 25
REMARK SMILES IDX 20 26 21 27 22 28 23 29 24 31 25 32 26 33 87 34 27 35 86 36
REMARK SMILES IDX 28 37 29 38 30 39 80 40 31 41 85 42 79 43 81 44 32 45 84 46
REMARK SMILES IDX 78 47 77 48 33 50 65 51 45 52 64 53 46 54 49 55 63 56 82 57
REMARK SMILES IDX 47 58 48 59 62 61 83 62 50 63 34 64 35 65 43 66 36 67 37 68
REMARK SMILES IDX 41 69 44 70 38 71 39 72 42 73 40 74 66 75 67 76 75 77 68 78
REMARK SMILES IDX 69 79 73 80 76 81 70 82 71 83 74 84 72 85 51 86 52 87 60 88
REMARK SMILES IDX 53 89 54 90 58 91 61 92 55 93 56 94 59 95 57 96
REMARK H PARENT 17 6 12 15 5 24 22 30 81 49 49 60
REMARK Flexibility Score: inf
ROOT
ATOM      1  C   UNL A   1      38.357  22.391  25.726  1.00  0.00     0.023 C 
ENDROOT
BRANCH   1   2
ATOM      2  C   UNL A   1      36.885  22.487  25.342  1.00  0.00     0.116 C 
BRANCH   2   3
ATOM      3  N   UNL A   1      36.061  22.059  26.450  1.00  0.00    -0.356 N 
ATOM      4  C   UNL A   1      34.815  21.513  26.413  1.00  0.00     0.222 C 
ATOM      5  O   UNL A   1      34.180  21.422  27.460  1.00  0.00    -0.275 OA
ATOM      6  H   UNL A   1      36.452  22.176  27.347  1.00  0.00     0.163 HD
BRANCH   4   7
ATOM      7  C   UNL A   1      34.320  20.937  25.114  1.00  0.00     0.128 C 
BRANCH   7   8
ATOM      8  C   UNL A   1      32.926  20.323  25.087  1.00  0.00     0.051 C 
ATOM      9  C   UNL A   1      32.861  18.799  25.435  1.00  0.00     0.029 C 
ATOM     10  C   UNL A   1      32.497  19.876  23.640  1.00  0.00     0.029 C 
ATOM     11  C   UNL A   1      33.097  18.492  23.943  1.00  0.00     0.005 C 
BRANCH   8  12
ATOM     12  N   UNL A   1      31.854  21.103  25.736  1.00  0.00    -0.332 N 
ATOM     13  C   UNL A   1      31.327  22.341  25.640  1.00  0.00     0.318 C 
ATOM     14  O   UNL A   1      30.221  22.482  26.172  1.00  0.00    -0.249 OA
ATOM     15  H   UNL A   1      31.397  20.575  26.430  1.00  0.00     0.165 HD
BRANCH  13  16
ATOM     16  N   UNL A   1      31.931  23.372  24.992  1.00  0.00    -0.304 N 
ATOM     17  C   UNL A   1      31.837  25.818  25.477  1.00  0.00     0.042 C 
ATOM     18  C   UNL A   1      32.634  24.522  25.570  1.00  0.00     0.174 C 
ATOM     19  C   UNL A   1      33.992  24.717  24.867  1.00  0.00     0.249 C 
ATOM     20  O   UNL A   1      34.888  25.409  25.350  1.00  0.00    -0.272 OA
ATOM     21  N   UNL A   1      34.128  24.181  23.610  1.00  0.00    -0.293 N 
ATOM     22  C   UNL A   1      31.794  23.391  23.535  1.00  0.00     0.222 C 
ATOM     23  C   UNL A   1      33.151  23.563  22.865  1.00  0.00     0.246 C 
ATOM     24  H   UNL A   1      35.021  24.246  23.199  1.00  0.00     0.173 HD
ATOM     25  O   UNL A   1      33.340  23.339  21.670  1.00  0.00    -0.273 OA
ENDBRANCH  13  16
ENDBRANCH   8  12
ENDBRANCH   7   8
ENDBRANCH   4   7
ENDBRANCH   2   3
ENDBRANCH   1   2
BRANCH   1  26
ATOM     26  C   UNL A   1      38.976  21.034  25.413  1.00  0.00     0.023 C 
BRANCH  26  27
ATOM     27  C   UNL A   1      39.688  20.395  26.595  1.00  0.00     0.116 C 
BRANCH  27  28
ATOM     28  N   UNL A   1      40.535  19.266  26.222  1.00  0.00    -0.352 N 
ATOM     29  C   UNL A   1      41.897  19.244  26.084  1.00  0.00     0.251 C 
ATOM     30  H   UNL A   1      40.069  18.416  26.046  1.00  0.00     0.163 HD
ATOM     31  O   UNL A   1      42.492  18.237  25.719  1.00  0.00    -0.269 OA
BRANCH  29  32
ATOM     32  C   UNL A   1      42.613  20.499  26.337  1.00  0.00     0.039 A 
ATOM     33  C   UNL A   1      43.051  21.240  25.241  1.00  0.00     0.014 A 
ATOM     34  C   UNL A   1      42.678  21.004  27.638  1.00  0.00     0.014 A 
ATOM     35  C   UNL A   1      43.506  22.537  25.447  1.00  0.00     0.010 A 
ATOM     36  C   UNL A   1      43.047  22.326  27.829  1.00  0.00     0.010 A 
ATOM     37  C   UNL A   1      43.468  23.098  26.736  1.00  0.00    -0.014 A 
BRANCH  37  38
ATOM     38  C   UNL A   1      43.884  24.500  26.952  1.00  0.00     0.031 A 
ATOM     39  C   UNL A   1      42.878  25.500  27.439  1.00  0.00     0.074 A 
ATOM     40  C   UNL A   1      45.147  24.868  26.668  1.00  0.00     0.049 A 
ATOM     41  N   UNL A   1      43.036  26.773  27.692  1.00  0.00    -0.248 NA
ATOM     42  C   UNL A   1      41.501  25.015  27.636  1.00  0.00     0.031 C 
ATOM     43  C   UNL A   1      46.182  23.991  26.115  1.00  0.00     0.029 A 
ATOM     44  N   UNL A   1      45.777  26.077  26.809  1.00  0.00    -0.354 N 
ATOM     45  C   UNL A   1      41.782  27.237  28.063  1.00  0.00     0.074 A 
ATOM     46  C   UNL A   1      40.860  26.132  27.937  1.00  0.00     0.031 C 
ATOM     47  C   UNL A   1      47.327  24.681  25.998  1.00  0.00     0.029 A 
ATOM     48  C   UNL A   1      47.101  26.053  26.445  1.00  0.00     0.049 A 
ATOM     49  H   UNL A   1      45.324  26.886  27.138  1.00  0.00     0.167 HD
ATOM     50  C   UNL A   1      41.440  28.470  28.504  1.00  0.00     0.037 A 
ATOM     51  C   UNL A   1      48.026  27.029  26.483  1.00  0.00     0.037 A 
ATOM     52  C   UNL A   1      42.376  29.550  28.662  1.00  0.00     0.049 A 
ATOM     53  C   UNL A   1      47.627  28.378  27.015  1.00  0.00     0.074 A 
ATOM     54  C   UNL A   1      42.155  30.817  29.168  1.00  0.00     0.029 A 
ATOM     55  N   UNL A   1      43.717  29.482  28.313  1.00  0.00    -0.354 N 
ATOM     56  N   UNL A   1      46.459  28.785  27.449  1.00  0.00    -0.248 NA
ATOM     57  C   UNL A   1      48.680  29.401  27.075  1.00  0.00     0.031 C 
ATOM     58  C   UNL A   1      43.356  31.530  29.091  1.00  0.00     0.029 A 
ATOM     59  C   UNL A   1      44.334  30.693  28.578  1.00  0.00     0.049 A 
ATOM     60  H   UNL A   1      44.163  28.691  27.934  1.00  0.00     0.167 HD
ATOM     61  C   UNL A   1      46.637  30.101  27.850  1.00  0.00     0.074 A 
ATOM     62  C   UNL A   1      48.034  30.416  27.632  1.00  0.00     0.031 C 
ATOM     63  C   UNL A   1      45.729  30.976  28.348  1.00  0.00     0.037 A 
BRANCH  50  64
ATOM     64  C   UNL A   1      40.001  28.702  28.858  1.00  0.00     0.064 A 
ATOM     65  C   UNL A   1      39.515  28.454  30.152  1.00  0.00     0.173 A 
ATOM     66  C   UNL A   1      39.101  29.188  27.900  1.00  0.00     0.173 A 
ATOM     67  F   UNL A   1      40.331  27.969  31.099  1.00  0.00    -0.203 F 
ATOM     68  C   UNL A   1      38.174  28.659  30.464  1.00  0.00     0.198 A 
ATOM     69  C   UNL A   1      37.767  29.420  28.224  1.00  0.00     0.198 A 
ATOM     70  F   UNL A   1      39.514  29.438  26.649  1.00  0.00    -0.203 F 
ATOM     71  F   UNL A   1      37.721  28.367  31.691  1.00  0.00    -0.200 F 
ATOM     72  C   UNL A   1      37.303  29.149  29.503  1.00  0.00     0.200 A 
ATOM     73  F   UNL A   1      36.928  29.902  27.297  1.00  0.00    -0.200 F 
ATOM     74  F   UNL A   1      36.013  29.351  29.807  1.00  0.00    -0.200 F 
ENDBRANCH  50  64
BRANCH  51  75
ATOM     75  C   UNL A   1      49.420  26.755  26.050  1.00  0.00     0.064 A 
ATOM     76  C   UNL A   1      49.835  27.030  24.740  1.00  0.00     0.173 A 
ATOM     77  C   UNL A   1      50.364  26.209  26.932  1.00  0.00     0.173 A 
ATOM     78  F   UNL A   1      48.964  27.537  23.855  1.00  0.00    -0.203 F 
ATOM     79  C   UNL A   1      51.133  26.747  24.319  1.00  0.00     0.198 A 
ATOM     80  C   UNL A   1      51.670  25.952  26.518  1.00  0.00     0.198 A 
ATOM     81  F   UNL A   1      50.022  25.937  28.199  1.00  0.00    -0.203 F 
ATOM     82  F   UNL A   1      51.489  26.977  23.048  1.00  0.00    -0.200 F 
ATOM     83  C   UNL A   1      52.051  26.212  25.211  1.00  0.00     0.200 A 
ATOM     84  F   UNL A   1      52.559  25.449  27.386  1.00  0.00    -0.200 F 
ATOM     85  F   UNL A   1      53.301  25.943  24.807  1.00  0.00    -0.200 F 
ENDBRANCH  51  75
BRANCH  63  86
ATOM     86  C   UNL A   1      46.228  32.345  28.702  1.00  0.00     0.064 A 
ATOM     87  C   UNL A   1      46.210  33.393  27.770  1.00  0.00     0.173 A 
ATOM     88  C   UNL A   1      46.703  32.617  29.993  1.00  0.00     0.173 A 
ATOM     89  F   UNL A   1      45.778  33.177  26.518  1.00  0.00    -0.203 F 
ATOM     90  C   UNL A   1      46.682  34.658  28.110  1.00  0.00     0.198 A 
ATOM     91  C   UNL A   1      47.144  33.890  30.338  1.00  0.00     0.198 A 
ATOM     92  F   UNL A   1      46.732  31.649  30.922  1.00  0.00    -0.203 F 
ATOM     93  F   UNL A   1      46.706  35.631  27.188  1.00  0.00    -0.200 F 
ATOM     94  C   UNL A   1      47.143  34.906  29.394  1.00  0.00     0.200 A 
ATOM     95  F   UNL A   1      47.577  34.133  31.583  1.00  0.00    -0.200 F 
ATOM     96  F   UNL A   1      47.593  36.125  29.721  1.00  0.00    -0.200 F 
ENDBRANCH  63  86
ENDBRANCH  37  38
ENDBRANCH  29  32
ENDBRANCH  27  28
ENDBRANCH  26  27
ENDBRANCH   1  26
TORSDOF 14
ENDMDL
