MODEL 1
REMARK VINA RESULT:     -13.0      0.000      0.000
REMARK SMILES Cc1nc2cc(C(=O)NCCCCNC(=O)c3ccc(-c4c5nc(c(-c6c(F)c(F)c(F)c(F)c6F)c6ccc([nH]6)c(-c6c(F)c(F)c(F)c(F)c6F)c6nc(c(-c7c(F)c(F)c(F)c(F)c7F)c7ccc4[nH]7)C=C6)C=C5)cc3)ccc2n1CCC[NH+]1CCOCC1
REMARK SMILES IDX 10 1 9 2 7 3 8 4 6 6 1 7 2 8 3 9 83 10 4 11 82 12 5 13 81 14
REMARK SMILES IDX 80 15 84 16 85 17 86 18 87 19 88 20 92 21 89 23 91 24 90 25
REMARK SMILES IDX 11 26 12 27 13 28 14 29 15 30 16 32 17 33 18 34 79 35 19 36
REMARK SMILES IDX 78 37 20 38 21 39 22 40 72 41 23 42 77 43 71 44 73 45 24 46
REMARK SMILES IDX 76 47 70 48 69 49 25 51 57 52 37 53 56 54 38 55 41 56 55 57
REMARK SMILES IDX 74 58 39 59 40 60 54 62 75 63 42 64 26 65 27 66 35 67 28 68
REMARK SMILES IDX 29 69 33 70 36 71 30 72 31 73 34 74 32 75 58 76 59 77 67 78
REMARK SMILES IDX 60 79 61 80 65 81 68 82 62 83 63 84 66 85 64 86 43 87 44 88
REMARK SMILES IDX 52 89 45 90 46 91 50 92 53 93 47 94 48 95 51 96 49 97
REMARK H PARENT 9 5 87 22 14 31 73 50 41 61
REMARK Flexibility Score: inf
ROOT
ATOM      1  C   UNL A   1      34.872  21.257  24.735  1.00  0.00     0.116 C 
ENDROOT
BRANCH   1   2
ATOM      2  N   UNL A   1      34.494  21.416  26.125  1.00  0.00    -0.352 N 
ATOM      3  C   UNL A   1      33.775  22.383  26.783  1.00  0.00     0.251 C 
ATOM      4  O   UNL A   1      33.600  22.245  27.986  1.00  0.00    -0.269 OA
ATOM      5  H   UNL A   1      34.815  20.691  26.709  1.00  0.00     0.163 HD
BRANCH   3   6
ATOM      6  C   UNL A   1      33.154  23.537  26.076  1.00  0.00     0.042 A 
ATOM      7  C   UNL A   1      33.493  28.744  23.282  1.00  0.00     0.088 C 
ATOM      8  C   UNL A   1      33.146  27.624  24.181  1.00  0.00     0.106 A 
ATOM      9  N   UNL A   1      34.069  26.914  24.803  1.00  0.00    -0.233 NA
ATOM     10  N   UNL A   1      31.896  27.091  24.397  1.00  0.00    -0.328 N 
ATOM     11  C   UNL A   1      33.452  25.772  25.214  1.00  0.00     0.090 A 
ATOM     12  C   UNL A   1      32.105  25.806  24.889  1.00  0.00     0.068 A 
ATOM     13  C   UNL A   1      33.988  24.642  25.840  1.00  0.00     0.044 A 
ATOM     14  C   UNL A   1      31.263  24.702  25.061  1.00  0.00     0.029 A 
ATOM     15  C   UNL A   1      31.833  23.552  25.618  1.00  0.00     0.016 A 
BRANCH  10  16
ATOM     16  C   UNL A   1      30.556  27.570  24.126  1.00  0.00     0.130 C 
BRANCH  16  17
ATOM     17  C   UNL A   1      30.097  28.130  22.782  1.00  0.00     0.083 C 
BRANCH  17  18
ATOM     18  C   UNL A   1      30.063  29.644  22.524  1.00  0.00     0.264 C 
BRANCH  18  19
ATOM     19  N   UNL A   1      28.832  30.406  22.539  1.00  0.00    -0.331 N 
ATOM     20  C   UNL A   1      28.047  30.575  21.325  1.00  0.00     0.291 C 
ATOM     21  C   UNL A   1      28.691  31.520  23.468  1.00  0.00     0.291 C 
ATOM     22  H   UNL A   1      28.362  29.624  22.994  1.00  0.00     0.348 HD
ATOM     23  C   UNL A   1      28.150  31.978  20.709  1.00  0.00     0.221 C 
ATOM     24  C   UNL A   1      28.832  32.895  22.806  1.00  0.00     0.221 C 
ATOM     25  O   UNL A   1      27.969  33.026  21.669  1.00  0.00    -0.370 OA
ENDBRANCH  18  19
ENDBRANCH  17  18
ENDBRANCH  16  17
ENDBRANCH  10  16
ENDBRANCH   3   6
ENDBRANCH   1   2
BRANCH   1  26
ATOM     26  C   UNL A   1      36.165  22.025  24.449  1.00  0.00     0.023 C 
BRANCH  26  27
ATOM     27  C   UNL A   1      37.426  21.349  25.012  1.00  0.00     0.023 C 
BRANCH  27  28
ATOM     28  C   UNL A   1      38.228  22.231  25.975  1.00  0.00     0.116 C 
BRANCH  28  29
ATOM     29  N   UNL A   1      39.641  21.906  25.966  1.00  0.00    -0.352 N 
ATOM     30  C   UNL A   1      40.782  22.531  26.383  1.00  0.00     0.251 C 
ATOM     31  H   UNL A   1      39.822  21.025  25.564  1.00  0.00     0.163 HD
ATOM     32  O   UNL A   1      41.833  21.910  26.205  1.00  0.00    -0.269 OA
BRANCH  30  33
ATOM     33  C   UNL A   1      40.850  23.876  27.022  1.00  0.00     0.039 A 
ATOM     34  C   UNL A   1      41.608  24.203  28.143  1.00  0.00     0.014 A 
ATOM     35  C   UNL A   1      40.047  24.882  26.446  1.00  0.00     0.014 A 
ATOM     36  C   UNL A   1      41.568  25.491  28.672  1.00  0.00     0.010 A 
ATOM     37  C   UNL A   1      40.001  26.175  26.973  1.00  0.00     0.010 A 
ATOM     38  C   UNL A   1      40.755  26.478  28.101  1.00  0.00    -0.014 A 
BRANCH  38  39
ATOM     39  C   UNL A   1      40.802  27.808  28.711  1.00  0.00     0.031 A 
ATOM     40  C   UNL A   1      41.960  28.664  28.323  1.00  0.00     0.074 A 
ATOM     41  C   UNL A   1      39.884  28.315  29.557  1.00  0.00     0.049 A 
ATOM     42  N   UNL A   1      42.927  29.079  29.077  1.00  0.00    -0.248 NA
ATOM     43  C   UNL A   1      42.082  29.061  26.914  1.00  0.00     0.031 C 
ATOM     44  C   UNL A   1      38.550  27.806  29.869  1.00  0.00     0.029 A 
ATOM     45  N   UNL A   1      39.960  29.471  30.285  1.00  0.00    -0.354 N 
ATOM     46  C   UNL A   1      43.714  29.906  28.279  1.00  0.00     0.074 A 
ATOM     47  C   UNL A   1      43.197  29.793  26.939  1.00  0.00     0.031 C 
ATOM     48  C   UNL A   1      37.870  28.741  30.571  1.00  0.00     0.029 A 
ATOM     49  C   UNL A   1      38.769  29.840  30.884  1.00  0.00     0.049 A 
ATOM     50  H   UNL A   1      40.790  29.995  30.375  1.00  0.00     0.167 HD
ATOM     51  C   UNL A   1      44.634  30.754  28.816  1.00  0.00     0.037 A 
ATOM     52  C   UNL A   1      38.526  30.984  31.564  1.00  0.00     0.037 A 
ATOM     53  C   UNL A   1      44.956  30.406  30.173  1.00  0.00     0.049 A 
ATOM     54  C   UNL A   1      39.816  31.508  32.068  1.00  0.00     0.074 A 
ATOM     55  C   UNL A   1      45.586  29.354  30.802  1.00  0.00     0.029 A 
ATOM     56  N   UNL A   1      44.349  31.137  31.159  1.00  0.00    -0.354 N 
ATOM     57  N   UNL A   1      40.523  30.945  33.007  1.00  0.00    -0.248 NA
ATOM     58  C   UNL A   1      40.490  32.569  31.332  1.00  0.00     0.031 C 
ATOM     59  C   UNL A   1      45.004  29.282  32.102  1.00  0.00     0.029 A 
ATOM     60  C   UNL A   1      44.050  30.296  32.196  1.00  0.00     0.049 A 
ATOM     61  H   UNL A   1      44.159  32.102  31.126  1.00  0.00     0.167 HD
ATOM     62  C   UNL A   1      41.831  31.281  32.707  1.00  0.00     0.074 A 
ATOM     63  C   UNL A   1      41.732  32.408  31.793  1.00  0.00     0.031 C 
ATOM     64  C   UNL A   1      42.854  30.427  32.995  1.00  0.00     0.037 A 
BRANCH  51  65
ATOM     65  C   UNL A   1      45.000  32.108  28.254  1.00  0.00     0.064 A 
ATOM     66  C   UNL A   1      44.017  33.120  28.193  1.00  0.00     0.173 A 
ATOM     67  C   UNL A   1      46.159  32.339  27.485  1.00  0.00     0.173 A 
ATOM     68  F   UNL A   1      42.865  32.997  28.869  1.00  0.00    -0.203 F 
ATOM     69  C   UNL A   1      44.152  34.235  27.360  1.00  0.00     0.198 A 
ATOM     70  C   UNL A   1      46.313  33.478  26.695  1.00  0.00     0.198 A 
ATOM     71  F   UNL A   1      47.130  31.423  27.379  1.00  0.00    -0.203 F 
ATOM     72  F   UNL A   1      43.138  35.102  27.237  1.00  0.00    -0.200 F 
ATOM     73  C   UNL A   1      45.297  34.409  26.606  1.00  0.00     0.200 A 
ATOM     74  F   UNL A   1      47.421  33.622  25.954  1.00  0.00    -0.200 F 
ATOM     75  F   UNL A   1      45.403  35.441  25.758  1.00  0.00    -0.200 F 
ENDBRANCH  51  65
BRANCH  52  76
ATOM     76  C   UNL A   1      37.276  31.773  31.630  1.00  0.00     0.064 A 
ATOM     77  C   UNL A   1      36.647  32.033  32.858  1.00  0.00     0.173 A 
ATOM     78  C   UNL A   1      36.838  32.531  30.527  1.00  0.00     0.173 A 
ATOM     79  F   UNL A   1      37.030  31.381  33.966  1.00  0.00    -0.203 F 
ATOM     80  C   UNL A   1      35.667  33.022  32.985  1.00  0.00     0.198 A 
ATOM     81  C   UNL A   1      35.853  33.511  30.652  1.00  0.00     0.198 A 
ATOM     82  F   UNL A   1      37.427  32.406  29.329  1.00  0.00    -0.203 F 
ATOM     83  F   UNL A   1      35.143  33.293  34.188  1.00  0.00    -0.200 F 
ATOM     84  C   UNL A   1      35.281  33.769  31.884  1.00  0.00     0.200 A 
ATOM     85  F   UNL A   1      35.513  34.250  29.587  1.00  0.00    -0.200 F 
ATOM     86  F   UNL A   1      34.394  34.763  32.019  1.00  0.00    -0.200 F 
ENDBRANCH  52  76
BRANCH  64  87
ATOM     87  C   UNL A   1      42.606  29.374  34.032  1.00  0.00     0.064 A 
ATOM     88  C   UNL A   1      41.906  28.181  33.793  1.00  0.00     0.173 A 
ATOM     89  C   UNL A   1      43.212  29.533  35.287  1.00  0.00     0.173 A 
ATOM     90  F   UNL A   1      41.383  27.918  32.587  1.00  0.00    -0.203 F 
ATOM     91  C   UNL A   1      41.782  27.211  34.785  1.00  0.00     0.198 A 
ATOM     92  C   UNL A   1      43.118  28.545  36.263  1.00  0.00     0.198 A 
ATOM     93  F   UNL A   1      43.938  30.631  35.549  1.00  0.00    -0.203 F 
ATOM     94  F   UNL A   1      41.095  26.085  34.542  1.00  0.00    -0.200 F 
ATOM     95  C   UNL A   1      42.394  27.391  36.015  1.00  0.00     0.200 A 
ATOM     96  F   UNL A   1      43.753  28.703  37.433  1.00  0.00    -0.200 F 
ATOM     97  F   UNL A   1      42.309  26.438  36.955  1.00  0.00    -0.200 F 
ENDBRANCH  64  87
ENDBRANCH  38  39
ENDBRANCH  30  33
ENDBRANCH  28  29
ENDBRANCH  27  28
ENDBRANCH  26  27
ENDBRANCH   1  26
TORSDOF 15
ENDMDL
MODEL 2
REMARK VINA RESULT:     -13.0      1.251      2.109
REMARK SMILES Cc1nc2cc(C(=O)NCCCCNC(=O)c3ccc(-c4c5nc(c(-c6c(F)c(F)c(F)c(F)c6F)c6ccc([nH]6)c(-c6c(F)c(F)c(F)c(F)c6F)c6nc(c(-c7c(F)c(F)c(F)c(F)c7F)c7ccc4[nH]7)C=C6)C=C5)cc3)ccc2n1CCC[NH+]1CCOCC1
REMARK SMILES IDX 10 1 9 2 7 3 8 4 6 6 1 7 2 8 3 9 83 10 4 11 82 12 5 13 81 14
REMARK SMILES IDX 80 15 84 16 85 17 86 18 87 19 88 20 92 21 89 23 91 24 90 25
REMARK SMILES IDX 11 26 12 27 13 28 14 29 15 30 16 32 17 33 18 34 79 35 19 36
REMARK SMILES IDX 78 37 20 38 21 39 22 40 72 41 23 42 77 43 71 44 73 45 24 46
REMARK SMILES IDX 76 47 70 48 69 49 25 51 57 52 37 53 56 54 38 55 41 56 55 57
REMARK SMILES IDX 74 58 39 59 40 60 54 62 75 63 42 64 26 65 27 66 35 67 28 68
REMARK SMILES IDX 29 69 33 70 36 71 30 72 31 73 34 74 32 75 58 76 59 77 67 78
REMARK SMILES IDX 60 79 61 80 65 81 68 82 62 83 63 84 66 85 64 86 43 87 44 88
REMARK SMILES IDX 52 89 45 90 46 91 50 92 53 93 47 94 48 95 51 96 49 97
REMARK H PARENT 9 5 87 22 14 31 73 50 41 61
REMARK Flexibility Score: inf
ROOT
ATOM      1  C   UNL A   1      35.590  21.597  25.549  1.00  0.00     0.116 C 
ENDROOT
BRANCH   1   2
ATOM      2  N   UNL A   1      34.392  21.059  24.937  1.00  0.00    -0.352 N 
ATOM      3  C   UNL A   1      33.235  21.650  24.493  1.00  0.00     0.251 C 
ATOM      4  O   UNL A   1      32.379  20.930  23.998  1.00  0.00    -0.269 OA
ATOM      5  H   UNL A   1      34.411  20.081  24.817  1.00  0.00     0.163 HD
BRANCH   3   6
ATOM      6  C   UNL A   1      33.025  23.123  24.531  1.00  0.00     0.042 A 
ATOM      7  C   UNL A   1      31.429  28.099  27.312  1.00  0.00     0.088 C 
ATOM      8  C   UNL A   1      31.589  26.985  26.356  1.00  0.00     0.106 A 
ATOM      9  N   UNL A   1      31.522  25.722  26.734  1.00  0.00    -0.233 NA
ATOM     10  N   UNL A   1      31.943  27.075  25.029  1.00  0.00    -0.328 N 
ATOM     11  C   UNL A   1      32.080  24.996  25.726  1.00  0.00     0.090 A 
ATOM     12  C   UNL A   1      32.446  25.826  24.678  1.00  0.00     0.068 A 
ATOM     13  C   UNL A   1      32.341  23.624  25.652  1.00  0.00     0.044 A 
ATOM     14  C   UNL A   1      33.175  25.366  23.576  1.00  0.00     0.029 A 
ATOM     15  C   UNL A   1      33.496  24.004  23.553  1.00  0.00     0.016 A 
BRANCH  10  16
ATOM     16  C   UNL A   1      31.965  28.172  24.084  1.00  0.00     0.130 C 
BRANCH  16  17
ATOM     17  C   UNL A   1      30.770  29.073  23.780  1.00  0.00     0.083 C 
BRANCH  17  18
ATOM     18  C   UNL A   1      30.234  29.224  22.349  1.00  0.00     0.264 C 
BRANCH  18  19
ATOM     19  N   UNL A   1      28.942  29.813  22.062  1.00  0.00    -0.331 N 
ATOM     20  C   UNL A   1      28.822  30.928  21.136  1.00  0.00     0.291 C 
ATOM     21  C   UNL A   1      27.912  29.815  23.093  1.00  0.00     0.291 C 
ATOM     22  H   UNL A   1      28.717  29.014  21.470  1.00  0.00     0.348 HD
ATOM     23  C   UNL A   1      28.563  32.279  21.821  1.00  0.00     0.221 C 
ATOM     24  C   UNL A   1      27.716  31.180  23.764  1.00  0.00     0.221 C 
ATOM     25  O   UNL A   1      27.517  32.220  22.798  1.00  0.00    -0.370 OA
ENDBRANCH  18  19
ENDBRANCH  17  18
ENDBRANCH  16  17
ENDBRANCH  10  16
ENDBRANCH   3   6
ENDBRANCH   1   2
BRANCH   1  26
ATOM     26  C   UNL A   1      36.778  21.458  24.595  1.00  0.00     0.023 C 
BRANCH  26  27
ATOM     27  C   UNL A   1      38.084  21.033  25.286  1.00  0.00     0.023 C 
BRANCH  27  28
ATOM     28  C   UNL A   1      38.750  22.147  26.100  1.00  0.00     0.116 C 
BRANCH  28  29
ATOM     29  N   UNL A   1      40.145  21.865  26.374  1.00  0.00    -0.352 N 
ATOM     30  C   UNL A   1      41.197  22.577  26.880  1.00  0.00     0.251 C 
ATOM     31  H   UNL A   1      40.396  20.942  26.141  1.00  0.00     0.163 HD
ATOM     32  O   UNL A   1      42.266  21.966  26.972  1.00  0.00    -0.269 OA
BRANCH  30  33
ATOM     33  C   UNL A   1      41.150  24.000  27.318  1.00  0.00     0.039 A 
ATOM     34  C   UNL A   1      41.902  24.555  28.350  1.00  0.00     0.014 A 
ATOM     35  C   UNL A   1      40.238  24.833  26.638  1.00  0.00     0.014 A 
ATOM     36  C   UNL A   1      41.750  25.897  28.692  1.00  0.00     0.010 A 
ATOM     37  C   UNL A   1      40.080  26.179  26.978  1.00  0.00     0.010 A 
ATOM     38  C   UNL A   1      40.830  26.711  28.019  1.00  0.00    -0.014 A 
BRANCH  38  39
ATOM     39  C   UNL A   1      40.763  28.114  28.432  1.00  0.00     0.031 A 
ATOM     40  C   UNL A   1      41.866  28.991  27.946  1.00  0.00     0.074 A 
ATOM     41  C   UNL A   1      39.788  28.665  29.180  1.00  0.00     0.049 A 
ATOM     42  N   UNL A   1      42.780  29.582  28.649  1.00  0.00    -0.248 NA
ATOM     43  C   UNL A   1      41.999  29.192  26.497  1.00  0.00     0.031 C 
ATOM     44  C   UNL A   1      38.486  28.106  29.539  1.00  0.00     0.029 A 
ATOM     45  N   UNL A   1      39.759  29.916  29.735  1.00  0.00    -0.354 N 
ATOM     46  C   UNL A   1      43.527  30.344  27.754  1.00  0.00     0.074 A 
ATOM     47  C   UNL A   1      43.057  30.003  26.435  1.00  0.00     0.031 C 
ATOM     48  C   UNL A   1      37.720  29.077  30.086  1.00  0.00     0.029 A 
ATOM     49  C   UNL A   1      38.528  30.275  30.253  1.00  0.00     0.049 A 
ATOM     50  H   UNL A   1      40.546  30.508  29.764  1.00  0.00     0.167 HD
ATOM     51  C   UNL A   1      44.367  31.327  28.179  1.00  0.00     0.037 A 
ATOM     52  C   UNL A   1      38.183  31.482  30.757  1.00  0.00     0.037 A 
ATOM     53  C   UNL A   1      44.675  31.201  29.577  1.00  0.00     0.049 A 
ATOM     54  C   UNL A   1      39.417  32.169  31.203  1.00  0.00     0.074 A 
ATOM     55  C   UNL A   1      45.361  30.300  30.363  1.00  0.00     0.029 A 
ATOM     56  N   UNL A   1      43.989  32.017  30.437  1.00  0.00    -0.354 N 
ATOM     57  N   UNL A   1      40.136  31.801  32.226  1.00  0.00    -0.248 NA
ATOM     58  C   UNL A   1      40.033  33.162  30.334  1.00  0.00     0.031 C 
ATOM     59  C   UNL A   1      44.750  30.370  31.650  1.00  0.00     0.029 A 
ATOM     60  C   UNL A   1      43.722  31.313  31.579  1.00  0.00     0.049 A 
ATOM     61  H   UNL A   1      43.730  32.951  30.262  1.00  0.00     0.167 HD
ATOM     62  C   UNL A   1      41.424  32.189  31.904  1.00  0.00     0.074 A 
ATOM     63  C   UNL A   1      41.269  33.163  30.835  1.00  0.00     0.031 C 
ATOM     64  C   UNL A   1      42.497  31.464  32.330  1.00  0.00     0.037 A 
BRANCH  51  65
ATOM     65  C   UNL A   1      44.650  32.611  27.434  1.00  0.00     0.064 A 
ATOM     66  C   UNL A   1      45.863  32.746  26.724  1.00  0.00     0.173 A 
ATOM     67  C   UNL A   1      43.941  33.808  27.661  1.00  0.00     0.173 A 
ATOM     68  F   UNL A   1      46.630  31.675  26.469  1.00  0.00    -0.203 F 
ATOM     69  C   UNL A   1      46.364  33.995  26.346  1.00  0.00     0.198 A 
ATOM     70  C   UNL A   1      44.419  35.048  27.235  1.00  0.00     0.198 A 
ATOM     71  F   UNL A   1      42.823  33.839  28.398  1.00  0.00    -0.203 F 
ATOM     72  F   UNL A   1      47.580  34.085  25.790  1.00  0.00    -0.200 F 
ATOM     73  C   UNL A   1      45.645  35.146  26.608  1.00  0.00     0.200 A 
ATOM     74  F   UNL A   1      43.719  36.156  27.516  1.00  0.00    -0.200 F 
ATOM     75  F   UNL A   1      46.151  36.349  26.306  1.00  0.00    -0.200 F 
ENDBRANCH  51  65
BRANCH  52  76
ATOM     76  C   UNL A   1      36.878  32.176  30.686  1.00  0.00     0.064 A 
ATOM     77  C   UNL A   1      36.029  32.238  31.804  1.00  0.00     0.173 A 
ATOM     78  C   UNL A   1      36.571  33.036  29.615  1.00  0.00     0.173 A 
ATOM     79  F   UNL A   1      36.272  31.479  32.882  1.00  0.00    -0.203 F 
ATOM     80  C   UNL A   1      34.962  33.140  31.863  1.00  0.00     0.198 A 
ATOM     81  C   UNL A   1      35.500  33.927  29.671  1.00  0.00     0.198 A 
ATOM     82  F   UNL A   1      37.363  33.100  28.535  1.00  0.00    -0.203 F 
ATOM     83  F   UNL A   1      34.220  33.224  32.976  1.00  0.00    -0.200 F 
ATOM     84  C   UNL A   1      34.707  33.993  30.802  1.00  0.00     0.200 A 
ATOM     85  F   UNL A   1      35.284  34.770  28.651  1.00  0.00    -0.200 F 
ATOM     86  F   UNL A   1      33.728  34.903  30.886  1.00  0.00    -0.200 F 
ENDBRANCH  52  76
BRANCH  64  87
ATOM     87  C   UNL A   1      42.298  30.554  33.503  1.00  0.00     0.064 A 
ATOM     88  C   UNL A   1      42.426  30.954  34.842  1.00  0.00     0.173 A 
ATOM     89  C   UNL A   1      41.840  29.252  33.253  1.00  0.00     0.173 A 
ATOM     90  F   UNL A   1      42.766  32.212  35.157  1.00  0.00    -0.203 F 
ATOM     91  C   UNL A   1      42.150  30.071  35.884  1.00  0.00     0.198 A 
ATOM     92  C   UNL A   1      41.529  28.385  34.296  1.00  0.00     0.198 A 
ATOM     93  F   UNL A   1      41.650  28.836  31.991  1.00  0.00    -0.203 F 
ATOM     94  F   UNL A   1      42.293  30.468  37.157  1.00  0.00    -0.200 F 
ATOM     95  C   UNL A   1      41.694  28.791  35.610  1.00  0.00     0.200 A 
ATOM     96  F   UNL A   1      41.043  27.165  34.026  1.00  0.00    -0.200 F 
ATOM     97  F   UNL A   1      41.388  27.956  36.614  1.00  0.00    -0.200 F 
ENDBRANCH  64  87
ENDBRANCH  38  39
ENDBRANCH  30  33
ENDBRANCH  28  29
ENDBRANCH  27  28
ENDBRANCH  26  27
ENDBRANCH   1  26
TORSDOF 15
ENDMDL
MODEL 3
REMARK VINA RESULT:     -12.8      3.251      9.354
REMARK SMILES Cc1nc2cc(C(=O)NCCCCNC(=O)c3ccc(-c4c5nc(c(-c6c(F)c(F)c(F)c(F)c6F)c6ccc([nH]6)c(-c6c(F)c(F)c(F)c(F)c6F)c6nc(c(-c7c(F)c(F)c(F)c(F)c7F)c7ccc4[nH]7)C=C6)C=C5)cc3)ccc2n1CCC[NH+]1CCOCC1
REMARK SMILES IDX 10 1 9 2 7 3 8 4 6 6 1 7 2 8 3 9 83 10 4 11 82 12 5 13 81 14
REMARK SMILES IDX 80 15 84 16 85 17 86 18 87 19 88 20 92 21 89 23 91 24 90 25
REMARK SMILES IDX 11 26 12 27 13 28 14 29 15 30 16 32 17 33 18 34 79 35 19 36
REMARK SMILES IDX 78 37 20 38 21 39 22 40 72 41 23 42 77 43 71 44 73 45 24 46
REMARK SMILES IDX 76 47 70 48 69 49 25 51 57 52 37 53 56 54 38 55 41 56 55 57
REMARK SMILES IDX 74 58 39 59 40 60 54 62 75 63 42 64 26 65 27 66 35 67 28 68
REMARK SMILES IDX 29 69 33 70 36 71 30 72 31 73 34 74 32 75 58 76 59 77 67 78
REMARK SMILES IDX 60 79 61 80 65 81 68 82 62 83 63 84 66 85 64 86 43 87 44 88
REMARK SMILES IDX 52 89 45 90 46 91 50 92 53 93 47 94 48 95 51 96 49 97
REMARK H PARENT 9 5 87 22 14 31 73 50 41 61
REMARK Flexibility Score: inf
ROOT
ATOM      1  C   UNL A   1      34.711  29.008  26.585  1.00  0.00     0.116 C 
ENDROOT
BRANCH   1   2
ATOM      2  N   UNL A   1      33.643  29.512  25.744  1.00  0.00    -0.352 N 
ATOM      3  C   UNL A   1      32.666  28.882  25.014  1.00  0.00     0.251 C 
ATOM      4  O   UNL A   1      31.875  29.581  24.396  1.00  0.00    -0.269 OA
ATOM      5  H   UNL A   1      33.614  30.495  25.685  1.00  0.00     0.163 HD
BRANCH   3   6
ATOM      6  C   UNL A   1      32.500  27.403  25.010  1.00  0.00     0.042 A 
ATOM      7  C   UNL A   1      29.818  22.446  26.821  1.00  0.00     0.088 C 
ATOM      8  C   UNL A   1      30.797  23.494  26.468  1.00  0.00     0.106 A 
ATOM      9  N   UNL A   1      30.651  24.748  26.854  1.00  0.00    -0.233 NA
ATOM     10  N   UNL A   1      31.877  23.369  25.624  1.00  0.00    -0.328 N 
ATOM     11  C   UNL A   1      31.480  25.485  26.062  1.00  0.00     0.090 A 
ATOM     12  C   UNL A   1      32.194  24.659  25.209  1.00  0.00     0.068 A 
ATOM     13  C   UNL A   1      31.646  26.871  25.991  1.00  0.00     0.044 A 
ATOM     14  C   UNL A   1      33.008  25.160  24.187  1.00  0.00     0.029 A 
ATOM     15  C   UNL A   1      33.105  26.552  24.080  1.00  0.00     0.016 A 
BRANCH  10  16
ATOM     16  C   UNL A   1      32.584  22.225  25.085  1.00  0.00     0.130 C 
BRANCH  16  17
ATOM     17  C   UNL A   1      33.838  21.616  25.708  1.00  0.00     0.083 C 
BRANCH  17  18
ATOM     18  C   UNL A   1      34.962  21.046  24.831  1.00  0.00     0.264 C 
BRANCH  18  19
ATOM     19  N   UNL A   1      36.132  21.820  24.467  1.00  0.00    -0.331 N 
ATOM     20  C   UNL A   1      37.469  21.275  24.646  1.00  0.00     0.291 C 
ATOM     21  C   UNL A   1      36.090  23.273  24.574  1.00  0.00     0.291 C 
ATOM     22  H   UNL A   1      35.947  21.624  23.484  1.00  0.00     0.348 HD
ATOM     23  C   UNL A   1      38.234  21.883  25.831  1.00  0.00     0.221 C 
ATOM     24  C   UNL A   1      36.843  23.823  25.790  1.00  0.00     0.221 C 
ATOM     25  O   UNL A   1      38.181  23.314  25.858  1.00  0.00    -0.370 OA
ENDBRANCH  18  19
ENDBRANCH  17  18
ENDBRANCH  16  17
ENDBRANCH  10  16
ENDBRANCH   3   6
ENDBRANCH   1   2
BRANCH   1  26
ATOM     26  C   UNL A   1      35.169  30.092  27.563  1.00  0.00     0.023 C 
BRANCH  26  27
ATOM     27  C   UNL A   1      34.233  31.310  27.624  1.00  0.00     0.023 C 
BRANCH  27  28
ATOM     28  C   UNL A   1      34.887  32.571  28.197  1.00  0.00     0.116 C 
BRANCH  28  29
ATOM     29  N   UNL A   1      34.737  32.659  29.636  1.00  0.00    -0.352 N 
ATOM     30  C   UNL A   1      35.387  32.124  30.713  1.00  0.00     0.251 C 
ATOM     31  H   UNL A   1      33.990  33.242  29.902  1.00  0.00     0.163 HD
ATOM     32  O   UNL A   1      34.954  32.452  31.821  1.00  0.00    -0.269 OA
BRANCH  30  33
ATOM     33  C   UNL A   1      36.551  31.195  30.649  1.00  0.00     0.039 A 
ATOM     34  C   UNL A   1      36.511  29.827  30.907  1.00  0.00     0.014 A 
ATOM     35  C   UNL A   1      37.796  31.775  30.329  1.00  0.00     0.014 A 
ATOM     36  C   UNL A   1      37.674  29.063  30.847  1.00  0.00     0.010 A 
ATOM     37  C   UNL A   1      38.965  31.014  30.269  1.00  0.00     0.010 A 
ATOM     38  C   UNL A   1      38.907  29.653  30.543  1.00  0.00    -0.014 A 
BRANCH  38  39
ATOM     39  C   UNL A   1      40.067  28.762  30.475  1.00  0.00     0.031 A 
ATOM     40  C   UNL A   1      40.826  28.581  31.745  1.00  0.00     0.074 A 
ATOM     41  C   UNL A   1      40.475  28.088  29.382  1.00  0.00     0.049 A 
ATOM     42  N   UNL A   1      42.039  28.953  32.005  1.00  0.00    -0.248 NA
ATOM     43  C   UNL A   1      40.132  27.957  32.880  1.00  0.00     0.031 C 
ATOM     44  C   UNL A   1      39.766  27.877  28.121  1.00  0.00     0.029 A 
ATOM     45  N   UNL A   1      41.637  27.385  29.214  1.00  0.00    -0.354 N 
ATOM     46  C   UNL A   1      42.320  28.492  33.289  1.00  0.00     0.074 A 
ATOM     47  C   UNL A   1      41.087  27.960  33.812  1.00  0.00     0.031 C 
ATOM     48  C   UNL A   1      40.422  26.945  27.393  1.00  0.00     0.029 A 
ATOM     49  C   UNL A   1      41.667  26.613  28.065  1.00  0.00     0.049 A 
ATOM     50  H   UNL A   1      42.385  27.423  29.853  1.00  0.00     0.167 HD
ATOM     51  C   UNL A   1      43.595  28.433  33.765  1.00  0.00     0.037 A 
ATOM     52  C   UNL A   1      42.634  25.739  27.705  1.00  0.00     0.037 A 
ATOM     53  C   UNL A   1      44.495  29.238  32.987  1.00  0.00     0.049 A 
ATOM     54  C   UNL A   1      43.891  26.128  28.384  1.00  0.00     0.074 A 
ATOM     55  C   UNL A   1      44.666  30.586  32.750  1.00  0.00     0.029 A 
ATOM     56  N   UNL A   1      45.271  28.584  32.068  1.00  0.00    -0.354 N 
ATOM     57  N   UNL A   1      44.576  27.202  28.106  1.00  0.00    -0.248 NA
ATOM     58  C   UNL A   1      44.286  25.434  29.602  1.00  0.00     0.031 C 
ATOM     59  C   UNL A   1      45.237  30.676  31.446  1.00  0.00     0.029 A 
ATOM     60  C   UNL A   1      45.385  29.376  30.958  1.00  0.00     0.049 A 
ATOM     61  H   UNL A   1      45.677  27.695  32.186  1.00  0.00     0.167 HD
ATOM     62  C   UNL A   1      45.188  27.542  29.299  1.00  0.00     0.074 A 
ATOM     63  C   UNL A   1      45.120  26.340  30.116  1.00  0.00     0.031 C 
ATOM     64  C   UNL A   1      45.422  28.848  29.614  1.00  0.00     0.037 A 
BRANCH  51  65
ATOM     65  C   UNL A   1      44.117  27.385  34.721  1.00  0.00     0.064 A 
ATOM     66  C   UNL A   1      44.074  26.024  34.345  1.00  0.00     0.173 A 
ATOM     67  C   UNL A   1      44.345  27.632  36.090  1.00  0.00     0.173 A 
ATOM     68  F   UNL A   1      43.844  25.673  33.071  1.00  0.00    -0.203 F 
ATOM     69  C   UNL A   1      44.169  24.994  35.285  1.00  0.00     0.198 A 
ATOM     70  C   UNL A   1      44.491  26.600  37.017  1.00  0.00     0.198 A 
ATOM     71  F   UNL A   1      44.319  28.870  36.598  1.00  0.00    -0.203 F 
ATOM     72  F   UNL A   1      43.993  23.723  34.900  1.00  0.00    -0.200 F 
ATOM     73  C   UNL A   1      44.370  25.283  36.621  1.00  0.00     0.200 A 
ATOM     74  F   UNL A   1      44.665  26.897  38.312  1.00  0.00    -0.200 F 
ATOM     75  F   UNL A   1      44.396  24.302  37.533  1.00  0.00    -0.200 F 
ENDBRANCH  51  65
BRANCH  52  76
ATOM     76  C   UNL A   1      42.497  24.458  26.976  1.00  0.00     0.064 A 
ATOM     77  C   UNL A   1      43.012  24.304  25.678  1.00  0.00     0.173 A 
ATOM     78  C   UNL A   1      42.121  23.279  27.647  1.00  0.00     0.173 A 
ATOM     79  F   UNL A   1      43.429  25.372  24.984  1.00  0.00    -0.203 F 
ATOM     80  C   UNL A   1      43.180  23.040  25.103  1.00  0.00     0.198 A 
ATOM     81  C   UNL A   1      42.280  22.020  27.068  1.00  0.00     0.198 A 
ATOM     82  F   UNL A   1      41.686  23.317  28.915  1.00  0.00    -0.203 F 
ATOM     83  F   UNL A   1      43.745  22.929  23.892  1.00  0.00    -0.200 F 
ATOM     84  C   UNL A   1      42.827  21.899  25.803  1.00  0.00     0.200 A 
ATOM     85  F   UNL A   1      41.965  20.922  27.769  1.00  0.00    -0.200 F 
ATOM     86  F   UNL A   1      43.052  20.687  25.280  1.00  0.00    -0.200 F 
ENDBRANCH  52  76
BRANCH  64  87
ATOM     87  C   UNL A   1      45.445  29.839  28.491  1.00  0.00     0.064 A 
ATOM     88  C   UNL A   1      44.299  30.430  27.938  1.00  0.00     0.173 A 
ATOM     89  C   UNL A   1      46.694  30.293  28.041  1.00  0.00     0.173 A 
ATOM     90  F   UNL A   1      43.075  30.116  28.385  1.00  0.00    -0.203 F 
ATOM     91  C   UNL A   1      44.402  31.403  26.946  1.00  0.00     0.198 A 
ATOM     92  C   UNL A   1      46.793  31.292  27.078  1.00  0.00     0.198 A 
ATOM     93  F   UNL A   1      47.821  29.798  28.575  1.00  0.00    -0.203 F 
ATOM     94  F   UNL A   1      43.294  31.946  26.419  1.00  0.00    -0.200 F 
ATOM     95  C   UNL A   1      45.648  31.839  26.524  1.00  0.00     0.200 A 
ATOM     96  F   UNL A   1      48.000  31.743  26.708  1.00  0.00    -0.200 F 
ATOM     97  F   UNL A   1      45.746  32.805  25.599  1.00  0.00    -0.200 F 
ENDBRANCH  64  87
ENDBRANCH  38  39
ENDBRANCH  30  33
ENDBRANCH  28  29
ENDBRANCH  27  28
ENDBRANCH  26  27
ENDBRANCH   1  26
TORSDOF 15
ENDMDL
