MODEL 1
REMARK VINA RESULT:     -11.5      0.000      0.000
REMARK SMILES CC(C)C[C@H](CNc1cccc(F)c1C#N)CC(=O)NCCCCNC(=O)c1ccc(-c2c3nc(c(-c4c(F)c(F)c(F)c(F)c4F)c4ccc([nH]4)c(-c4c(F)c(F)c(F)c(F)c4F)c4nc(c(-c5c(F)c(F)c(F)c(F)c5F)c5ccc2[nH]5)C=C4)C=C3)cc1
REMARK SMILES IDX 21 1 20 2 18 3 19 4 17 6 5 7 4 8 2 9 1 10 3 11 6 12 7 13
REMARK SMILES IDX 8 15 9 16 14 17 10 18 12 19 11 20 13 21 15 22 16 23 22 24
REMARK SMILES IDX 23 25 24 26 25 27 26 28 27 30 28 31 29 32 90 33 30 34 89 35
REMARK SMILES IDX 31 36 32 37 33 38 83 39 34 40 88 41 82 42 84 43 35 44 87 45
REMARK SMILES IDX 81 46 80 47 36 49 68 50 48 51 67 52 49 53 52 54 66 55 85 56
REMARK SMILES IDX 50 57 51 58 65 60 86 61 53 62 37 63 38 64 46 65 39 66 40 67
REMARK SMILES IDX 44 68 47 69 41 70 42 71 45 72 43 73 69 74 70 75 78 76 71 77
REMARK SMILES IDX 72 78 76 79 79 80 73 81 74 82 77 83 75 84 54 85 55 86 63 87
REMARK SMILES IDX 56 88 57 89 61 90 64 91 58 92 59 93 62 94 60 95
REMARK H PARENT 20 5 7 14 25 29 84 48 52 59
REMARK Flexibility Score: inf
ROOT
ATOM      1  C   UNL A   1      31.594  29.402  25.998  1.00  0.00     0.116 C 
ENDROOT
BRANCH   1   2
ATOM      2  N   UNL A   1      31.483  29.641  24.578  1.00  0.00    -0.356 N 
ATOM      3  C   UNL A   1      31.103  28.774  23.598  1.00  0.00     0.220 C 
ATOM      4  O   UNL A   1      31.336  29.082  22.428  1.00  0.00    -0.275 OA
ATOM      5  H   UNL A   1      31.710  30.551  24.279  1.00  0.00     0.163 HD
BRANCH   3   6
ATOM      6  C   UNL A   1      30.343  27.498  23.938  1.00  0.00     0.105 C 
BRANCH   6   7
ATOM      7  C   UNL A   1      31.168  26.187  24.089  1.00  0.00     0.018 C 
BRANCH   7   8
ATOM      8  C   UNL A   1      32.661  26.504  23.858  1.00  0.00     0.009 C 
BRANCH   8   9
ATOM      9  C   UNL A   1      33.577  26.366  25.089  1.00  0.00    -0.017 C 
ATOM     10  C   UNL A   1      32.786  26.113  26.375  1.00  0.00     0.007 C 
ATOM     11  C   UNL A   1      34.543  25.205  24.841  1.00  0.00     0.007 C 
ENDBRANCH   8   9
ENDBRANCH   7   8
BRANCH   7  12
ATOM     12  C   UNL A   1      30.675  25.085  23.123  1.00  0.00     0.117 C 
BRANCH  12  13
ATOM     13  N   UNL A   1      30.429  23.771  23.710  1.00  0.00    -0.384 N 
ATOM     14  H   UNL A   1      29.516  23.405  23.689  1.00  0.00     0.160 HD
BRANCH  13  15
ATOM     15  C   UNL A   1      31.440  23.020  24.300  1.00  0.00     0.055 A 
ATOM     16  C   UNL A   1      32.410  22.463  23.452  1.00  0.00     0.027 A 
ATOM     17  C   UNL A   1      31.580  22.802  25.686  1.00  0.00     0.111 A 
ATOM     18  C   UNL A   1      33.511  21.763  23.957  1.00  0.00     0.005 A 
ATOM     19  C   UNL A   1      32.712  22.145  26.183  1.00  0.00     0.143 A 
ATOM     20  C   UNL A   1      33.677  21.627  25.330  1.00  0.00     0.041 A 
ATOM     21  F   UNL A   1      32.875  21.980  27.506  1.00  0.00    -0.205 F 
BRANCH  17  22
ATOM     22  C   UNL A   1      30.538  23.105  26.613  1.00  0.00     0.104 C 
ATOM     23  N   UNL A   1      29.695  23.374  27.368  1.00  0.00    -0.192 NA
ENDBRANCH  17  22
ENDBRANCH  13  15
ENDBRANCH  12  13
ENDBRANCH   7  12
ENDBRANCH   6   7
ENDBRANCH   3   6
ENDBRANCH   1   2
BRANCH   1  24
ATOM     24  C   UNL A   1      32.543  30.429  26.601  1.00  0.00     0.023 C 
BRANCH  24  25
ATOM     25  C   UNL A   1      32.007  31.812  26.872  1.00  0.00     0.023 C 
BRANCH  25  26
ATOM     26  C   UNL A   1      33.014  32.735  27.508  1.00  0.00     0.116 C 
BRANCH  26  27
ATOM     27  N   UNL A   1      32.522  34.084  27.763  1.00  0.00    -0.352 N 
ATOM     28  C   UNL A   1      33.034  35.020  28.633  1.00  0.00     0.251 C 
ATOM     29  H   UNL A   1      31.727  34.358  27.251  1.00  0.00     0.163 HD
ATOM     30  O   UNL A   1      32.521  36.122  28.780  1.00  0.00    -0.269 OA
BRANCH  28  31
ATOM     31  C   UNL A   1      34.191  34.634  29.461  1.00  0.00     0.039 A 
ATOM     32  C   UNL A   1      33.954  34.124  30.738  1.00  0.00     0.014 A 
ATOM     33  C   UNL A   1      35.475  34.632  28.916  1.00  0.00     0.014 A 
ATOM     34  C   UNL A   1      35.005  33.540  31.440  1.00  0.00     0.010 A 
ATOM     35  C   UNL A   1      36.474  33.913  29.548  1.00  0.00     0.010 A 
ATOM     36  C   UNL A   1      36.260  33.385  30.830  1.00  0.00    -0.014 A 
BRANCH  36  37
ATOM     37  C   UNL A   1      37.383  32.717  31.530  1.00  0.00     0.031 A 
ATOM     38  C   UNL A   1      38.076  31.558  30.868  1.00  0.00     0.074 A 
ATOM     39  C   UNL A   1      37.740  33.116  32.765  1.00  0.00     0.049 A 
ATOM     40  N   UNL A   1      39.037  30.797  31.325  1.00  0.00    -0.248 NA
ATOM     41  C   UNL A   1      37.600  31.177  29.526  1.00  0.00     0.031 C 
ATOM     42  C   UNL A   1      37.106  34.193  33.528  1.00  0.00     0.029 A 
ATOM     43  N   UNL A   1      38.727  32.656  33.601  1.00  0.00    -0.354 N 
ATOM     44  C   UNL A   1      39.264  29.848  30.337  1.00  0.00     0.074 A 
ATOM     45  C   UNL A   1      38.289  30.072  29.296  1.00  0.00     0.031 C 
ATOM     46  C   UNL A   1      37.746  34.338  34.700  1.00  0.00     0.029 A 
ATOM     47  C   UNL A   1      38.798  33.332  34.795  1.00  0.00     0.049 A 
ATOM     48  H   UNL A   1      39.328  31.913  33.367  1.00  0.00     0.167 HD
ATOM     49  C   UNL A   1      40.224  28.897  30.287  1.00  0.00     0.037 A 
ATOM     50  C   UNL A   1      39.614  33.150  35.850  1.00  0.00     0.037 A 
ATOM     51  C   UNL A   1      41.202  28.697  31.320  1.00  0.00     0.049 A 
ATOM     52  C   UNL A   1      40.657  32.065  35.780  1.00  0.00     0.074 A 
ATOM     53  C   UNL A   1      42.254  27.799  31.348  1.00  0.00     0.029 A 
ATOM     54  N   UNL A   1      41.244  29.402  32.514  1.00  0.00    -0.354 N 
ATOM     55  N   UNL A   1      40.913  31.220  34.809  1.00  0.00    -0.248 NA
ATOM     56  C   UNL A   1      41.528  31.911  36.952  1.00  0.00     0.031 C 
ATOM     57  C   UNL A   1      42.884  27.908  32.589  1.00  0.00     0.029 A 
ATOM     58  C   UNL A   1      42.281  28.932  33.302  1.00  0.00     0.049 A 
ATOM     59  H   UNL A   1      40.628  30.127  32.764  1.00  0.00     0.167 HD
ATOM     60  C   UNL A   1      41.994  30.461  35.237  1.00  0.00     0.074 A 
ATOM     61  C   UNL A   1      42.357  30.958  36.548  1.00  0.00     0.031 C 
ATOM     62  C   UNL A   1      42.631  29.445  34.603  1.00  0.00     0.037 A 
BRANCH  49  63
ATOM     63  C   UNL A   1      40.254  28.000  29.082  1.00  0.00     0.064 A 
ATOM     64  C   UNL A   1      39.557  26.780  29.046  1.00  0.00     0.173 A 
ATOM     65  C   UNL A   1      40.969  28.377  27.936  1.00  0.00     0.173 A 
ATOM     66  F   UNL A   1      38.870  26.362  30.120  1.00  0.00    -0.203 F 
ATOM     67  C   UNL A   1      39.605  25.960  27.923  1.00  0.00     0.198 A 
ATOM     68  C   UNL A   1      40.980  27.574  26.799  1.00  0.00     0.198 A 
ATOM     69  F   UNL A   1      41.652  29.532  27.913  1.00  0.00    -0.203 F 
ATOM     70  F   UNL A   1      38.984  24.773  27.936  1.00  0.00    -0.200 F 
ATOM     71  C   UNL A   1      40.307  26.361  26.796  1.00  0.00     0.200 A 
ATOM     72  F   UNL A   1      41.646  27.972  25.706  1.00  0.00    -0.200 F 
ATOM     73  F   UNL A   1      40.343  25.577  25.711  1.00  0.00    -0.200 F 
ENDBRANCH  49  63
BRANCH  50  74
ATOM     74  C   UNL A   1      39.490  34.016  37.053  1.00  0.00     0.064 A 
ATOM     75  C   UNL A   1      38.766  33.596  38.178  1.00  0.00     0.173 A 
ATOM     76  C   UNL A   1      40.078  35.290  37.098  1.00  0.00     0.173 A 
ATOM     77  F   UNL A   1      38.170  32.394  38.180  1.00  0.00    -0.203 F 
ATOM     78  C   UNL A   1      38.607  34.427  39.286  1.00  0.00     0.198 A 
ATOM     79  C   UNL A   1      39.950  36.104  38.222  1.00  0.00     0.198 A 
ATOM     80  F   UNL A   1      40.787  35.741  36.053  1.00  0.00    -0.203 F 
ATOM     81  F   UNL A   1      37.857  34.023  40.321  1.00  0.00    -0.200 F 
ATOM     82  C   UNL A   1      39.204  35.677  39.309  1.00  0.00     0.200 A 
ATOM     83  F   UNL A   1      40.545  37.305  38.247  1.00  0.00    -0.200 F 
ATOM     84  F   UNL A   1      39.052  36.476  40.375  1.00  0.00    -0.200 F 
ENDBRANCH  50  74
BRANCH  62  85
ATOM     85  C   UNL A   1      43.815  28.833  35.296  1.00  0.00     0.064 A 
ATOM     86  C   UNL A   1      45.122  29.298  35.086  1.00  0.00     0.173 A 
ATOM     87  C   UNL A   1      43.631  27.790  36.218  1.00  0.00     0.173 A 
ATOM     88  F   UNL A   1      45.355  30.286  34.209  1.00  0.00    -0.203 F 
ATOM     89  C   UNL A   1      46.203  28.717  35.744  1.00  0.00     0.198 A 
ATOM     90  C   UNL A   1      44.709  27.240  36.906  1.00  0.00     0.198 A 
ATOM     91  F   UNL A   1      42.402  27.315  36.467  1.00  0.00    -0.203 F 
ATOM     92  F   UNL A   1      47.448  29.133  35.480  1.00  0.00    -0.200 F 
ATOM     93  C   UNL A   1      45.995  27.695  36.659  1.00  0.00     0.200 A 
ATOM     94  F   UNL A   1      44.501  26.271  37.807  1.00  0.00    -0.200 F 
ATOM     95  F   UNL A   1      47.035  27.145  37.299  1.00  0.00    -0.200 F 
ENDBRANCH  62  85
ENDBRANCH  36  37
ENDBRANCH  28  31
ENDBRANCH  26  27
ENDBRANCH  25  26
ENDBRANCH  24  25
ENDBRANCH   1  24
TORSDOF 18
ENDMDL
MODEL 2
REMARK VINA RESULT:     -11.5      1.287      1.864
REMARK SMILES CC(C)C[C@H](CNc1cccc(F)c1C#N)CC(=O)NCCCCNC(=O)c1ccc(-c2c3nc(c(-c4c(F)c(F)c(F)c(F)c4F)c4ccc([nH]4)c(-c4c(F)c(F)c(F)c(F)c4F)c4nc(c(-c5c(F)c(F)c(F)c(F)c5F)c5ccc2[nH]5)C=C4)C=C3)cc1
REMARK SMILES IDX 21 1 20 2 18 3 19 4 17 6 5 7 4 8 2 9 1 10 3 11 6 12 7 13
REMARK SMILES IDX 8 15 9 16 14 17 10 18 12 19 11 20 13 21 15 22 16 23 22 24
REMARK SMILES IDX 23 25 24 26 25 27 26 28 27 30 28 31 29 32 90 33 30 34 89 35
REMARK SMILES IDX 31 36 32 37 33 38 83 39 34 40 88 41 82 42 84 43 35 44 87 45
REMARK SMILES IDX 81 46 80 47 36 49 68 50 48 51 67 52 49 53 52 54 66 55 85 56
REMARK SMILES IDX 50 57 51 58 65 60 86 61 53 62 37 63 38 64 46 65 39 66 40 67
REMARK SMILES IDX 44 68 47 69 41 70 42 71 45 72 43 73 69 74 70 75 78 76 71 77
REMARK SMILES IDX 72 78 76 79 79 80 73 81 74 82 77 83 75 84 54 85 55 86 63 87
REMARK SMILES IDX 56 88 57 89 61 90 64 91 58 92 59 93 62 94 60 95
REMARK H PARENT 20 5 7 14 25 29 84 48 52 59
REMARK Flexibility Score: inf
ROOT
ATOM      1  C   UNL A   1      33.703  29.668  26.926  1.00  0.00     0.116 C 
ENDROOT
BRANCH   1   2
ATOM      2  N   UNL A   1      33.745  29.136  25.585  1.00  0.00    -0.356 N 
ATOM      3  C   UNL A   1      33.701  27.833  25.185  1.00  0.00     0.220 C 
ATOM      4  O   UNL A   1      34.026  27.571  24.026  1.00  0.00    -0.275 OA
ATOM      5  H   UNL A   1      33.812  29.802  24.863  1.00  0.00     0.163 HD
BRANCH   3   6
ATOM      6  C   UNL A   1      33.192  26.748  26.124  1.00  0.00     0.105 C 
BRANCH   6   7
ATOM      7  C   UNL A   1      33.207  25.281  25.605  1.00  0.00     0.018 C 
BRANCH   7   8
ATOM      8  C   UNL A   1      32.298  24.419  26.508  1.00  0.00     0.009 C 
BRANCH   8   9
ATOM      9  C   UNL A   1      30.891  24.119  25.955  1.00  0.00    -0.017 C 
ATOM     10  C   UNL A   1      30.743  24.533  24.489  1.00  0.00     0.007 C 
ATOM     11  C   UNL A   1      30.631  22.617  26.095  1.00  0.00     0.007 C 
ENDBRANCH   8   9
ENDBRANCH   7   8
BRANCH   7  12
ATOM     12  C   UNL A   1      34.642  24.707  25.548  1.00  0.00     0.117 C 
BRANCH  12  13
ATOM     13  N   UNL A   1      34.932  23.796  24.445  1.00  0.00    -0.384 N 
ATOM     14  H   UNL A   1      35.692  23.995  23.853  1.00  0.00     0.160 HD
BRANCH  13  15
ATOM     15  C   UNL A   1      34.170  22.658  24.201  1.00  0.00     0.055 A 
ATOM     16  C   UNL A   1      34.281  21.599  25.114  1.00  0.00     0.027 A 
ATOM     17  C   UNL A   1      33.275  22.502  23.123  1.00  0.00     0.111 A 
ATOM     18  C   UNL A   1      33.494  20.447  25.001  1.00  0.00     0.005 A 
ATOM     19  C   UNL A   1      32.456  21.369  23.048  1.00  0.00     0.143 A 
ATOM     20  C   UNL A   1      32.558  20.344  23.979  1.00  0.00     0.041 A 
ATOM     21  F   UNL A   1      31.565  21.239  22.052  1.00  0.00    -0.205 F 
BRANCH  17  22
ATOM     22  C   UNL A   1      33.260  23.396  22.010  1.00  0.00     0.104 C 
ATOM     23  N   UNL A   1      33.230  24.137  21.113  1.00  0.00    -0.192 NA
ENDBRANCH  17  22
ENDBRANCH  13  15
ENDBRANCH  12  13
ENDBRANCH   7  12
ENDBRANCH   6   7
ENDBRANCH   3   6
ENDBRANCH   1   2
BRANCH   1  24
ATOM     24  C   UNL A   1      32.313  30.229  27.194  1.00  0.00     0.023 C 
BRANCH  24  25
ATOM     25  C   UNL A   1      32.051  31.669  26.831  1.00  0.00     0.023 C 
BRANCH  25  26
ATOM     26  C   UNL A   1      33.063  32.628  27.403  1.00  0.00     0.116 C 
BRANCH  26  27
ATOM     27  N   UNL A   1      32.547  33.967  27.665  1.00  0.00    -0.352 N 
ATOM     28  C   UNL A   1      33.029  34.900  28.555  1.00  0.00     0.251 C 
ATOM     29  H   UNL A   1      31.758  34.236  27.141  1.00  0.00     0.163 HD
ATOM     30  O   UNL A   1      32.497  35.992  28.706  1.00  0.00    -0.269 OA
BRANCH  28  31
ATOM     31  C   UNL A   1      34.175  34.520  29.401  1.00  0.00     0.039 A 
ATOM     32  C   UNL A   1      33.923  33.883  30.616  1.00  0.00     0.014 A 
ATOM     33  C   UNL A   1      35.477  34.653  28.919  1.00  0.00     0.014 A 
ATOM     34  C   UNL A   1      34.983  33.311  31.314  1.00  0.00     0.010 A 
ATOM     35  C   UNL A   1      36.499  33.949  29.533  1.00  0.00     0.010 A 
ATOM     36  C   UNL A   1      36.270  33.296  30.753  1.00  0.00    -0.014 A 
BRANCH  36  37
ATOM     37  C   UNL A   1      37.408  32.645  31.445  1.00  0.00     0.031 A 
ATOM     38  C   UNL A   1      38.117  31.500  30.776  1.00  0.00     0.074 A 
ATOM     39  C   UNL A   1      37.766  33.046  32.679  1.00  0.00     0.049 A 
ATOM     40  N   UNL A   1      39.094  30.754  31.226  1.00  0.00    -0.248 NA
ATOM     41  C   UNL A   1      37.640  31.114  29.436  1.00  0.00     0.031 C 
ATOM     42  C   UNL A   1      37.118  34.111  33.449  1.00  0.00     0.029 A 
ATOM     43  N   UNL A   1      38.765  32.601  33.508  1.00  0.00    -0.354 N 
ATOM     44  C   UNL A   1      39.331  29.812  30.234  1.00  0.00     0.074 A 
ATOM     45  C   UNL A   1      38.346  30.022  29.198  1.00  0.00     0.031 C 
ATOM     46  C   UNL A   1      37.761  34.263  34.617  1.00  0.00     0.029 A 
ATOM     47  C   UNL A   1      38.831  33.275  34.704  1.00  0.00     0.049 A 
ATOM     48  H   UNL A   1      39.377  31.869  33.269  1.00  0.00     0.167 HD
ATOM     49  C   UNL A   1      40.306  28.877  30.176  1.00  0.00     0.037 A 
ATOM     50  C   UNL A   1      39.656  33.104  35.753  1.00  0.00     0.037 A 
ATOM     51  C   UNL A   1      41.294  28.690  31.203  1.00  0.00     0.049 A 
ATOM     52  C   UNL A   1      40.716  32.037  35.675  1.00  0.00     0.074 A 
ATOM     53  C   UNL A   1      42.361  27.810  31.222  1.00  0.00     0.029 A 
ATOM     54  N   UNL A   1      41.331  29.393  32.398  1.00  0.00    -0.354 N 
ATOM     55  N   UNL A   1      40.982  31.199  34.700  1.00  0.00    -0.248 NA
ATOM     56  C   UNL A   1      41.597  31.895  36.841  1.00  0.00     0.031 C 
ATOM     57  C   UNL A   1      42.996  27.927  32.460  1.00  0.00     0.029 A 
ATOM     58  C   UNL A   1      42.380  28.939  33.179  1.00  0.00     0.049 A 
ATOM     59  H   UNL A   1      40.704  30.107  32.654  1.00  0.00     0.167 HD
ATOM     60  C   UNL A   1      42.077  30.458  35.120  1.00  0.00     0.074 A 
ATOM     61  C   UNL A   1      42.439  30.957  36.430  1.00  0.00     0.031 C 
ATOM     62  C   UNL A   1      42.728  29.455  34.480  1.00  0.00     0.037 A 
BRANCH  49  63
ATOM     63  C   UNL A   1      40.345  27.984  28.968  1.00  0.00     0.064 A 
ATOM     64  C   UNL A   1      39.637  26.771  28.918  1.00  0.00     0.173 A 
ATOM     65  C   UNL A   1      41.080  28.358  27.833  1.00  0.00     0.173 A 
ATOM     66  F   UNL A   1      38.930  26.356  29.980  1.00  0.00    -0.203 F 
ATOM     67  C   UNL A   1      39.693  25.954  27.792  1.00  0.00     0.198 A 
ATOM     68  C   UNL A   1      41.099  27.558  26.694  1.00  0.00     0.198 A 
ATOM     69  F   UNL A   1      41.774  29.506  27.824  1.00  0.00    -0.203 F 
ATOM     70  F   UNL A   1      39.060  24.773  27.792  1.00  0.00    -0.200 F 
ATOM     71  C   UNL A   1      40.415  26.352  26.677  1.00  0.00     0.200 A 
ATOM     72  F   UNL A   1      41.785  27.953  25.612  1.00  0.00    -0.200 F 
ATOM     73  F   UNL A   1      40.458  25.571  25.590  1.00  0.00    -0.200 F 
ENDBRANCH  49  63
BRANCH  50  74
ATOM     74  C   UNL A   1      39.524  33.965  36.959  1.00  0.00     0.064 A 
ATOM     75  C   UNL A   1      38.770  33.551  38.067  1.00  0.00     0.173 A 
ATOM     76  C   UNL A   1      40.135  35.227  37.025  1.00  0.00     0.173 A 
ATOM     77  F   UNL A   1      38.151  32.361  38.049  1.00  0.00    -0.203 F 
ATOM     78  C   UNL A   1      38.604  34.378  39.178  1.00  0.00     0.198 A 
ATOM     79  C   UNL A   1      39.999  36.036  38.151  1.00  0.00     0.198 A 
ATOM     80  F   UNL A   1      40.873  35.671  35.997  1.00  0.00    -0.203 F 
ATOM     81  F   UNL A   1      37.827  33.982  40.194  1.00  0.00    -0.200 F 
ATOM     82  C   UNL A   1      39.224  35.617  39.221  1.00  0.00     0.200 A 
ATOM     83  F   UNL A   1      40.616  37.225  38.196  1.00  0.00    -0.200 F 
ATOM     84  F   UNL A   1      39.066  36.411  40.289  1.00  0.00    -0.200 F 
ENDBRANCH  50  74
BRANCH  62  85
ATOM     85  C   UNL A   1      43.926  28.861  35.165  1.00  0.00     0.064 A 
ATOM     86  C   UNL A   1      45.219  29.371  34.977  1.00  0.00     0.173 A 
ATOM     87  C   UNL A   1      43.769  27.788  36.056  1.00  0.00     0.173 A 
ATOM     88  F   UNL A   1      45.427  30.390  34.128  1.00  0.00    -0.203 F 
ATOM     89  C   UNL A   1      46.313  28.806  35.626  1.00  0.00     0.198 A 
ATOM     90  C   UNL A   1      44.859  27.253  36.737  1.00  0.00     0.198 A 
ATOM     91  F   UNL A   1      42.554  27.268  36.283  1.00  0.00    -0.203 F 
ATOM     92  F   UNL A   1      47.547  29.268  35.382  1.00  0.00    -0.200 F 
ATOM     93  C   UNL A   1      46.132  27.754  36.512  1.00  0.00     0.200 A 
ATOM     94  F   UNL A   1      44.676  26.253  37.610  1.00  0.00    -0.200 F 
ATOM     95  F   UNL A   1      47.184  27.219  37.144  1.00  0.00    -0.200 F 
ENDBRANCH  62  85
ENDBRANCH  36  37
ENDBRANCH  28  31
ENDBRANCH  26  27
ENDBRANCH  25  26
ENDBRANCH  24  25
ENDBRANCH   1  24
TORSDOF 18
ENDMDL
MODEL 3
REMARK VINA RESULT:     -11.4      0.664      7.322
REMARK SMILES CC(C)C[C@H](CNc1cccc(F)c1C#N)CC(=O)NCCCCNC(=O)c1ccc(-c2c3nc(c(-c4c(F)c(F)c(F)c(F)c4F)c4ccc([nH]4)c(-c4c(F)c(F)c(F)c(F)c4F)c4nc(c(-c5c(F)c(F)c(F)c(F)c5F)c5ccc2[nH]5)C=C4)C=C3)cc1
REMARK SMILES IDX 21 1 20 2 18 3 19 4 17 6 5 7 4 8 2 9 1 10 3 11 6 12 7 13
REMARK SMILES IDX 8 15 9 16 14 17 10 18 12 19 11 20 13 21 15 22 16 23 22 24
REMARK SMILES IDX 23 25 24 26 25 27 26 28 27 30 28 31 29 32 90 33 30 34 89 35
REMARK SMILES IDX 31 36 32 37 33 38 83 39 34 40 88 41 82 42 84 43 35 44 87 45
REMARK SMILES IDX 81 46 80 47 36 49 68 50 48 51 67 52 49 53 52 54 66 55 85 56
REMARK SMILES IDX 50 57 51 58 65 60 86 61 53 62 37 63 38 64 46 65 39 66 40 67
REMARK SMILES IDX 44 68 47 69 41 70 42 71 45 72 43 73 69 74 70 75 78 76 71 77
REMARK SMILES IDX 72 78 76 79 79 80 73 81 74 82 77 83 75 84 54 85 55 86 63 87
REMARK SMILES IDX 56 88 57 89 61 90 64 91 58 92 59 93 62 94 60 95
REMARK H PARENT 20 5 7 14 25 29 84 48 52 59
REMARK Flexibility Score: inf
ROOT
ATOM      1  C   UNL A   1      31.285  29.597  25.708  1.00  0.00     0.116 C 
ENDROOT
BRANCH   1   2
ATOM      2  N   UNL A   1      31.099  29.673  24.279  1.00  0.00    -0.356 N 
ATOM      3  C   UNL A   1      30.726  28.686  23.416  1.00  0.00     0.220 C 
ATOM      4  O   UNL A   1      30.891  28.876  22.211  1.00  0.00    -0.275 OA
ATOM      5  H   UNL A   1      31.262  30.555  23.873  1.00  0.00     0.163 HD
BRANCH   3   6
ATOM      6  C   UNL A   1      30.054  27.418  23.928  1.00  0.00     0.105 C 
BRANCH   6   7
ATOM      7  C   UNL A   1      30.959  26.178  24.189  1.00  0.00     0.018 C 
BRANCH   7   8
ATOM      8  C   UNL A   1      32.433  26.633  24.231  1.00  0.00     0.009 C 
BRANCH   8   9
ATOM      9  C   UNL A   1      33.284  26.052  25.377  1.00  0.00    -0.017 C 
ATOM     10  C   UNL A   1      34.419  25.162  24.864  1.00  0.00     0.007 C 
ATOM     11  C   UNL A   1      33.866  27.217  26.182  1.00  0.00     0.007 C 
ENDBRANCH   8   9
ENDBRANCH   7   8
BRANCH   7  12
ATOM     12  C   UNL A   1      30.744  25.078  23.123  1.00  0.00     0.117 C 
BRANCH  12  13
ATOM     13  N   UNL A   1      30.454  23.738  23.625  1.00  0.00    -0.384 N 
ATOM     14  H   UNL A   1      29.544  23.379  23.520  1.00  0.00     0.160 HD
BRANCH  13  15
ATOM     15  C   UNL A   1      31.418  22.953  24.248  1.00  0.00     0.055 A 
ATOM     16  C   UNL A   1      32.340  22.289  23.425  1.00  0.00     0.027 A 
ATOM     17  C   UNL A   1      31.557  22.799  25.642  1.00  0.00     0.111 A 
ATOM     18  C   UNL A   1      33.396  21.543  23.959  1.00  0.00     0.005 A 
ATOM     19  C   UNL A   1      32.646  22.094  26.166  1.00  0.00     0.143 A 
ATOM     20  C   UNL A   1      33.567  21.468  25.336  1.00  0.00     0.041 A 
ATOM     21  F   UNL A   1      32.811  21.988  27.495  1.00  0.00    -0.205 F 
BRANCH  17  22
ATOM     22  C   UNL A   1      30.546  23.219  26.558  1.00  0.00     0.104 C 
ATOM     23  N   UNL A   1      29.704  23.556  27.288  1.00  0.00    -0.192 NA
ENDBRANCH  17  22
ENDBRANCH  13  15
ENDBRANCH  12  13
ENDBRANCH   7  12
ENDBRANCH   6   7
ENDBRANCH   3   6
ENDBRANCH   1   2
BRANCH   1  24
ATOM     24  C   UNL A   1      32.306  30.645  26.132  1.00  0.00     0.023 C 
BRANCH  24  25
ATOM     25  C   UNL A   1      31.803  31.870  26.851  1.00  0.00     0.023 C 
BRANCH  25  26
ATOM     26  C   UNL A   1      32.902  32.794  27.309  1.00  0.00     0.116 C 
BRANCH  26  27
ATOM     27  N   UNL A   1      32.452  34.127  27.692  1.00  0.00    -0.352 N 
ATOM     28  C   UNL A   1      33.004  34.969  28.631  1.00  0.00     0.251 C 
ATOM     29  H   UNL A   1      31.657  34.467  27.221  1.00  0.00     0.163 HD
ATOM     30  O   UNL A   1      32.524  36.067  28.885  1.00  0.00    -0.269 OA
BRANCH  28  31
ATOM     31  C   UNL A   1      34.163  34.481  29.400  1.00  0.00     0.039 A 
ATOM     32  C   UNL A   1      33.929  33.684  30.520  1.00  0.00     0.014 A 
ATOM     33  C   UNL A   1      35.458  34.683  28.922  1.00  0.00     0.014 A 
ATOM     34  C   UNL A   1      35.000  33.024  31.119  1.00  0.00     0.010 A 
ATOM     35  C   UNL A   1      36.489  33.904  29.420  1.00  0.00     0.010 A 
ATOM     36  C   UNL A   1      36.279  33.090  30.542  1.00  0.00    -0.014 A 
BRANCH  36  37
ATOM     37  C   UNL A   1      37.427  32.355  31.122  1.00  0.00     0.031 A 
ATOM     38  C   UNL A   1      37.922  32.727  32.493  1.00  0.00     0.074 A 
ATOM     39  C   UNL A   1      38.048  31.399  30.404  1.00  0.00     0.049 A 
ATOM     40  N   UNL A   1      38.944  32.255  33.161  1.00  0.00    -0.248 NA
ATOM     41  C   UNL A   1      37.196  33.801  33.193  1.00  0.00     0.031 C 
ATOM     42  C   UNL A   1      37.691  30.989  29.045  1.00  0.00     0.029 A 
ATOM     43  N   UNL A   1      39.117  30.599  30.720  1.00  0.00    -0.354 N 
ATOM     44  C   UNL A   1      38.985  32.983  34.342  1.00  0.00     0.074 A 
ATOM     45  C   UNL A   1      37.946  33.982  34.267  1.00  0.00     0.031 C 
ATOM     46  C   UNL A   1      38.498  29.988  28.660  1.00  0.00     0.029 A 
ATOM     47  C   UNL A   1      39.463  29.721  29.721  1.00  0.00     0.049 A 
ATOM     48  H   UNL A   1      39.592  30.648  31.580  1.00  0.00     0.167 HD
ATOM     49  C   UNL A   1      39.796  32.809  35.411  1.00  0.00     0.037 A 
ATOM     50  C   UNL A   1      40.454  28.811  29.668  1.00  0.00     0.037 A 
ATOM     51  C   UNL A   1      40.814  31.798  35.483  1.00  0.00     0.049 A 
ATOM     52  C   UNL A   1      41.361  28.657  30.861  1.00  0.00     0.074 A 
ATOM     53  C   UNL A   1      41.655  31.497  36.539  1.00  0.00     0.029 A 
ATOM     54  N   UNL A   1      41.133  30.925  34.453  1.00  0.00    -0.354 N 
ATOM     55  N   UNL A   1      41.345  29.299  32.005  1.00  0.00    -0.248 NA
ATOM     56  C   UNL A   1      42.421  27.647  30.757  1.00  0.00     0.031 C 
ATOM     57  C   UNL A   1      42.534  30.496  36.120  1.00  0.00     0.029 A 
ATOM     58  C   UNL A   1      42.185  30.111  34.836  1.00  0.00     0.049 A 
ATOM     59  H   UNL A   1      40.679  30.890  33.581  1.00  0.00     0.167 HD
ATOM     60  C   UNL A   1      42.366  28.749  32.767  1.00  0.00     0.074 A 
ATOM     61  C   UNL A   1      42.969  27.707  31.963  1.00  0.00     0.031 C 
ATOM     62  C   UNL A   1      42.768  29.074  34.021  1.00  0.00     0.037 A 
BRANCH  49  63
ATOM     63  C   UNL A   1      39.618  33.738  36.578  1.00  0.00     0.064 A 
ATOM     64  C   UNL A   1      38.820  33.398  37.684  1.00  0.00     0.173 A 
ATOM     65  C   UNL A   1      40.274  34.977  36.604  1.00  0.00     0.173 A 
ATOM     66  F   UNL A   1      38.156  32.232  37.705  1.00  0.00    -0.203 F 
ATOM     67  C   UNL A   1      38.661  34.276  38.752  1.00  0.00     0.198 A 
ATOM     68  C   UNL A   1      40.146  35.836  37.693  1.00  0.00     0.198 A 
ATOM     69  F   UNL A   1      41.049  35.355  35.577  1.00  0.00    -0.203 F 
ATOM     70  F   UNL A   1      37.845  33.955  39.765  1.00  0.00    -0.200 F 
ATOM     71  C   UNL A   1      39.331  35.490  38.761  1.00  0.00     0.200 A 
ATOM     72  F   UNL A   1      40.808  37.001  37.707  1.00  0.00    -0.200 F 
ATOM     73  F   UNL A   1      39.187  36.330  39.794  1.00  0.00    -0.200 F 
ENDBRANCH  49  63
BRANCH  50  74
ATOM     74  C   UNL A   1      40.635  27.970  28.454  1.00  0.00     0.064 A 
ATOM     75  C   UNL A   1      41.401  28.419  27.368  1.00  0.00     0.173 A 
ATOM     76  C   UNL A   1      40.034  26.706  28.346  1.00  0.00     0.173 A 
ATOM     77  F   UNL A   1      41.982  29.627  27.413  1.00  0.00    -0.203 F 
ATOM     78  C   UNL A   1      41.531  27.653  26.210  1.00  0.00     0.198 A 
ATOM     79  C   UNL A   1      40.196  25.925  27.203  1.00  0.00     0.198 A 
ATOM     80  F   UNL A   1      39.296  26.224  29.357  1.00  0.00    -0.203 F 
ATOM     81  F   UNL A   1      42.215  28.135  25.165  1.00  0.00    -0.200 F 
ATOM     82  C   UNL A   1      40.933  26.405  26.131  1.00  0.00     0.200 A 
ATOM     83  F   UNL A   1      39.633  24.711  27.140  1.00  0.00    -0.200 F 
ATOM     84  F   UNL A   1      41.059  25.668  25.019  1.00  0.00    -0.200 F 
ENDBRANCH  50  74
BRANCH  62  85
ATOM     85  C   UNL A   1      43.883  28.264  34.620  1.00  0.00     0.064 A 
ATOM     86  C   UNL A   1      45.221  28.678  34.554  1.00  0.00     0.173 A 
ATOM     87  C   UNL A   1      43.599  27.073  35.308  1.00  0.00     0.173 A 
ATOM     88  F   UNL A   1      45.550  29.803  33.900  1.00  0.00    -0.203 F 
ATOM     89  C   UNL A   1      46.236  27.912  35.121  1.00  0.00     0.198 A 
ATOM     90  C   UNL A   1      44.611  26.332  35.911  1.00  0.00     0.198 A 
ATOM     91  F   UNL A   1      42.335  26.636  35.413  1.00  0.00    -0.203 F 
ATOM     92  F   UNL A   1      47.514  28.293  34.989  1.00  0.00    -0.200 F 
ATOM     93  C   UNL A   1      45.930  26.745  35.806  1.00  0.00     0.200 A 
ATOM     94  F   UNL A   1      44.308  25.218  36.592  1.00  0.00    -0.200 F 
ATOM     95  F   UNL A   1      46.907  26.015  36.359  1.00  0.00    -0.200 F 
ENDBRANCH  62  85
ENDBRANCH  36  37
ENDBRANCH  28  31
ENDBRANCH  26  27
ENDBRANCH  25  26
ENDBRANCH  24  25
ENDBRANCH   1  24
TORSDOF 18
ENDMDL
