MODEL 1
REMARK VINA RESULT:     -13.5      0.000      0.000
REMARK SMILES C[C@@H]1CC[C@H](C)[N@H+]1Cc1cc2c(cc1Cl)C=C(C(=O)NCCCCNC(=O)c1ccc(-c3c4nc(c(-c5c(F)c(F)c(F)c(F)c5F)c5ccc([nH]5)c(-c5c(F)c(F)c(F)c(F)c5F)c5nc(c(-c6c(F)c(F)c(F)c(F)c6F)c6ccc3[nH]6)C=C5)C=C4)cc1)[C@@H](C(F)(F)F)O2
REMARK SMILES IDX 22 1 21 2 20 3 18 4 19 5 17 7 9 8 10 9 14 10 11 11 13 12
REMARK SMILES IDX 15 13 12 14 96 15 16 16 91 17 8 18 7 19 6 20 5 21 4 22 3 23
REMARK SMILES IDX 2 24 1 26 92 27 93 28 94 29 95 30 23 31 24 32 25 33 26 34
REMARK SMILES IDX 27 36 28 37 29 38 90 39 30 40 89 41 31 42 32 43 33 44 83 45
REMARK SMILES IDX 34 46 88 47 82 48 84 49 35 50 87 51 81 52 80 53 36 55 68 56
REMARK SMILES IDX 48 57 67 58 49 59 52 60 66 61 85 62 50 63 51 64 65 66 86 67
REMARK SMILES IDX 53 68 37 69 38 70 46 71 39 72 40 73 44 74 47 75 41 76 42 77
REMARK SMILES IDX 45 78 43 79 69 80 70 81 78 82 71 83 72 84 76 85 79 86 73 87
REMARK SMILES IDX 74 88 77 89 75 90 54 91 55 92 63 93 56 94 57 95 61 96 64 97
REMARK SMILES IDX 58 98 59 99 62 100 60 101
REMARK H PARENT 20 6 7 25 25 35 84 54 52 65
REMARK Flexibility Score: inf
ROOT
ATOM      1  C   UNL A   1      37.393  21.922  24.579  1.00  0.00     0.023 C 
ENDROOT
BRANCH   1   2
ATOM      2  C   UNL A   1      36.986  23.081  25.485  1.00  0.00     0.116 C 
BRANCH   2   3
ATOM      3  N   UNL A   1      35.979  22.683  26.450  1.00  0.00    -0.352 N 
ATOM      4  C   UNL A   1      34.672  22.956  26.675  1.00  0.00     0.251 C 
ATOM      5  O   UNL A   1      34.176  22.372  27.645  1.00  0.00    -0.270 OA
ATOM      6  H   UNL A   1      36.339  22.051  27.113  1.00  0.00     0.163 HD
BRANCH   4   7
ATOM      7  C   UNL A   1      33.833  23.882  25.863  1.00  0.00     0.067 C 
ATOM      8  C   UNL A   1      31.781  27.962  23.701  1.00  0.00     0.029 A 
ATOM      9  C   UNL A   1      31.939  26.613  23.325  1.00  0.00     0.058 A 
ATOM     10  C   UNL A   1      32.276  28.351  24.959  1.00  0.00     0.050 A 
ATOM     11  C   UNL A   1      32.616  25.718  24.146  1.00  0.00     0.128 A 
ATOM     12  C   UNL A   1      33.021  27.461  25.746  1.00  0.00     0.033 A 
ATOM     13  Cl  UNL A   1      31.941  29.894  25.662  1.00  0.00    -0.084 Cl
ATOM     14  C   UNL A   1      33.205  26.144  25.334  1.00  0.00     0.019 A 
ATOM     15  O   UNL A   1      32.685  24.414  23.735  1.00  0.00    -0.475 OA
ATOM     16  C   UNL A   1      34.000  25.197  26.107  1.00  0.00     0.025 C 
ATOM     17  C   UNL A   1      32.829  23.458  24.828  1.00  0.00     0.314 C 
BRANCH   8  18
ATOM     18  C   UNL A   1      31.086  28.900  22.731  1.00  0.00     0.301 C 
BRANCH  18  19
ATOM     19  N   UNL A   1      29.711  29.301  23.060  1.00  0.00    -0.327 N 
ATOM     20  C   UNL A   1      28.377  27.380  23.875  1.00  0.00     0.075 C 
ATOM     21  C   UNL A   1      28.633  28.356  22.735  1.00  0.00     0.181 C 
ATOM     22  C   UNL A   1      27.414  29.235  22.461  1.00  0.00     0.071 C 
ATOM     23  C   UNL A   1      28.032  30.478  21.856  1.00  0.00     0.071 C 
ATOM     24  C   UNL A   1      29.321  30.653  22.648  1.00  0.00     0.181 C 
ATOM     25  H   UNL A   1      29.798  29.290  24.076  1.00  0.00     0.348 HD
ATOM     26  C   UNL A   1      29.116  31.503  23.903  1.00  0.00     0.075 C 
ENDBRANCH  18  19
ENDBRANCH   8  18
BRANCH  17  27
ATOM     27  C   UNL A   1      31.449  23.139  25.450  1.00  0.00     0.429 C 
ATOM     28  F   UNL A   1      30.455  23.454  24.582  1.00  0.00    -0.167 F 
ATOM     29  F   UNL A   1      31.308  21.822  25.736  1.00  0.00    -0.167 F 
ATOM     30  F   UNL A   1      31.213  23.812  26.597  1.00  0.00    -0.167 F 
ENDBRANCH  17  27
ENDBRANCH   4   7
ENDBRANCH   2   3
ENDBRANCH   1   2
BRANCH   1  31
ATOM     31  C   UNL A   1      37.873  20.678  25.327  1.00  0.00     0.023 C 
BRANCH  31  32
ATOM     32  C   UNL A   1      39.288  20.763  25.892  1.00  0.00     0.116 C 
BRANCH  32  33
ATOM     33  N   UNL A   1      40.030  19.510  25.844  1.00  0.00    -0.352 N 
ATOM     34  C   UNL A   1      41.375  19.326  26.081  1.00  0.00     0.251 C 
ATOM     35  H   UNL A   1      39.513  18.704  25.617  1.00  0.00     0.163 HD
ATOM     36  O   UNL A   1      41.902  18.230  25.968  1.00  0.00    -0.269 OA
BRANCH  34  37
ATOM     37  C   UNL A   1      42.176  20.517  26.416  1.00  0.00     0.039 A 
ATOM     38  C   UNL A   1      42.280  20.929  27.745  1.00  0.00     0.014 A 
ATOM     39  C   UNL A   1      42.670  21.306  25.374  1.00  0.00     0.014 A 
ATOM     40  C   UNL A   1      42.726  22.215  28.022  1.00  0.00     0.010 A 
ATOM     41  C   UNL A   1      43.177  22.573  25.663  1.00  0.00     0.010 A 
ATOM     42  C   UNL A   1      43.149  23.058  26.980  1.00  0.00    -0.014 A 
BRANCH  42  43
ATOM     43  C   UNL A   1      43.490  24.471  27.275  1.00  0.00     0.031 A 
ATOM     44  C   UNL A   1      44.869  24.992  26.975  1.00  0.00     0.074 A 
ATOM     45  C   UNL A   1      42.538  25.299  27.739  1.00  0.00     0.049 A 
ATOM     46  N   UNL A   1      45.372  26.180  27.203  1.00  0.00    -0.248 NA
ATOM     47  C   UNL A   1      45.810  24.062  26.327  1.00  0.00     0.031 C 
ATOM     48  C   UNL A   1      41.152  24.920  28.010  1.00  0.00     0.029 A 
ATOM     49  N   UNL A   1      42.586  26.636  28.038  1.00  0.00    -0.354 N 
ATOM     50  C   UNL A   1      46.684  26.134  26.750  1.00  0.00     0.074 A 
ATOM     51  C   UNL A   1      46.910  24.797  26.244  1.00  0.00     0.031 C 
ATOM     52  C   UNL A   1      40.466  26.011  28.383  1.00  0.00     0.029 A 
ATOM     53  C   UNL A   1      41.379  27.148  28.442  1.00  0.00     0.049 A 
ATOM     54  H   UNL A   1      43.406  27.176  27.969  1.00  0.00     0.167 HD
ATOM     55  C   UNL A   1      47.611  27.120  26.751  1.00  0.00     0.037 A 
ATOM     56  C   UNL A   1      41.050  28.393  28.833  1.00  0.00     0.037 A 
ATOM     57  C   UNL A   1      47.376  28.455  27.236  1.00  0.00     0.049 A 
ATOM     58  C   UNL A   1      42.116  29.449  28.883  1.00  0.00     0.074 A 
ATOM     59  C   UNL A   1      48.262  29.515  27.314  1.00  0.00     0.029 A 
ATOM     60  N   UNL A   1      46.158  28.916  27.710  1.00  0.00    -0.354 N 
ATOM     61  N   UNL A   1      43.373  29.372  28.524  1.00  0.00    -0.248 NA
ATOM     62  C   UNL A   1      41.721  30.759  29.418  1.00  0.00     0.031 C 
ATOM     63  C   UNL A   1      47.585  30.613  27.855  1.00  0.00     0.029 A 
ATOM     64  C   UNL A   1      46.269  30.245  28.084  1.00  0.00     0.049 A 
ATOM     65  H   UNL A   1      45.335  28.379  27.772  1.00  0.00     0.167 HD
ATOM     66  C   UNL A   1      43.919  30.621  28.782  1.00  0.00     0.074 A 
ATOM     67  C   UNL A   1      42.851  31.444  29.310  1.00  0.00     0.031 C 
ATOM     68  C   UNL A   1      45.194  31.044  28.608  1.00  0.00     0.037 A 
BRANCH  55  69
ATOM     69  C   UNL A   1      48.976  26.800  26.218  1.00  0.00     0.064 A 
ATOM     70  C   UNL A   1      49.935  26.154  27.010  1.00  0.00     0.173 A 
ATOM     71  C   UNL A   1      49.300  27.077  24.881  1.00  0.00     0.173 A 
ATOM     72  F   UNL A   1      49.676  25.884  28.297  1.00  0.00    -0.203 F 
ATOM     73  C   UNL A   1      51.175  25.801  26.482  1.00  0.00     0.198 A 
ATOM     74  C   UNL A   1      50.534  26.704  24.353  1.00  0.00     0.198 A 
ATOM     75  F   UNL A   1      48.415  27.691  24.084  1.00  0.00    -0.203 F 
ATOM     76  F   UNL A   1      52.087  25.204  27.263  1.00  0.00    -0.200 F 
ATOM     77  C   UNL A   1      51.470  26.068  25.153  1.00  0.00     0.200 A 
ATOM     78  F   UNL A   1      50.814  26.956  23.067  1.00  0.00    -0.200 F 
ATOM     79  F   UNL A   1      52.659  25.714  24.645  1.00  0.00    -0.200 F 
ENDBRANCH  55  69
BRANCH  56  80
ATOM     80  C   UNL A   1      39.649  28.699  29.211  1.00  0.00     0.064 A 
ATOM     81  C   UNL A   1      39.204  28.502  30.523  1.00  0.00     0.173 A 
ATOM     82  C   UNL A   1      38.737  29.212  28.277  1.00  0.00     0.173 A 
ATOM     83  F   UNL A   1      40.036  27.993  31.443  1.00  0.00    -0.203 F 
ATOM     84  C   UNL A   1      37.894  28.804  30.890  1.00  0.00     0.198 A 
ATOM     85  C   UNL A   1      37.436  29.537  28.650  1.00  0.00     0.198 A 
ATOM     86  F   UNL A   1      39.119  29.418  27.008  1.00  0.00    -0.203 F 
ATOM     87  F   UNL A   1      37.484  28.582  32.145  1.00  0.00    -0.200 F 
ATOM     88  C   UNL A   1      37.014  29.329  29.954  1.00  0.00     0.200 A 
ATOM     89  F   UNL A   1      36.592  30.055  27.746  1.00  0.00    -0.200 F 
ATOM     90  F   UNL A   1      35.758  29.630  30.310  1.00  0.00    -0.200 F 
ENDBRANCH  56  80
BRANCH  68  91
ATOM     91  C   UNL A   1      45.499  32.462  28.980  1.00  0.00     0.064 A 
ATOM     92  C   UNL A   1      45.310  33.509  28.067  1.00  0.00     0.173 A 
ATOM     93  C   UNL A   1      45.944  32.780  30.271  1.00  0.00     0.173 A 
ATOM     94  F   UNL A   1      44.899  33.248  26.817  1.00  0.00    -0.203 F 
ATOM     95  C   UNL A   1      45.572  34.827  28.430  1.00  0.00     0.198 A 
ATOM     96  C   UNL A   1      46.186  34.101  30.636  1.00  0.00     0.198 A 
ATOM     97  F   UNL A   1      46.134  31.811  31.178  1.00  0.00    -0.203 F 
ATOM     98  F   UNL A   1      45.417  35.810  27.533  1.00  0.00    -0.200 F 
ATOM     99  C   UNL A   1      46.005  35.122  29.715  1.00  0.00     0.200 A 
ATOM    100  F   UNL A   1      46.597  34.386  31.880  1.00  0.00    -0.200 F 
ATOM    101  F   UNL A   1      46.253  36.391  30.064  1.00  0.00    -0.200 F 
ENDBRANCH  68  91
ENDBRANCH  42  43
ENDBRANCH  34  37
ENDBRANCH  32  33
ENDBRANCH  31  32
ENDBRANCH   1  31
TORSDOF 14
ENDMDL
MODEL 2
REMARK VINA RESULT:     -13.5      0.153      1.921
REMARK SMILES C[C@@H]1CC[C@H](C)[N@H+]1Cc1cc2c(cc1Cl)C=C(C(=O)NCCCCNC(=O)c1ccc(-c3c4nc(c(-c5c(F)c(F)c(F)c(F)c5F)c5ccc([nH]5)c(-c5c(F)c(F)c(F)c(F)c5F)c5nc(c(-c6c(F)c(F)c(F)c(F)c6F)c6ccc3[nH]6)C=C5)C=C4)cc1)[C@@H](C(F)(F)F)O2
REMARK SMILES IDX 22 1 21 2 20 3 18 4 19 5 17 7 9 8 10 9 14 10 11 11 13 12
REMARK SMILES IDX 15 13 12 14 96 15 16 16 91 17 8 18 7 19 6 20 5 21 4 22 3 23
REMARK SMILES IDX 2 24 1 26 92 27 93 28 94 29 95 30 23 31 24 32 25 33 26 34
REMARK SMILES IDX 27 36 28 37 29 38 90 39 30 40 89 41 31 42 32 43 33 44 83 45
REMARK SMILES IDX 34 46 88 47 82 48 84 49 35 50 87 51 81 52 80 53 36 55 68 56
REMARK SMILES IDX 48 57 67 58 49 59 52 60 66 61 85 62 50 63 51 64 65 66 86 67
REMARK SMILES IDX 53 68 37 69 38 70 46 71 39 72 40 73 44 74 47 75 41 76 42 77
REMARK SMILES IDX 45 78 43 79 69 80 70 81 78 82 71 83 72 84 76 85 79 86 73 87
REMARK SMILES IDX 74 88 77 89 75 90 54 91 55 92 63 93 56 94 57 95 61 96 64 97
REMARK SMILES IDX 58 98 59 99 62 100 60 101
REMARK H PARENT 20 6 7 25 25 35 84 54 52 65
REMARK Flexibility Score: inf
ROOT
ATOM      1  C   UNL A   1      37.451  22.069  24.591  1.00  0.00     0.023 C 
ENDROOT
BRANCH   1   2
ATOM      2  C   UNL A   1      37.047  23.146  25.593  1.00  0.00     0.116 C 
BRANCH   2   3
ATOM      3  N   UNL A   1      36.012  22.681  26.497  1.00  0.00    -0.352 N 
ATOM      4  C   UNL A   1      34.689  22.902  26.672  1.00  0.00     0.251 C 
ATOM      5  O   UNL A   1      34.170  22.268  27.597  1.00  0.00    -0.270 OA
ATOM      6  H   UNL A   1      36.365  22.038  27.154  1.00  0.00     0.163 HD
BRANCH   4   7
ATOM      7  C   UNL A   1      33.855  23.828  25.855  1.00  0.00     0.067 C 
ATOM      8  C   UNL A   1      31.761  27.912  23.742  1.00  0.00     0.029 A 
ATOM      9  C   UNL A   1      31.981  26.584  23.327  1.00  0.00     0.058 A 
ATOM     10  C   UNL A   1      32.186  28.273  25.033  1.00  0.00     0.050 A 
ATOM     11  C   UNL A   1      32.652  25.683  24.147  1.00  0.00     0.128 A 
ATOM     12  C   UNL A   1      32.927  27.381  25.823  1.00  0.00     0.033 A 
ATOM     13  Cl  UNL A   1      31.768  29.779  25.772  1.00  0.00    -0.084 Cl
ATOM     14  C   UNL A   1      33.173  26.086  25.375  1.00  0.00     0.019 A 
ATOM     15  O   UNL A   1      32.784  24.397  23.697  1.00  0.00    -0.475 OA
ATOM     16  C   UNL A   1      33.965  25.138  26.150  1.00  0.00     0.025 C 
ATOM     17  C   UNL A   1      32.912  23.408  24.762  1.00  0.00     0.314 C 
BRANCH   8  18
ATOM     18  C   UNL A   1      31.077  28.861  22.773  1.00  0.00     0.301 C 
BRANCH  18  19
ATOM     19  N   UNL A   1      29.697  29.255  23.088  1.00  0.00    -0.327 N 
ATOM     20  C   UNL A   1      28.336  27.309  23.791  1.00  0.00     0.075 C 
ATOM     21  C   UNL A   1      28.622  28.332  22.700  1.00  0.00     0.181 C 
ATOM     22  C   UNL A   1      27.414  29.229  22.437  1.00  0.00     0.071 C 
ATOM     23  C   UNL A   1      28.051  30.492  21.899  1.00  0.00     0.071 C 
ATOM     24  C   UNL A   1      29.323  30.626  22.727  1.00  0.00     0.181 C 
ATOM     25  H   UNL A   1      29.761  29.201  24.105  1.00  0.00     0.348 HD
ATOM     26  C   UNL A   1      29.094  31.423  24.011  1.00  0.00     0.075 C 
ENDBRANCH  18  19
ENDBRANCH   8  18
BRANCH  17  27
ATOM     27  C   UNL A   1      31.518  23.023  25.309  1.00  0.00     0.429 C 
ATOM     28  F   UNL A   1      31.436  21.682  25.492  1.00  0.00    -0.167 F 
ATOM     29  F   UNL A   1      31.266  23.592  26.513  1.00  0.00    -0.167 F 
ATOM     30  F   UNL A   1      30.505  23.383  24.491  1.00  0.00    -0.167 F 
ENDBRANCH  17  27
ENDBRANCH   4   7
ENDBRANCH   2   3
ENDBRANCH   1   2
BRANCH   1  31
ATOM     31  C   UNL A   1      37.909  20.757  25.229  1.00  0.00     0.023 C 
BRANCH  31  32
ATOM     32  C   UNL A   1      39.288  20.796  25.882  1.00  0.00     0.116 C 
BRANCH  32  33
ATOM     33  N   UNL A   1      40.016  19.535  25.823  1.00  0.00    -0.352 N 
ATOM     34  C   UNL A   1      41.355  19.331  26.077  1.00  0.00     0.251 C 
ATOM     35  H   UNL A   1      39.493  18.739  25.574  1.00  0.00     0.163 HD
ATOM     36  O   UNL A   1      41.871  18.231  25.953  1.00  0.00    -0.269 OA
BRANCH  34  37
ATOM     37  C   UNL A   1      42.164  20.507  26.445  1.00  0.00     0.039 A 
ATOM     38  C   UNL A   1      42.181  20.948  27.769  1.00  0.00     0.014 A 
ATOM     39  C   UNL A   1      42.758  21.256  25.427  1.00  0.00     0.014 A 
ATOM     40  C   UNL A   1      42.644  22.227  28.050  1.00  0.00     0.010 A 
ATOM     41  C   UNL A   1      43.280  22.515  25.725  1.00  0.00     0.010 A 
ATOM     42  C   UNL A   1      43.168  23.032  27.025  1.00  0.00    -0.014 A 
BRANCH  42  43
ATOM     43  C   UNL A   1      43.529  24.441  27.314  1.00  0.00     0.031 A 
ATOM     44  C   UNL A   1      44.912  24.945  27.000  1.00  0.00     0.074 A 
ATOM     45  C   UNL A   1      42.592  25.281  27.785  1.00  0.00     0.049 A 
ATOM     46  N   UNL A   1      45.431  26.127  27.221  1.00  0.00    -0.248 NA
ATOM     47  C   UNL A   1      45.835  24.003  26.346  1.00  0.00     0.031 C 
ATOM     48  C   UNL A   1      41.203  24.920  28.069  1.00  0.00     0.029 A 
ATOM     49  N   UNL A   1      42.658  26.618  28.081  1.00  0.00    -0.354 N 
ATOM     50  C   UNL A   1      46.738  26.065  26.756  1.00  0.00     0.074 A 
ATOM     51  C   UNL A   1      46.943  24.725  26.251  1.00  0.00     0.031 C 
ATOM     52  C   UNL A   1      40.534  26.019  28.447  1.00  0.00     0.029 A 
ATOM     53  C   UNL A   1      41.461  27.145  28.494  1.00  0.00     0.049 A 
ATOM     54  H   UNL A   1      43.483  27.149  28.003  1.00  0.00     0.167 HD
ATOM     55  C   UNL A   1      47.676  27.040  26.746  1.00  0.00     0.037 A 
ATOM     56  C   UNL A   1      41.150  28.395  28.886  1.00  0.00     0.037 A 
ATOM     57  C   UNL A   1      47.462  28.379  27.231  1.00  0.00     0.049 A 
ATOM     58  C   UNL A   1      42.229  29.438  28.924  1.00  0.00     0.074 A 
ATOM     59  C   UNL A   1      48.361  29.428  27.299  1.00  0.00     0.029 A 
ATOM     60  N   UNL A   1      46.253  28.855  27.715  1.00  0.00    -0.354 N 
ATOM     61  N   UNL A   1      43.482  29.346  28.554  1.00  0.00    -0.248 NA
ATOM     62  C   UNL A   1      41.854  30.754  29.460  1.00  0.00     0.031 C 
ATOM     63  C   UNL A   1      47.702  30.535  27.844  1.00  0.00     0.029 A 
ATOM     64  C   UNL A   1      46.384  30.183  28.086  1.00  0.00     0.049 A 
ATOM     65  H   UNL A   1      45.425  28.328  27.786  1.00  0.00     0.167 HD
ATOM     66  C   UNL A   1      44.045  30.589  28.804  1.00  0.00     0.074 A 
ATOM     67  C   UNL A   1      42.991  31.426  29.340  1.00  0.00     0.031 C 
ATOM     68  C   UNL A   1      45.323  30.997  28.617  1.00  0.00     0.037 A 
BRANCH  55  69
ATOM     69  C   UNL A   1      49.032  26.703  26.202  1.00  0.00     0.064 A 
ATOM     70  C   UNL A   1      49.372  26.976  24.869  1.00  0.00     0.173 A 
ATOM     71  C   UNL A   1      50.022  26.167  27.040  1.00  0.00     0.173 A 
ATOM     72  F   UNL A   1      48.455  27.473  24.027  1.00  0.00    -0.203 F 
ATOM     73  C   UNL A   1      50.656  26.721  24.394  1.00  0.00     0.198 A 
ATOM     74  C   UNL A   1      51.310  25.932  26.565  1.00  0.00     0.198 A 
ATOM     75  F   UNL A   1      49.745  25.891  28.322  1.00  0.00    -0.203 F 
ATOM     76  F   UNL A   1      50.955  26.969  23.111  1.00  0.00    -0.200 F 
ATOM     77  C   UNL A   1      51.626  26.208  25.243  1.00  0.00     0.200 A 
ATOM     78  F   UNL A   1      52.247  25.444  27.389  1.00  0.00    -0.200 F 
ATOM     79  F   UNL A   1      52.864  25.976  24.787  1.00  0.00    -0.200 F 
ENDBRANCH  55  69
BRANCH  56  80
ATOM     80  C   UNL A   1      39.757  28.718  29.276  1.00  0.00     0.064 A 
ATOM     81  C   UNL A   1      38.850  29.223  28.336  1.00  0.00     0.173 A 
ATOM     82  C   UNL A   1      39.299  28.511  30.585  1.00  0.00     0.173 A 
ATOM     83  F   UNL A   1      39.251  29.458  27.078  1.00  0.00    -0.203 F 
ATOM     84  C   UNL A   1      37.535  29.513  28.691  1.00  0.00     0.198 A 
ATOM     85  C   UNL A   1      37.977  28.776  30.933  1.00  0.00     0.198 A 
ATOM     86  F   UNL A   1      40.131  28.028  31.520  1.00  0.00    -0.203 F 
ATOM     87  F   UNL A   1      36.694  30.021  27.781  1.00  0.00    -0.200 F 
ATOM     88  C   UNL A   1      37.098  29.282  29.988  1.00  0.00     0.200 A 
ATOM     89  F   UNL A   1      37.556  28.541  32.183  1.00  0.00    -0.200 F 
ATOM     90  F   UNL A   1      35.829  29.549  30.326  1.00  0.00    -0.200 F 
ENDBRANCH  56  80
BRANCH  68  91
ATOM     91  C   UNL A   1      45.648  32.412  28.984  1.00  0.00     0.064 A 
ATOM     92  C   UNL A   1      46.136  32.739  30.257  1.00  0.00     0.173 A 
ATOM     93  C   UNL A   1      45.508  33.441  28.042  1.00  0.00     0.173 A 
ATOM     94  F   UNL A   1      46.271  31.786  31.192  1.00  0.00    -0.203 F 
ATOM     95  C   UNL A   1      46.458  34.053  30.580  1.00  0.00     0.198 A 
ATOM     96  C   UNL A   1      45.851  34.751  28.363  1.00  0.00     0.198 A 
ATOM     97  F   UNL A   1      45.049  33.173  26.811  1.00  0.00    -0.203 F 
ATOM     98  F   UNL A   1      46.891  34.351  31.812  1.00  0.00    -0.200 F 
ATOM     99  C   UNL A   1      46.320  35.056  29.632  1.00  0.00     0.200 A 
ATOM    100  F   UNL A   1      45.724  35.719  27.444  1.00  0.00    -0.200 F 
ATOM    101  F   UNL A   1      46.635  36.321  29.944  1.00  0.00    -0.200 F 
ENDBRANCH  68  91
ENDBRANCH  42  43
ENDBRANCH  34  37
ENDBRANCH  32  33
ENDBRANCH  31  32
ENDBRANCH   1  31
TORSDOF 14
ENDMDL
MODEL 3
REMARK VINA RESULT:     -13.3      5.514     10.996
REMARK SMILES C[C@@H]1CC[C@H](C)[N@H+]1Cc1cc2c(cc1Cl)C=C(C(=O)NCCCCNC(=O)c1ccc(-c3c4nc(c(-c5c(F)c(F)c(F)c(F)c5F)c5ccc([nH]5)c(-c5c(F)c(F)c(F)c(F)c5F)c5nc(c(-c6c(F)c(F)c(F)c(F)c6F)c6ccc3[nH]6)C=C5)C=C4)cc1)[C@@H](C(F)(F)F)O2
REMARK SMILES IDX 22 1 21 2 20 3 18 4 19 5 17 7 9 8 10 9 14 10 11 11 13 12
REMARK SMILES IDX 15 13 12 14 96 15 16 16 91 17 8 18 7 19 6 20 5 21 4 22 3 23
REMARK SMILES IDX 2 24 1 26 92 27 93 28 94 29 95 30 23 31 24 32 25 33 26 34
REMARK SMILES IDX 27 36 28 37 29 38 90 39 30 40 89 41 31 42 32 43 33 44 83 45
REMARK SMILES IDX 34 46 88 47 82 48 84 49 35 50 87 51 81 52 80 53 36 55 68 56
REMARK SMILES IDX 48 57 67 58 49 59 52 60 66 61 85 62 50 63 51 64 65 66 86 67
REMARK SMILES IDX 53 68 37 69 38 70 46 71 39 72 40 73 44 74 47 75 41 76 42 77
REMARK SMILES IDX 45 78 43 79 69 80 70 81 78 82 71 83 72 84 76 85 79 86 73 87
REMARK SMILES IDX 74 88 77 89 75 90 54 91 55 92 63 93 56 94 57 95 61 96 64 97
REMARK SMILES IDX 58 98 59 99 62 100 60 101
REMARK H PARENT 20 6 7 25 25 35 84 54 52 65
REMARK Flexibility Score: inf
ROOT
ATOM      1  C   UNL A   1      32.257  30.077  27.247  1.00  0.00     0.023 C 
ENDROOT
BRANCH   1   2
ATOM      2  C   UNL A   1      33.487  29.308  26.774  1.00  0.00     0.116 C 
BRANCH   2   3
ATOM      3  N   UNL A   1      33.659  29.398  25.336  1.00  0.00    -0.352 N 
ATOM      4  C   UNL A   1      33.605  28.546  24.286  1.00  0.00     0.251 C 
ATOM      5  O   UNL A   1      33.819  29.062  23.183  1.00  0.00    -0.270 OA
ATOM      6  H   UNL A   1      33.871  30.316  25.051  1.00  0.00     0.163 HD
BRANCH   4   7
ATOM      7  C   UNL A   1      33.320  27.086  24.374  1.00  0.00     0.067 C 
ATOM      8  C   UNL A   1      33.488  22.148  25.432  1.00  0.00     0.029 A 
ATOM      9  C   UNL A   1      32.457  23.069  25.157  1.00  0.00     0.058 A 
ATOM     10  C   UNL A   1      34.810  22.627  25.426  1.00  0.00     0.050 A 
ATOM     11  C   UNL A   1      32.740  24.415  24.950  1.00  0.00     0.128 A 
ATOM     12  C   UNL A   1      35.080  23.997  25.290  1.00  0.00     0.033 A 
ATOM     13  Cl  UNL A   1      36.186  21.582  25.497  1.00  0.00    -0.084 Cl
ATOM     14  C   UNL A   1      34.042  24.897  25.065  1.00  0.00     0.019 A 
ATOM     15  O   UNL A   1      31.692  25.240  24.639  1.00  0.00    -0.475 OA
ATOM     16  C   UNL A   1      34.276  26.332  24.950  1.00  0.00     0.025 C 
ATOM     17  C   UNL A   1      32.076  26.415  23.863  1.00  0.00     0.314 C 
BRANCH   8  18
ATOM     18  C   UNL A   1      33.104  20.705  25.710  1.00  0.00     0.301 C 
BRANCH  18  19
ATOM     19  N   UNL A   1      33.284  19.745  24.613  1.00  0.00    -0.327 N 
ATOM     20  C   UNL A   1      32.260  20.563  22.512  1.00  0.00     0.075 C 
ATOM     21  C   UNL A   1      32.171  19.576  23.668  1.00  0.00     0.181 C 
ATOM     22  C   UNL A   1      32.284  18.132  23.186  1.00  0.00     0.071 C 
ATOM     23  C   UNL A   1      32.835  17.419  24.403  1.00  0.00     0.071 C 
ATOM     24  C   UNL A   1      33.811  18.430  24.993  1.00  0.00     0.181 C 
ATOM     25  H   UNL A   1      34.013  20.244  24.104  1.00  0.00     0.348 HD
ATOM     26  C   UNL A   1      35.216  18.282  24.410  1.00  0.00     0.075 C 
ENDBRANCH  18  19
ENDBRANCH   8  18
BRANCH  17  27
ATOM     27  C   UNL A   1      32.179  26.058  22.362  1.00  0.00     0.429 C 
ATOM     28  F   UNL A   1      31.833  24.763  22.159  1.00  0.00    -0.167 F 
ATOM     29  F   UNL A   1      31.342  26.804  21.601  1.00  0.00    -0.167 F 
ATOM     30  F   UNL A   1      33.420  26.231  21.857  1.00  0.00    -0.167 F 
ENDBRANCH  17  27
ENDBRANCH   4   7
ENDBRANCH   2   3
ENDBRANCH   1   2
BRANCH   1  31
ATOM     31  C   UNL A   1      32.208  31.533  26.781  1.00  0.00     0.023 C 
BRANCH  31  32
ATOM     32  C   UNL A   1      33.086  32.499  27.571  1.00  0.00     0.116 C 
BRANCH  32  33
ATOM     33  N   UNL A   1      32.528  33.838  27.714  1.00  0.00    -0.352 N 
ATOM     34  C   UNL A   1      32.987  34.852  28.526  1.00  0.00     0.251 C 
ATOM     35  H   UNL A   1      31.735  34.041  27.168  1.00  0.00     0.163 HD
ATOM     36  O   UNL A   1      32.410  35.927  28.598  1.00  0.00    -0.269 OA
BRANCH  34  37
ATOM     37  C   UNL A   1      34.170  34.573  29.360  1.00  0.00     0.039 A 
ATOM     38  C   UNL A   1      35.447  34.689  28.809  1.00  0.00     0.014 A 
ATOM     39  C   UNL A   1      33.978  34.031  30.633  1.00  0.00     0.014 A 
ATOM     40  C   UNL A   1      36.521  34.102  29.465  1.00  0.00     0.010 A 
ATOM     41  C   UNL A   1      35.071  33.500  31.317  1.00  0.00     0.010 A 
ATOM     42  C   UNL A   1      36.337  33.476  30.709  1.00  0.00    -0.014 A 
BRANCH  42  43
ATOM     43  C   UNL A   1      37.461  32.736  31.330  1.00  0.00     0.031 A 
ATOM     44  C   UNL A   1      37.910  33.076  32.725  1.00  0.00     0.074 A 
ATOM     45  C   UNL A   1      38.025  31.710  30.668  1.00  0.00     0.049 A 
ATOM     46  N   UNL A   1      38.901  32.576  33.420  1.00  0.00    -0.248 NA
ATOM     47  C   UNL A   1      37.144  34.110  33.441  1.00  0.00     0.031 C 
ATOM     48  C   UNL A   1      37.632  31.251  29.336  1.00  0.00     0.029 A 
ATOM     49  N   UNL A   1      39.028  30.852  31.037  1.00  0.00    -0.354 N 
ATOM     50  C   UNL A   1      38.891  33.244  34.638  1.00  0.00     0.074 A 
ATOM     51  C   UNL A   1      37.804  34.198  34.587  1.00  0.00     0.031 C 
ATOM     52  C   UNL A   1      38.348  30.162  29.020  1.00  0.00     0.029 A 
ATOM     53  C   UNL A   1      39.294  29.888  30.098  1.00  0.00     0.049 A 
ATOM     54  H   UNL A   1      39.510  30.921  31.892  1.00  0.00     0.167 HD
ATOM     55  C   UNL A   1      39.710  33.070  35.701  1.00  0.00     0.037 A 
ATOM     56  C   UNL A   1      40.211  28.903  30.100  1.00  0.00     0.037 A 
ATOM     57  C   UNL A   1      40.778  32.106  35.755  1.00  0.00     0.049 A 
ATOM     58  C   UNL A   1      41.147  28.777  31.266  1.00  0.00     0.074 A 
ATOM     59  C   UNL A   1      41.687  31.879  36.774  1.00  0.00     0.029 A 
ATOM     60  N   UNL A   1      41.066  31.195  34.751  1.00  0.00    -0.354 N 
ATOM     61  N   UNL A   1      41.176  29.466  32.381  1.00  0.00    -0.248 NA
ATOM     62  C   UNL A   1      42.194  27.751  31.164  1.00  0.00     0.031 C 
ATOM     63  C   UNL A   1      42.539  30.844  36.377  1.00  0.00     0.029 A 
ATOM     64  C   UNL A   1      42.140  30.406  35.125  1.00  0.00     0.049 A 
ATOM     65  H   UNL A   1      40.579  31.121  33.899  1.00  0.00     0.167 HD
ATOM     66  C   UNL A   1      42.238  28.956  33.114  1.00  0.00     0.074 A 
ATOM     67  C   UNL A   1      42.815  27.885  32.328  1.00  0.00     0.031 C 
ATOM     68  C   UNL A   1      42.699  29.347  34.326  1.00  0.00     0.037 A 
BRANCH  55  69
ATOM     69  C   UNL A   1      39.497  33.946  36.900  1.00  0.00     0.064 A 
ATOM     70  C   UNL A   1      38.749  33.507  38.001  1.00  0.00     0.173 A 
ATOM     71  C   UNL A   1      40.107  35.207  36.977  1.00  0.00     0.173 A 
ATOM     72  F   UNL A   1      38.133  32.316  37.967  1.00  0.00    -0.203 F 
ATOM     73  C   UNL A   1      38.615  34.302  39.136  1.00  0.00     0.198 A 
ATOM     74  C   UNL A   1      39.987  35.990  38.122  1.00  0.00     0.198 A 
ATOM     75  F   UNL A   1      40.835  35.670  35.951  1.00  0.00    -0.203 F 
ATOM     76  F   UNL A   1      37.877  33.873  40.170  1.00  0.00    -0.200 F 
ATOM     77  C   UNL A   1      39.241  35.539  39.200  1.00  0.00     0.200 A 
ATOM     78  F   UNL A   1      40.599  37.181  38.185  1.00  0.00    -0.200 F 
ATOM     79  F   UNL A   1      39.123  36.296  40.299  1.00  0.00    -0.200 F 
ENDBRANCH  55  69
BRANCH  56  80
ATOM     80  C   UNL A   1      40.286  27.966  28.953  1.00  0.00     0.064 A 
ATOM     81  C   UNL A   1      39.591  26.751  28.975  1.00  0.00     0.173 A 
ATOM     82  C   UNL A   1      41.033  28.275  27.806  1.00  0.00     0.173 A 
ATOM     83  F   UNL A   1      38.882  26.405  30.060  1.00  0.00    -0.203 F 
ATOM     84  C   UNL A   1      39.643  25.874  27.894  1.00  0.00     0.198 A 
ATOM     85  C   UNL A   1      41.063  27.410  26.716  1.00  0.00     0.198 A 
ATOM     86  F   UNL A   1      41.714  29.428  27.738  1.00  0.00    -0.203 F 
ATOM     87  F   UNL A   1      38.992  24.705  27.951  1.00  0.00    -0.200 F 
ATOM     88  C   UNL A   1      40.373  26.208  26.763  1.00  0.00     0.200 A 
ATOM     89  F   UNL A   1      41.759  27.741  25.620  1.00  0.00    -0.200 F 
ATOM     90  F   UNL A   1      40.413  25.370  25.718  1.00  0.00    -0.200 F 
ENDBRANCH  56  80
BRANCH  68  91
ATOM     91  C   UNL A   1      43.876  28.606  34.879  1.00  0.00     0.064 A 
ATOM     92  C   UNL A   1      45.186  29.057  34.662  1.00  0.00     0.173 A 
ATOM     93  C   UNL A   1      43.692  27.460  35.666  1.00  0.00     0.173 A 
ATOM     94  F   UNL A   1      45.409  30.141  33.903  1.00  0.00    -0.203 F 
ATOM     95  C   UNL A   1      46.273  28.375  35.200  1.00  0.00     0.198 A 
ATOM     96  C   UNL A   1      44.780  26.792  36.219  1.00  0.00     0.198 A 
ATOM     97  F   UNL A   1      42.456  26.995  35.903  1.00  0.00    -0.203 F 
ATOM     98  F   UNL A   1      47.518  28.802  34.953  1.00  0.00    -0.200 F 
ATOM     99  C   UNL A   1      46.069  27.247  35.982  1.00  0.00     0.200 A 
ATOM    100  F   UNL A   1      44.582  25.707  36.980  1.00  0.00    -0.200 F 
ATOM    101  F   UNL A   1      47.116  26.594  36.503  1.00  0.00    -0.200 F 
ENDBRANCH  68  91
ENDBRANCH  42  43
ENDBRANCH  34  37
ENDBRANCH  32  33
ENDBRANCH  31  32
ENDBRANCH   1  31
TORSDOF 14
ENDMDL
