MODEL 1
REMARK VINA RESULT:     -11.4      0.000      0.000
REMARK SMILES CCC[C@H](C)C[N@H+]1[C@@H]2CC[C@H]1C[C@H](CC(=O)NCCCNC(=O)c1ccc(-c3c4nc(c(-c5c(F)c(F)c(F)c(F)c5F)c5ccc([nH]5)c(-c5c(F)c(F)c(F)c(F)c5F)c5nc(c(-c6c(F)c(F)c(F)c(F)c6F)c6ccc3[nH]6)C=C5)C=C4)cc1)C2
REMARK SMILES IDX 15 1 16 2 17 3 14 5 13 6 7 7 8 8 11 9 9 11 87 12 10 13 12 14
REMARK SMILES IDX 6 15 4 16 5 17 3 18 2 19 1 20 18 21 19 22 20 23 21 24 22 25
REMARK SMILES IDX 23 27 24 28 25 29 86 30 26 31 85 32 27 33 28 34 29 35 79 36
REMARK SMILES IDX 30 37 84 38 78 39 80 40 31 41 83 42 77 43 76 44 32 46 64 47
REMARK SMILES IDX 44 48 63 49 45 50 48 51 62 52 81 53 46 54 47 55 61 57 82 58
REMARK SMILES IDX 49 59 33 60 34 61 42 62 35 63 36 64 40 65 43 66 37 67 38 68
REMARK SMILES IDX 41 69 39 70 65 71 66 72 74 73 67 74 68 75 72 76 75 77 69 78
REMARK SMILES IDX 70 79 73 80 71 81 50 82 51 83 59 84 52 85 53 86 57 87 60 88
REMARK SMILES IDX 54 89 55 90 58 91 56 92
REMARK H PARENT 17 4 7 10 21 26 80 45 48 56
REMARK Flexibility Score: inf
ROOT
ATOM      1  C   UNL A   1      37.358  23.502  25.634  1.00  0.00     0.220 C 
ATOM      2  O   UNL A   1      37.928  24.289  26.393  1.00  0.00    -0.275 OA
ATOM      3  N   UNL A   1      37.975  22.316  25.372  1.00  0.00    -0.356 N 
ATOM      4  H   UNL A   1      38.834  22.202  25.838  1.00  0.00     0.163 HD
ENDROOT
BRANCH   1   5
ATOM      5  C   UNL A   1      36.015  23.851  25.027  1.00  0.00     0.104 C 
BRANCH   5   6
ATOM      6  C   UNL A   1      34.805  23.551  25.936  1.00  0.00     0.010 C 
ATOM      7  N   UNL A   1      32.894  21.242  26.076  1.00  0.00    -0.330 N 
ATOM      8  C   UNL A   1      33.801  21.523  27.187  1.00  0.00     0.184 C 
ATOM      9  C   UNL A   1      32.393  22.580  25.721  1.00  0.00     0.184 C 
ATOM     10  H   UNL A   1      32.198  20.570  26.399  1.00  0.00     0.348 HD
ATOM     11  C   UNL A   1      32.895  22.407  28.064  1.00  0.00     0.071 C 
ATOM     12  C   UNL A   1      35.072  22.273  26.755  1.00  0.00     0.069 C 
ATOM     13  C   UNL A   1      31.966  23.118  27.082  1.00  0.00     0.071 C 
ATOM     14  C   UNL A   1      33.507  23.456  25.125  1.00  0.00     0.069 C 
BRANCH   7  15
ATOM     15  C   UNL A   1      33.315  20.431  24.929  1.00  0.00     0.265 C 
BRANCH  15  16
ATOM     16  C   UNL A   1      32.267  19.933  23.905  1.00  0.00     0.041 C 
ATOM     17  C   UNL A   1      32.102  20.896  22.723  1.00  0.00     0.013 C 
BRANCH  16  18
ATOM     18  C   UNL A   1      32.608  18.518  23.368  1.00  0.00     0.009 C 
BRANCH  18  19
ATOM     19  C   UNL A   1      33.917  17.874  23.847  1.00  0.00    -0.003 C 
ATOM     20  C   UNL A   1      33.993  16.372  23.635  1.00  0.00     0.004 C 
ENDBRANCH  18  19
ENDBRANCH  16  18
ENDBRANCH  15  16
ENDBRANCH   7  15
ENDBRANCH   5   6
ENDBRANCH   1   5
BRANCH   3  21
ATOM     21  C   UNL A   1      37.607  21.181  24.533  1.00  0.00     0.117 C 
BRANCH  21  22
ATOM     22  C   UNL A   1      38.363  19.898  24.897  1.00  0.00     0.042 C 
BRANCH  22  23
ATOM     23  C   UNL A   1      39.277  20.018  26.109  1.00  0.00     0.118 C 
BRANCH  23  24
ATOM     24  N   UNL A   1      40.406  19.112  26.018  1.00  0.00    -0.352 N 
ATOM     25  C   UNL A   1      41.750  19.386  26.026  1.00  0.00     0.251 C 
ATOM     26  H   UNL A   1      40.172  18.158  25.939  1.00  0.00     0.163 HD
ATOM     27  O   UNL A   1      42.540  18.502  25.688  1.00  0.00    -0.269 OA
BRANCH  25  28
ATOM     28  C   UNL A   1      42.275  20.717  26.423  1.00  0.00     0.039 A 
ATOM     29  C   UNL A   1      42.324  21.035  27.785  1.00  0.00     0.014 A 
ATOM     30  C   UNL A   1      42.637  21.686  25.482  1.00  0.00     0.014 A 
ATOM     31  C   UNL A   1      42.747  22.302  28.201  1.00  0.00     0.010 A 
ATOM     32  C   UNL A   1      43.132  22.924  25.898  1.00  0.00     0.010 A 
ATOM     33  C   UNL A   1      43.165  23.257  27.261  1.00  0.00    -0.014 A 
BRANCH  33  34
ATOM     34  C   UNL A   1      43.580  24.623  27.683  1.00  0.00     0.031 A 
ATOM     35  C   UNL A   1      42.539  25.649  28.048  1.00  0.00     0.074 A 
ATOM     36  C   UNL A   1      44.885  24.957  27.707  1.00  0.00     0.049 A 
ATOM     37  N   UNL A   1      42.693  26.906  28.386  1.00  0.00    -0.248 NA
ATOM     38  C   UNL A   1      41.134  25.212  28.002  1.00  0.00     0.031 C 
ATOM     39  C   UNL A   1      45.992  24.072  27.348  1.00  0.00     0.029 A 
ATOM     40  N   UNL A   1      45.500  26.139  28.043  1.00  0.00    -0.354 N 
ATOM     41  C   UNL A   1      41.411  27.411  28.565  1.00  0.00     0.074 A 
ATOM     42  C   UNL A   1      40.488  26.340  28.258  1.00  0.00     0.031 C 
ATOM     43  C   UNL A   1      47.152  24.732  27.506  1.00  0.00     0.029 A 
ATOM     44  C   UNL A   1      46.870  26.097  27.943  1.00  0.00     0.049 A 
ATOM     45  H   UNL A   1      45.006  26.940  28.330  1.00  0.00     0.167 HD
ATOM     46  C   UNL A   1      41.035  28.649  28.968  1.00  0.00     0.037 A 
ATOM     47  C   UNL A   1      47.791  27.051  28.174  1.00  0.00     0.037 A 
ATOM     48  C   UNL A   1      41.952  29.701  29.321  1.00  0.00     0.049 A 
ATOM     49  C   UNL A   1      47.347  28.414  28.632  1.00  0.00     0.074 A 
ATOM     50  C   UNL A   1      41.667  30.964  29.812  1.00  0.00     0.029 A 
ATOM     51  N   UNL A   1      43.331  29.611  29.223  1.00  0.00    -0.354 N 
ATOM     52  N   UNL A   1      46.135  28.857  28.860  1.00  0.00    -0.248 NA
ATOM     53  C   UNL A   1      48.403  29.409  28.871  1.00  0.00     0.031 C 
ATOM     54  C   UNL A   1      42.874  31.652  29.974  1.00  0.00     0.029 A 
ATOM     55  C   UNL A   1      43.912  30.802  29.628  1.00  0.00     0.049 A 
ATOM     56  H   UNL A   1      43.826  28.818  28.913  1.00  0.00     0.167 HD
ATOM     57  C   UNL A   1      46.284  30.166  29.299  1.00  0.00     0.074 A 
ATOM     58  C   UNL A   1      47.704  30.444  29.317  1.00  0.00     0.031 C 
ATOM     59  C   UNL A   1      45.328  31.058  29.657  1.00  0.00     0.037 A 
BRANCH  46  60
ATOM     60  C   UNL A   1      39.565  28.937  29.056  1.00  0.00     0.064 A 
ATOM     61  C   UNL A   1      38.869  28.855  30.271  1.00  0.00     0.173 A 
ATOM     62  C   UNL A   1      38.852  29.346  27.918  1.00  0.00     0.173 A 
ATOM     63  F   UNL A   1      39.502  28.459  31.387  1.00  0.00    -0.203 F 
ATOM     64  C   UNL A   1      37.509  29.147  30.341  1.00  0.00     0.198 A 
ATOM     65  C   UNL A   1      37.498  29.664  27.997  1.00  0.00     0.198 A 
ATOM     66  F   UNL A   1      39.471  29.449  26.733  1.00  0.00    -0.203 F 
ATOM     67  F   UNL A   1      36.855  29.018  31.503  1.00  0.00    -0.200 F 
ATOM     68  C   UNL A   1      36.827  29.558  29.205  1.00  0.00     0.200 A 
ATOM     69  F   UNL A   1      36.843  30.074  26.901  1.00  0.00    -0.200 F 
ATOM     70  F   UNL A   1      35.519  29.845  29.274  1.00  0.00    -0.200 F 
ENDBRANCH  46  60
BRANCH  47  71
ATOM     71  C   UNL A   1      49.237  26.745  28.008  1.00  0.00     0.064 A 
ATOM     72  C   UNL A   1      49.825  26.734  26.735  1.00  0.00     0.173 A 
ATOM     73  C   UNL A   1      50.052  26.444  29.107  1.00  0.00     0.173 A 
ATOM     74  F   UNL A   1      49.079  26.993  25.651  1.00  0.00    -0.203 F 
ATOM     75  C   UNL A   1      51.169  26.411  26.566  1.00  0.00     0.198 A 
ATOM     76  C   UNL A   1      51.403  26.147  28.939  1.00  0.00     0.198 A 
ATOM     77  F   UNL A   1      49.537  26.443  30.345  1.00  0.00    -0.203 F 
ATOM     78  F   UNL A   1      51.694  26.361  25.334  1.00  0.00    -0.200 F 
ATOM     79  C   UNL A   1      51.959  26.122  27.669  1.00  0.00     0.200 A 
ATOM     80  F   UNL A   1      52.166  25.879  30.008  1.00  0.00    -0.200 F 
ATOM     81  F   UNL A   1      53.252  25.812  27.507  1.00  0.00    -0.200 F 
ENDBRANCH  47  71
BRANCH  59  82
ATOM     82  C   UNL A   1      45.786  32.403  30.141  1.00  0.00     0.064 A 
ATOM     83  C   UNL A   1      46.092  32.636  31.489  1.00  0.00     0.173 A 
ATOM     84  C   UNL A   1      45.958  33.459  29.233  1.00  0.00     0.173 A 
ATOM     85  F   UNL A   1      45.929  31.663  32.397  1.00  0.00    -0.203 F 
ATOM     86  C   UNL A   1      46.532  33.887  31.915  1.00  0.00     0.198 A 
ATOM     87  C   UNL A   1      46.425  34.699  29.659  1.00  0.00     0.198 A 
ATOM     88  F   UNL A   1      45.686  33.285  27.931  1.00  0.00    -0.203 F 
ATOM     89  F   UNL A   1      46.777  34.101  33.215  1.00  0.00    -0.200 F 
ATOM     90  C   UNL A   1      46.705  34.915  30.999  1.00  0.00     0.200 A 
ATOM     91  F   UNL A   1      46.604  35.688  28.770  1.00  0.00    -0.200 F 
ATOM     92  F   UNL A   1      47.135  36.115  31.411  1.00  0.00    -0.200 F 
ENDBRANCH  59  82
ENDBRANCH  33  34
ENDBRANCH  25  28
ENDBRANCH  23  24
ENDBRANCH  22  23
ENDBRANCH  21  22
ENDBRANCH   3  21
TORSDOF 15
ENDMDL
MODEL 2
REMARK VINA RESULT:     -11.4      1.010      2.275
REMARK SMILES CCC[C@H](C)C[N@H+]1[C@@H]2CC[C@H]1C[C@H](CC(=O)NCCCNC(=O)c1ccc(-c3c4nc(c(-c5c(F)c(F)c(F)c(F)c5F)c5ccc([nH]5)c(-c5c(F)c(F)c(F)c(F)c5F)c5nc(c(-c6c(F)c(F)c(F)c(F)c6F)c6ccc3[nH]6)C=C5)C=C4)cc1)C2
REMARK SMILES IDX 15 1 16 2 17 3 14 5 13 6 7 7 8 8 11 9 9 11 87 12 10 13 12 14
REMARK SMILES IDX 6 15 4 16 5 17 3 18 2 19 1 20 18 21 19 22 20 23 21 24 22 25
REMARK SMILES IDX 23 27 24 28 25 29 86 30 26 31 85 32 27 33 28 34 29 35 79 36
REMARK SMILES IDX 30 37 84 38 78 39 80 40 31 41 83 42 77 43 76 44 32 46 64 47
REMARK SMILES IDX 44 48 63 49 45 50 48 51 62 52 81 53 46 54 47 55 61 57 82 58
REMARK SMILES IDX 49 59 33 60 34 61 42 62 35 63 36 64 40 65 43 66 37 67 38 68
REMARK SMILES IDX 41 69 39 70 65 71 66 72 74 73 67 74 68 75 72 76 75 77 69 78
REMARK SMILES IDX 70 79 73 80 71 81 50 82 51 83 59 84 52 85 53 86 57 87 60 88
REMARK SMILES IDX 54 89 55 90 58 91 56 92
REMARK H PARENT 17 4 7 10 21 26 80 45 48 56
REMARK Flexibility Score: inf
ROOT
ATOM      1  C   UNL A   1      37.194  23.101  25.367  1.00  0.00     0.220 C 
ATOM      2  O   UNL A   1      37.730  24.009  26.005  1.00  0.00    -0.275 OA
ATOM      3  N   UNL A   1      37.801  21.881  25.370  1.00  0.00    -0.356 N 
ATOM      4  H   UNL A   1      38.626  21.848  25.905  1.00  0.00     0.163 HD
ENDROOT
BRANCH   1   5
ATOM      5  C   UNL A   1      35.900  23.343  24.619  1.00  0.00     0.104 C 
BRANCH   5   6
ATOM      6  C   UNL A   1      34.628  23.214  25.482  1.00  0.00     0.010 C 
ATOM      7  N   UNL A   1      32.844  20.890  26.132  1.00  0.00    -0.330 N 
ATOM      8  C   UNL A   1      33.624  21.543  27.182  1.00  0.00     0.184 C 
ATOM      9  C   UNL A   1      32.305  22.030  25.373  1.00  0.00     0.184 C 
ATOM     10  H   UNL A   1      32.159  20.281  26.581  1.00  0.00     0.348 HD
ATOM     11  C   UNL A   1      32.590  22.562  27.698  1.00  0.00     0.071 C 
ATOM     12  C   UNL A   1      34.886  22.242  26.650  1.00  0.00     0.069 C 
ATOM     13  C   UNL A   1      31.721  22.892  26.486  1.00  0.00     0.071 C 
ATOM     14  C   UNL A   1      33.419  22.791  24.637  1.00  0.00     0.069 C 
BRANCH   7  15
ATOM     15  C   UNL A   1      33.416  19.827  25.301  1.00  0.00     0.265 C 
BRANCH  15  16
ATOM     16  C   UNL A   1      32.513  18.693  24.761  1.00  0.00     0.041 C 
ATOM     17  C   UNL A   1      32.486  18.646  23.229  1.00  0.00     0.013 C 
BRANCH  16  18
ATOM     18  C   UNL A   1      32.938  17.303  25.308  1.00  0.00     0.009 C 
BRANCH  18  19
ATOM     19  C   UNL A   1      33.932  16.486  24.471  1.00  0.00    -0.003 C 
ATOM     20  C   UNL A   1      35.103  15.923  25.259  1.00  0.00     0.004 C 
ENDBRANCH  18  19
ENDBRANCH  16  18
ENDBRANCH  15  16
ENDBRANCH   7  15
ENDBRANCH   5   6
ENDBRANCH   1   5
BRANCH   3  21
ATOM     21  C   UNL A   1      37.463  20.615  24.731  1.00  0.00     0.117 C 
BRANCH  21  22
ATOM     22  C   UNL A   1      38.523  19.530  24.958  1.00  0.00     0.042 C 
BRANCH  22  23
ATOM     23  C   UNL A   1      39.504  19.821  26.086  1.00  0.00     0.118 C 
BRANCH  23  24
ATOM     24  N   UNL A   1      40.617  18.891  26.079  1.00  0.00    -0.352 N 
ATOM     25  C   UNL A   1      41.965  19.143  26.059  1.00  0.00     0.251 C 
ATOM     26  H   UNL A   1      40.367  17.939  26.091  1.00  0.00     0.163 HD
ATOM     27  O   UNL A   1      42.739  18.218  25.805  1.00  0.00    -0.269 OA
BRANCH  25  28
ATOM     28  C   UNL A   1      42.514  20.496  26.329  1.00  0.00     0.039 A 
ATOM     29  C   UNL A   1      42.482  20.979  27.642  1.00  0.00     0.014 A 
ATOM     30  C   UNL A   1      42.977  21.329  25.306  1.00  0.00     0.014 A 
ATOM     31  C   UNL A   1      42.925  22.274  27.931  1.00  0.00     0.010 A 
ATOM     32  C   UNL A   1      43.490  22.594  25.604  1.00  0.00     0.010 A 
ATOM     33  C   UNL A   1      43.442  23.093  26.914  1.00  0.00    -0.014 A 
BRANCH  33  34
ATOM     34  C   UNL A   1      43.881  24.487  27.196  1.00  0.00     0.031 A 
ATOM     35  C   UNL A   1      42.887  25.504  27.694  1.00  0.00     0.074 A 
ATOM     36  C   UNL A   1      45.158  24.854  26.975  1.00  0.00     0.049 A 
ATOM     37  N   UNL A   1      43.057  26.779  27.944  1.00  0.00    -0.248 NA
ATOM     38  C   UNL A   1      41.511  25.032  27.917  1.00  0.00     0.031 C 
ATOM     39  C   UNL A   1      46.213  23.979  26.465  1.00  0.00     0.029 A 
ATOM     40  N   UNL A   1      45.784  26.065  27.145  1.00  0.00    -0.354 N 
ATOM     41  C   UNL A   1      41.811  27.261  28.325  1.00  0.00     0.074 A 
ATOM     42  C   UNL A   1      40.884  26.155  28.233  1.00  0.00     0.031 C 
ATOM     43  C   UNL A   1      47.361  24.674  26.386  1.00  0.00     0.029 A 
ATOM     44  C   UNL A   1      47.115  26.051  26.806  1.00  0.00     0.049 A 
ATOM     45  H   UNL A   1      45.322  26.867  27.479  1.00  0.00     0.167 HD
ATOM     46  C   UNL A   1      41.472  28.508  28.734  1.00  0.00     0.037 A 
ATOM     47  C   UNL A   1      48.032  27.037  26.829  1.00  0.00     0.037 A 
ATOM     48  C   UNL A   1      42.401  29.598  28.873  1.00  0.00     0.049 A 
ATOM     49  C   UNL A   1      47.631  28.410  27.298  1.00  0.00     0.074 A 
ATOM     50  C   UNL A   1      42.166  30.876  29.351  1.00  0.00     0.029 A 
ATOM     51  N   UNL A   1      43.744  29.537  28.537  1.00  0.00    -0.354 N 
ATOM     52  N   UNL A   1      46.464  28.834  27.717  1.00  0.00    -0.248 NA
ATOM     53  C   UNL A   1      48.680  29.440  27.304  1.00  0.00     0.031 C 
ATOM     54  C   UNL A   1      43.360  31.601  29.267  1.00  0.00     0.029 A 
ATOM     55  C   UNL A   1      44.348  30.760  28.780  1.00  0.00     0.049 A 
ATOM     56  H   UNL A   1      44.203  28.742  28.179  1.00  0.00     0.167 HD
ATOM     57  C   UNL A   1      46.645  30.166  28.065  1.00  0.00     0.074 A 
ATOM     58  C   UNL A   1      48.037  30.478  27.820  1.00  0.00     0.031 C 
ATOM     59  C   UNL A   1      45.739  31.051  28.548  1.00  0.00     0.037 A 
BRANCH  46  60
ATOM     60  C   UNL A   1      40.031  28.764  29.068  1.00  0.00     0.064 A 
ATOM     61  C   UNL A   1      39.113  29.188  28.096  1.00  0.00     0.173 A 
ATOM     62  C   UNL A   1      39.552  28.537  30.368  1.00  0.00     0.173 A 
ATOM     63  F   UNL A   1      39.522  29.429  26.841  1.00  0.00    -0.203 F 
ATOM     64  C   UNL A   1      37.775  29.400  28.417  1.00  0.00     0.198 A 
ATOM     65  C   UNL A   1      38.207  28.723  30.679  1.00  0.00     0.198 A 
ATOM     66  F   UNL A   1      40.386  28.123  31.333  1.00  0.00    -0.203 F 
ATOM     67  F   UNL A   1      36.925  29.848  27.483  1.00  0.00    -0.200 F 
ATOM     68  C   UNL A   1      37.322  29.160  29.706  1.00  0.00     0.200 A 
ATOM     69  F   UNL A   1      37.769  28.478  31.922  1.00  0.00    -0.200 F 
ATOM     70  F   UNL A   1      36.032  29.358  30.012  1.00  0.00    -0.200 F 
ENDBRANCH  46  60
BRANCH  47  71
ATOM     71  C   UNL A   1      49.435  26.759  26.423  1.00  0.00     0.064 A 
ATOM     72  C   UNL A   1      50.387  26.352  27.368  1.00  0.00     0.173 A 
ATOM     73  C   UNL A   1      49.855  26.908  25.094  1.00  0.00     0.173 A 
ATOM     74  F   UNL A   1      50.037  26.219  28.656  1.00  0.00    -0.203 F 
ATOM     75  C   UNL A   1      51.713  26.127  27.003  1.00  0.00     0.198 A 
ATOM     76  C   UNL A   1      51.175  26.656  24.726  1.00  0.00     0.198 A 
ATOM     77  F   UNL A   1      48.982  27.294  24.153  1.00  0.00    -0.203 F 
ATOM     78  F   UNL A   1      52.613  25.785  27.935  1.00  0.00    -0.200 F 
ATOM     79  C   UNL A   1      52.105  26.274  25.682  1.00  0.00     0.200 A 
ATOM     80  F   UNL A   1      51.549  26.789  23.445  1.00  0.00    -0.200 F 
ATOM     81  F   UNL A   1      53.380  26.057  25.330  1.00  0.00    -0.200 F 
ENDBRANCH  47  71
BRANCH  59  82
ATOM     82  C   UNL A   1      46.230  32.428  28.883  1.00  0.00     0.064 A 
ATOM     83  C   UNL A   1      46.205  33.469  27.944  1.00  0.00     0.173 A 
ATOM     84  C   UNL A   1      46.695  32.718  30.175  1.00  0.00     0.173 A 
ATOM     85  F   UNL A   1      45.785  33.237  26.692  1.00  0.00    -0.203 F 
ATOM     86  C   UNL A   1      46.650  34.745  28.280  1.00  0.00     0.198 A 
ATOM     87  C   UNL A   1      47.112  34.002  30.515  1.00  0.00     0.198 A 
ATOM     88  F   UNL A   1      46.732  31.759  31.112  1.00  0.00    -0.203 F 
ATOM     89  F   UNL A   1      46.658  35.714  27.354  1.00  0.00    -0.200 F 
ATOM     90  C   UNL A   1      47.095  35.012  29.566  1.00  0.00     0.200 A 
ATOM     91  F   UNL A   1      47.530  34.261  31.762  1.00  0.00    -0.200 F 
ATOM     92  F   UNL A   1      47.516  36.243  29.888  1.00  0.00    -0.200 F 
ENDBRANCH  59  82
ENDBRANCH  33  34
ENDBRANCH  25  28
ENDBRANCH  23  24
ENDBRANCH  22  23
ENDBRANCH  21  22
ENDBRANCH   3  21
TORSDOF 15
ENDMDL
MODEL 3
REMARK VINA RESULT:     -11.1      1.191      7.514
REMARK SMILES CCC[C@H](C)C[N@H+]1[C@@H]2CC[C@H]1C[C@H](CC(=O)NCCCNC(=O)c1ccc(-c3c4nc(c(-c5c(F)c(F)c(F)c(F)c5F)c5ccc([nH]5)c(-c5c(F)c(F)c(F)c(F)c5F)c5nc(c(-c6c(F)c(F)c(F)c(F)c6F)c6ccc3[nH]6)C=C5)C=C4)cc1)C2
REMARK SMILES IDX 15 1 16 2 17 3 14 5 13 6 7 7 8 8 11 9 9 11 87 12 10 13 12 14
REMARK SMILES IDX 6 15 4 16 5 17 3 18 2 19 1 20 18 21 19 22 20 23 21 24 22 25
REMARK SMILES IDX 23 27 24 28 25 29 86 30 26 31 85 32 27 33 28 34 29 35 79 36
REMARK SMILES IDX 30 37 84 38 78 39 80 40 31 41 83 42 77 43 76 44 32 46 64 47
REMARK SMILES IDX 44 48 63 49 45 50 48 51 62 52 81 53 46 54 47 55 61 57 82 58
REMARK SMILES IDX 49 59 33 60 34 61 42 62 35 63 36 64 40 65 43 66 37 67 38 68
REMARK SMILES IDX 41 69 39 70 65 71 66 72 74 73 67 74 68 75 72 76 75 77 69 78
REMARK SMILES IDX 70 79 73 80 71 81 50 82 51 83 59 84 52 85 53 86 57 87 60 88
REMARK SMILES IDX 54 89 55 90 58 91 56 92
REMARK H PARENT 17 4 7 10 21 26 80 45 48 56
REMARK Flexibility Score: inf
ROOT
ATOM      1  C   UNL A   1      37.011  22.871  24.890  1.00  0.00     0.220 C 
ATOM      2  O   UNL A   1      37.498  23.846  25.466  1.00  0.00    -0.275 OA
ATOM      3  N   UNL A   1      37.564  21.650  25.133  1.00  0.00    -0.356 N 
ATOM      4  H   UNL A   1      38.313  21.672  25.771  1.00  0.00     0.163 HD
ENDROOT
BRANCH   1   5
ATOM      5  C   UNL A   1      35.833  23.038  23.954  1.00  0.00     0.104 C 
BRANCH   5   6
ATOM      6  C   UNL A   1      34.460  23.095  24.656  1.00  0.00     0.010 C 
ATOM      7  N   UNL A   1      32.640  20.967  25.732  1.00  0.00    -0.330 N 
ATOM      8  C   UNL A   1      33.267  21.932  26.633  1.00  0.00     0.184 C 
ATOM      9  C   UNL A   1      32.189  21.812  24.614  1.00  0.00     0.184 C 
ATOM     10  H   UNL A   1      31.911  20.477  26.251  1.00  0.00     0.348 HD
ATOM     11  C   UNL A   1      32.160  23.001  26.701  1.00  0.00     0.071 C 
ATOM     12  C   UNL A   1      34.577  22.514  26.078  1.00  0.00     0.069 C 
ATOM     13  C   UNL A   1      31.452  22.925  25.349  1.00  0.00     0.071 C 
ATOM     14  C   UNL A   1      33.380  22.387  23.830  1.00  0.00     0.069 C 
BRANCH   7  15
ATOM     15  C   UNL A   1      33.332  19.741  25.321  1.00  0.00     0.265 C 
BRANCH  15  16
ATOM     16  C   UNL A   1      32.524  18.542  24.769  1.00  0.00     0.041 C 
ATOM     17  C   UNL A   1      33.032  18.076  23.400  1.00  0.00     0.013 C 
BRANCH  16  18
ATOM     18  C   UNL A   1      32.526  17.340  25.752  1.00  0.00     0.009 C 
BRANCH  18  19
ATOM     19  C   UNL A   1      33.513  16.198  25.473  1.00  0.00    -0.003 C 
ATOM     20  C   UNL A   1      32.872  14.824  25.374  1.00  0.00     0.004 C 
ENDBRANCH  18  19
ENDBRANCH  16  18
ENDBRANCH  15  16
ENDBRANCH   7  15
ENDBRANCH   5   6
ENDBRANCH   1   5
BRANCH   3  21
ATOM     21  C   UNL A   1      37.260  20.316  24.629  1.00  0.00     0.117 C 
BRANCH  21  22
ATOM     22  C   UNL A   1      38.294  19.267  25.055  1.00  0.00     0.042 C 
BRANCH  22  23
ATOM     23  C   UNL A   1      39.329  19.759  26.057  1.00  0.00     0.118 C 
BRANCH  23  24
ATOM     24  N   UNL A   1      40.502  18.907  26.075  1.00  0.00    -0.352 N 
ATOM     25  C   UNL A   1      41.830  19.250  26.059  1.00  0.00     0.251 C 
ATOM     26  H   UNL A   1      40.318  17.940  26.103  1.00  0.00     0.163 HD
ATOM     27  O   UNL A   1      42.668  18.376  25.828  1.00  0.00    -0.269 OA
BRANCH  25  28
ATOM     28  C   UNL A   1      42.284  20.642  26.308  1.00  0.00     0.039 A 
ATOM     29  C   UNL A   1      42.438  21.067  27.632  1.00  0.00     0.014 A 
ATOM     30  C   UNL A   1      42.475  21.559  25.269  1.00  0.00     0.014 A 
ATOM     31  C   UNL A   1      42.796  22.389  27.914  1.00  0.00     0.010 A 
ATOM     32  C   UNL A   1      42.907  22.859  25.547  1.00  0.00     0.010 A 
ATOM     33  C   UNL A   1      43.043  23.297  26.872  1.00  0.00    -0.014 A 
BRANCH  33  34
ATOM     34  C   UNL A   1      43.387  24.718  27.154  1.00  0.00     0.031 A 
ATOM     35  C   UNL A   1      44.778  25.226  26.880  1.00  0.00     0.074 A 
ATOM     36  C   UNL A   1      42.466  25.545  27.687  1.00  0.00     0.049 A 
ATOM     37  N   UNL A   1      45.290  26.412  27.108  1.00  0.00    -0.248 NA
ATOM     38  C   UNL A   1      45.730  24.269  26.295  1.00  0.00     0.031 C 
ATOM     39  C   UNL A   1      41.094  25.174  28.031  1.00  0.00     0.029 A 
ATOM     40  N   UNL A   1      42.550  26.870  28.040  1.00  0.00    -0.354 N 
ATOM     41  C   UNL A   1      46.622  26.331  26.721  1.00  0.00     0.074 A 
ATOM     42  C   UNL A   1      46.853  24.971  26.282  1.00  0.00     0.031 C 
ATOM     43  C   UNL A   1      40.457  26.250  28.522  1.00  0.00     0.029 A 
ATOM     44  C   UNL A   1      41.385  27.378  28.561  1.00  0.00     0.049 A 
ATOM     45  H   UNL A   1      43.369  27.405  27.929  1.00  0.00     0.167 HD
ATOM     46  C   UNL A   1      47.563  27.305  26.711  1.00  0.00     0.037 A 
ATOM     47  C   UNL A   1      41.099  28.611  29.021  1.00  0.00     0.037 A 
ATOM     48  C   UNL A   1      47.324  28.670  27.100  1.00  0.00     0.049 A 
ATOM     49  C   UNL A   1      42.160  29.678  28.988  1.00  0.00     0.074 A 
ATOM     50  C   UNL A   1      48.194  29.745  27.053  1.00  0.00     0.029 A 
ATOM     51  N   UNL A   1      46.124  29.147  27.604  1.00  0.00    -0.354 N 
ATOM     52  N   UNL A   1      43.396  29.604  28.558  1.00  0.00    -0.248 NA
ATOM     53  C   UNL A   1      41.783  31.003  29.500  1.00  0.00     0.031 C 
ATOM     54  C   UNL A   1      47.533  30.866  27.567  1.00  0.00     0.029 A 
ATOM     55  C   UNL A   1      46.237  30.498  27.890  1.00  0.00     0.049 A 
ATOM     56  H   UNL A   1      45.312  28.607  27.739  1.00  0.00     0.167 HD
ATOM     57  C   UNL A   1      43.931  30.875  28.716  1.00  0.00     0.074 A 
ATOM     58  C   UNL A   1      42.884  31.705  29.272  1.00  0.00     0.031 C 
ATOM     59  C   UNL A   1      45.180  31.316  28.426  1.00  0.00     0.037 A 
BRANCH  46  60
ATOM     60  C   UNL A   1      48.946  26.934  26.259  1.00  0.00     0.064 A 
ATOM     61  C   UNL A   1      49.908  26.443  27.155  1.00  0.00     0.173 A 
ATOM     62  C   UNL A   1      49.298  27.025  24.903  1.00  0.00     0.173 A 
ATOM     63  F   UNL A   1      49.624  26.346  28.463  1.00  0.00    -0.203 F 
ATOM     64  C   UNL A   1      51.179  26.083  26.716  1.00  0.00     0.198 A 
ATOM     65  C   UNL A   1      50.561  26.637  24.464  1.00  0.00     0.198 A 
ATOM     66  F   UNL A   1      48.414  27.480  24.004  1.00  0.00    -0.203 F 
ATOM     67  F   UNL A   1      52.096  25.659  27.596  1.00  0.00    -0.200 F 
ATOM     68  C   UNL A   1      51.502  26.173  25.370  1.00  0.00     0.200 A 
ATOM     69  F   UNL A   1      50.868  26.712  23.161  1.00  0.00    -0.200 F 
ATOM     70  F   UNL A   1      52.724  25.818  24.948  1.00  0.00    -0.200 F 
ENDBRANCH  46  60
BRANCH  47  71
ATOM     71  C   UNL A   1      39.735  28.919  29.526  1.00  0.00     0.064 A 
ATOM     72  C   UNL A   1      39.395  28.679  30.865  1.00  0.00     0.173 A 
ATOM     73  C   UNL A   1      38.744  29.443  28.684  1.00  0.00     0.173 A 
ATOM     74  F   UNL A   1      40.304  28.156  31.702  1.00  0.00    -0.203 F 
ATOM     75  C   UNL A   1      38.108  28.928  31.336  1.00  0.00     0.198 A 
ATOM     76  C   UNL A   1      37.465  29.718  29.164  1.00  0.00     0.198 A 
ATOM     77  F   UNL A   1      39.020  29.692  27.395  1.00  0.00    -0.203 F 
ATOM     78  F   UNL A   1      37.797  28.644  32.608  1.00  0.00    -0.200 F 
ATOM     79  C   UNL A   1      37.146  29.452  30.487  1.00  0.00     0.200 A 
ATOM     80  F   UNL A   1      36.540  30.233  28.342  1.00  0.00    -0.200 F 
ATOM     81  F   UNL A   1      35.908  29.693  30.941  1.00  0.00    -0.200 F 
ENDBRANCH  47  71
BRANCH  59  82
ATOM     82  C   UNL A   1      45.471  32.769  28.660  1.00  0.00     0.064 A 
ATOM     83  C   UNL A   1      45.205  33.740  27.685  1.00  0.00     0.173 A 
ATOM     84  C   UNL A   1      45.984  33.197  29.894  1.00  0.00     0.173 A 
ATOM     85  F   UNL A   1      44.729  33.379  26.484  1.00  0.00    -0.203 F 
ATOM     86  C   UNL A   1      45.467  35.086  27.928  1.00  0.00     0.198 A 
ATOM     87  C   UNL A   1      46.217  34.546  30.143  1.00  0.00     0.198 A 
ATOM     88  F   UNL A   1      46.248  32.308  30.863  1.00  0.00    -0.203 F 
ATOM     89  F   UNL A   1      45.247  35.994  26.966  1.00  0.00    -0.200 F 
ATOM     90  C   UNL A   1      45.965  35.489  29.159  1.00  0.00     0.200 A 
ATOM     91  F   UNL A   1      46.687  34.935  31.338  1.00  0.00    -0.200 F 
ATOM     92  F   UNL A   1      46.209  36.786  29.392  1.00  0.00    -0.200 F 
ENDBRANCH  59  82
ENDBRANCH  33  34
ENDBRANCH  25  28
ENDBRANCH  23  24
ENDBRANCH  22  23
ENDBRANCH  21  22
ENDBRANCH   3  21
TORSDOF 15
ENDMDL
