MODEL 1
REMARK VINA RESULT:     -12.0      0.000      0.000
REMARK SMILES CC(C)C[C@H](NC(=O)[C@H](Cc1ccccc1)NC(=O)CNC(=O)C[NH3+])C(=O)NCCCNC(=O)c1ccc(-c2c3nc(c(-c4c(F)c(F)c(F)c(F)c4F)c4ccc([nH]4)c(-c4c(F)c(F)c(F)c(F)c4F)c4nc(c(-c5c(F)c(F)c(F)c(F)c5F)c5ccc2[nH]5)C=C4)C=C3)cc1
REMARK SMILES IDX 26 1 27 2 28 3 5 5 4 6 2 7 1 8 3 9 6 10 7 11 8 13 9 14 17 15
REMARK SMILES IDX 18 16 19 18 20 19 21 20 22 21 23 23 24 24 25 25 10 29 11 30
REMARK SMILES IDX 12 31 16 32 13 33 15 34 14 35 29 36 30 37 31 38 32 39 33 40
REMARK SMILES IDX 34 42 35 43 36 44 97 45 37 46 96 47 38 48 39 49 40 50 90 51
REMARK SMILES IDX 41 52 95 53 89 54 91 55 42 56 94 57 88 58 87 59 43 61 75 62
REMARK SMILES IDX 55 63 74 64 56 65 59 66 73 67 92 68 57 69 58 70 72 72 93 73
REMARK SMILES IDX 60 74 44 75 45 76 53 77 46 78 47 79 51 80 54 81 48 82 49 83
REMARK SMILES IDX 52 84 50 85 76 86 77 87 85 88 78 89 79 90 83 91 86 92 80 93
REMARK SMILES IDX 81 94 84 95 82 96 61 97 62 98 70 99 63 100 64 101 68 102
REMARK SMILES IDX 71 103 65 104 66 105 69 106 67 107
REMARK H PARENT 28 4 6 12 17 17 21 22 25 26 25 27 25 28 32 41 91 60 59 71
REMARK Flexibility Score: inf
ROOT
ATOM      1  C   UNL A   1      34.345  22.360  26.808  1.00  0.00     0.242 C 
ATOM      2  O   UNL A   1      34.233  22.639  28.004  1.00  0.00    -0.273 OA
ATOM      3  N   UNL A   1      35.300  21.444  26.448  1.00  0.00    -0.354 N 
ATOM      4  H   UNL A   1      35.948  21.223  27.157  1.00  0.00     0.163 HD
ENDROOT
BRANCH   1   5
ATOM      5  C   UNL A   1      33.392  22.956  25.749  1.00  0.00     0.171 C 
BRANCH   5   6
ATOM      6  C   UNL A   1      33.999  24.288  25.261  1.00  0.00     0.038 C 
BRANCH   6   7
ATOM      7  C   UNL A   1      34.348  24.398  23.764  1.00  0.00    -0.015 C 
ATOM      8  C   UNL A   1      33.911  23.204  22.920  1.00  0.00     0.007 C 
ATOM      9  C   UNL A   1      33.691  25.672  23.209  1.00  0.00     0.007 C 
ENDBRANCH   6   7
ENDBRANCH   5   6
BRANCH   5  10
ATOM     10  N   UNL A   1      32.074  23.084  26.411  1.00  0.00    -0.343 N 
ATOM     11  C   UNL A   1      31.111  24.030  26.522  1.00  0.00     0.243 C 
ATOM     12  H   UNL A   1      31.834  22.264  26.899  1.00  0.00     0.164 HD
ATOM     13  O   UNL A   1      30.120  23.657  27.171  1.00  0.00    -0.273 OA
BRANCH  11  14
ATOM     14  C   UNL A   1      31.139  25.448  25.884  1.00  0.00     0.175 C 
BRANCH  14  15
ATOM     15  N   UNL A   1      30.054  25.526  24.884  1.00  0.00    -0.342 N 
ATOM     16  C   UNL A   1      29.590  26.569  24.153  1.00  0.00     0.240 C 
ATOM     17  H   UNL A   1      29.590  24.673  24.719  1.00  0.00     0.164 HD
ATOM     18  O   UNL A   1      28.382  26.574  23.885  1.00  0.00    -0.273 OA
BRANCH  16  19
ATOM     19  C   UNL A   1      30.508  27.586  23.471  1.00  0.00     0.216 C 
BRANCH  19  20
ATOM     20  N   UNL A   1      30.064  28.332  22.311  1.00  0.00    -0.342 N 
ATOM     21  C   UNL A   1      29.556  29.600  22.273  1.00  0.00     0.275 C 
ATOM     22  H   UNL A   1      30.137  27.869  21.446  1.00  0.00     0.164 HD
ATOM     23  O   UNL A   1      29.217  30.063  21.183  1.00  0.00    -0.268 OA
BRANCH  21  24
ATOM     24  C   UNL A   1      29.375  30.390  23.573  1.00  0.00     0.360 C 
BRANCH  24  25
ATOM     25  N   UNL A   1      29.400  31.827  23.288  1.00  0.00    -0.350 N 
ATOM     26  H   UNL A   1      29.494  31.971  22.283  1.00  0.00     0.344 HD
ATOM     27  H   UNL A   1      30.191  32.254  23.769  1.00  0.00     0.344 HD
ATOM     28  H   UNL A   1      28.533  32.253  23.615  1.00  0.00     0.344 HD
ENDBRANCH  24  25
ENDBRANCH  21  24
ENDBRANCH  19  20
ENDBRANCH  16  19
ENDBRANCH  14  15
BRANCH  14  29
ATOM     29  C   UNL A   1      30.971  26.624  26.847  1.00  0.00     0.070 C 
BRANCH  29  30
ATOM     30  C   UNL A   1      32.033  27.716  26.848  1.00  0.00    -0.045 A 
ATOM     31  C   UNL A   1      33.367  27.517  26.449  1.00  0.00     0.004 A 
ATOM     32  C   UNL A   1      31.638  29.017  27.192  1.00  0.00     0.004 A 
ATOM     33  C   UNL A   1      34.277  28.574  26.416  1.00  0.00     0.000 A 
ATOM     34  C   UNL A   1      32.550  30.075  27.162  1.00  0.00     0.000 A 
ATOM     35  C   UNL A   1      33.869  29.852  26.778  1.00  0.00     0.000 A 
ENDBRANCH  29  30
ENDBRANCH  14  29
ENDBRANCH  11  14
ENDBRANCH   5  10
ENDBRANCH   1   5
BRANCH   3  36
ATOM     36  C   UNL A   1      35.513  20.742  25.185  1.00  0.00     0.117 C 
BRANCH  36  37
ATOM     37  C   UNL A   1      36.788  21.167  24.481  1.00  0.00     0.042 C 
BRANCH  37  38
ATOM     38  C   UNL A   1      37.863  21.686  25.420  1.00  0.00     0.118 C 
BRANCH  38  39
ATOM     39  N   UNL A   1      38.793  20.653  25.859  1.00  0.00    -0.352 N 
ATOM     40  C   UNL A   1      39.992  20.786  26.525  1.00  0.00     0.251 C 
ATOM     41  H   UNL A   1      38.526  19.729  25.651  1.00  0.00     0.163 HD
ATOM     42  O   UNL A   1      40.720  19.826  26.698  1.00  0.00    -0.269 OA
BRANCH  40  43
ATOM     43  C   UNL A   1      40.397  22.128  26.992  1.00  0.00     0.039 A 
ATOM     44  C   UNL A   1      41.311  22.233  28.042  1.00  0.00     0.014 A 
ATOM     45  C   UNL A   1      39.929  23.270  26.338  1.00  0.00     0.014 A 
ATOM     46  C   UNL A   1      41.834  23.485  28.370  1.00  0.00     0.010 A 
ATOM     47  C   UNL A   1      40.522  24.498  26.601  1.00  0.00     0.010 A 
ATOM     48  C   UNL A   1      41.484  24.616  27.616  1.00  0.00    -0.014 A 
BRANCH  48  49
ATOM     49  C   UNL A   1      42.117  25.936  27.856  1.00  0.00     0.031 A 
ATOM     50  C   UNL A   1      41.349  27.015  28.564  1.00  0.00     0.074 A 
ATOM     51  C   UNL A   1      43.342  26.189  27.356  1.00  0.00     0.049 A 
ATOM     52  N   UNL A   1      41.678  28.263  28.774  1.00  0.00    -0.248 NA
ATOM     53  C   UNL A   1      40.016  26.651  29.073  1.00  0.00     0.031 C 
ATOM     54  C   UNL A   1      44.163  25.240  26.601  1.00  0.00     0.029 A 
ATOM     55  N   UNL A   1      44.107  27.328  27.394  1.00  0.00    -0.354 N 
ATOM     56  C   UNL A   1      40.589  28.836  29.419  1.00  0.00     0.074 A 
ATOM     57  C   UNL A   1      39.567  27.816  29.514  1.00  0.00     0.031 C 
ATOM     58  C   UNL A   1      45.323  25.827  26.268  1.00  0.00     0.029 A 
ATOM     59  C   UNL A   1      45.312  27.206  26.747  1.00  0.00     0.049 A 
ATOM     60  H   UNL A   1      43.819  28.156  27.843  1.00  0.00     0.167 HD
ATOM     61  C   UNL A   1      40.465  30.090  29.913  1.00  0.00     0.037 A 
ATOM     62  C   UNL A   1      46.292  28.109  26.552  1.00  0.00     0.037 A 
ATOM     63  C   UNL A   1      41.497  31.089  29.843  1.00  0.00     0.049 A 
ATOM     64  C   UNL A   1      46.125  29.498  27.107  1.00  0.00     0.074 A 
ATOM     65  C   UNL A   1      41.499  32.366  30.375  1.00  0.00     0.029 A 
ATOM     66  N   UNL A   1      42.713  30.922  29.197  1.00  0.00    -0.354 N 
ATOM     67  N   UNL A   1      45.123  30.006  27.781  1.00  0.00    -0.248 NA
ATOM     68  C   UNL A   1      47.230  30.440  26.874  1.00  0.00     0.031 C 
ATOM     69  C   UNL A   1      42.697  32.988  30.011  1.00  0.00     0.029 A 
ATOM     70  C   UNL A   1      43.463  32.083  29.294  1.00  0.00     0.049 A 
ATOM     71  H   UNL A   1      43.001  30.100  28.737  1.00  0.00     0.167 HD
ATOM     72  C   UNL A   1      45.482  31.314  28.073  1.00  0.00     0.074 A 
ATOM     73  C   UNL A   1      46.804  31.517  27.518  1.00  0.00     0.031 C 
ATOM     74  C   UNL A   1      44.779  32.264  28.737  1.00  0.00     0.037 A 
BRANCH  61  75
ATOM     75  C   UNL A   1      39.168  30.446  30.578  1.00  0.00     0.064 A 
ATOM     76  C   UNL A   1      38.996  30.332  31.967  1.00  0.00     0.173 A 
ATOM     77  C   UNL A   1      38.091  30.935  29.823  1.00  0.00     0.173 A 
ATOM     78  F   UNL A   1      39.990  29.856  32.732  1.00  0.00    -0.203 F 
ATOM     79  C   UNL A   1      37.786  30.665  32.569  1.00  0.00     0.198 A 
ATOM     80  C   UNL A   1      36.893  31.297  30.433  1.00  0.00     0.198 A 
ATOM     81  F   UNL A   1      38.202  31.067  28.492  1.00  0.00    -0.203 F 
ATOM     82  F   UNL A   1      37.629  30.496  33.889  1.00  0.00    -0.200 F 
ATOM     83  C   UNL A   1      36.738  31.154  31.804  1.00  0.00     0.200 A 
ATOM     84  F   UNL A   1      35.886  31.781  29.693  1.00  0.00    -0.200 F 
ATOM     85  F   UNL A   1      35.577  31.480  32.386  1.00  0.00    -0.200 F 
ENDBRANCH  61  75
BRANCH  62  86
ATOM     86  C   UNL A   1      47.524  27.724  25.816  1.00  0.00     0.064 A 
ATOM     87  C   UNL A   1      48.685  27.346  26.506  1.00  0.00     0.173 A 
ATOM     88  C   UNL A   1      47.573  27.733  24.414  1.00  0.00     0.173 A 
ATOM     89  F   UNL A   1      48.694  27.342  27.846  1.00  0.00    -0.203 F 
ATOM     90  C   UNL A   1      49.852  27.011  25.823  1.00  0.00     0.198 A 
ATOM     91  C   UNL A   1      48.733  27.371  23.732  1.00  0.00     0.198 A 
ATOM     92  F   UNL A   1      46.489  28.083  23.706  1.00  0.00    -0.203 F 
ATOM     93  F   UNL A   1      50.960  26.698  26.509  1.00  0.00    -0.200 F 
ATOM     94  C   UNL A   1      49.874  27.018  24.436  1.00  0.00     0.200 A 
ATOM     95  F   UNL A   1      48.746  27.365  22.392  1.00  0.00    -0.200 F 
ATOM     96  F   UNL A   1      50.996  26.693  23.780  1.00  0.00    -0.200 F 
ENDBRANCH  62  86
BRANCH  74  97
ATOM     97  C   UNL A   1      45.436  33.601  28.920  1.00  0.00     0.064 A 
ATOM     98  C   UNL A   1      45.214  34.656  28.024  1.00  0.00     0.173 A 
ATOM     99  C   UNL A   1      46.261  33.841  30.029  1.00  0.00     0.173 A 
ATOM    100  F   UNL A   1      44.446  34.472  26.940  1.00  0.00    -0.203 F 
ATOM    101  C   UNL A   1      45.815  35.897  28.219  1.00  0.00     0.198 A 
ATOM    102  C   UNL A   1      46.835  35.091  30.237  1.00  0.00     0.198 A 
ATOM    103  F   UNL A   1      46.499  32.865  30.919  1.00  0.00    -0.203 F 
ATOM    104  F   UNL A   1      45.627  36.878  27.324  1.00  0.00    -0.200 F 
ATOM    105  C   UNL A   1      46.617  36.116  29.328  1.00  0.00     0.200 A 
ATOM    106  F   UNL A   1      47.599  35.305  31.317  1.00  0.00    -0.200 F 
ATOM    107  F   UNL A   1      47.188  37.313  29.519  1.00  0.00    -0.200 F 
ENDBRANCH  74  97
ENDBRANCH  48  49
ENDBRANCH  40  43
ENDBRANCH  38  39
ENDBRANCH  37  38
ENDBRANCH  36  37
ENDBRANCH   3  36
TORSDOF 21
ENDMDL
MODEL 2
REMARK VINA RESULT:     -11.8      1.730      2.978
REMARK SMILES CC(C)C[C@H](NC(=O)[C@H](Cc1ccccc1)NC(=O)CNC(=O)C[NH3+])C(=O)NCCCNC(=O)c1ccc(-c2c3nc(c(-c4c(F)c(F)c(F)c(F)c4F)c4ccc([nH]4)c(-c4c(F)c(F)c(F)c(F)c4F)c4nc(c(-c5c(F)c(F)c(F)c(F)c5F)c5ccc2[nH]5)C=C4)C=C3)cc1
REMARK SMILES IDX 26 1 27 2 28 3 5 5 4 6 2 7 1 8 3 9 6 10 7 11 8 13 9 14 17 15
REMARK SMILES IDX 18 16 19 18 20 19 21 20 22 21 23 23 24 24 25 25 10 29 11 30
REMARK SMILES IDX 12 31 16 32 13 33 15 34 14 35 29 36 30 37 31 38 32 39 33 40
REMARK SMILES IDX 34 42 35 43 36 44 97 45 37 46 96 47 38 48 39 49 40 50 90 51
REMARK SMILES IDX 41 52 95 53 89 54 91 55 42 56 94 57 88 58 87 59 43 61 75 62
REMARK SMILES IDX 55 63 74 64 56 65 59 66 73 67 92 68 57 69 58 70 72 72 93 73
REMARK SMILES IDX 60 74 44 75 45 76 53 77 46 78 47 79 51 80 54 81 48 82 49 83
REMARK SMILES IDX 52 84 50 85 76 86 77 87 85 88 78 89 79 90 83 91 86 92 80 93
REMARK SMILES IDX 81 94 84 95 82 96 61 97 62 98 70 99 63 100 64 101 68 102
REMARK SMILES IDX 71 103 65 104 66 105 69 106 67 107
REMARK H PARENT 28 4 6 12 17 17 21 22 25 26 25 27 25 28 32 41 91 60 59 71
REMARK Flexibility Score: inf
ROOT
ATOM      1  C   UNL A   1      34.014  20.769  24.769  1.00  0.00     0.242 C 
ATOM      2  O   UNL A   1      33.285  19.902  24.282  1.00  0.00    -0.273 OA
ATOM      3  N   UNL A   1      35.296  20.416  25.105  1.00  0.00    -0.354 N 
ATOM      4  H   UNL A   1      35.471  19.446  25.103  1.00  0.00     0.163 HD
ENDROOT
BRANCH   1   5
ATOM      5  C   UNL A   1      33.536  22.229  24.927  1.00  0.00     0.171 C 
BRANCH   5   6
ATOM      6  C   UNL A   1      32.058  22.198  25.371  1.00  0.00     0.038 C 
BRANCH   6   7
ATOM      7  C   UNL A   1      31.672  23.041  26.602  1.00  0.00    -0.015 C 
ATOM      8  C   UNL A   1      30.213  22.910  27.030  1.00  0.00     0.007 C 
ATOM      9  C   UNL A   1      32.577  22.626  27.773  1.00  0.00     0.007 C 
ENDBRANCH   6   7
ENDBRANCH   5   6
BRANCH   5  10
ATOM     10  N   UNL A   1      33.775  22.881  23.621  1.00  0.00    -0.343 N 
ATOM     11  C   UNL A   1      33.589  24.109  23.080  1.00  0.00     0.243 C 
ATOM     12  H   UNL A   1      34.176  22.258  22.974  1.00  0.00     0.164 HD
ATOM     13  O   UNL A   1      33.997  24.205  21.911  1.00  0.00    -0.273 OA
BRANCH  11  14
ATOM     14  C   UNL A   1      32.985  25.348  23.799  1.00  0.00     0.175 C 
BRANCH  14  15
ATOM     15  N   UNL A   1      31.512  25.237  23.751  1.00  0.00    -0.342 N 
ATOM     16  C   UNL A   1      30.550  26.188  23.665  1.00  0.00     0.240 C 
ATOM     17  H   UNL A   1      31.171  24.314  23.785  1.00  0.00     0.164 HD
ATOM     18  O   UNL A   1      29.477  25.955  24.235  1.00  0.00    -0.273 OA
BRANCH  16  19
ATOM     19  C   UNL A   1      30.648  27.397  22.731  1.00  0.00     0.216 C 
BRANCH  19  20
ATOM     20  N   UNL A   1      30.553  28.748  23.246  1.00  0.00    -0.342 N 
ATOM     21  C   UNL A   1      29.455  29.560  23.270  1.00  0.00     0.275 C 
ATOM     22  H   UNL A   1      31.380  29.126  23.622  1.00  0.00     0.164 HD
ATOM     23  O   UNL A   1      29.574  30.693  23.740  1.00  0.00    -0.268 OA
BRANCH  21  24
ATOM     24  C   UNL A   1      28.129  29.071  22.678  1.00  0.00     0.360 C 
BRANCH  24  25
ATOM     25  N   UNL A   1      27.746  29.923  21.549  1.00  0.00    -0.350 N 
ATOM     26  H   UNL A   1      26.944  30.495  21.814  1.00  0.00     0.344 HD
ATOM     27  H   UNL A   1      27.497  29.337  20.752  1.00  0.00     0.344 HD
ATOM     28  H   UNL A   1      28.528  30.526  21.298  1.00  0.00     0.344 HD
ENDBRANCH  24  25
ENDBRANCH  21  24
ENDBRANCH  19  20
ENDBRANCH  16  19
ENDBRANCH  14  15
BRANCH  14  29
ATOM     29  C   UNL A   1      33.391  25.545  25.260  1.00  0.00     0.070 C 
BRANCH  29  30
ATOM     30  C   UNL A   1      32.995  26.843  25.953  1.00  0.00    -0.045 A 
ATOM     31  C   UNL A   1      31.922  26.959  26.853  1.00  0.00     0.004 A 
ATOM     32  C   UNL A   1      33.800  27.972  25.742  1.00  0.00     0.004 A 
ATOM     33  C   UNL A   1      31.648  28.164  27.501  1.00  0.00     0.000 A 
ATOM     34  C   UNL A   1      33.525  29.179  26.389  1.00  0.00     0.000 A 
ATOM     35  C   UNL A   1      32.447  29.275  27.265  1.00  0.00     0.000 A 
ENDBRANCH  29  30
ENDBRANCH  14  29
ENDBRANCH  11  14
ENDBRANCH   5  10
ENDBRANCH   1   5
BRANCH   3  36
ATOM     36  C   UNL A   1      36.445  21.243  25.465  1.00  0.00     0.117 C 
BRANCH  36  37
ATOM     37  C   UNL A   1      37.754  20.703  24.921  1.00  0.00     0.042 C 
BRANCH  37  38
ATOM     38  C   UNL A   1      38.907  20.784  25.907  1.00  0.00     0.118 C 
BRANCH  38  39
ATOM     39  N   UNL A   1      39.749  19.595  25.908  1.00  0.00    -0.352 N 
ATOM     40  C   UNL A   1      41.116  19.495  26.058  1.00  0.00     0.251 C 
ATOM     41  H   UNL A   1      39.275  18.741  25.784  1.00  0.00     0.163 HD
ATOM     42  O   UNL A   1      41.686  18.432  25.897  1.00  0.00    -0.269 OA
BRANCH  40  43
ATOM     43  C   UNL A   1      41.883  20.716  26.382  1.00  0.00     0.039 A 
ATOM     44  C   UNL A   1      42.297  21.552  25.342  1.00  0.00     0.014 A 
ATOM     45  C   UNL A   1      42.119  21.065  27.713  1.00  0.00     0.014 A 
ATOM     46  C   UNL A   1      42.863  22.790  25.646  1.00  0.00     0.010 A 
ATOM     47  C   UNL A   1      42.592  22.336  28.011  1.00  0.00     0.010 A 
ATOM     48  C   UNL A   1      42.963  23.213  26.981  1.00  0.00    -0.014 A 
BRANCH  48  49
ATOM     49  C   UNL A   1      43.440  24.573  27.332  1.00  0.00     0.031 A 
ATOM     50  C   UNL A   1      42.470  25.591  27.862  1.00  0.00     0.074 A 
ATOM     51  C   UNL A   1      44.720  24.914  27.087  1.00  0.00     0.049 A 
ATOM     52  N   UNL A   1      42.662  26.858  28.123  1.00  0.00    -0.248 NA
ATOM     53  C   UNL A   1      41.092  25.131  28.095  1.00  0.00     0.031 C 
ATOM     54  C   UNL A   1      45.741  24.030  26.521  1.00  0.00     0.029 A 
ATOM     55  N   UNL A   1      45.379  26.104  27.269  1.00  0.00    -0.354 N 
ATOM     56  C   UNL A   1      41.428  27.348  28.531  1.00  0.00     0.074 A 
ATOM     57  C   UNL A   1      40.482  26.259  28.426  1.00  0.00     0.031 C 
ATOM     58  C   UNL A   1      46.899  24.700  26.424  1.00  0.00     0.029 A 
ATOM     59  C   UNL A   1      46.695  26.072  26.879  1.00  0.00     0.049 A 
ATOM     60  H   UNL A   1      44.948  26.907  27.644  1.00  0.00     0.167 HD
ATOM     61  C   UNL A   1      41.119  28.588  28.979  1.00  0.00     0.037 A 
ATOM     62  C   UNL A   1      47.629  27.043  26.877  1.00  0.00     0.037 A 
ATOM     63  C   UNL A   1      42.072  29.658  29.110  1.00  0.00     0.049 A 
ATOM     64  C   UNL A   1      47.256  28.413  27.375  1.00  0.00     0.074 A 
ATOM     65  C   UNL A   1      41.876  30.928  29.620  1.00  0.00     0.029 A 
ATOM     66  N   UNL A   1      43.401  29.581  28.723  1.00  0.00    -0.354 N 
ATOM     67  N   UNL A   1      46.105  28.845  27.829  1.00  0.00    -0.248 NA
ATOM     68  C   UNL A   1      48.316  29.432  27.361  1.00  0.00     0.031 C 
ATOM     69  C   UNL A   1      43.076  31.636  29.499  1.00  0.00     0.029 A 
ATOM     70  C   UNL A   1      44.033  30.791  28.960  1.00  0.00     0.049 A 
ATOM     71  H   UNL A   1      43.833  28.784  28.338  1.00  0.00     0.167 HD
ATOM     72  C   UNL A   1      46.305  30.174  28.176  1.00  0.00     0.074 A 
ATOM     73  C   UNL A   1      47.695  30.473  27.897  1.00  0.00     0.031 C 
ATOM     74  C   UNL A   1      45.418  31.068  28.677  1.00  0.00     0.037 A 
BRANCH  61  75
ATOM     75  C   UNL A   1      39.693  28.848  29.365  1.00  0.00     0.064 A 
ATOM     76  C   UNL A   1      38.753  29.323  28.437  1.00  0.00     0.173 A 
ATOM     77  C   UNL A   1      39.251  28.591  30.672  1.00  0.00     0.173 A 
ATOM     78  F   UNL A   1      39.128  29.598  27.178  1.00  0.00    -0.203 F 
ATOM     79  C   UNL A   1      37.433  29.561  28.810  1.00  0.00     0.198 A 
ATOM     80  C   UNL A   1      37.922  28.799  31.033  1.00  0.00     0.198 A 
ATOM     81  F   UNL A   1      40.106  28.132  31.599  1.00  0.00    -0.203 F 
ATOM     82  F   UNL A   1      36.569  30.065  27.920  1.00  0.00    -0.200 F 
ATOM     83  C   UNL A   1      37.017  29.292  30.105  1.00  0.00     0.200 A 
ATOM     84  F   UNL A   1      37.518  28.528  32.282  1.00  0.00    -0.200 F 
ATOM     85  F   UNL A   1      35.745  29.515  30.461  1.00  0.00    -0.200 F 
ENDBRANCH  61  75
BRANCH  62  86
ATOM     86  C   UNL A   1      49.008  26.750  26.408  1.00  0.00     0.064 A 
ATOM     87  C   UNL A   1      49.369  26.954  25.069  1.00  0.00     0.173 A 
ATOM     88  C   UNL A   1      49.990  26.256  27.280  1.00  0.00     0.173 A 
ATOM     89  F   UNL A   1      48.460  27.404  24.192  1.00  0.00    -0.203 F 
ATOM     90  C   UNL A   1      50.652  26.654  24.615  1.00  0.00     0.198 A 
ATOM     91  C   UNL A   1      51.280  25.984  26.831  1.00  0.00     0.198 A 
ATOM     92  F   UNL A   1      49.696  26.047  28.572  1.00  0.00    -0.203 F 
ATOM     93  F   UNL A   1      50.956  26.815  23.319  1.00  0.00    -0.200 F 
ATOM     94  C   UNL A   1      51.608  26.175  25.497  1.00  0.00     0.200 A 
ATOM     95  F   UNL A   1      52.205  25.534  27.690  1.00  0.00    -0.200 F 
ATOM     96  F   UNL A   1      52.843  25.891  25.061  1.00  0.00    -0.200 F 
ENDBRANCH  62  86
BRANCH  74  97
ATOM     97  C   UNL A   1      45.929  32.446  28.978  1.00  0.00     0.064 A 
ATOM     98  C   UNL A   1      46.494  32.765  30.221  1.00  0.00     0.173 A 
ATOM     99  C   UNL A   1      45.891  33.448  27.995  1.00  0.00     0.173 A 
ATOM    100  F   UNL A   1      46.539  31.847  31.198  1.00  0.00    -0.203 F 
ATOM    101  C   UNL A   1      46.982  34.044  30.477  1.00  0.00     0.198 A 
ATOM    102  C   UNL A   1      46.408  34.716  28.246  1.00  0.00     0.198 A 
ATOM    103  F   UNL A   1      45.367  33.191  26.787  1.00  0.00    -0.203 F 
ATOM    104  F   UNL A   1      47.476  34.339  31.688  1.00  0.00    -0.200 F 
ATOM    105  C   UNL A   1      46.946  35.014  29.488  1.00  0.00     0.200 A 
ATOM    106  F   UNL A   1      46.384  35.649  27.283  1.00  0.00    -0.200 F 
ATOM    107  F   UNL A   1      47.423  36.242  29.734  1.00  0.00    -0.200 F 
ENDBRANCH  74  97
ENDBRANCH  48  49
ENDBRANCH  40  43
ENDBRANCH  38  39
ENDBRANCH  37  38
ENDBRANCH  36  37
ENDBRANCH   3  36
TORSDOF 21
ENDMDL
MODEL 3
REMARK VINA RESULT:     -11.7      2.988      7.590
REMARK SMILES CC(C)C[C@H](NC(=O)[C@H](Cc1ccccc1)NC(=O)CNC(=O)C[NH3+])C(=O)NCCCNC(=O)c1ccc(-c2c3nc(c(-c4c(F)c(F)c(F)c(F)c4F)c4ccc([nH]4)c(-c4c(F)c(F)c(F)c(F)c4F)c4nc(c(-c5c(F)c(F)c(F)c(F)c5F)c5ccc2[nH]5)C=C4)C=C3)cc1
REMARK SMILES IDX 26 1 27 2 28 3 5 5 4 6 2 7 1 8 3 9 6 10 7 11 8 13 9 14 17 15
REMARK SMILES IDX 18 16 19 18 20 19 21 20 22 21 23 23 24 24 25 25 10 29 11 30
REMARK SMILES IDX 12 31 16 32 13 33 15 34 14 35 29 36 30 37 31 38 32 39 33 40
REMARK SMILES IDX 34 42 35 43 36 44 97 45 37 46 96 47 38 48 39 49 40 50 90 51
REMARK SMILES IDX 41 52 95 53 89 54 91 55 42 56 94 57 88 58 87 59 43 61 75 62
REMARK SMILES IDX 55 63 74 64 56 65 59 66 73 67 92 68 57 69 58 70 72 72 93 73
REMARK SMILES IDX 60 74 44 75 45 76 53 77 46 78 47 79 51 80 54 81 48 82 49 83
REMARK SMILES IDX 52 84 50 85 76 86 77 87 85 88 78 89 79 90 83 91 86 92 80 93
REMARK SMILES IDX 81 94 84 95 82 96 61 97 62 98 70 99 63 100 64 101 68 102
REMARK SMILES IDX 71 103 65 104 66 105 69 106 67 107
REMARK H PARENT 28 4 6 12 17 17 21 22 25 26 25 27 25 28 32 41 91 60 59 71
REMARK Flexibility Score: inf
ROOT
ATOM      1  C   UNL A   1      33.604  23.803  25.832  1.00  0.00     0.242 C 
ATOM      2  O   UNL A   1      33.272  23.615  27.004  1.00  0.00    -0.273 OA
ATOM      3  N   UNL A   1      34.604  23.020  25.314  1.00  0.00    -0.354 N 
ATOM      4  H   UNL A   1      35.105  22.496  25.980  1.00  0.00     0.163 HD
ENDROOT
BRANCH   1   5
ATOM      5  C   UNL A   1      32.871  24.830  24.941  1.00  0.00     0.171 C 
BRANCH   5   6
ATOM      6  C   UNL A   1      33.936  25.739  24.292  1.00  0.00     0.038 C 
BRANCH   6   7
ATOM      7  C   UNL A   1      33.826  25.983  22.774  1.00  0.00    -0.015 C 
ATOM      8  C   UNL A   1      32.591  25.368  22.119  1.00  0.00     0.007 C 
ATOM      9  C   UNL A   1      33.821  27.500  22.528  1.00  0.00     0.007 C 
ENDBRANCH   6   7
ENDBRANCH   5   6
BRANCH   5  10
ATOM     10  N   UNL A   1      31.917  25.533  25.828  1.00  0.00    -0.343 N 
ATOM     11  C   UNL A   1      31.251  26.712  25.826  1.00  0.00     0.243 C 
ATOM     12  H   UNL A   1      31.713  25.003  26.631  1.00  0.00     0.164 HD
ATOM     13  O   UNL A   1      30.498  26.860  26.802  1.00  0.00    -0.273 OA
BRANCH  11  14
ATOM     14  C   UNL A   1      31.320  27.806  24.722  1.00  0.00     0.175 C 
BRANCH  14  15
ATOM     15  N   UNL A   1      30.145  27.647  23.841  1.00  0.00    -0.342 N 
ATOM     16  C   UNL A   1      29.461  28.551  23.097  1.00  0.00     0.240 C 
ATOM     17  H   UNL A   1      29.799  26.727  23.783  1.00  0.00     0.164 HD
ATOM     18  O   UNL A   1      28.246  28.364  22.961  1.00  0.00    -0.273 OA
BRANCH  16  19
ATOM     19  C   UNL A   1      30.146  29.631  22.255  1.00  0.00     0.216 C 
BRANCH  19  20
ATOM     20  N   UNL A   1      29.394  30.428  21.309  1.00  0.00    -0.342 N 
ATOM     21  C   UNL A   1      28.655  31.551  21.558  1.00  0.00     0.275 C 
ATOM     22  H   UNL A   1      29.416  30.124  20.373  1.00  0.00     0.164 HD
ATOM     23  O   UNL A   1      28.069  32.088  20.617  1.00  0.00    -0.268 OA
BRANCH  21  24
ATOM     24  C   UNL A   1      28.534  32.084  22.989  1.00  0.00     0.360 C 
BRANCH  24  25
ATOM     25  N   UNL A   1      27.438  31.402  23.682  1.00  0.00    -0.350 N 
ATOM     26  H   UNL A   1      26.883  32.087  24.195  1.00  0.00     0.344 HD
ATOM     27  H   UNL A   1      27.822  30.717  24.334  1.00  0.00     0.344 HD
ATOM     28  H   UNL A   1      26.848  30.927  22.999  1.00  0.00     0.344 HD
ENDBRANCH  24  25
ENDBRANCH  21  24
ENDBRANCH  19  20
ENDBRANCH  16  19
ENDBRANCH  14  15
BRANCH  14  29
ATOM     29  C   UNL A   1      31.348  29.255  25.208  1.00  0.00     0.070 C 
BRANCH  29  30
ATOM     30  C   UNL A   1      32.536  29.716  26.042  1.00  0.00    -0.045 A 
ATOM     31  C   UNL A   1      32.515  30.838  26.889  1.00  0.00     0.004 A 
ATOM     32  C   UNL A   1      33.696  28.927  26.026  1.00  0.00     0.004 A 
ATOM     33  C   UNL A   1      33.619  31.172  27.674  1.00  0.00     0.000 A 
ATOM     34  C   UNL A   1      34.802  29.263  26.810  1.00  0.00     0.000 A 
ATOM     35  C   UNL A   1      34.765  30.388  27.630  1.00  0.00     0.000 A 
ENDBRANCH  29  30
ENDBRANCH  14  29
ENDBRANCH  11  14
ENDBRANCH   5  10
ENDBRANCH   1   5
BRANCH   3  36
ATOM     36  C   UNL A   1      35.046  22.836  23.934  1.00  0.00     0.117 C 
BRANCH  36  37
ATOM     37  C   UNL A   1      36.500  23.217  23.724  1.00  0.00     0.042 C 
BRANCH  37  38
ATOM     38  C   UNL A   1      37.210  23.647  24.995  1.00  0.00     0.118 C 
BRANCH  38  39
ATOM     39  N   UNL A   1      38.263  22.727  25.407  1.00  0.00    -0.352 N 
ATOM     40  C   UNL A   1      39.384  22.971  26.171  1.00  0.00     0.251 C 
ATOM     41  H   UNL A   1      38.158  21.799  25.095  1.00  0.00     0.163 HD
ATOM     42  O   UNL A   1      40.242  22.119  26.311  1.00  0.00    -0.269 OA
BRANCH  40  43
ATOM     43  C   UNL A   1      39.543  24.304  26.788  1.00  0.00     0.039 A 
ATOM     44  C   UNL A   1      39.096  24.503  28.096  1.00  0.00     0.014 A 
ATOM     45  C   UNL A   1      40.202  25.323  26.098  1.00  0.00     0.014 A 
ATOM     46  C   UNL A   1      39.400  25.699  28.747  1.00  0.00     0.010 A 
ATOM     47  C   UNL A   1      40.587  26.470  26.779  1.00  0.00     0.010 A 
ATOM     48  C   UNL A   1      40.195  26.666  28.112  1.00  0.00    -0.014 A 
BRANCH  48  49
ATOM     49  C   UNL A   1      40.644  27.890  28.821  1.00  0.00     0.031 A 
ATOM     50  C   UNL A   1      42.052  27.981  29.336  1.00  0.00     0.074 A 
ATOM     51  C   UNL A   1      39.760  28.874  29.077  1.00  0.00     0.049 A 
ATOM     52  N   UNL A   1      42.606  28.911  30.071  1.00  0.00    -0.248 NA
ATOM     53  C   UNL A   1      42.947  26.858  29.012  1.00  0.00     0.031 C 
ATOM     54  C   UNL A   1      38.351  28.875  28.678  1.00  0.00     0.029 A 
ATOM     55  N   UNL A   1      39.913  30.060  29.750  1.00  0.00    -0.354 N 
ATOM     56  C   UNL A   1      43.903  28.476  30.311  1.00  0.00     0.074 A 
ATOM     57  C   UNL A   1      44.036  27.174  29.696  1.00  0.00     0.031 C 
ATOM     58  C   UNL A   1      37.776  30.014  29.093  1.00  0.00     0.029 A 
ATOM     59  C   UNL A   1      38.761  30.805  29.824  1.00  0.00     0.049 A 
ATOM     60  H   UNL A   1      40.767  30.351  30.145  1.00  0.00     0.167 HD
ATOM     61  C   UNL A   1      44.900  29.119  30.963  1.00  0.00     0.037 A 
ATOM     62  C   UNL A   1      38.524  31.987  30.425  1.00  0.00     0.037 A 
ATOM     63  C   UNL A   1      44.770  30.427  31.546  1.00  0.00     0.049 A 
ATOM     64  C   UNL A   1      39.649  32.677  31.147  1.00  0.00     0.074 A 
ATOM     65  C   UNL A   1      45.739  31.196  32.165  1.00  0.00     0.029 A 
ATOM     66  N   UNL A   1      43.593  31.159  31.583  1.00  0.00    -0.354 N 
ATOM     67  N   UNL A   1      40.892  32.291  31.304  1.00  0.00    -0.248 NA
ATOM     68  C   UNL A   1      39.338  33.969  31.776  1.00  0.00     0.031 C 
ATOM     69  C   UNL A   1      45.137  32.373  32.618  1.00  0.00     0.029 A 
ATOM     70  C   UNL A   1      43.804  32.362  32.239  1.00  0.00     0.049 A 
ATOM     71  H   UNL A   1      42.733  30.868  31.200  1.00  0.00     0.167 HD
ATOM     72  C   UNL A   1      41.517  33.299  32.026  1.00  0.00     0.074 A 
ATOM     73  C   UNL A   1      40.519  34.323  32.261  1.00  0.00     0.031 C 
ATOM     74  C   UNL A   1      42.799  33.369  32.460  1.00  0.00     0.037 A 
BRANCH  61  75
ATOM     75  C   UNL A   1      46.221  28.414  31.072  1.00  0.00     0.064 A 
ATOM     76  C   UNL A   1      47.225  28.577  30.104  1.00  0.00     0.173 A 
ATOM     77  C   UNL A   1      46.499  27.589  32.172  1.00  0.00     0.173 A 
ATOM     78  F   UNL A   1      47.004  29.344  29.026  1.00  0.00    -0.203 F 
ATOM     79  C   UNL A   1      48.444  27.916  30.218  1.00  0.00     0.198 A 
ATOM     80  C   UNL A   1      47.733  26.955  32.299  1.00  0.00     0.198 A 
ATOM     81  F   UNL A   1      45.577  27.401  33.129  1.00  0.00    -0.203 F 
ATOM     82  F   UNL A   1      49.366  28.046  29.254  1.00  0.00    -0.200 F 
ATOM     83  C   UNL A   1      48.701  27.112  31.319  1.00  0.00     0.200 A 
ATOM     84  F   UNL A   1      47.983  26.188  33.369  1.00  0.00    -0.200 F 
ATOM     85  F   UNL A   1      49.877  26.482  31.430  1.00  0.00    -0.200 F 
ENDBRANCH  61  75
BRANCH  62  86
ATOM     86  C   UNL A   1      37.173  32.602  30.352  1.00  0.00     0.064 A 
ATOM     87  C   UNL A   1      36.214  32.348  31.343  1.00  0.00     0.173 A 
ATOM     88  C   UNL A   1      36.808  33.447  29.294  1.00  0.00     0.173 A 
ATOM     89  F   UNL A   1      36.508  31.530  32.364  1.00  0.00    -0.203 F 
ATOM     90  C   UNL A   1      34.936  32.898  31.267  1.00  0.00     0.198 A 
ATOM     91  C   UNL A   1      35.539  34.019  29.233  1.00  0.00     0.198 A 
ATOM     92  F   UNL A   1      37.690  33.725  28.322  1.00  0.00    -0.203 F 
ATOM     93  F   UNL A   1      34.025  32.601  32.204  1.00  0.00    -0.200 F 
ATOM     94  C   UNL A   1      34.602  33.738  30.215  1.00  0.00     0.200 A 
ATOM     95  F   UNL A   1      35.224  34.842  28.223  1.00  0.00    -0.200 F 
ATOM     96  F   UNL A   1      33.374  34.270  30.144  1.00  0.00    -0.200 F 
ENDBRANCH  62  86
BRANCH  74  97
ATOM     97  C   UNL A   1      43.203  34.603  33.211  1.00  0.00     0.064 A 
ATOM     98  C   UNL A   1      43.172  34.652  34.612  1.00  0.00     0.173 A 
ATOM     99  C   UNL A   1      43.666  35.735  32.523  1.00  0.00     0.173 A 
ATOM    100  F   UNL A   1      42.723  33.603  35.315  1.00  0.00    -0.203 F 
ATOM    101  C   UNL A   1      43.569  35.799  35.296  1.00  0.00     0.198 A 
ATOM    102  C   UNL A   1      44.091  36.867  33.211  1.00  0.00     0.198 A 
ATOM    103  F   UNL A   1      43.721  35.735  31.182  1.00  0.00    -0.203 F 
ATOM    104  F   UNL A   1      43.488  35.840  36.634  1.00  0.00    -0.200 F 
ATOM    105  C   UNL A   1      44.035  36.901  34.596  1.00  0.00     0.200 A 
ATOM    106  F   UNL A   1      44.554  37.927  32.533  1.00  0.00    -0.200 F 
ATOM    107  F   UNL A   1      44.425  38.000  35.256  1.00  0.00    -0.200 F 
ENDBRANCH  74  97
ENDBRANCH  48  49
ENDBRANCH  40  43
ENDBRANCH  38  39
ENDBRANCH  37  38
ENDBRANCH  36  37
ENDBRANCH   3  36
TORSDOF 21
ENDMDL
