MODEL 1
REMARK VINA RESULT:     -12.7      0.000      0.000
REMARK SMILES O=C(NCCCNC(=O)c1cccc2c(C(F)(F)F)cc(Br)nc12)c1ccc(-c2c3nc(c(-c4c(F)c(F)c(F)c(F)c4F)c4ccc([nH]4)c(-c4c(F)c(F)c(F)c(F)c4F)c4nc(c(-c5c(F)c(F)c(F)c(F)c5F)c5ccc2[nH]5)C=C4)C=C3)cc1
REMARK SMILES IDX 4 1 3 2 1 3 2 4 25 6 26 7 87 8 27 9 86 10 28 11 29 12 30 13
REMARK SMILES IDX 80 14 31 15 85 16 79 17 81 18 32 19 84 20 78 21 77 22 33 24
REMARK SMILES IDX 65 25 45 26 64 27 46 28 49 29 63 30 82 31 47 32 48 33 62 35
REMARK SMILES IDX 83 36 50 37 34 38 35 39 43 40 36 41 37 42 41 43 44 44 38 45
REMARK SMILES IDX 39 46 42 47 40 48 66 49 67 50 75 51 68 52 69 53 73 54 76 55
REMARK SMILES IDX 70 56 71 57 74 58 72 59 51 60 52 61 60 62 53 63 54 64 58 65
REMARK SMILES IDX 61 66 55 67 56 68 59 69 57 70 5 71 6 72 7 73 8 74 9 76 10 77
REMARK SMILES IDX 11 78 24 79 12 80 14 81 23 82 13 83 15 84 21 85 20 86 22 87
REMARK SMILES IDX 16 88 17 89 18 90 19 91
REMARK H PARENT 3 5 81 23 49 34 7 75
REMARK Flexibility Score: inf
ROOT
ATOM      1  C   UNL A   1      32.992  29.132  25.504  1.00  0.00     0.118 C 
ENDROOT
BRANCH   1   2
ATOM      2  N   UNL A   1      32.572  30.454  25.944  1.00  0.00    -0.352 N 
ATOM      3  O   UNL A   1      32.454  32.299  27.212  1.00  0.00    -0.269 OA
ATOM      4  C   UNL A   1      33.082  31.288  26.905  1.00  0.00     0.251 C 
ATOM      5  H   UNL A   1      31.786  30.811  25.470  1.00  0.00     0.163 HD
BRANCH   4   6
ATOM      6  C   UNL A   1      34.366  30.998  27.587  1.00  0.00     0.039 A 
ATOM      7  C   UNL A   1      34.620  29.683  27.998  1.00  0.00     0.014 A 
ATOM      8  C   UNL A   1      35.277  32.008  27.907  1.00  0.00     0.014 A 
ATOM      9  C   UNL A   1      35.790  29.378  28.699  1.00  0.00     0.010 A 
ATOM     10  C   UNL A   1      36.479  31.692  28.538  1.00  0.00     0.010 A 
ATOM     11  C   UNL A   1      36.735  30.380  28.966  1.00  0.00    -0.014 A 
BRANCH  11  12
ATOM     12  C   UNL A   1      37.950  30.103  29.772  1.00  0.00     0.031 A 
ATOM     13  C   UNL A   1      39.021  29.206  29.210  1.00  0.00     0.074 A 
ATOM     14  C   UNL A   1      38.084  30.615  31.010  1.00  0.00     0.049 A 
ATOM     15  N   UNL A   1      40.092  28.726  29.791  1.00  0.00    -0.248 NA
ATOM     16  C   UNL A   1      38.847  28.769  27.816  1.00  0.00     0.031 C 
ATOM     17  C   UNL A   1      37.121  31.494  31.672  1.00  0.00     0.029 A 
ATOM     18  N   UNL A   1      39.088  30.462  31.934  1.00  0.00    -0.354 N 
ATOM     19  C   UNL A   1      40.696  27.907  28.845  1.00  0.00     0.074 A 
ATOM     20  C   UNL A   1      39.857  27.927  27.666  1.00  0.00     0.031 C 
ATOM     21  C   UNL A   1      37.593  31.825  32.885  1.00  0.00     0.029 A 
ATOM     22  C   UNL A   1      38.871  31.151  33.101  1.00  0.00     0.049 A 
ATOM     23  H   UNL A   1      39.888  29.911  31.773  1.00  0.00     0.167 HD
ATOM     24  C   UNL A   1      41.856  27.217  28.942  1.00  0.00     0.037 A 
ATOM     25  C   UNL A   1      39.618  31.222  34.220  1.00  0.00     0.037 A 
ATOM     26  C   UNL A   1      42.720  27.239  30.090  1.00  0.00     0.049 A 
ATOM     27  C   UNL A   1      40.904  30.448  34.304  1.00  0.00     0.074 A 
ATOM     28  C   UNL A   1      43.938  26.610  30.267  1.00  0.00     0.029 A 
ATOM     29  N   UNL A   1      42.461  27.947  31.255  1.00  0.00    -0.354 N 
ATOM     30  N   UNL A   1      41.463  29.674  33.407  1.00  0.00    -0.248 NA
ATOM     31  C   UNL A   1      41.659  30.552  35.561  1.00  0.00     0.031 C 
ATOM     32  C   UNL A   1      44.410  26.919  31.548  1.00  0.00     0.029 A 
ATOM     33  C   UNL A   1      43.496  27.764  32.157  1.00  0.00     0.049 A 
ATOM     34  H   UNL A   1      41.660  28.498  31.416  1.00  0.00     0.167 HD
ATOM     35  C   UNL A   1      42.635  29.207  33.983  1.00  0.00     0.074 A 
ATOM     36  C   UNL A   1      42.719  29.797  35.303  1.00  0.00     0.031 C 
ATOM     37  C   UNL A   1      43.559  28.360  33.466  1.00  0.00     0.037 A 
BRANCH  24  38
ATOM     38  C   UNL A   1      42.260  26.382  27.765  1.00  0.00     0.064 A 
ATOM     39  C   UNL A   1      43.193  26.845  26.826  1.00  0.00     0.173 A 
ATOM     40  C   UNL A   1      41.730  25.096  27.589  1.00  0.00     0.173 A 
ATOM     41  F   UNL A   1      43.717  28.075  26.944  1.00  0.00    -0.203 F 
ATOM     42  C   UNL A   1      43.561  26.061  25.736  1.00  0.00     0.198 A 
ATOM     43  C   UNL A   1      42.118  24.304  26.511  1.00  0.00     0.198 A 
ATOM     44  F   UNL A   1      40.837  24.607  28.462  1.00  0.00    -0.203 F 
ATOM     45  F   UNL A   1      44.419  26.540  24.827  1.00  0.00    -0.200 F 
ATOM     46  C   UNL A   1      43.028  24.789  25.583  1.00  0.00     0.200 A 
ATOM     47  F   UNL A   1      41.609  23.073  26.369  1.00  0.00    -0.200 F 
ATOM     48  F   UNL A   1      43.385  24.033  24.535  1.00  0.00    -0.200 F 
ENDBRANCH  24  38
BRANCH  25  49
ATOM     49  C   UNL A   1      39.174  32.081  35.345  1.00  0.00     0.064 A 
ATOM     50  C   UNL A   1      38.422  31.542  36.397  1.00  0.00     0.173 A 
ATOM     51  C   UNL A   1      39.501  33.442  35.403  1.00  0.00     0.173 A 
ATOM     52  F   UNL A   1      38.065  30.250  36.371  1.00  0.00    -0.203 F 
ATOM     53  C   UNL A   1      38.008  32.336  37.464  1.00  0.00     0.198 A 
ATOM     54  C   UNL A   1      39.104  34.231  36.480  1.00  0.00     0.198 A 
ATOM     55  F   UNL A   1      40.220  34.002  34.419  1.00  0.00    -0.203 F 
ATOM     56  F   UNL A   1      37.267  31.803  38.446  1.00  0.00    -0.200 F 
ATOM     57  C   UNL A   1      38.355  33.677  37.508  1.00  0.00     0.200 A 
ATOM     58  F   UNL A   1      39.448  35.526  36.523  1.00  0.00    -0.200 F 
ATOM     59  F   UNL A   1      37.964  34.439  38.539  1.00  0.00    -0.200 F 
ENDBRANCH  25  49
BRANCH  37  60
ATOM     60  C   UNL A   1      44.742  28.024  34.322  1.00  0.00     0.064 A 
ATOM     61  C   UNL A   1      44.748  26.883  35.137  1.00  0.00     0.173 A 
ATOM     62  C   UNL A   1      45.900  28.814  34.277  1.00  0.00     0.173 A 
ATOM     63  F   UNL A   1      43.657  26.108  35.221  1.00  0.00    -0.203 F 
ATOM     64  C   UNL A   1      45.873  26.550  35.886  1.00  0.00     0.198 A 
ATOM     65  C   UNL A   1      47.029  28.464  35.012  1.00  0.00     0.198 A 
ATOM     66  F   UNL A   1      45.942  29.911  33.508  1.00  0.00    -0.203 F 
ATOM     67  F   UNL A   1      45.850  25.469  36.678  1.00  0.00    -0.200 F 
ATOM     68  C   UNL A   1      47.014  27.335  35.817  1.00  0.00     0.200 A 
ATOM     69  F   UNL A   1      48.135  29.219  34.938  1.00  0.00    -0.200 F 
ATOM     70  F   UNL A   1      48.100  27.005  36.531  1.00  0.00    -0.200 F 
ENDBRANCH  37  60
ENDBRANCH  11  12
ENDBRANCH   4   6
ENDBRANCH   1   2
BRANCH   1  71
ATOM     71  C   UNL A   1      31.885  28.088  25.607  1.00  0.00     0.042 C 
BRANCH  71  72
ATOM     72  C   UNL A   1      32.085  27.041  26.696  1.00  0.00     0.118 C 
BRANCH  72  73
ATOM     73  N   UNL A   1      31.041  26.031  26.705  1.00  0.00    -0.352 N 
ATOM     74  C   UNL A   1      31.131  24.666  26.582  1.00  0.00     0.253 C 
ATOM     75  H   UNL A   1      30.128  26.379  26.819  1.00  0.00     0.163 HD
ATOM     76  O   UNL A   1      30.103  23.991  26.620  1.00  0.00    -0.269 OA
BRANCH  74  77
ATOM     77  C   UNL A   1      32.450  24.008  26.500  1.00  0.00     0.066 A 
ATOM     78  C   UNL A   1      32.866  23.254  27.609  1.00  0.00     0.016 A 
ATOM     79  C   UNL A   1      33.188  24.066  25.309  1.00  0.00     0.085 A 
ATOM     80  C   UNL A   1      34.072  22.579  27.564  1.00  0.00     0.002 A 
ATOM     81  C   UNL A   1      34.397  23.328  25.250  1.00  0.00     0.013 A 
ATOM     82  N   UNL A   1      32.770  24.803  24.258  1.00  0.00    -0.240 NA
ATOM     83  C   UNL A   1      34.828  22.612  26.395  1.00  0.00     0.011 A 
ATOM     84  C   UNL A   1      35.121  23.333  24.029  1.00  0.00     0.068 A 
ATOM     85  C   UNL A   1      33.469  24.790  23.109  1.00  0.00     0.107 A 
ATOM     86  C   UNL A   1      34.634  24.074  22.946  1.00  0.00     0.049 A 
ATOM     87  Br  UNL A   1      32.803  25.808  21.657  1.00  0.00    -0.029 Br
BRANCH  84  88
ATOM     88  C   UNL A   1      36.395  22.546  23.853  1.00  0.00     0.417 C 
ATOM     89  F   UNL A   1      36.851  22.573  22.571  1.00  0.00    -0.166 F 
ATOM     90  F   UNL A   1      37.415  23.012  24.626  1.00  0.00    -0.166 F 
ATOM     91  F   UNL A   1      36.269  21.226  24.171  1.00  0.00    -0.166 F 
ENDBRANCH  84  88
ENDBRANCH  74  77
ENDBRANCH  72  73
ENDBRANCH  71  72
ENDBRANCH   1  71
TORSDOF 11
ENDMDL
MODEL 2
REMARK VINA RESULT:     -12.7      0.076      1.142
REMARK SMILES O=C(NCCCNC(=O)c1cccc2c(C(F)(F)F)cc(Br)nc12)c1ccc(-c2c3nc(c(-c4c(F)c(F)c(F)c(F)c4F)c4ccc([nH]4)c(-c4c(F)c(F)c(F)c(F)c4F)c4nc(c(-c5c(F)c(F)c(F)c(F)c5F)c5ccc2[nH]5)C=C4)C=C3)cc1
REMARK SMILES IDX 4 1 3 2 1 3 2 4 25 6 26 7 87 8 27 9 86 10 28 11 29 12 30 13
REMARK SMILES IDX 80 14 31 15 85 16 79 17 81 18 32 19 84 20 78 21 77 22 33 24
REMARK SMILES IDX 65 25 45 26 64 27 46 28 49 29 63 30 82 31 47 32 48 33 62 35
REMARK SMILES IDX 83 36 50 37 34 38 35 39 43 40 36 41 37 42 41 43 44 44 38 45
REMARK SMILES IDX 39 46 42 47 40 48 66 49 67 50 75 51 68 52 69 53 73 54 76 55
REMARK SMILES IDX 70 56 71 57 74 58 72 59 51 60 52 61 60 62 53 63 54 64 58 65
REMARK SMILES IDX 61 66 55 67 56 68 59 69 57 70 5 71 6 72 7 73 8 74 9 76 10 77
REMARK SMILES IDX 11 78 24 79 12 80 14 81 23 82 13 83 15 84 21 85 20 86 22 87
REMARK SMILES IDX 16 88 17 89 18 90 19 91
REMARK H PARENT 3 5 81 23 49 34 7 75
REMARK Flexibility Score: inf
ROOT
ATOM      1  C   UNL A   1      32.997  29.125  25.506  1.00  0.00     0.118 C 
ENDROOT
BRANCH   1   2
ATOM      2  N   UNL A   1      32.580  30.448  25.947  1.00  0.00    -0.352 N 
ATOM      3  O   UNL A   1      32.467  32.292  27.218  1.00  0.00    -0.269 OA
ATOM      4  C   UNL A   1      33.093  31.280  26.909  1.00  0.00     0.251 C 
ATOM      5  H   UNL A   1      31.795  30.807  25.474  1.00  0.00     0.163 HD
BRANCH   4   6
ATOM      6  C   UNL A   1      34.376  30.987  27.590  1.00  0.00     0.039 A 
ATOM      7  C   UNL A   1      34.603  29.683  28.052  1.00  0.00     0.014 A 
ATOM      8  C   UNL A   1      35.315  31.986  27.861  1.00  0.00     0.014 A 
ATOM      9  C   UNL A   1      35.772  29.378  28.753  1.00  0.00     0.010 A 
ATOM     10  C   UNL A   1      36.514  31.666  28.493  1.00  0.00     0.010 A 
ATOM     11  C   UNL A   1      36.744  30.366  28.971  1.00  0.00    -0.014 A 
BRANCH  11  12
ATOM     12  C   UNL A   1      37.960  30.093  29.776  1.00  0.00     0.031 A 
ATOM     13  C   UNL A   1      39.033  29.200  29.213  1.00  0.00     0.074 A 
ATOM     14  C   UNL A   1      38.093  30.604  31.014  1.00  0.00     0.049 A 
ATOM     15  N   UNL A   1      40.106  28.723  29.792  1.00  0.00    -0.248 NA
ATOM     16  C   UNL A   1      38.860  28.764  27.818  1.00  0.00     0.031 C 
ATOM     17  C   UNL A   1      37.127  31.479  31.678  1.00  0.00     0.029 A 
ATOM     18  N   UNL A   1      39.098  30.454  31.938  1.00  0.00    -0.354 N 
ATOM     19  C   UNL A   1      40.712  27.907  28.846  1.00  0.00     0.074 A 
ATOM     20  C   UNL A   1      39.873  27.925  27.667  1.00  0.00     0.031 C 
ATOM     21  C   UNL A   1      37.599  31.810  32.891  1.00  0.00     0.029 A 
ATOM     22  C   UNL A   1      38.879  31.140  33.106  1.00  0.00     0.049 A 
ATOM     23  H   UNL A   1      39.900  29.905  31.776  1.00  0.00     0.167 HD
ATOM     24  C   UNL A   1      41.875  27.220  28.941  1.00  0.00     0.037 A 
ATOM     25  C   UNL A   1      39.626  31.212  34.225  1.00  0.00     0.037 A 
ATOM     26  C   UNL A   1      42.739  27.245  30.089  1.00  0.00     0.049 A 
ATOM     27  C   UNL A   1      40.914  30.443  34.308  1.00  0.00     0.074 A 
ATOM     28  C   UNL A   1      43.960  26.619  30.265  1.00  0.00     0.029 A 
ATOM     29  N   UNL A   1      42.478  27.950  31.255  1.00  0.00    -0.354 N 
ATOM     30  N   UNL A   1      41.475  29.671  33.409  1.00  0.00    -0.248 NA
ATOM     31  C   UNL A   1      41.670  30.548  35.564  1.00  0.00     0.031 C 
ATOM     32  C   UNL A   1      44.431  26.928  31.546  1.00  0.00     0.029 A 
ATOM     33  C   UNL A   1      43.514  27.770  32.156  1.00  0.00     0.049 A 
ATOM     34  H   UNL A   1      41.676  28.498  31.417  1.00  0.00     0.167 HD
ATOM     35  C   UNL A   1      42.650  29.207  33.984  1.00  0.00     0.074 A 
ATOM     36  C   UNL A   1      42.732  29.796  35.305  1.00  0.00     0.031 C 
ATOM     37  C   UNL A   1      43.576  28.364  33.466  1.00  0.00     0.037 A 
BRANCH  24  38
ATOM     38  C   UNL A   1      42.282  26.388  27.764  1.00  0.00     0.064 A 
ATOM     39  C   UNL A   1      43.213  26.855  26.825  1.00  0.00     0.173 A 
ATOM     40  C   UNL A   1      41.755  25.100  27.585  1.00  0.00     0.173 A 
ATOM     41  F   UNL A   1      43.733  28.086  26.944  1.00  0.00    -0.203 F 
ATOM     42  C   UNL A   1      43.582  26.073  25.734  1.00  0.00     0.198 A 
ATOM     43  C   UNL A   1      42.146  24.311  26.507  1.00  0.00     0.198 A 
ATOM     44  F   UNL A   1      40.863  24.608  28.458  1.00  0.00    -0.203 F 
ATOM     45  F   UNL A   1      44.439  26.556  24.824  1.00  0.00    -0.200 F 
ATOM     46  C   UNL A   1      43.053  24.800  25.580  1.00  0.00     0.200 A 
ATOM     47  F   UNL A   1      41.640  23.079  26.363  1.00  0.00    -0.200 F 
ATOM     48  F   UNL A   1      43.413  24.047  24.531  1.00  0.00    -0.200 F 
ENDBRANCH  24  38
BRANCH  25  49
ATOM     49  C   UNL A   1      39.180  32.069  35.351  1.00  0.00     0.064 A 
ATOM     50  C   UNL A   1      38.409  31.532  36.390  1.00  0.00     0.173 A 
ATOM     51  C   UNL A   1      39.523  33.426  35.422  1.00  0.00     0.173 A 
ATOM     52  F   UNL A   1      38.038  30.244  36.351  1.00  0.00    -0.203 F 
ATOM     53  C   UNL A   1      37.994  32.323  37.459  1.00  0.00     0.198 A 
ATOM     54  C   UNL A   1      39.122  34.211  36.501  1.00  0.00     0.198 A 
ATOM     55  F   UNL A   1      40.259  33.983  34.450  1.00  0.00    -0.203 F 
ATOM     56  F   UNL A   1      37.235  31.792  38.428  1.00  0.00    -0.200 F 
ATOM     57  C   UNL A   1      38.356  33.660  37.516  1.00  0.00     0.200 A 
ATOM     58  F   UNL A   1      39.482  35.501  36.557  1.00  0.00    -0.200 F 
ATOM     59  F   UNL A   1      37.962  34.419  38.548  1.00  0.00    -0.200 F 
ENDBRANCH  25  49
BRANCH  37  60
ATOM     60  C   UNL A   1      44.760  28.031  34.321  1.00  0.00     0.064 A 
ATOM     61  C   UNL A   1      45.902  28.845  34.329  1.00  0.00     0.173 A 
ATOM     62  C   UNL A   1      44.727  26.927  35.186  1.00  0.00     0.173 A 
ATOM     63  F   UNL A   1      45.981  29.902  33.508  1.00  0.00    -0.203 F 
ATOM     64  C   UNL A   1      46.975  28.559  35.168  1.00  0.00     0.198 A 
ATOM     65  C   UNL A   1      45.794  26.657  36.037  1.00  0.00     0.198 A 
ATOM     66  F   UNL A   1      43.654  26.124  35.217  1.00  0.00    -0.203 F 
ATOM     67  F   UNL A   1      48.067  29.334  35.142  1.00  0.00    -0.200 F 
ATOM     68  C   UNL A   1      46.917  27.471  36.026  1.00  0.00     0.200 A 
ATOM     69  F   UNL A   1      45.734  25.611  36.874  1.00  0.00    -0.200 F 
ATOM     70  F   UNL A   1      47.947  27.204  36.841  1.00  0.00    -0.200 F 
ENDBRANCH  37  60
ENDBRANCH  11  12
ENDBRANCH   4   6
ENDBRANCH   1   2
BRANCH   1  71
ATOM     71  C   UNL A   1      31.885  28.086  25.601  1.00  0.00     0.042 C 
BRANCH  71  72
ATOM     72  C   UNL A   1      32.066  27.047  26.702  1.00  0.00     0.118 C 
BRANCH  72  73
ATOM     73  N   UNL A   1      31.023  26.035  26.698  1.00  0.00    -0.352 N 
ATOM     74  C   UNL A   1      31.115  24.671  26.567  1.00  0.00     0.253 C 
ATOM     75  H   UNL A   1      30.109  26.381  26.807  1.00  0.00     0.163 HD
ATOM     76  O   UNL A   1      30.088  23.994  26.595  1.00  0.00    -0.269 OA
BRANCH  74  77
ATOM     77  C   UNL A   1      32.436  24.015  26.491  1.00  0.00     0.066 A 
ATOM     78  C   UNL A   1      32.851  23.264  27.603  1.00  0.00     0.016 A 
ATOM     79  C   UNL A   1      33.178  24.072  25.302  1.00  0.00     0.085 A 
ATOM     80  C   UNL A   1      34.058  22.591  27.563  1.00  0.00     0.002 A 
ATOM     81  C   UNL A   1      34.388  23.337  25.248  1.00  0.00     0.013 A 
ATOM     82  N   UNL A   1      32.761  24.807  24.249  1.00  0.00    -0.240 NA
ATOM     83  C   UNL A   1      34.817  22.624  26.396  1.00  0.00     0.011 A 
ATOM     84  C   UNL A   1      35.116  23.341  24.029  1.00  0.00     0.068 A 
ATOM     85  C   UNL A   1      33.464  24.793  23.102  1.00  0.00     0.107 A 
ATOM     86  C   UNL A   1      34.631  24.079  22.943  1.00  0.00     0.049 A 
ATOM     87  Br  UNL A   1      32.801  25.807  21.646  1.00  0.00    -0.029 Br
BRANCH  84  88
ATOM     88  C   UNL A   1      36.393  22.556  23.859  1.00  0.00     0.417 C 
ATOM     89  F   UNL A   1      36.854  22.584  22.579  1.00  0.00    -0.166 F 
ATOM     90  F   UNL A   1      37.408  23.023  24.636  1.00  0.00    -0.166 F 
ATOM     91  F   UNL A   1      36.267  21.236  24.176  1.00  0.00    -0.166 F 
ENDBRANCH  84  88
ENDBRANCH  74  77
ENDBRANCH  72  73
ENDBRANCH  71  72
ENDBRANCH   1  71
TORSDOF 11
ENDMDL
MODEL 3
REMARK VINA RESULT:     -12.6      2.493      3.775
REMARK SMILES O=C(NCCCNC(=O)c1cccc2c(C(F)(F)F)cc(Br)nc12)c1ccc(-c2c3nc(c(-c4c(F)c(F)c(F)c(F)c4F)c4ccc([nH]4)c(-c4c(F)c(F)c(F)c(F)c4F)c4nc(c(-c5c(F)c(F)c(F)c(F)c5F)c5ccc2[nH]5)C=C4)C=C3)cc1
REMARK SMILES IDX 4 1 3 2 1 3 2 4 25 6 26 7 87 8 27 9 86 10 28 11 29 12 30 13
REMARK SMILES IDX 80 14 31 15 85 16 79 17 81 18 32 19 84 20 78 21 77 22 33 24
REMARK SMILES IDX 65 25 45 26 64 27 46 28 49 29 63 30 82 31 47 32 48 33 62 35
REMARK SMILES IDX 83 36 50 37 34 38 35 39 43 40 36 41 37 42 41 43 44 44 38 45
REMARK SMILES IDX 39 46 42 47 40 48 66 49 67 50 75 51 68 52 69 53 73 54 76 55
REMARK SMILES IDX 70 56 71 57 74 58 72 59 51 60 52 61 60 62 53 63 54 64 58 65
REMARK SMILES IDX 61 66 55 67 56 68 59 69 57 70 5 71 6 72 7 73 8 74 9 76 10 77
REMARK SMILES IDX 11 78 24 79 12 80 14 81 23 82 13 83 15 84 21 85 20 86 22 87
REMARK SMILES IDX 16 88 17 89 18 90 19 91
REMARK H PARENT 3 5 81 23 49 34 7 75
REMARK Flexibility Score: inf
ROOT
ATOM      1  C   UNL A   1      32.809  32.912  27.174  1.00  0.00     0.118 C 
ENDROOT
BRANCH   1   2
ATOM      2  N   UNL A   1      32.537  34.250  27.678  1.00  0.00    -0.352 N 
ATOM      3  O   UNL A   1      32.555  36.006  29.073  1.00  0.00    -0.269 OA
ATOM      4  C   UNL A   1      33.062  34.935  28.743  1.00  0.00     0.251 C 
ATOM      5  H   UNL A   1      31.859  34.748  27.167  1.00  0.00     0.163 HD
BRANCH   4   6
ATOM      6  C   UNL A   1      34.221  34.418  29.508  1.00  0.00     0.039 A 
ATOM      7  C   UNL A   1      35.503  34.577  28.966  1.00  0.00     0.014 A 
ATOM      8  C   UNL A   1      34.061  33.702  30.698  1.00  0.00     0.014 A 
ATOM      9  C   UNL A   1      36.617  34.050  29.626  1.00  0.00     0.010 A 
ATOM     10  C   UNL A   1      35.177  33.242  31.394  1.00  0.00     0.010 A 
ATOM     11  C   UNL A   1      36.463  33.386  30.852  1.00  0.00    -0.014 A 
BRANCH  11  12
ATOM     12  C   UNL A   1      37.616  32.750  31.538  1.00  0.00     0.031 A 
ATOM     13  C   UNL A   1      38.344  31.619  30.862  1.00  0.00     0.074 A 
ATOM     14  C   UNL A   1      37.989  33.150  32.768  1.00  0.00     0.049 A 
ATOM     15  N   UNL A   1      39.283  30.836  31.332  1.00  0.00    -0.248 NA
ATOM     16  C   UNL A   1      37.940  31.309  29.481  1.00  0.00     0.031 C 
ATOM     17  C   UNL A   1      37.367  34.229  33.533  1.00  0.00     0.029 A 
ATOM     18  N   UNL A   1      38.984  32.685  33.592  1.00  0.00    -0.354 N 
ATOM     19  C   UNL A   1      39.554  29.926  30.319  1.00  0.00     0.074 A 
ATOM     20  C   UNL A   1      38.659  30.228  29.223  1.00  0.00     0.031 C 
ATOM     21  C   UNL A   1      38.012  34.363  34.704  1.00  0.00     0.029 A 
ATOM     22  C   UNL A   1      39.065  33.354  34.788  1.00  0.00     0.049 A 
ATOM     23  H   UNL A   1      39.583  31.942  33.347  1.00  0.00     0.167 HD
ATOM     24  C   UNL A   1      40.480  28.938  30.295  1.00  0.00     0.037 A 
ATOM     25  C   UNL A   1      39.892  33.166  35.834  1.00  0.00     0.037 A 
ATOM     26  C   UNL A   1      41.408  28.671  31.359  1.00  0.00     0.049 A 
ATOM     27  C   UNL A   1      40.914  32.065  35.785  1.00  0.00     0.074 A 
ATOM     28  C   UNL A   1      42.413  27.722  31.410  1.00  0.00     0.029 A 
ATOM     29  N   UNL A   1      41.454  29.370  32.556  1.00  0.00    -0.354 N 
ATOM     30  N   UNL A   1      41.158  31.207  34.825  1.00  0.00    -0.248 NA
ATOM     31  C   UNL A   1      41.769  31.901  36.969  1.00  0.00     0.031 C 
ATOM     32  C   UNL A   1      43.057  27.833  32.648  1.00  0.00     0.029 A 
ATOM     33  C   UNL A   1      42.468  28.869  33.356  1.00  0.00     0.049 A 
ATOM     34  H   UNL A   1      40.855  30.112  32.801  1.00  0.00     0.167 HD
ATOM     35  C   UNL A   1      42.198  30.410  35.281  1.00  0.00     0.074 A 
ATOM     36  C   UNL A   1      42.552  30.895  36.599  1.00  0.00     0.031 C 
ATOM     37  C   UNL A   1      42.803  29.365  34.665  1.00  0.00     0.037 A 
BRANCH  24  38
ATOM     38  C   UNL A   1      40.537  28.078  29.070  1.00  0.00     0.064 A 
ATOM     39  C   UNL A   1      39.777  26.903  28.965  1.00  0.00     0.173 A 
ATOM     40  C   UNL A   1      41.338  28.444  27.978  1.00  0.00     0.173 A 
ATOM     41  F   UNL A   1      39.008  26.503  29.989  1.00  0.00    -0.203 F 
ATOM     42  C   UNL A   1      39.839  26.111  27.822  1.00  0.00     0.198 A 
ATOM     43  C   UNL A   1      41.378  27.663  26.827  1.00  0.00     0.198 A 
ATOM     44  F   UNL A   1      42.081  29.560  28.029  1.00  0.00    -0.203 F 
ATOM     45  F   UNL A   1      39.140  24.970  27.761  1.00  0.00    -0.200 F 
ATOM     46  C   UNL A   1      40.634  26.495  26.752  1.00  0.00     0.200 A 
ATOM     47  F   UNL A   1      42.140  28.038  25.791  1.00  0.00    -0.200 F 
ATOM     48  F   UNL A   1      40.689  25.733  25.650  1.00  0.00    -0.200 F 
ENDBRANCH  24  38
BRANCH  25  49
ATOM     49  C   UNL A   1      39.800  34.064  37.012  1.00  0.00     0.064 A 
ATOM     50  C   UNL A   1      38.979  33.730  38.097  1.00  0.00     0.173 A 
ATOM     51  C   UNL A   1      40.535  35.254  37.087  1.00  0.00     0.173 A 
ATOM     52  F   UNL A   1      38.239  32.612  38.058  1.00  0.00    -0.203 F 
ATOM     53  C   UNL A   1      38.892  34.559  39.214  1.00  0.00     0.198 A 
ATOM     54  C   UNL A   1      40.462  36.072  38.213  1.00  0.00     0.198 A 
ATOM     55  F   UNL A   1      41.335  35.614  36.073  1.00  0.00    -0.203 F 
ATOM     56  F   UNL A   1      38.079  34.232  40.227  1.00  0.00    -0.200 F 
ATOM     57  C   UNL A   1      39.638  35.726  39.273  1.00  0.00     0.200 A 
ATOM     58  F   UNL A   1      41.192  37.196  38.270  1.00  0.00    -0.200 F 
ATOM     59  F   UNL A   1      39.561  36.519  40.350  1.00  0.00    -0.200 F 
ENDBRANCH  25  49
BRANCH  37  60
ATOM     60  C   UNL A   1      43.912  28.679  35.402  1.00  0.00     0.064 A 
ATOM     61  C   UNL A   1      45.246  29.081  35.245  1.00  0.00     0.173 A 
ATOM     62  C   UNL A   1      43.632  27.655  36.318  1.00  0.00     0.173 A 
ATOM     63  F   UNL A   1      45.560  30.046  34.369  1.00  0.00    -0.203 F 
ATOM     64  C   UNL A   1      46.263  28.474  35.975  1.00  0.00     0.198 A 
ATOM     65  C   UNL A   1      44.650  27.065  37.061  1.00  0.00     0.198 A 
ATOM     66  F   UNL A   1      42.370  27.241  36.506  1.00  0.00    -0.203 F 
ATOM     67  F   UNL A   1      47.535  28.856  35.793  1.00  0.00    -0.200 F 
ATOM     68  C   UNL A   1      45.965  27.474  36.888  1.00  0.00     0.200 A 
ATOM     69  F   UNL A   1      44.360  26.104  37.950  1.00  0.00    -0.200 F 
ATOM     70  F   UNL A   1      46.945  26.898  37.598  1.00  0.00    -0.200 F 
ENDBRANCH  37  60
ENDBRANCH  11  12
ENDBRANCH   4   6
ENDBRANCH   1   2
BRANCH   1  71
ATOM     71  C   UNL A   1      31.575  32.229  26.595  1.00  0.00     0.042 C 
BRANCH  71  72
ATOM     72  C   UNL A   1      31.789  30.793  26.133  1.00  0.00     0.118 C 
BRANCH  72  73
ATOM     73  N   UNL A   1      31.416  29.815  27.141  1.00  0.00    -0.352 N 
ATOM     74  C   UNL A   1      31.571  28.451  27.149  1.00  0.00     0.253 C 
ATOM     75  H   UNL A   1      30.987  30.190  27.943  1.00  0.00     0.163 HD
ATOM     76  O   UNL A   1      31.178  27.808  28.121  1.00  0.00    -0.269 OA
BRANCH  74  77
ATOM     77  C   UNL A   1      32.285  27.773  26.048  1.00  0.00     0.066 A 
ATOM     78  C   UNL A   1      33.523  27.182  26.348  1.00  0.00     0.016 A 
ATOM     79  C   UNL A   1      31.677  27.651  24.790  1.00  0.00     0.085 A 
ATOM     80  C   UNL A   1      34.209  26.494  25.364  1.00  0.00     0.002 A 
ATOM     81  C   UNL A   1      32.359  26.899  23.802  1.00  0.00     0.013 A 
ATOM     82  N   UNL A   1      30.489  28.234  24.525  1.00  0.00    -0.240 NA
ATOM     83  C   UNL A   1      33.631  26.350  24.105  1.00  0.00     0.011 A 
ATOM     84  C   UNL A   1      31.725  26.720  22.545  1.00  0.00     0.068 A 
ATOM     85  C   UNL A   1      29.903  28.048  23.328  1.00  0.00     0.107 A 
ATOM     86  C   UNL A   1      30.472  27.304  22.320  1.00  0.00     0.049 A 
ATOM     87  Br  UNL A   1      28.214  28.855  23.035  1.00  0.00    -0.029 Br
BRANCH  84  88
ATOM     88  C   UNL A   1      32.351  25.902  21.444  1.00  0.00     0.417 C 
ATOM     89  F   UNL A   1      32.513  24.596  21.793  1.00  0.00    -0.166 F 
ATOM     90  F   UNL A   1      31.611  25.898  20.301  1.00  0.00    -0.166 F 
ATOM     91  F   UNL A   1      33.589  26.340  21.076  1.00  0.00    -0.166 F 
ENDBRANCH  84  88
ENDBRANCH  74  77
ENDBRANCH  72  73
ENDBRANCH  71  72
ENDBRANCH   1  71
TORSDOF 11
ENDMDL
