MODEL 1
REMARK VINA RESULT:     -11.9      0.000      0.000
REMARK SMILES O=Cc1ccc(-c2ccc(C(=O)NCCCNC(=O)c3ccc(-c4c5nc(c(-c6c(F)c(F)c(F)c(F)c6F)c6ccc([nH]6)c(-c6c(F)c(F)c(F)c(F)c6F)c6nc(c(-c7c(F)c(F)c(F)c(F)c7F)c7ccc4[nH]7)C=C6)C=C5)cc3)cn2)cc1
REMARK SMILES IDX 15 1 14 2 13 3 11 4 12 5 10 7 7 8 8 9 84 10 9 11 83 12 6 13
REMARK SMILES IDX 3 14 4 15 86 16 5 17 85 18 2 19 1 20 16 21 17 22 18 23 19 25
REMARK SMILES IDX 20 26 21 27 82 28 22 29 81 30 23 31 24 32 25 33 75 34 26 35
REMARK SMILES IDX 80 36 74 37 76 38 27 39 79 40 73 41 72 42 28 44 60 45 40 46
REMARK SMILES IDX 59 47 41 48 44 49 58 50 77 51 42 52 43 53 57 55 78 56 45 57
REMARK SMILES IDX 29 58 30 59 38 60 31 61 32 62 36 63 39 64 33 65 34 66 37 67
REMARK SMILES IDX 35 68 61 69 62 70 70 71 63 72 64 73 68 74 71 75 65 76 66 77
REMARK SMILES IDX 69 78 67 79 46 80 47 81 55 82 48 83 49 84 53 85 56 86 50 87
REMARK SMILES IDX 51 88 54 89 52 90
REMARK H PARENT 13 6 17 24 76 43 44 54
REMARK Flexibility Score: inf
ROOT
ATOM      1  C   UNL A   1      42.620  18.583  26.718  1.00  0.00     0.042 C 
ENDROOT
BRANCH   1   2
ATOM      2  C   UNL A   1      41.678  19.370  27.631  1.00  0.00     0.118 C 
BRANCH   2   3
ATOM      3  N   UNL A   1      42.292  20.608  28.079  1.00  0.00    -0.352 N 
ATOM      4  C   UNL A   1      41.888  21.916  28.008  1.00  0.00     0.252 C 
ATOM      5  O   UNL A   1      42.596  22.762  28.554  1.00  0.00    -0.269 OA
ATOM      6  H   UNL A   1      43.164  20.484  28.519  1.00  0.00     0.163 HD
BRANCH   4   7
ATOM      7  C   UNL A   1      40.635  22.352  27.348  1.00  0.00     0.058 A 
ATOM      8  C   UNL A   1      38.302  22.918  25.972  1.00  0.00     0.070 A 
ATOM      9  C   UNL A   1      38.815  23.857  26.862  1.00  0.00     0.030 A 
ATOM     10  N   UNL A   1      38.883  21.712  25.781  1.00  0.00    -0.255 NA
ATOM     11  C   UNL A   1      39.978  23.558  27.571  1.00  0.00     0.018 A 
ATOM     12  C   UNL A   1      40.030  21.460  26.466  1.00  0.00     0.125 A 
BRANCH   8  13
ATOM     13  C   UNL A   1      37.084  23.186  25.208  1.00  0.00     0.000 A 
ATOM     14  C   UNL A   1      34.810  23.815  23.688  1.00  0.00     0.014 A 
ATOM     15  C   UNL A   1      34.939  24.321  24.983  1.00  0.00     0.012 A 
ATOM     16  C   UNL A   1      35.792  22.980  23.152  1.00  0.00     0.012 A 
ATOM     17  C   UNL A   1      36.070  23.999  25.740  1.00  0.00     0.011 A 
ATOM     18  C   UNL A   1      36.924  22.670  23.910  1.00  0.00     0.011 A 
BRANCH  14  19
ATOM     19  C   UNL A   1      33.628  24.180  22.880  1.00  0.00     0.260 C 
ATOM     20  O   UNL A   1      33.479  23.787  21.730  1.00  0.00    -0.298 OA
ENDBRANCH  14  19
ENDBRANCH   8  13
ENDBRANCH   4   7
ENDBRANCH   2   3
ENDBRANCH   1   2
BRANCH   1  21
ATOM     21  C   UNL A   1      42.809  19.221  25.344  1.00  0.00     0.118 C 
BRANCH  21  22
ATOM     22  N   UNL A   1      44.069  18.827  24.730  1.00  0.00    -0.352 N 
ATOM     23  C   UNL A   1      45.140  19.592  24.339  1.00  0.00     0.251 C 
ATOM     24  H   UNL A   1      44.168  17.861  24.569  1.00  0.00     0.163 HD
ATOM     25  O   UNL A   1      46.012  19.090  23.637  1.00  0.00    -0.269 OA
BRANCH  23  26
ATOM     26  C   UNL A   1      45.254  21.010  24.744  1.00  0.00     0.039 A 
ATOM     27  C   UNL A   1      45.529  21.304  26.084  1.00  0.00     0.014 A 
ATOM     28  C   UNL A   1      45.029  22.049  23.837  1.00  0.00     0.014 A 
ATOM     29  C   UNL A   1      45.625  22.633  26.503  1.00  0.00     0.010 A 
ATOM     30  C   UNL A   1      45.189  23.374  24.240  1.00  0.00     0.010 A 
ATOM     31  C   UNL A   1      45.481  23.679  25.578  1.00  0.00    -0.014 A 
BRANCH  31  32
ATOM     32  C   UNL A   1      45.624  25.097  25.994  1.00  0.00     0.031 A 
ATOM     33  C   UNL A   1      46.964  25.775  25.927  1.00  0.00     0.074 A 
ATOM     34  C   UNL A   1      44.559  25.754  26.493  1.00  0.00     0.049 A 
ATOM     35  N   UNL A   1      47.306  26.976  26.320  1.00  0.00    -0.248 NA
ATOM     36  C   UNL A   1      48.074  24.989  25.366  1.00  0.00     0.031 C 
ATOM     37  C   UNL A   1      43.216  25.192  26.645  1.00  0.00     0.029 A 
ATOM     38  N   UNL A   1      44.441  27.034  26.975  1.00  0.00    -0.354 N 
ATOM     39  C   UNL A   1      48.669  27.082  26.071  1.00  0.00     0.074 A 
ATOM     40  C   UNL A   1      49.100  25.809  25.535  1.00  0.00     0.031 C 
ATOM     41  C   UNL A   1      42.407  26.126  27.170  1.00  0.00     0.029 A 
ATOM     42  C   UNL A   1      43.180  27.339  27.422  1.00  0.00     0.049 A 
ATOM     43  H   UNL A   1      45.191  27.672  26.998  1.00  0.00     0.167 HD
ATOM     44  C   UNL A   1      49.481  28.150  26.255  1.00  0.00     0.037 A 
ATOM     45  C   UNL A   1      42.703  28.467  27.981  1.00  0.00     0.037 A 
ATOM     46  C   UNL A   1      49.041  29.426  26.761  1.00  0.00     0.049 A 
ATOM     47  C   UNL A   1      43.624  29.640  28.171  1.00  0.00     0.074 A 
ATOM     48  C   UNL A   1      49.773  30.588  26.928  1.00  0.00     0.029 A 
ATOM     49  N   UNL A   1      47.749  29.703  27.182  1.00  0.00    -0.354 N 
ATOM     50  N   UNL A   1      44.896  29.748  27.877  1.00  0.00    -0.248 NA
ATOM     51  C   UNL A   1      43.041  30.851  28.765  1.00  0.00     0.031 C 
ATOM     52  C   UNL A   1      48.934  31.558  27.485  1.00  0.00     0.029 A 
ATOM     53  C   UNL A   1      47.667  31.014  27.625  1.00  0.00     0.049 A 
ATOM     54  H   UNL A   1      47.001  29.064  27.168  1.00  0.00     0.167 HD
ATOM     55  C   UNL A   1      45.260  31.041  28.224  1.00  0.00     0.074 A 
ATOM     56  C   UNL A   1      44.069  31.686  28.739  1.00  0.00     0.031 C 
ATOM     57  C   UNL A   1      46.472  31.641  28.126  1.00  0.00     0.037 A 
BRANCH  44  58
ATOM     58  C   UNL A   1      50.932  27.989  25.906  1.00  0.00     0.064 A 
ATOM     59  C   UNL A   1      51.393  28.149  24.590  1.00  0.00     0.173 A 
ATOM     60  C   UNL A   1      51.878  27.708  26.902  1.00  0.00     0.173 A 
ATOM     61  F   UNL A   1      50.527  28.408  23.598  1.00  0.00    -0.203 F 
ATOM     62  C   UNL A   1      52.742  28.005  24.281  1.00  0.00     0.198 A 
ATOM     63  C   UNL A   1      53.232  27.593  26.594  1.00  0.00     0.198 A 
ATOM     64  F   UNL A   1      51.493  27.553  28.178  1.00  0.00    -0.203 F 
ATOM     65  F   UNL A   1      53.152  28.115  23.009  1.00  0.00    -0.200 F 
ATOM     66  C   UNL A   1      53.662  27.734  25.283  1.00  0.00     0.200 A 
ATOM     67  F   UNL A   1      54.120  27.344  27.565  1.00  0.00    -0.200 F 
ATOM     68  F   UNL A   1      54.961  27.601  24.984  1.00  0.00    -0.200 F 
ENDBRANCH  44  58
BRANCH  45  69
ATOM     69  C   UNL A   1      41.272  28.549  28.376  1.00  0.00     0.064 A 
ATOM     70  C   UNL A   1      40.300  28.980  27.463  1.00  0.00     0.173 A 
ATOM     71  C   UNL A   1      40.849  28.198  29.666  1.00  0.00     0.173 A 
ATOM     72  F   UNL A   1      40.660  29.346  26.225  1.00  0.00    -0.203 F 
ATOM     73  C   UNL A   1      38.959  29.073  27.831  1.00  0.00     0.198 A 
ATOM     74  C   UNL A   1      39.505  28.266  30.025  1.00  0.00     0.198 A 
ATOM     75  F   UNL A   1      41.741  27.774  30.574  1.00  0.00    -0.203 F 
ATOM     76  F   UNL A   1      38.056  29.527  26.952  1.00  0.00    -0.200 F 
ATOM     77  C   UNL A   1      38.562  28.711  29.109  1.00  0.00     0.200 A 
ATOM     78  F   UNL A   1      39.122  27.901  31.255  1.00  0.00    -0.200 F 
ATOM     79  F   UNL A   1      37.272  28.795  29.462  1.00  0.00    -0.200 F 
ENDBRANCH  45  69
BRANCH  57  80
ATOM     80  C   UNL A   1      46.563  33.077  28.554  1.00  0.00     0.064 A 
ATOM     81  C   UNL A   1      46.926  33.433  29.860  1.00  0.00     0.173 A 
ATOM     82  C   UNL A   1      46.320  34.107  27.633  1.00  0.00     0.173 A 
ATOM     83  F   UNL A   1      47.151  32.483  30.781  1.00  0.00    -0.203 F 
ATOM     84  C   UNL A   1      47.021  34.770  30.236  1.00  0.00     0.198 A 
ATOM     85  C   UNL A   1      46.442  35.442  28.005  1.00  0.00     0.198 A 
ATOM     86  F   UNL A   1      45.975  33.817  26.369  1.00  0.00    -0.203 F 
ATOM     87  F   UNL A   1      47.326  35.088  31.502  1.00  0.00    -0.200 F 
ATOM     88  C   UNL A   1      46.786  35.774  29.306  1.00  0.00     0.200 A 
ATOM     89  F   UNL A   1      46.226  36.410  27.104  1.00  0.00    -0.200 F 
ATOM     90  F   UNL A   1      46.883  37.059  29.670  1.00  0.00    -0.200 F 
ENDBRANCH  57  80
ENDBRANCH  31  32
ENDBRANCH  23  26
ENDBRANCH  21  22
ENDBRANCH   1  21
TORSDOF 12
ENDMDL
MODEL 2
REMARK VINA RESULT:     -11.9      4.047      7.201
REMARK SMILES O=Cc1ccc(-c2ccc(C(=O)NCCCNC(=O)c3ccc(-c4c5nc(c(-c6c(F)c(F)c(F)c(F)c6F)c6ccc([nH]6)c(-c6c(F)c(F)c(F)c(F)c6F)c6nc(c(-c7c(F)c(F)c(F)c(F)c7F)c7ccc4[nH]7)C=C6)C=C5)cc3)cn2)cc1
REMARK SMILES IDX 15 1 14 2 13 3 11 4 12 5 10 7 7 8 8 9 84 10 9 11 83 12 6 13
REMARK SMILES IDX 3 14 4 15 86 16 5 17 85 18 2 19 1 20 16 21 17 22 18 23 19 25
REMARK SMILES IDX 20 26 21 27 82 28 22 29 81 30 23 31 24 32 25 33 75 34 26 35
REMARK SMILES IDX 80 36 74 37 76 38 27 39 79 40 73 41 72 42 28 44 60 45 40 46
REMARK SMILES IDX 59 47 41 48 44 49 58 50 77 51 42 52 43 53 57 55 78 56 45 57
REMARK SMILES IDX 29 58 30 59 38 60 31 61 32 62 36 63 39 64 33 65 34 66 37 67
REMARK SMILES IDX 35 68 61 69 62 70 70 71 63 72 64 73 68 74 71 75 65 76 66 77
REMARK SMILES IDX 69 78 67 79 46 80 47 81 55 82 48 83 49 84 53 85 56 86 50 87
REMARK SMILES IDX 51 88 54 89 52 90
REMARK H PARENT 13 6 17 24 76 43 44 54
REMARK Flexibility Score: inf
ROOT
ATOM      1  C   UNL A   1      40.862  20.057  26.593  1.00  0.00     0.042 C 
ENDROOT
BRANCH   1   2
ATOM      2  C   UNL A   1      42.232  19.703  27.173  1.00  0.00     0.118 C 
BRANCH   2   3
ATOM      3  N   UNL A   1      43.175  19.359  26.123  1.00  0.00    -0.352 N 
ATOM      4  C   UNL A   1      44.041  20.116  25.376  1.00  0.00     0.252 C 
ATOM      5  O   UNL A   1      44.788  19.525  24.596  1.00  0.00    -0.269 OA
ATOM      6  H   UNL A   1      43.197  18.398  25.907  1.00  0.00     0.163 HD
BRANCH   4   7
ATOM      7  C   UNL A   1      44.147  21.589  25.488  1.00  0.00     0.058 A 
ATOM      8  C   UNL A   1      44.591  24.298  25.839  1.00  0.00     0.070 A 
ATOM      9  C   UNL A   1      43.436  23.874  25.189  1.00  0.00     0.030 A 
ATOM     10  N   UNL A   1      45.533  23.432  26.275  1.00  0.00    -0.255 NA
ATOM     11  C   UNL A   1      43.227  22.509  24.993  1.00  0.00     0.018 A 
ATOM     12  C   UNL A   1      45.289  22.107  26.094  1.00  0.00     0.125 A 
BRANCH   8  13
ATOM     13  C   UNL A   1      44.854  25.719  26.066  1.00  0.00     0.000 A 
ATOM     14  C   UNL A   1      45.418  28.452  26.371  1.00  0.00     0.014 A 
ATOM     15  C   UNL A   1      46.353  27.501  26.784  1.00  0.00     0.012 A 
ATOM     16  C   UNL A   1      44.195  28.053  25.829  1.00  0.00     0.012 A 
ATOM     17  C   UNL A   1      46.065  26.140  26.637  1.00  0.00     0.011 A 
ATOM     18  C   UNL A   1      43.917  26.692  25.677  1.00  0.00     0.011 A 
BRANCH  14  19
ATOM     19  C   UNL A   1      45.736  29.888  26.501  1.00  0.00     0.260 C 
ATOM     20  O   UNL A   1      46.403  30.485  25.664  1.00  0.00    -0.298 OA
ENDBRANCH  14  19
ENDBRANCH   8  13
ENDBRANCH   4   7
ENDBRANCH   2   3
ENDBRANCH   1   2
BRANCH   1  21
ATOM     21  C   UNL A   1      40.424  21.489  26.892  1.00  0.00     0.118 C 
BRANCH  21  22
ATOM     22  N   UNL A   1      39.361  21.931  26.003  1.00  0.00    -0.352 N 
ATOM     23  C   UNL A   1      38.685  23.125  25.956  1.00  0.00     0.251 C 
ATOM     24  H   UNL A   1      39.082  21.270  25.329  1.00  0.00     0.163 HD
ATOM     25  O   UNL A   1      37.669  23.215  25.274  1.00  0.00    -0.269 OA
BRANCH  23  26
ATOM     26  C   UNL A   1      39.157  24.300  26.720  1.00  0.00     0.039 A 
ATOM     27  C   UNL A   1      39.980  25.231  26.076  1.00  0.00     0.014 A 
ATOM     28  C   UNL A   1      38.855  24.460  28.076  1.00  0.00     0.014 A 
ATOM     29  C   UNL A   1      40.457  26.342  26.775  1.00  0.00     0.010 A 
ATOM     30  C   UNL A   1      39.278  25.601  28.755  1.00  0.00     0.010 A 
ATOM     31  C   UNL A   1      40.089  26.549  28.114  1.00  0.00    -0.014 A 
BRANCH  31  32
ATOM     32  C   UNL A   1      40.550  27.747  28.860  1.00  0.00     0.031 A 
ATOM     33  C   UNL A   1      41.952  27.813  29.399  1.00  0.00     0.074 A 
ATOM     34  C   UNL A   1      39.684  28.749  29.108  1.00  0.00     0.049 A 
ATOM     35  N   UNL A   1      42.512  28.733  30.142  1.00  0.00    -0.248 NA
ATOM     36  C   UNL A   1      42.834  26.679  29.080  1.00  0.00     0.031 C 
ATOM     37  C   UNL A   1      38.287  28.784  28.673  1.00  0.00     0.029 A 
ATOM     38  N   UNL A   1      39.848  29.925  29.798  1.00  0.00    -0.354 N 
ATOM     39  C   UNL A   1      43.802  28.283  30.394  1.00  0.00     0.074 A 
ATOM     40  C   UNL A   1      43.927  26.987  29.762  1.00  0.00     0.031 C 
ATOM     41  C   UNL A   1      37.726  29.930  29.092  1.00  0.00     0.029 A 
ATOM     42  C   UNL A   1      38.711  30.693  29.853  1.00  0.00     0.049 A 
ATOM     43  H   UNL A   1      40.701  30.192  30.212  1.00  0.00     0.167 HD
ATOM     44  C   UNL A   1      44.796  28.903  31.074  1.00  0.00     0.037 A 
ATOM     45  C   UNL A   1      38.486  31.874  30.458  1.00  0.00     0.037 A 
ATOM     46  C   UNL A   1      44.676  30.206  31.676  1.00  0.00     0.049 A 
ATOM     47  C   UNL A   1      39.608  32.543  31.202  1.00  0.00     0.074 A 
ATOM     48  C   UNL A   1      45.644  30.946  32.333  1.00  0.00     0.029 A 
ATOM     49  N   UNL A   1      43.514  30.963  31.691  1.00  0.00    -0.354 N 
ATOM     50  N   UNL A   1      40.840  32.135  31.383  1.00  0.00    -0.248 NA
ATOM     51  C   UNL A   1      39.309  33.842  31.823  1.00  0.00     0.031 C 
ATOM     52  C   UNL A   1      45.057  32.134  32.781  1.00  0.00     0.029 A 
ATOM     53  C   UNL A   1      43.735  32.155  32.363  1.00  0.00     0.049 A 
ATOM     54  H   UNL A   1      42.660  30.694  31.285  1.00  0.00     0.167 HD
ATOM     55  C   UNL A   1      41.470  33.134  32.113  1.00  0.00     0.074 A 
ATOM     56  C   UNL A   1      40.487  34.175  32.330  1.00  0.00     0.031 C 
ATOM     57  C   UNL A   1      42.748  33.183  32.563  1.00  0.00     0.037 A 
BRANCH  44  58
ATOM     58  C   UNL A   1      46.106  28.180  31.203  1.00  0.00     0.064 A 
ATOM     59  C   UNL A   1      47.184  28.454  30.347  1.00  0.00     0.173 A 
ATOM     60  C   UNL A   1      46.299  27.230  32.216  1.00  0.00     0.173 A 
ATOM     61  F   UNL A   1      47.048  29.347  29.354  1.00  0.00    -0.203 F 
ATOM     62  C   UNL A   1      48.396  27.783  30.483  1.00  0.00     0.198 A 
ATOM     63  C   UNL A   1      47.523  26.581  32.368  1.00  0.00     0.198 A 
ATOM     64  F   UNL A   1      45.304  26.935  33.067  1.00  0.00    -0.203 F 
ATOM     65  F   UNL A   1      49.395  28.028  29.623  1.00  0.00    -0.200 F 
ATOM     66  C   UNL A   1      48.567  26.852  31.496  1.00  0.00     0.200 A 
ATOM     67  F   UNL A   1      47.690  25.692  33.355  1.00  0.00    -0.200 F 
ATOM     68  F   UNL A   1      49.736  26.212  31.629  1.00  0.00    -0.200 F 
ENDBRANCH  44  58
BRANCH  45  69
ATOM     69  C   UNL A   1      37.148  32.513  30.360  1.00  0.00     0.064 A 
ATOM     70  C   UNL A   1      36.194  32.337  31.371  1.00  0.00     0.173 A 
ATOM     71  C   UNL A   1      36.798  33.310  29.260  1.00  0.00     0.173 A 
ATOM     72  F   UNL A   1      36.476  31.566  32.431  1.00  0.00    -0.203 F 
ATOM     73  C   UNL A   1      34.932  32.921  31.278  1.00  0.00     0.198 A 
ATOM     74  C   UNL A   1      35.545  33.915  29.182  1.00  0.00     0.198 A 
ATOM     75  F   UNL A   1      37.678  33.513  28.270  1.00  0.00    -0.203 F 
ATOM     76  F   UNL A   1      34.024  32.703  32.239  1.00  0.00    -0.200 F 
ATOM     77  C   UNL A   1      34.611  33.714  30.187  1.00  0.00     0.200 A 
ATOM     78  F   UNL A   1      35.243  34.692  28.134  1.00  0.00    -0.200 F 
ATOM     79  F   UNL A   1      33.400  34.280  30.101  1.00  0.00    -0.200 F 
ENDBRANCH  45  69
BRANCH  57  80
ATOM     80  C   UNL A   1      43.165  34.418  33.306  1.00  0.00     0.064 A 
ATOM     81  C   UNL A   1      43.569  35.580  32.633  1.00  0.00     0.173 A 
ATOM     82  C   UNL A   1      43.124  34.450  34.708  1.00  0.00     0.173 A 
ATOM     83  F   UNL A   1      43.641  35.594  31.293  1.00  0.00    -0.203 F 
ATOM     84  C   UNL A   1      43.938  36.722  33.339  1.00  0.00     0.198 A 
ATOM     85  C   UNL A   1      43.467  35.602  35.409  1.00  0.00     0.198 A 
ATOM     86  F   UNL A   1      42.739  33.365  35.398  1.00  0.00    -0.203 F 
ATOM     87  F   UNL A   1      44.364  37.807  32.676  1.00  0.00    -0.200 F 
ATOM     88  C   UNL A   1      43.880  36.735  34.725  1.00  0.00     0.200 A 
ATOM     89  F   UNL A   1      43.400  35.616  36.747  1.00  0.00    -0.200 F 
ATOM     90  F   UNL A   1      44.231  37.837  35.400  1.00  0.00    -0.200 F 
ENDBRANCH  57  80
ENDBRANCH  31  32
ENDBRANCH  23  26
ENDBRANCH  21  22
ENDBRANCH   1  21
TORSDOF 12
ENDMDL
MODEL 3
REMARK VINA RESULT:     -11.8      5.182     10.826
REMARK SMILES O=Cc1ccc(-c2ccc(C(=O)NCCCNC(=O)c3ccc(-c4c5nc(c(-c6c(F)c(F)c(F)c(F)c6F)c6ccc([nH]6)c(-c6c(F)c(F)c(F)c(F)c6F)c6nc(c(-c7c(F)c(F)c(F)c(F)c7F)c7ccc4[nH]7)C=C6)C=C5)cc3)cn2)cc1
REMARK SMILES IDX 15 1 14 2 13 3 11 4 12 5 10 7 7 8 8 9 84 10 9 11 83 12 6 13
REMARK SMILES IDX 3 14 4 15 86 16 5 17 85 18 2 19 1 20 16 21 17 22 18 23 19 25
REMARK SMILES IDX 20 26 21 27 82 28 22 29 81 30 23 31 24 32 25 33 75 34 26 35
REMARK SMILES IDX 80 36 74 37 76 38 27 39 79 40 73 41 72 42 28 44 60 45 40 46
REMARK SMILES IDX 59 47 41 48 44 49 58 50 77 51 42 52 43 53 57 55 78 56 45 57
REMARK SMILES IDX 29 58 30 59 38 60 31 61 32 62 36 63 39 64 33 65 34 66 37 67
REMARK SMILES IDX 35 68 61 69 62 70 70 71 63 72 64 73 68 74 71 75 65 76 66 77
REMARK SMILES IDX 69 78 67 79 46 80 47 81 55 82 48 83 49 84 53 85 56 86 50 87
REMARK SMILES IDX 51 88 54 89 52 90
REMARK H PARENT 13 6 17 24 76 43 44 54
REMARK Flexibility Score: inf
ROOT
ATOM      1  C   UNL A   1      33.674  33.822  28.446  1.00  0.00     0.042 C 
ENDROOT
BRANCH   1   2
ATOM      2  C   UNL A   1      34.342  35.094  28.971  1.00  0.00     0.118 C 
BRANCH   2   3
ATOM      3  N   UNL A   1      33.734  35.533  30.215  1.00  0.00    -0.352 N 
ATOM      4  C   UNL A   1      33.951  35.180  31.522  1.00  0.00     0.252 C 
ATOM      5  O   UNL A   1      33.325  35.789  32.389  1.00  0.00    -0.269 OA
ATOM      6  H   UNL A   1      33.034  36.215  30.098  1.00  0.00     0.163 HD
BRANCH   4   7
ATOM      7  C   UNL A   1      34.919  34.139  31.940  1.00  0.00     0.058 A 
ATOM      8  C   UNL A   1      36.906  32.409  32.787  1.00  0.00     0.070 A 
ATOM      9  C   UNL A   1      35.716  31.889  32.287  1.00  0.00     0.030 A 
ATOM     10  N   UNL A   1      37.116  33.738  32.913  1.00  0.00    -0.255 NA
ATOM     11  C   UNL A   1      34.707  32.765  31.883  1.00  0.00     0.018 A 
ATOM     12  C   UNL A   1      36.126  34.567  32.487  1.00  0.00     0.125 A 
BRANCH   8  13
ATOM     13  C   UNL A   1      37.991  31.530  33.224  1.00  0.00     0.000 A 
ATOM     14  C   UNL A   1      40.137  29.869  33.938  1.00  0.00     0.014 A 
ATOM     15  C   UNL A   1      39.035  29.329  33.273  1.00  0.00     0.012 A 
ATOM     16  C   UNL A   1      40.169  31.225  34.271  1.00  0.00     0.012 A 
ATOM     17  C   UNL A   1      37.964  30.158  32.925  1.00  0.00     0.011 A 
ATOM     18  C   UNL A   1      39.100  32.050  33.913  1.00  0.00     0.011 A 
BRANCH  14  19
ATOM     19  C   UNL A   1      41.279  28.997  34.279  1.00  0.00     0.260 C 
ATOM     20  O   UNL A   1      41.137  27.805  34.525  1.00  0.00    -0.298 OA
ENDBRANCH  14  19
ENDBRANCH   8  13
ENDBRANCH   4   7
ENDBRANCH   2   3
ENDBRANCH   1   2
BRANCH   1  21
ATOM     21  C   UNL A   1      34.651  32.674  28.208  1.00  0.00     0.118 C 
BRANCH  21  22
ATOM     22  N   UNL A   1      33.965  31.432  27.885  1.00  0.00    -0.352 N 
ATOM     23  C   UNL A   1      34.467  30.172  27.676  1.00  0.00     0.251 C 
ATOM     24  H   UNL A   1      32.987  31.508  27.804  1.00  0.00     0.163 HD
ATOM     25  O   UNL A   1      33.741  29.307  27.194  1.00  0.00    -0.269 OA
BRANCH  23  26
ATOM     26  C   UNL A   1      35.869  29.843  28.013  1.00  0.00     0.039 A 
ATOM     27  C   UNL A   1      36.155  29.368  29.298  1.00  0.00     0.014 A 
ATOM     28  C   UNL A   1      36.909  30.058  27.105  1.00  0.00     0.014 A 
ATOM     29  C   UNL A   1      37.472  29.065  29.654  1.00  0.00     0.010 A 
ATOM     30  C   UNL A   1      38.214  29.695  27.438  1.00  0.00     0.010 A 
ATOM     31  C   UNL A   1      38.508  29.203  28.718  1.00  0.00    -0.014 A 
BRANCH  31  32
ATOM     32  C   UNL A   1      39.907  28.844  29.063  1.00  0.00     0.031 A 
ATOM     33  C   UNL A   1      40.773  29.810  29.822  1.00  0.00     0.074 A 
ATOM     34  C   UNL A   1      40.416  27.672  28.636  1.00  0.00     0.049 A 
ATOM     35  N   UNL A   1      42.038  29.713  30.144  1.00  0.00    -0.248 NA
ATOM     36  C   UNL A   1      40.139  31.065  30.254  1.00  0.00     0.031 C 
ATOM     37  C   UNL A   1      39.689  26.668  27.859  1.00  0.00     0.029 A 
ATOM     38  N   UNL A   1      41.671  27.132  28.786  1.00  0.00    -0.354 N 
ATOM     39  C   UNL A   1      42.354  30.897  30.799  1.00  0.00     0.074 A 
ATOM     40  C   UNL A   1      41.161  31.716  30.789  1.00  0.00     0.031 C 
ATOM     41  C   UNL A   1      40.503  25.629  27.612  1.00  0.00     0.029 A 
ATOM     42  C   UNL A   1      41.817  25.908  28.183  1.00  0.00     0.049 A 
ATOM     43  H   UNL A   1      42.395  27.582  29.279  1.00  0.00     0.167 HD
ATOM     44  C   UNL A   1      43.527  31.259  31.372  1.00  0.00     0.037 A 
ATOM     45  C   UNL A   1      42.894  25.104  28.094  1.00  0.00     0.037 A 
ATOM     46  C   UNL A   1      44.703  30.428  31.406  1.00  0.00     0.049 A 
ATOM     47  C   UNL A   1      44.182  25.528  28.743  1.00  0.00     0.074 A 
ATOM     48  C   UNL A   1      45.920  30.679  32.014  1.00  0.00     0.029 A 
ATOM     49  N   UNL A   1      44.806  29.183  30.803  1.00  0.00    -0.354 N 
ATOM     50  N   UNL A   1      44.451  26.623  29.410  1.00  0.00    -0.248 NA
ATOM     51  C   UNL A   1      45.316  24.599  28.631  1.00  0.00     0.031 C 
ATOM     52  C   UNL A   1      46.773  29.603  31.748  1.00  0.00     0.029 A 
ATOM     53  C   UNL A   1      46.073  28.660  31.011  1.00  0.00     0.049 A 
ATOM     54  H   UNL A   1      44.086  28.736  30.304  1.00  0.00     0.167 HD
ATOM     55  C   UNL A   1      45.772  26.506  29.820  1.00  0.00     0.074 A 
ATOM     56  C   UNL A   1      46.247  25.225  29.337  1.00  0.00     0.031 C 
ATOM     57  C   UNL A   1      46.525  27.381  30.530  1.00  0.00     0.037 A 
BRANCH  44  58
ATOM     58  C   UNL A   1      43.598  32.614  32.014  1.00  0.00     0.064 A 
ATOM     59  C   UNL A   1      43.760  33.781  31.251  1.00  0.00     0.173 A 
ATOM     60  C   UNL A   1      43.465  32.753  33.403  1.00  0.00     0.173 A 
ATOM     61  F   UNL A   1      43.903  33.702  29.919  1.00  0.00    -0.203 F 
ATOM     62  C   UNL A   1      43.817  35.032  31.858  1.00  0.00     0.198 A 
ATOM     63  C   UNL A   1      43.492  34.009  34.005  1.00  0.00     0.198 A 
ATOM     64  F   UNL A   1      43.300  31.670  34.179  1.00  0.00    -0.203 F 
ATOM     65  F   UNL A   1      44.020  36.128  31.113  1.00  0.00    -0.200 F 
ATOM     66  C   UNL A   1      43.676  35.147  33.233  1.00  0.00     0.200 A 
ATOM     67  F   UNL A   1      43.344  34.119  35.331  1.00  0.00    -0.200 F 
ATOM     68  F   UNL A   1      43.724  36.352  33.815  1.00  0.00    -0.200 F 
ENDBRANCH  44  58
BRANCH  45  69
ATOM     69  C   UNL A   1      42.789  23.803  27.384  1.00  0.00     0.064 A 
ATOM     70  C   UNL A   1      43.179  23.685  26.043  1.00  0.00     0.173 A 
ATOM     71  C   UNL A   1      42.302  22.656  28.027  1.00  0.00     0.173 A 
ATOM     72  F   UNL A   1      43.631  24.760  25.380  1.00  0.00    -0.203 F 
ATOM     73  C   UNL A   1      43.069  22.472  25.365  1.00  0.00     0.198 A 
ATOM     74  C   UNL A   1      42.218  21.438  27.357  1.00  0.00     0.198 A 
ATOM     75  F   UNL A   1      41.921  22.717  29.312  1.00  0.00    -0.203 F 
ATOM     76  F   UNL A   1      43.410  22.397  24.072  1.00  0.00    -0.200 F 
ATOM     77  C   UNL A   1      42.595  21.348  26.025  1.00  0.00     0.200 A 
ATOM     78  F   UNL A   1      41.773  20.351  28.001  1.00  0.00    -0.200 F 
ATOM     79  F   UNL A   1      42.495  20.181  25.376  1.00  0.00    -0.200 F 
ENDBRANCH  45  69
BRANCH  57  80
ATOM     80  C   UNL A   1      47.930  26.968  30.858  1.00  0.00     0.064 A 
ATOM     81  C   UNL A   1      48.221  26.176  31.978  1.00  0.00     0.173 A 
ATOM     82  C   UNL A   1      48.992  27.338  30.019  1.00  0.00     0.173 A 
ATOM     83  F   UNL A   1      47.241  25.811  32.819  1.00  0.00    -0.203 F 
ATOM     84  C   UNL A   1      49.528  25.789  32.259  1.00  0.00     0.198 A 
ATOM     85  C   UNL A   1      50.293  26.926  30.288  1.00  0.00     0.198 A 
ATOM     86  F   UNL A   1      48.764  28.091  28.932  1.00  0.00    -0.203 F 
ATOM     87  F   UNL A   1      49.790  25.069  33.360  1.00  0.00    -0.200 F 
ATOM     88  C   UNL A   1      50.562  26.158  31.410  1.00  0.00     0.200 A 
ATOM     89  F   UNL A   1      51.289  27.274  29.462  1.00  0.00    -0.200 F 
ATOM     90  F   UNL A   1      51.818  25.779  31.680  1.00  0.00    -0.200 F 
ENDBRANCH  57  80
ENDBRANCH  31  32
ENDBRANCH  23  26
ENDBRANCH  21  22
ENDBRANCH   1  21
TORSDOF 12
ENDMDL
