MODEL 1
REMARK VINA RESULT:     -12.5      0.000      0.000
REMARK SMILES C[C@H]1[C@H](C(=O)NCCCNC(=O)c2ccc(-c3c4nc(c(-c5c(F)c(F)c(F)c(F)c5F)c5ccc([nH]5)c(-c5c(F)c(F)c(F)c(F)c5F)c5nc(c(-c6c(F)c(F)c(F)c(F)c6F)c6ccc3[nH]6)C=C5)C=C4)cc2)CCN1S(=O)(=O)/C=C/c1ccc(Cl)cc1
REMARK SMILES IDX 7 1 6 2 4 3 5 4 3 6 1 7 2 8 78 9 76 10 77 11 79 12 80 13
REMARK SMILES IDX 81 14 82 15 83 16 84 17 85 18 90 19 86 20 89 21 87 22 88 23
REMARK SMILES IDX 8 24 9 25 10 26 11 27 12 29 13 30 14 31 75 32 15 33 74 34
REMARK SMILES IDX 16 35 17 36 18 37 68 38 19 39 73 40 67 41 69 42 20 43 72 44
REMARK SMILES IDX 66 45 65 46 21 48 53 49 33 50 52 51 34 52 37 53 51 54 70 55
REMARK SMILES IDX 35 56 36 57 50 59 71 60 38 61 22 62 23 63 31 64 24 65 25 66
REMARK SMILES IDX 29 67 32 68 26 69 27 70 30 71 28 72 54 73 55 74 63 75 56 76
REMARK SMILES IDX 57 77 61 78 64 79 58 80 59 81 62 82 60 83 39 84 40 85 48 86
REMARK SMILES IDX 41 87 42 88 46 89 49 90 43 91 44 92 47 93 45 94
REMARK H PARENT 6 5 10 28 69 47 37 58
REMARK Flexibility Score: inf
ROOT
ATOM      1  C   UNL A   1      31.043  30.930  25.402  1.00  0.00     0.117 C 
ENDROOT
BRANCH   1   2
ATOM      2  N   UNL A   1      32.258  30.137  25.385  1.00  0.00    -0.356 N 
ATOM      3  C   UNL A   1      32.447  28.792  25.398  1.00  0.00     0.224 C 
ATOM      4  O   UNL A   1      33.616  28.396  25.360  1.00  0.00    -0.275 OA
ATOM      5  H   UNL A   1      33.089  30.665  25.360  1.00  0.00     0.163 HD
BRANCH   3   6
ATOM      6  C   UNL A   1      31.315  27.781  25.512  1.00  0.00     0.098 C 
ATOM      7  C   UNL A   1      29.524  27.944  23.773  1.00  0.00     0.026 C 
ATOM      8  C   UNL A   1      30.853  27.272  24.141  1.00  0.00     0.082 C 
ATOM      9  N   UNL A   1      30.595  25.812  24.287  1.00  0.00    -0.195 NA
ATOM     10  C   UNL A   1      31.548  26.552  26.372  1.00  0.00     0.032 C 
ATOM     11  C   UNL A   1      30.676  25.476  25.737  1.00  0.00     0.104 C 
BRANCH   9  12
ATOM     12  S   UNL A   1      31.343  24.674  23.259  1.00  0.00     0.236 S 
ATOM     13  O   UNL A   1      30.413  23.570  23.125  1.00  0.00    -0.207 OA
ATOM     14  O   UNL A   1      31.740  25.405  22.074  1.00  0.00    -0.207 OA
BRANCH  12  15
ATOM     15  C   UNL A   1      32.761  24.036  24.024  1.00  0.00     0.123 C 
ATOM     16  C   UNL A   1      33.981  24.323  23.556  1.00  0.00     0.021 C 
BRANCH  16  17
ATOM     17  C   UNL A   1      35.196  23.763  24.154  1.00  0.00    -0.025 A 
ATOM     18  C   UNL A   1      35.944  22.809  23.454  1.00  0.00     0.009 A 
ATOM     19  C   UNL A   1      35.585  24.127  25.448  1.00  0.00     0.009 A 
ATOM     20  C   UNL A   1      37.057  22.208  24.053  1.00  0.00     0.021 A 
ATOM     21  C   UNL A   1      36.694  23.523  26.049  1.00  0.00     0.021 A 
ATOM     22  C   UNL A   1      37.419  22.559  25.352  1.00  0.00     0.041 A 
ATOM     23  Cl  UNL A   1      38.757  21.784  26.107  1.00  0.00    -0.084 Cl
ENDBRANCH  16  17
ENDBRANCH  12  15
ENDBRANCH   9  12
ENDBRANCH   3   6
ENDBRANCH   1   2
BRANCH   1  24
ATOM     24  C   UNL A   1      31.028  31.967  26.519  1.00  0.00     0.042 C 
BRANCH  24  25
ATOM     25  C   UNL A   1      32.408  32.471  26.906  1.00  0.00     0.118 C 
BRANCH  25  26
ATOM     26  N   UNL A   1      32.380  33.850  27.372  1.00  0.00    -0.352 N 
ATOM     27  C   UNL A   1      33.065  34.479  28.382  1.00  0.00     0.251 C 
ATOM     28  H   UNL A   1      31.761  34.434  26.877  1.00  0.00     0.163 HD
ATOM     29  O   UNL A   1      32.710  35.602  28.733  1.00  0.00    -0.269 OA
BRANCH  27  30
ATOM     30  C   UNL A   1      34.213  33.834  29.059  1.00  0.00     0.039 A 
ATOM     31  C   UNL A   1      35.499  34.327  28.810  1.00  0.00     0.014 A 
ATOM     32  C   UNL A   1      34.052  32.713  29.876  1.00  0.00     0.014 A 
ATOM     33  C   UNL A   1      36.607  33.730  29.417  1.00  0.00     0.010 A 
ATOM     34  C   UNL A   1      35.144  32.178  30.555  1.00  0.00     0.010 A 
ATOM     35  C   UNL A   1      36.436  32.669  30.320  1.00  0.00    -0.014 A 
BRANCH  35  36
ATOM     36  C   UNL A   1      37.595  32.044  31.006  1.00  0.00     0.031 A 
ATOM     37  C   UNL A   1      38.406  30.983  30.313  1.00  0.00     0.074 A 
ATOM     38  C   UNL A   1      37.881  32.388  32.277  1.00  0.00     0.049 A 
ATOM     39  N   UNL A   1      39.403  30.269  30.770  1.00  0.00    -0.248 NA
ATOM     40  C   UNL A   1      38.022  30.656  28.931  1.00  0.00     0.031 C 
ATOM     41  C   UNL A   1      37.137  33.361  33.077  1.00  0.00     0.029 A 
ATOM     42  N   UNL A   1      38.870  31.949  33.121  1.00  0.00    -0.354 N 
ATOM     43  C   UNL A   1      39.751  29.400  29.743  1.00  0.00     0.074 A 
ATOM     44  C   UNL A   1      38.823  29.636  28.659  1.00  0.00     0.031 C 
ATOM     45  C   UNL A   1      37.707  33.462  34.289  1.00  0.00     0.029 A 
ATOM     46  C   UNL A   1      38.834  32.538  34.361  1.00  0.00     0.049 A 
ATOM     47  H   UNL A   1      39.539  31.275  32.863  1.00  0.00     0.167 HD
ATOM     48  C   UNL A   1      40.767  28.507  29.698  1.00  0.00     0.037 A 
ATOM     49  C   UNL A   1      39.621  32.350  35.438  1.00  0.00     0.037 A 
ATOM     50  C   UNL A   1      41.712  28.299  30.765  1.00  0.00     0.049 A 
ATOM     51  C   UNL A   1      40.762  31.373  35.352  1.00  0.00     0.074 A 
ATOM     52  C   UNL A   1      42.812  27.460  30.794  1.00  0.00     0.029 A 
ATOM     53  N   UNL A   1      41.668  28.945  31.992  1.00  0.00    -0.354 N 
ATOM     54  N   UNL A   1      41.118  30.603  34.353  1.00  0.00    -0.248 NA
ATOM     55  C   UNL A   1      41.618  31.250  36.540  1.00  0.00     0.031 C 
ATOM     56  C   UNL A   1      43.413  27.573  32.053  1.00  0.00     0.029 A 
ATOM     57  C   UNL A   1      42.714  28.513  32.791  1.00  0.00     0.049 A 
ATOM     58  H   UNL A   1      40.992  29.610  32.256  1.00  0.00     0.167 HD
ATOM     59  C   UNL A   1      42.246  29.918  34.782  1.00  0.00     0.074 A 
ATOM     60  C   UNL A   1      42.529  30.382  36.125  1.00  0.00     0.031 C 
ATOM     61  C   UNL A   1      42.980  28.987  34.125  1.00  0.00     0.037 A 
BRANCH  48  62
ATOM     62  C   UNL A   1      40.916  27.692  28.445  1.00  0.00     0.064 A 
ATOM     63  C   UNL A   1      41.737  28.115  27.387  1.00  0.00     0.173 A 
ATOM     64  C   UNL A   1      40.252  26.463  28.308  1.00  0.00     0.173 A 
ATOM     65  F   UNL A   1      42.384  29.287  27.462  1.00  0.00    -0.203 F 
ATOM     66  C   UNL A   1      41.861  27.355  26.228  1.00  0.00     0.198 A 
ATOM     67  C   UNL A   1      40.402  25.692  27.159  1.00  0.00     0.198 A 
ATOM     68  F   UNL A   1      39.459  26.009  29.290  1.00  0.00    -0.203 F 
ATOM     69  F   UNL A   1      42.607  27.805  25.210  1.00  0.00    -0.200 F 
ATOM     70  C   UNL A   1      41.199  26.141  26.116  1.00  0.00     0.200 A 
ATOM     71  F   UNL A   1      39.771  24.513  27.057  1.00  0.00    -0.200 F 
ATOM     72  F   UNL A   1      41.322  25.409  25.000  1.00  0.00    -0.200 F 
ENDBRANCH  48  62
BRANCH  49  73
ATOM     73  C   UNL A   1      39.374  33.131  36.676  1.00  0.00     0.064 A 
ATOM     74  C   UNL A   1      38.469  32.677  37.645  1.00  0.00     0.173 A 
ATOM     75  C   UNL A   1      40.046  34.338  36.923  1.00  0.00     0.173 A 
ATOM     76  F   UNL A   1      37.791  31.538  37.446  1.00  0.00    -0.203 F 
ATOM     77  C   UNL A   1      38.229  33.410  38.805  1.00  0.00     0.198 A 
ATOM     78  C   UNL A   1      39.825  35.055  38.098  1.00  0.00     0.198 A 
ATOM     79  F   UNL A   1      40.931  34.809  36.035  1.00  0.00    -0.203 F 
ATOM     80  F   UNL A   1      37.329  32.973  39.698  1.00  0.00    -0.200 F 
ATOM     81  C   UNL A   1      38.912  34.595  39.034  1.00  0.00     0.200 A 
ATOM     82  F   UNL A   1      40.502  36.190  38.323  1.00  0.00    -0.200 F 
ATOM     83  F   UNL A   1      38.688  35.295  40.154  1.00  0.00    -0.200 F 
ENDBRANCH  49  73
BRANCH  61  84
ATOM     84  C   UNL A   1      44.172  28.426  34.843  1.00  0.00     0.064 A 
ATOM     85  C   UNL A   1      45.429  29.045  34.773  1.00  0.00     0.173 A 
ATOM     86  C   UNL A   1      44.049  27.273  35.632  1.00  0.00     0.173 A 
ATOM     87  F   UNL A   1      45.600  30.142  34.019  1.00  0.00    -0.203 F 
ATOM     88  C   UNL A   1      46.527  28.511  35.442  1.00  0.00     0.198 A 
ATOM     89  C   UNL A   1      45.142  26.758  36.322  1.00  0.00     0.198 A 
ATOM     90  F   UNL A   1      42.867  26.648  35.736  1.00  0.00    -0.203 F 
ATOM     91  F   UNL A   1      47.729  29.090  35.320  1.00  0.00    -0.200 F 
ATOM     92  C   UNL A   1      46.382  27.373  36.221  1.00  0.00     0.200 A 
ATOM     93  F   UNL A   1      44.999  25.665  37.083  1.00  0.00    -0.200 F 
ATOM     94  F   UNL A   1      47.439  26.862  36.866  1.00  0.00    -0.200 F 
ENDBRANCH  61  84
ENDBRANCH  35  36
ENDBRANCH  27  30
ENDBRANCH  25  26
ENDBRANCH  24  25
ENDBRANCH   1  24
TORSDOF 13
ENDMDL
MODEL 2
REMARK VINA RESULT:     -12.4      0.411      7.277
REMARK SMILES C[C@H]1[C@H](C(=O)NCCCNC(=O)c2ccc(-c3c4nc(c(-c5c(F)c(F)c(F)c(F)c5F)c5ccc([nH]5)c(-c5c(F)c(F)c(F)c(F)c5F)c5nc(c(-c6c(F)c(F)c(F)c(F)c6F)c6ccc3[nH]6)C=C5)C=C4)cc2)CCN1S(=O)(=O)/C=C/c1ccc(Cl)cc1
REMARK SMILES IDX 7 1 6 2 4 3 5 4 3 6 1 7 2 8 78 9 76 10 77 11 79 12 80 13
REMARK SMILES IDX 81 14 82 15 83 16 84 17 85 18 90 19 86 20 89 21 87 22 88 23
REMARK SMILES IDX 8 24 9 25 10 26 11 27 12 29 13 30 14 31 75 32 15 33 74 34
REMARK SMILES IDX 16 35 17 36 18 37 68 38 19 39 73 40 67 41 69 42 20 43 72 44
REMARK SMILES IDX 66 45 65 46 21 48 53 49 33 50 52 51 34 52 37 53 51 54 70 55
REMARK SMILES IDX 35 56 36 57 50 59 71 60 38 61 22 62 23 63 31 64 24 65 25 66
REMARK SMILES IDX 29 67 32 68 26 69 27 70 30 71 28 72 54 73 55 74 63 75 56 76
REMARK SMILES IDX 57 77 61 78 64 79 58 80 59 81 62 82 60 83 39 84 40 85 48 86
REMARK SMILES IDX 41 87 42 88 46 89 49 90 43 91 44 92 47 93 45 94
REMARK H PARENT 6 5 10 28 69 47 37 58
REMARK Flexibility Score: inf
ROOT
ATOM      1  C   UNL A   1      31.029  30.993  25.397  1.00  0.00     0.117 C 
ENDROOT
BRANCH   1   2
ATOM      2  N   UNL A   1      32.259  30.226  25.340  1.00  0.00    -0.356 N 
ATOM      3  C   UNL A   1      32.478  28.886  25.348  1.00  0.00     0.224 C 
ATOM      4  O   UNL A   1      33.653  28.515  25.272  1.00  0.00    -0.275 OA
ATOM      5  H   UNL A   1      33.077  30.772  25.288  1.00  0.00     0.163 HD
BRANCH   3   6
ATOM      6  C   UNL A   1      31.372  27.850  25.500  1.00  0.00     0.098 C 
ATOM      7  C   UNL A   1      29.529  27.963  23.813  1.00  0.00     0.026 C 
ATOM      8  C   UNL A   1      30.882  27.323  24.146  1.00  0.00     0.082 C 
ATOM      9  N   UNL A   1      30.662  25.859  24.308  1.00  0.00    -0.195 NA
ATOM     10  C   UNL A   1      31.657  26.633  26.361  1.00  0.00     0.032 C 
ATOM     11  C   UNL A   1      30.791  25.534  25.757  1.00  0.00     0.104 C 
BRANCH   9  12
ATOM     12  S   UNL A   1      31.405  24.731  23.265  1.00  0.00     0.236 S 
ATOM     13  O   UNL A   1      30.471  23.633  23.117  1.00  0.00    -0.207 OA
ATOM     14  O   UNL A   1      31.805  25.475  22.090  1.00  0.00    -0.207 OA
BRANCH  12  15
ATOM     15  C   UNL A   1      32.820  24.077  24.022  1.00  0.00     0.123 C 
ATOM     16  C   UNL A   1      34.042  24.365  23.559  1.00  0.00     0.021 C 
BRANCH  16  17
ATOM     17  C   UNL A   1      35.254  23.793  24.149  1.00  0.00    -0.025 A 
ATOM     18  C   UNL A   1      35.919  22.744  23.503  1.00  0.00     0.009 A 
ATOM     19  C   UNL A   1      35.722  24.242  25.390  1.00  0.00     0.009 A 
ATOM     20  C   UNL A   1      37.028  22.136  24.103  1.00  0.00     0.021 A 
ATOM     21  C   UNL A   1      36.827  23.632  25.992  1.00  0.00     0.021 A 
ATOM     22  C   UNL A   1      37.469  22.575  25.350  1.00  0.00     0.041 A 
ATOM     23  Cl  UNL A   1      38.800  21.794  26.110  1.00  0.00    -0.084 Cl
ENDBRANCH  16  17
ENDBRANCH  12  15
ENDBRANCH   9  12
ENDBRANCH   3   6
ENDBRANCH   1   2
BRANCH   1  24
ATOM     24  C   UNL A   1      31.035  32.044  26.500  1.00  0.00     0.042 C 
BRANCH  24  25
ATOM     25  C   UNL A   1      32.428  32.450  26.952  1.00  0.00     0.118 C 
BRANCH  25  26
ATOM     26  N   UNL A   1      32.476  33.831  27.411  1.00  0.00    -0.352 N 
ATOM     27  C   UNL A   1      33.222  34.433  28.393  1.00  0.00     0.251 C 
ATOM     28  H   UNL A   1      31.868  34.440  26.933  1.00  0.00     0.163 HD
ATOM     29  O   UNL A   1      32.930  35.572  28.750  1.00  0.00    -0.269 OA
BRANCH  27  30
ATOM     30  C   UNL A   1      34.363  33.740  29.035  1.00  0.00     0.039 A 
ATOM     31  C   UNL A   1      35.660  34.180  28.748  1.00  0.00     0.014 A 
ATOM     32  C   UNL A   1      34.181  32.625  29.856  1.00  0.00     0.014 A 
ATOM     33  C   UNL A   1      36.760  33.537  29.320  1.00  0.00     0.010 A 
ATOM     34  C   UNL A   1      35.270  32.045  30.502  1.00  0.00     0.010 A 
ATOM     35  C   UNL A   1      36.573  32.482  30.228  1.00  0.00    -0.014 A 
BRANCH  35  36
ATOM     36  C   UNL A   1      37.726  31.809  30.878  1.00  0.00     0.031 A 
ATOM     37  C   UNL A   1      38.155  32.208  32.264  1.00  0.00     0.074 A 
ATOM     38  C   UNL A   1      38.425  30.880  30.197  1.00  0.00     0.049 A 
ATOM     39  N   UNL A   1      39.177  31.793  32.968  1.00  0.00    -0.248 NA
ATOM     40  C   UNL A   1      37.347  33.238  32.935  1.00  0.00     0.031 C 
ATOM     41  C   UNL A   1      38.145  30.447  28.828  1.00  0.00     0.029 A 
ATOM     42  N   UNL A   1      39.522  30.141  30.563  1.00  0.00    -0.354 N 
ATOM     43  C   UNL A   1      39.144  32.521  34.151  1.00  0.00     0.074 A 
ATOM     44  C   UNL A   1      38.036  33.445  34.047  1.00  0.00     0.031 C 
ATOM     45  C   UNL A   1      39.032  29.502  28.476  1.00  0.00     0.029 A 
ATOM     46  C   UNL A   1      39.962  29.289  29.580  1.00  0.00     0.049 A 
ATOM     47  H   UNL A   1      39.953  30.216  31.444  1.00  0.00     0.167 HD
ATOM     48  C   UNL A   1      39.948  32.412  35.235  1.00  0.00     0.037 A 
ATOM     49  C   UNL A   1      41.002  28.434  29.570  1.00  0.00     0.037 A 
ATOM     50  C   UNL A   1      41.029  31.467  35.351  1.00  0.00     0.049 A 
ATOM     51  C   UNL A   1      41.862  28.309  30.798  1.00  0.00     0.074 A 
ATOM     52  C   UNL A   1      41.864  31.237  36.429  1.00  0.00     0.029 A 
ATOM     53  N   UNL A   1      41.419  30.591  34.348  1.00  0.00    -0.354 N 
ATOM     54  N   UNL A   1      41.783  28.959  31.933  1.00  0.00    -0.248 NA
ATOM     55  C   UNL A   1      42.949  27.322  30.747  1.00  0.00     0.031 C 
ATOM     56  C   UNL A   1      42.782  30.246  36.067  1.00  0.00     0.029 A 
ATOM     57  C   UNL A   1      42.492  29.827  34.779  1.00  0.00     0.049 A 
ATOM     58  H   UNL A   1      40.996  30.523  33.462  1.00  0.00     0.167 HD
ATOM     59  C   UNL A   1      42.793  28.450  32.737  1.00  0.00     0.074 A 
ATOM     60  C   UNL A   1      43.458  27.419  31.966  1.00  0.00     0.031 C 
ATOM     61  C   UNL A   1      43.141  28.805  33.997  1.00  0.00     0.037 A 
BRANCH  48  62
ATOM     62  C   UNL A   1      39.679  33.333  36.391  1.00  0.00     0.064 A 
ATOM     63  C   UNL A   1      40.297  34.590  36.487  1.00  0.00     0.173 A 
ATOM     64  C   UNL A   1      38.777  32.967  37.402  1.00  0.00     0.173 A 
ATOM     65  F   UNL A   1      41.177  34.983  35.554  1.00  0.00    -0.203 F 
ATOM     66  C   UNL A   1      40.045  35.431  37.567  1.00  0.00     0.198 A 
ATOM     67  C   UNL A   1      38.506  33.824  38.465  1.00  0.00     0.198 A 
ATOM     68  F   UNL A   1      38.156  31.779  37.357  1.00  0.00    -0.203 F 
ATOM     69  F   UNL A   1      40.688  36.604  37.664  1.00  0.00    -0.200 F 
ATOM     70  C   UNL A   1      39.146  35.052  38.552  1.00  0.00     0.200 A 
ATOM     71  F   UNL A   1      37.628  33.461  39.410  1.00  0.00    -0.200 F 
ATOM     72  F   UNL A   1      38.903  35.864  39.590  1.00  0.00    -0.200 F 
ENDBRANCH  48  62
BRANCH  49  73
ATOM     73  C   UNL A   1      41.263  27.605  28.366  1.00  0.00     0.064 A 
ATOM     74  C   UNL A   1      42.176  28.023  27.388  1.00  0.00     0.173 A 
ATOM     75  C   UNL A   1      40.618  26.374  28.174  1.00  0.00     0.173 A 
ATOM     76  F   UNL A   1      42.805  29.200  27.520  1.00  0.00    -0.203 F 
ATOM     77  C   UNL A   1      42.419  27.252  26.254  1.00  0.00     0.198 A 
ATOM     78  C   UNL A   1      40.883  25.591  27.052  1.00  0.00     0.198 A 
ATOM     79  F   UNL A   1      39.745  25.922  29.086  1.00  0.00    -0.203 F 
ATOM     80  F   UNL A   1      43.268  27.694  25.315  1.00  0.00    -0.200 F 
ATOM     81  C   UNL A   1      41.777  26.034  26.089  1.00  0.00     0.200 A 
ATOM     82  F   UNL A   1      40.275  24.405  26.907  1.00  0.00    -0.200 F 
ATOM     83  F   UNL A   1      42.018  25.288  25.002  1.00  0.00    -0.200 F 
ENDBRANCH  49  73
BRANCH  61  84
ATOM     84  C   UNL A   1      44.278  28.058  34.628  1.00  0.00     0.064 A 
ATOM     85  C   UNL A   1      45.598  28.523  34.544  1.00  0.00     0.173 A 
ATOM     86  C   UNL A   1      44.041  26.877  35.348  1.00  0.00     0.173 A 
ATOM     87  F   UNL A   1      45.877  29.640  33.854  1.00  0.00    -0.203 F 
ATOM     88  C   UNL A   1      46.644  27.817  35.132  1.00  0.00     0.198 A 
ATOM     89  C   UNL A   1      45.085  26.189  35.958  1.00  0.00     0.198 A 
ATOM     90  F   UNL A   1      42.795  26.394  35.463  1.00  0.00    -0.203 F 
ATOM     91  F   UNL A   1      47.904  28.254  34.996  1.00  0.00    -0.200 F 
ATOM     92  C   UNL A   1      46.387  26.655  35.843  1.00  0.00     0.200 A 
ATOM     93  F   UNL A   1      44.834  25.073  36.655  1.00  0.00    -0.200 F 
ATOM     94  F   UNL A   1      47.394  25.978  36.411  1.00  0.00    -0.200 F 
ENDBRANCH  61  84
ENDBRANCH  35  36
ENDBRANCH  27  30
ENDBRANCH  25  26
ENDBRANCH  24  25
ENDBRANCH   1  24
TORSDOF 13
ENDMDL
MODEL 3
REMARK VINA RESULT:     -12.4      5.540     10.926
REMARK SMILES C[C@H]1[C@H](C(=O)NCCCNC(=O)c2ccc(-c3c4nc(c(-c5c(F)c(F)c(F)c(F)c5F)c5ccc([nH]5)c(-c5c(F)c(F)c(F)c(F)c5F)c5nc(c(-c6c(F)c(F)c(F)c(F)c6F)c6ccc3[nH]6)C=C5)C=C4)cc2)CCN1S(=O)(=O)/C=C/c1ccc(Cl)cc1
REMARK SMILES IDX 7 1 6 2 4 3 5 4 3 6 1 7 2 8 78 9 76 10 77 11 79 12 80 13
REMARK SMILES IDX 81 14 82 15 83 16 84 17 85 18 90 19 86 20 89 21 87 22 88 23
REMARK SMILES IDX 8 24 9 25 10 26 11 27 12 29 13 30 14 31 75 32 15 33 74 34
REMARK SMILES IDX 16 35 17 36 18 37 68 38 19 39 73 40 67 41 69 42 20 43 72 44
REMARK SMILES IDX 66 45 65 46 21 48 53 49 33 50 52 51 34 52 37 53 51 54 70 55
REMARK SMILES IDX 35 56 36 57 50 59 71 60 38 61 22 62 23 63 31 64 24 65 25 66
REMARK SMILES IDX 29 67 32 68 26 69 27 70 30 71 28 72 54 73 55 74 63 75 56 76
REMARK SMILES IDX 57 77 61 78 64 79 58 80 59 81 62 82 60 83 39 84 40 85 48 86
REMARK SMILES IDX 41 87 42 88 46 89 49 90 43 91 44 92 47 93 45 94
REMARK H PARENT 6 5 10 28 69 47 37 58
REMARK Flexibility Score: inf
ROOT
ATOM      1  C   UNL A   1      37.352  20.744  24.648  1.00  0.00     0.117 C 
ENDROOT
BRANCH   1   2
ATOM      2  N   UNL A   1      36.325  20.950  25.650  1.00  0.00    -0.356 N 
ATOM      3  C   UNL A   1      35.029  21.341  25.534  1.00  0.00     0.224 C 
ATOM      4  O   UNL A   1      34.376  21.416  26.579  1.00  0.00    -0.275 OA
ATOM      5  H   UNL A   1      36.616  20.778  26.575  1.00  0.00     0.163 HD
BRANCH   3   6
ATOM      6  C   UNL A   1      34.381  21.735  24.214  1.00  0.00     0.098 C 
ATOM      7  C   UNL A   1      32.491  20.287  23.449  1.00  0.00     0.026 C 
ATOM      8  C   UNL A   1      32.859  21.549  24.238  1.00  0.00     0.082 C 
ATOM      9  N   UNL A   1      32.270  22.716  23.523  1.00  0.00    -0.195 NA
ATOM     10  C   UNL A   1      34.636  23.138  23.692  1.00  0.00     0.032 C 
ATOM     11  C   UNL A   1      33.386  23.474  22.888  1.00  0.00     0.104 C 
BRANCH   9  12
ATOM     12  S   UNL A   1      31.083  23.697  24.258  1.00  0.00     0.236 S 
ATOM     13  O   UNL A   1      30.105  23.994  23.230  1.00  0.00    -0.207 OA
ATOM     14  O   UNL A   1      30.657  22.988  25.446  1.00  0.00    -0.207 OA
BRANCH  12  15
ATOM     15  C   UNL A   1      31.781  25.210  24.728  1.00  0.00     0.123 C 
ATOM     16  C   UNL A   1      31.790  25.593  26.010  1.00  0.00     0.021 C 
BRANCH  16  17
ATOM     17  C   UNL A   1      32.334  26.886  26.433  1.00  0.00    -0.025 A 
ATOM     18  C   UNL A   1      31.500  27.827  27.050  1.00  0.00     0.009 A 
ATOM     19  C   UNL A   1      33.668  27.218  26.172  1.00  0.00     0.009 A 
ATOM     20  C   UNL A   1      31.991  29.095  27.380  1.00  0.00     0.021 A 
ATOM     21  C   UNL A   1      34.158  28.487  26.496  1.00  0.00     0.021 A 
ATOM     22  C   UNL A   1      33.314  29.423  27.090  1.00  0.00     0.041 A 
ATOM     23  Cl  UNL A   1      33.904  30.999  27.449  1.00  0.00    -0.084 Cl
ENDBRANCH  16  17
ENDBRANCH  12  15
ENDBRANCH   9  12
ENDBRANCH   3   6
ENDBRANCH   1   2
BRANCH   1  24
ATOM     24  C   UNL A   1      38.286  19.588  24.986  1.00  0.00     0.042 C 
BRANCH  24  25
ATOM     25  C   UNL A   1      39.269  19.900  26.103  1.00  0.00     0.118 C 
BRANCH  25  26
ATOM     26  N   UNL A   1      40.443  19.041  26.059  1.00  0.00    -0.352 N 
ATOM     27  C   UNL A   1      41.783  19.339  26.059  1.00  0.00     0.251 C 
ATOM     28  H   UNL A   1      40.242  18.079  26.023  1.00  0.00     0.163 HD
ATOM     29  O   UNL A   1      42.591  18.452  25.792  1.00  0.00    -0.269 OA
BRANCH  27  30
ATOM     30  C   UNL A   1      42.275  20.702  26.365  1.00  0.00     0.039 A 
ATOM     31  C   UNL A   1      42.522  21.578  25.302  1.00  0.00     0.014 A 
ATOM     32  C   UNL A   1      42.563  21.106  27.670  1.00  0.00     0.014 A 
ATOM     33  C   UNL A   1      43.006  22.864  25.553  1.00  0.00     0.010 A 
ATOM     34  C   UNL A   1      42.954  22.418  27.928  1.00  0.00     0.010 A 
ATOM     35  C   UNL A   1      43.197  23.306  26.871  1.00  0.00    -0.014 A 
BRANCH  35  36
ATOM     36  C   UNL A   1      43.674  24.682  27.164  1.00  0.00     0.031 A 
ATOM     37  C   UNL A   1      42.718  25.723  27.680  1.00  0.00     0.074 A 
ATOM     38  C   UNL A   1      44.955  25.011  26.906  1.00  0.00     0.049 A 
ATOM     39  N   UNL A   1      42.925  26.992  27.923  1.00  0.00    -0.248 NA
ATOM     40  C   UNL A   1      41.334  25.286  27.925  1.00  0.00     0.031 C 
ATOM     41  C   UNL A   1      45.964  24.109  26.351  1.00  0.00     0.029 A 
ATOM     42  N   UNL A   1      45.622  26.200  27.068  1.00  0.00    -0.354 N 
ATOM     43  C   UNL A   1      41.699  27.506  28.328  1.00  0.00     0.074 A 
ATOM     44  C   UNL A   1      40.740  26.426  28.245  1.00  0.00     0.031 C 
ATOM     45  C   UNL A   1      47.128  24.769  26.239  1.00  0.00     0.029 A 
ATOM     46  C   UNL A   1      46.938  26.146  26.681  1.00  0.00     0.049 A 
ATOM     47  H   UNL A   1      45.197  27.012  27.425  1.00  0.00     0.167 HD
ATOM     48  C   UNL A   1      41.405  28.757  28.756  1.00  0.00     0.037 A 
ATOM     49  C   UNL A   1      47.885  27.104  26.679  1.00  0.00     0.037 A 
ATOM     50  C   UNL A   1      42.369  29.821  28.872  1.00  0.00     0.049 A 
ATOM     51  C   UNL A   1      47.541  28.477  27.188  1.00  0.00     0.074 A 
ATOM     52  C   UNL A   1      42.184  31.106  29.351  1.00  0.00     0.029 A 
ATOM     53  N   UNL A   1      43.704  29.717  28.509  1.00  0.00    -0.354 N 
ATOM     54  N   UNL A   1      46.394  28.934  27.627  1.00  0.00    -0.248 NA
ATOM     55  C   UNL A   1      48.629  29.465  27.213  1.00  0.00     0.031 C 
ATOM     56  C   UNL A   1      43.399  31.791  29.244  1.00  0.00     0.029 A 
ATOM     57  C   UNL A   1      44.352  30.920  28.740  1.00  0.00     0.049 A 
ATOM     58  H   UNL A   1      44.128  28.908  28.140  1.00  0.00     0.167 HD
ATOM     59  C   UNL A   1      46.622  30.251  27.996  1.00  0.00     0.074 A 
ATOM     60  C   UNL A   1      48.026  30.515  27.751  1.00  0.00     0.031 C 
ATOM     61  C   UNL A   1      45.749  31.163  28.490  1.00  0.00     0.037 A 
BRANCH  48  62
ATOM     62  C   UNL A   1      39.982  29.039  29.142  1.00  0.00     0.064 A 
ATOM     63  C   UNL A   1      39.545  28.925  30.472  1.00  0.00     0.173 A 
ATOM     64  C   UNL A   1      39.048  29.451  28.179  1.00  0.00     0.173 A 
ATOM     65  F   UNL A   1      40.394  28.523  31.429  1.00  0.00    -0.203 F 
ATOM     66  C   UNL A   1      38.221  29.182  30.815  1.00  0.00     0.198 A 
ATOM     67  C   UNL A   1      37.732  29.735  28.532  1.00  0.00     0.198 A 
ATOM     68  F   UNL A   1      39.413  29.580  26.895  1.00  0.00    -0.203 F 
ATOM     69  F   UNL A   1      37.815  29.015  32.082  1.00  0.00    -0.200 F 
ATOM     70  C   UNL A   1      37.317  29.593  29.848  1.00  0.00     0.200 A 
ATOM     71  F   UNL A   1      36.861  30.143  27.598  1.00  0.00    -0.200 F 
ATOM     72  F   UNL A   1      36.042  29.842  30.181  1.00  0.00    -0.200 F 
ENDBRANCH  48  62
BRANCH  49  73
ATOM     73  C   UNL A   1      49.257  26.782  26.212  1.00  0.00     0.064 A 
ATOM     74  C   UNL A   1      50.199  26.215  27.082  1.00  0.00     0.173 A 
ATOM     75  C   UNL A   1      49.652  27.021  24.887  1.00  0.00     0.173 A 
ATOM     76  F   UNL A   1      49.874  25.983  28.361  1.00  0.00    -0.203 F 
ATOM     77  C   UNL A   1      51.490  25.918  26.649  1.00  0.00     0.198 A 
ATOM     78  C   UNL A   1      50.934  26.697  24.450  1.00  0.00     0.198 A 
ATOM     79  F   UNL A   1      48.784  27.550  24.012  1.00  0.00    -0.203 F 
ATOM     80  F   UNL A   1      52.383  25.412  27.512  1.00  0.00    -0.200 F 
ATOM     81  C   UNL A   1      51.854  26.153  25.333  1.00  0.00     0.200 A 
ATOM     82  F   UNL A   1      51.277  26.909  23.171  1.00  0.00    -0.200 F 
ATOM     83  F   UNL A   1      53.093  25.859  24.915  1.00  0.00    -0.200 F 
ENDBRANCH  49  73
BRANCH  61  84
ATOM     84  C   UNL A   1      46.294  32.522  28.819  1.00  0.00     0.064 A 
ATOM     85  C   UNL A   1      46.296  33.559  27.875  1.00  0.00     0.173 A 
ATOM     86  C   UNL A   1      46.794  32.796  30.100  1.00  0.00     0.173 A 
ATOM     87  F   UNL A   1      45.841  33.340  26.631  1.00  0.00    -0.203 F 
ATOM     88  C   UNL A   1      46.807  34.814  28.193  1.00  0.00     0.198 A 
ATOM     89  C   UNL A   1      47.278  34.061  30.423  1.00  0.00     0.198 A 
ATOM     90  F   UNL A   1      46.808  31.840  31.040  1.00  0.00    -0.203 F 
ATOM     91  F   UNL A   1      46.845  35.775  27.261  1.00  0.00    -0.200 F 
ATOM     92  C   UNL A   1      47.292  35.066  29.468  1.00  0.00     0.200 A 
ATOM     93  F   UNL A   1      47.736  34.306  31.659  1.00  0.00    -0.200 F 
ATOM     94  F   UNL A   1      47.781  36.275  29.773  1.00  0.00    -0.200 F 
ENDBRANCH  61  84
ENDBRANCH  35  36
ENDBRANCH  27  30
ENDBRANCH  25  26
ENDBRANCH  24  25
ENDBRANCH   1  24
TORSDOF 13
ENDMDL
