MODEL 1
REMARK VINA RESULT:     -11.1      0.000      0.000
REMARK SMILES CC(C)(C)SCC(=O)NC1(CC(=O)NCCCNC(=O)c2ccc(-c3c4nc(c(-c5c(F)c(F)c(F)c(F)c5F)c5ccc([nH]5)c(-c5c(F)c(F)c(F)c(F)c5F)c5nc(c(-c6c(F)c(F)c(F)c(F)c6F)c6ccc3[nH]6)C=C5)C=C4)cc2)CCC1
REMARK SMILES IDX 12 1 13 2 14 3 11 5 10 6 84 7 86 8 85 9 9 10 7 11 8 12 6 14
REMARK SMILES IDX 5 15 2 16 1 17 3 18 4 19 15 20 16 21 17 22 18 23 19 24 20 26
REMARK SMILES IDX 21 27 22 28 83 29 23 30 82 31 24 32 25 33 26 34 76 35 27 36
REMARK SMILES IDX 81 37 75 38 77 39 28 40 80 41 74 42 73 43 29 45 61 46 41 47
REMARK SMILES IDX 60 48 42 49 45 50 59 51 78 52 43 53 44 54 58 56 79 57 46 58
REMARK SMILES IDX 30 59 31 60 39 61 32 62 33 63 37 64 40 65 34 66 35 67 38 68
REMARK SMILES IDX 36 69 62 70 63 71 71 72 64 73 65 74 69 75 72 76 66 77 67 78
REMARK SMILES IDX 70 79 68 80 47 81 48 82 56 83 49 84 50 85 54 86 57 87 51 88
REMARK SMILES IDX 52 89 55 90 53 91
REMARK H PARENT 14 4 9 13 18 25 77 44 45 55
REMARK Flexibility Score: inf
ROOT
ATOM      1  C   UNL A   1      33.088  29.172  27.056  1.00  0.00     0.222 C 
ATOM      2  O   UNL A   1      34.265  28.968  27.358  1.00  0.00    -0.275 OA
ATOM      3  N   UNL A   1      32.712  30.453  26.789  1.00  0.00    -0.356 N 
ATOM      4  H   UNL A   1      33.445  31.110  26.795  1.00  0.00     0.163 HD
ENDROOT
BRANCH   1   5
ATOM      5  C   UNL A   1      32.100  28.030  26.960  1.00  0.00     0.128 C 
BRANCH   5   6
ATOM      6  C   UNL A   1      32.267  27.073  25.774  1.00  0.00     0.049 C 
ATOM      7  C   UNL A   1      31.077  26.077  25.570  1.00  0.00     0.029 C 
ATOM      8  C   UNL A   1      33.113  25.766  26.030  1.00  0.00     0.029 C 
ATOM      9  C   UNL A   1      31.822  25.051  26.429  1.00  0.00     0.005 C 
BRANCH   6  10
ATOM     10  N   UNL A   1      32.765  27.750  24.552  1.00  0.00    -0.349 N 
ATOM     11  C   UNL A   1      32.186  28.566  23.621  1.00  0.00     0.230 C 
ATOM     12  O   UNL A   1      32.951  29.054  22.779  1.00  0.00    -0.274 OA
ATOM     13  H   UNL A   1      33.716  27.573  24.372  1.00  0.00     0.164 HD
BRANCH  11  14
ATOM     14  C   UNL A   1      30.716  28.919  23.603  1.00  0.00     0.169 C 
BRANCH  14  15
ATOM     15  S   UNL A   1      30.076  29.621  22.057  1.00  0.00    -0.146 SA
BRANCH  15  16
ATOM     16  C   UNL A   1      28.519  30.516  22.518  1.00  0.00     0.008 C 
ATOM     17  C   UNL A   1      28.915  31.407  23.711  1.00  0.00     0.022 C 
ATOM     18  C   UNL A   1      27.348  29.635  22.958  1.00  0.00     0.022 C 
ATOM     19  C   UNL A   1      28.092  31.397  21.340  1.00  0.00     0.022 C 
ENDBRANCH  15  16
ENDBRANCH  14  15
ENDBRANCH  11  14
ENDBRANCH   6  10
ENDBRANCH   5   6
ENDBRANCH   1   5
BRANCH   3  20
ATOM     20  C   UNL A   1      31.402  31.002  26.494  1.00  0.00     0.117 C 
BRANCH  20  21
ATOM     21  C   UNL A   1      31.389  32.520  26.663  1.00  0.00     0.042 C 
BRANCH  21  22
ATOM     22  C   UNL A   1      32.705  33.101  27.161  1.00  0.00     0.118 C 
BRANCH  22  23
ATOM     23  N   UNL A   1      32.541  34.435  27.710  1.00  0.00    -0.352 N 
ATOM     24  C   UNL A   1      33.066  35.028  28.832  1.00  0.00     0.251 C 
ATOM     25  H   UNL A   1      31.949  35.020  27.185  1.00  0.00     0.163 HD
ATOM     26  O   UNL A   1      32.581  36.091  29.213  1.00  0.00    -0.269 OA
BRANCH  24  27
ATOM     27  C   UNL A   1      34.187  34.428  29.598  1.00  0.00     0.039 A 
ATOM     28  C   UNL A   1      35.476  34.508  29.054  1.00  0.00     0.014 A 
ATOM     29  C   UNL A   1      33.992  33.706  30.776  1.00  0.00     0.014 A 
ATOM     30  C   UNL A   1      36.555  33.896  29.699  1.00  0.00     0.010 A 
ATOM     31  C   UNL A   1      35.081  33.178  31.471  1.00  0.00     0.010 A 
ATOM     32  C   UNL A   1      36.371  33.241  30.926  1.00  0.00    -0.014 A 
BRANCH  32  33
ATOM     33  C   UNL A   1      37.507  32.575  31.618  1.00  0.00     0.031 A 
ATOM     34  C   UNL A   1      38.226  31.423  30.967  1.00  0.00     0.074 A 
ATOM     35  C   UNL A   1      37.869  32.980  32.852  1.00  0.00     0.049 A 
ATOM     36  N   UNL A   1      39.217  30.697  31.425  1.00  0.00    -0.248 NA
ATOM     37  C   UNL A   1      37.751  31.010  29.637  1.00  0.00     0.031 C 
ATOM     38  C   UNL A   1      37.217  34.042  33.619  1.00  0.00     0.029 A 
ATOM     39  N   UNL A   1      38.874  32.542  33.679  1.00  0.00    -0.354 N 
ATOM     40  C   UNL A   1      39.459  29.732  30.457  1.00  0.00     0.074 A 
ATOM     41  C   UNL A   1      38.486  29.931  29.407  1.00  0.00     0.031 C 
ATOM     42  C   UNL A   1      37.854  34.191  34.792  1.00  0.00     0.029 A 
ATOM     43  C   UNL A   1      38.941  33.220  34.871  1.00  0.00     0.049 A 
ATOM     44  H   UNL A   1      39.487  31.810  33.440  1.00  0.00     0.167 HD
ATOM     45  C   UNL A   1      40.422  28.779  30.432  1.00  0.00     0.037 A 
ATOM     46  C   UNL A   1      39.787  33.078  35.908  1.00  0.00     0.037 A 
ATOM     47  C   UNL A   1      41.426  28.614  31.449  1.00  0.00     0.049 A 
ATOM     48  C   UNL A   1      40.883  32.050  35.830  1.00  0.00     0.074 A 
ATOM     49  C   UNL A   1      42.496  27.734  31.473  1.00  0.00     0.029 A 
ATOM     50  N   UNL A   1      41.490  29.352  32.620  1.00  0.00    -0.354 N 
ATOM     51  N   UNL A   1      41.148  31.196  34.873  1.00  0.00    -0.248 NA
ATOM     52  C   UNL A   1      41.804  31.979  36.973  1.00  0.00     0.031 C 
ATOM     53  C   UNL A   1      43.186  27.919  32.676  1.00  0.00     0.029 A 
ATOM     54  C   UNL A   1      42.571  28.940  33.383  1.00  0.00     0.049 A 
ATOM     55  H   UNL A   1      40.859  30.065  32.874  1.00  0.00     0.167 HD
ATOM     56  C   UNL A   1      42.277  30.502  35.285  1.00  0.00     0.074 A 
ATOM     57  C   UNL A   1      42.659  31.048  36.571  1.00  0.00     0.031 C 
ATOM     58  C   UNL A   1      42.938  29.500  34.656  1.00  0.00     0.037 A 
BRANCH  45  59
ATOM     59  C   UNL A   1      40.445  27.842  29.259  1.00  0.00     0.064 A 
ATOM     60  C   UNL A   1      39.650  26.687  29.223  1.00  0.00     0.173 A 
ATOM     61  C   UNL A   1      41.243  28.124  28.139  1.00  0.00     0.173 A 
ATOM     62  F   UNL A   1      38.879  26.366  30.273  1.00  0.00    -0.203 F 
ATOM     63  C   UNL A   1      39.673  25.835  28.122  1.00  0.00     0.198 A 
ATOM     64  C   UNL A   1      41.242  27.285  27.028  1.00  0.00     0.198 A 
ATOM     65  F   UNL A   1      42.018  29.219  28.119  1.00  0.00    -0.203 F 
ATOM     66  F   UNL A   1      38.940  24.713  28.130  1.00  0.00    -0.200 F 
ATOM     67  C   UNL A   1      40.463  26.137  27.024  1.00  0.00     0.200 A 
ATOM     68  F   UNL A   1      41.998  27.584  25.963  1.00  0.00    -0.200 F 
ATOM     69  F   UNL A   1      40.480  25.319  25.962  1.00  0.00    -0.200 F 
ENDBRANCH  45  59
BRANCH  46  70
ATOM     70  C   UNL A   1      39.658  33.962  37.096  1.00  0.00     0.064 A 
ATOM     71  C   UNL A   1      38.933  33.549  38.222  1.00  0.00     0.173 A 
ATOM     72  C   UNL A   1      40.251  35.231  37.129  1.00  0.00     0.173 A 
ATOM     73  F   UNL A   1      38.330  32.350  38.228  1.00  0.00    -0.203 F 
ATOM     74  C   UNL A   1      38.789  34.382  39.330  1.00  0.00     0.198 A 
ATOM     75  C   UNL A   1      40.129  36.052  38.248  1.00  0.00     0.198 A 
ATOM     76  F   UNL A   1      40.962  35.668  36.078  1.00  0.00    -0.203 F 
ATOM     77  F   UNL A   1      38.055  33.979  40.377  1.00  0.00    -0.200 F 
ATOM     78  C   UNL A   1      39.392  35.630  39.344  1.00  0.00     0.200 A 
ATOM     79  F   UNL A   1      40.724  37.253  38.263  1.00  0.00    -0.200 F 
ATOM     80  F   UNL A   1      39.256  36.429  40.411  1.00  0.00    -0.200 F 
ENDBRANCH  46  70
BRANCH  58  81
ATOM     81  C   UNL A   1      44.156  28.950  35.338  1.00  0.00     0.064 A 
ATOM     82  C   UNL A   1      45.433  29.476  35.093  1.00  0.00     0.173 A 
ATOM     83  C   UNL A   1      44.041  27.902  36.263  1.00  0.00     0.173 A 
ATOM     84  F   UNL A   1      45.595  30.468  34.204  1.00  0.00    -0.203 F 
ATOM     85  C   UNL A   1      46.555  28.954  35.731  1.00  0.00     0.198 A 
ATOM     86  C   UNL A   1      45.161  27.399  36.918  1.00  0.00     0.198 A 
ATOM     87  F   UNL A   1      42.840  27.369  36.535  1.00  0.00    -0.203 F 
ATOM     88  F   UNL A   1      47.771  29.438  35.446  1.00  0.00    -0.200 F 
ATOM     89  C   UNL A   1      46.418  27.921  36.646  1.00  0.00     0.200 A 
ATOM     90  F   UNL A   1      45.026  26.408  37.810  1.00  0.00    -0.200 F 
ATOM     91  F   UNL A   1      47.498  27.419  37.259  1.00  0.00    -0.200 F 
ENDBRANCH  58  81
ENDBRANCH  32  33
ENDBRANCH  24  27
ENDBRANCH  22  23
ENDBRANCH  21  22
ENDBRANCH  20  21
ENDBRANCH   3  20
TORSDOF 15
ENDMDL
MODEL 2
REMARK VINA RESULT:     -11.1      1.645      7.948
REMARK SMILES CC(C)(C)SCC(=O)NC1(CC(=O)NCCCNC(=O)c2ccc(-c3c4nc(c(-c5c(F)c(F)c(F)c(F)c5F)c5ccc([nH]5)c(-c5c(F)c(F)c(F)c(F)c5F)c5nc(c(-c6c(F)c(F)c(F)c(F)c6F)c6ccc3[nH]6)C=C5)C=C4)cc2)CCC1
REMARK SMILES IDX 12 1 13 2 14 3 11 5 10 6 84 7 86 8 85 9 9 10 7 11 8 12 6 14
REMARK SMILES IDX 5 15 2 16 1 17 3 18 4 19 15 20 16 21 17 22 18 23 19 24 20 26
REMARK SMILES IDX 21 27 22 28 83 29 23 30 82 31 24 32 25 33 26 34 76 35 27 36
REMARK SMILES IDX 81 37 75 38 77 39 28 40 80 41 74 42 73 43 29 45 61 46 41 47
REMARK SMILES IDX 60 48 42 49 45 50 59 51 78 52 43 53 44 54 58 56 79 57 46 58
REMARK SMILES IDX 30 59 31 60 39 61 32 62 33 63 37 64 40 65 34 66 35 67 38 68
REMARK SMILES IDX 36 69 62 70 63 71 71 72 64 73 65 74 69 75 72 76 66 77 67 78
REMARK SMILES IDX 70 79 68 80 47 81 48 82 56 83 49 84 50 85 54 86 57 87 51 88
REMARK SMILES IDX 52 89 55 90 53 91
REMARK H PARENT 14 4 9 13 18 25 77 44 45 55
REMARK Flexibility Score: inf
ROOT
ATOM      1  C   UNL A   1      32.644  29.101  25.023  1.00  0.00     0.222 C 
ATOM      2  O   UNL A   1      33.821  28.844  24.763  1.00  0.00    -0.275 OA
ATOM      3  N   UNL A   1      32.355  30.341  25.505  1.00  0.00    -0.356 N 
ATOM      4  H   UNL A   1      33.119  30.960  25.541  1.00  0.00     0.163 HD
ENDROOT
BRANCH   1   5
ATOM      5  C   UNL A   1      31.554  28.078  24.789  1.00  0.00     0.128 C 
BRANCH   5   6
ATOM      6  C   UNL A   1      31.071  27.906  23.345  1.00  0.00     0.049 C 
ATOM      7  C   UNL A   1      30.129  29.049  22.835  1.00  0.00     0.029 C 
ATOM      8  C   UNL A   1      29.812  26.982  23.122  1.00  0.00     0.029 C 
ATOM      9  C   UNL A   1      28.921  28.216  23.278  1.00  0.00     0.005 C 
BRANCH   6  10
ATOM     10  N   UNL A   1      32.153  27.496  22.418  1.00  0.00    -0.349 N 
ATOM     11  C   UNL A   1      32.959  26.397  22.335  1.00  0.00     0.230 C 
ATOM     12  O   UNL A   1      33.688  26.334  21.335  1.00  0.00    -0.274 OA
ATOM     13  H   UNL A   1      32.327  28.158  21.710  1.00  0.00     0.164 HD
BRANCH  11  14
ATOM     14  C   UNL A   1      32.969  25.276  23.349  1.00  0.00     0.169 C 
BRANCH  14  15
ATOM     15  S   UNL A   1      33.555  23.662  22.761  1.00  0.00    -0.146 SA
BRANCH  15  16
ATOM     16  C   UNL A   1      34.923  23.174  23.913  1.00  0.00     0.008 C 
ATOM     17  C   UNL A   1      35.012  24.326  24.931  1.00  0.00     0.022 C 
ATOM     18  C   UNL A   1      36.304  23.003  23.275  1.00  0.00     0.022 C 
ATOM     19  C   UNL A   1      34.521  21.884  24.634  1.00  0.00     0.022 C 
ENDBRANCH  15  16
ENDBRANCH  14  15
ENDBRANCH  11  14
ENDBRANCH   6  10
ENDBRANCH   5   6
ENDBRANCH   1   5
BRANCH   3  20
ATOM     20  C   UNL A   1      31.098  30.894  25.972  1.00  0.00     0.117 C 
BRANCH  20  21
ATOM     21  C   UNL A   1      31.248  32.367  26.347  1.00  0.00     0.042 C 
BRANCH  21  22
ATOM     22  C   UNL A   1      32.484  32.672  27.181  1.00  0.00     0.118 C 
BRANCH  22  23
ATOM     23  N   UNL A   1      32.519  34.056  27.622  1.00  0.00    -0.352 N 
ATOM     24  C   UNL A   1      33.225  34.674  28.625  1.00  0.00     0.251 C 
ATOM     25  H   UNL A   1      31.932  34.658  27.112  1.00  0.00     0.163 HD
ATOM     26  O   UNL A   1      32.895  35.809  28.958  1.00  0.00    -0.269 OA
BRANCH  24  27
ATOM     27  C   UNL A   1      34.361  34.017  29.319  1.00  0.00     0.039 A 
ATOM     28  C   UNL A   1      35.662  34.361  28.928  1.00  0.00     0.014 A 
ATOM     29  C   UNL A   1      34.181  33.005  30.263  1.00  0.00     0.014 A 
ATOM     30  C   UNL A   1      36.764  33.719  29.500  1.00  0.00     0.010 A 
ATOM     31  C   UNL A   1      35.282  32.431  30.903  1.00  0.00     0.010 A 
ATOM     32  C   UNL A   1      36.585  32.760  30.508  1.00  0.00    -0.014 A 
BRANCH  32  33
ATOM     33  C   UNL A   1      37.748  32.060  31.116  1.00  0.00     0.031 A 
ATOM     34  C   UNL A   1      38.197  32.400  32.514  1.00  0.00     0.074 A 
ATOM     35  C   UNL A   1      38.429  31.144  30.398  1.00  0.00     0.049 A 
ATOM     36  N   UNL A   1      39.205  31.922  33.202  1.00  0.00    -0.248 NA
ATOM     37  C   UNL A   1      37.431  33.437  33.223  1.00  0.00     0.031 C 
ATOM     38  C   UNL A   1      38.137  30.767  29.015  1.00  0.00     0.029 A 
ATOM     39  N   UNL A   1      39.510  30.368  30.734  1.00  0.00    -0.354 N 
ATOM     40  C   UNL A   1      39.209  32.618  34.403  1.00  0.00     0.074 A 
ATOM     41  C   UNL A   1      38.134  33.583  34.337  1.00  0.00     0.031 C 
ATOM     42  C   UNL A   1      38.999  29.813  28.629  1.00  0.00     0.029 A 
ATOM     43  C   UNL A   1      39.920  29.531  29.725  1.00  0.00     0.049 A 
ATOM     44  H   UNL A   1      39.951  30.409  31.613  1.00  0.00     0.167 HD
ATOM     45  C   UNL A   1      40.019  32.452  35.477  1.00  0.00     0.037 A 
ATOM     46  C   UNL A   1      40.922  28.632  29.691  1.00  0.00     0.037 A 
ATOM     47  C   UNL A   1      41.052  31.455  35.566  1.00  0.00     0.049 A 
ATOM     48  C   UNL A   1      41.770  28.428  30.917  1.00  0.00     0.074 A 
ATOM     49  C   UNL A   1      41.869  31.151  36.643  1.00  0.00     0.029 A 
ATOM     50  N   UNL A   1      41.406  30.593  34.540  1.00  0.00    -0.354 N 
ATOM     51  N   UNL A   1      41.712  29.039  32.075  1.00  0.00    -0.248 NA
ATOM     52  C   UNL A   1      42.815  27.397  30.834  1.00  0.00     0.031 C 
ATOM     53  C   UNL A   1      42.739  30.126  36.255  1.00  0.00     0.029 A 
ATOM     54  C   UNL A   1      42.439  29.766  34.951  1.00  0.00     0.049 A 
ATOM     55  H   UNL A   1      40.986  30.572  33.650  1.00  0.00     0.167 HD
ATOM     56  C   UNL A   1      42.693  28.454  32.863  1.00  0.00     0.074 A 
ATOM     57  C   UNL A   1      43.319  27.426  32.060  1.00  0.00     0.031 C 
ATOM     58  C   UNL A   1      43.045  28.744  34.140  1.00  0.00     0.037 A 
BRANCH  45  59
ATOM     59  C   UNL A   1      39.813  33.364  36.652  1.00  0.00     0.064 A 
ATOM     60  C   UNL A   1      38.895  33.060  37.668  1.00  0.00     0.173 A 
ATOM     61  C   UNL A   1      40.572  34.537  36.783  1.00  0.00     0.173 A 
ATOM     62  F   UNL A   1      38.136  31.957  37.583  1.00  0.00    -0.203 F 
ATOM     63  C   UNL A   1      38.724  33.911  38.757  1.00  0.00     0.198 A 
ATOM     64  C   UNL A   1      40.419  35.370  37.888  1.00  0.00     0.198 A 
ATOM     65  F   UNL A   1      41.469  34.871  35.843  1.00  0.00    -0.203 F 
ATOM     66  F   UNL A   1      37.808  33.623  39.692  1.00  0.00    -0.200 F 
ATOM     67  C   UNL A   1      39.491  35.060  38.870  1.00  0.00     0.200 A 
ATOM     68  F   UNL A   1      41.169  36.476  38.001  1.00  0.00    -0.200 F 
ATOM     69  F   UNL A   1      39.330  35.874  39.922  1.00  0.00    -0.200 F 
ENDBRANCH  45  59
BRANCH  46  70
ATOM     70  C   UNL A   1      41.152  27.825  28.465  1.00  0.00     0.064 A 
ATOM     71  C   UNL A   1      42.103  28.220  27.514  1.00  0.00     0.173 A 
ATOM     72  C   UNL A   1      40.430  26.650  28.219  1.00  0.00     0.173 A 
ATOM     73  F   UNL A   1      42.804  29.350  27.697  1.00  0.00    -0.203 F 
ATOM     74  C   UNL A   1      42.308  27.480  26.352  1.00  0.00     0.198 A 
ATOM     75  C   UNL A   1      40.655  25.896  27.069  1.00  0.00     0.198 A 
ATOM     76  F   UNL A   1      39.515  26.226  29.103  1.00  0.00    -0.203 F 
ATOM     77  F   UNL A   1      43.193  27.904  25.438  1.00  0.00    -0.200 F 
ATOM     78  C   UNL A   1      41.588  26.316  26.133  1.00  0.00     0.200 A 
ATOM     79  F   UNL A   1      39.966  24.765  26.867  1.00  0.00    -0.200 F 
ATOM     80  F   UNL A   1      41.787  25.604  25.016  1.00  0.00    -0.200 F 
ENDBRANCH  46  70
BRANCH  58  81
ATOM     81  C   UNL A   1      44.139  27.920  34.751  1.00  0.00     0.064 A 
ATOM     82  C   UNL A   1      45.480  28.324  34.692  1.00  0.00     0.173 A 
ATOM     83  C   UNL A   1      43.838  26.727  35.425  1.00  0.00     0.173 A 
ATOM     84  F   UNL A   1      45.819  29.450  34.046  1.00  0.00    -0.203 F 
ATOM     85  C   UNL A   1      46.486  27.547  35.263  1.00  0.00     0.198 A 
ATOM     86  C   UNL A   1      44.842  25.966  36.015  1.00  0.00     0.198 A 
ATOM     87  F   UNL A   1      42.568  26.301  35.512  1.00  0.00    -0.203 F 
ATOM     88  F   UNL A   1      47.766  27.926  35.152  1.00  0.00    -0.200 F 
ATOM     89  C   UNL A   1      46.165  26.373  35.928  1.00  0.00     0.200 A 
ATOM     90  F   UNL A   1      44.531  24.837  36.667  1.00  0.00    -0.200 F 
ATOM     91  F   UNL A   1      47.134  25.627  36.476  1.00  0.00    -0.200 F 
ENDBRANCH  58  81
ENDBRANCH  32  33
ENDBRANCH  24  27
ENDBRANCH  22  23
ENDBRANCH  21  22
ENDBRANCH  20  21
ENDBRANCH   3  20
TORSDOF 15
ENDMDL
MODEL 3
REMARK VINA RESULT:     -11.1      0.096      1.986
REMARK SMILES CC(C)(C)SCC(=O)NC1(CC(=O)NCCCNC(=O)c2ccc(-c3c4nc(c(-c5c(F)c(F)c(F)c(F)c5F)c5ccc([nH]5)c(-c5c(F)c(F)c(F)c(F)c5F)c5nc(c(-c6c(F)c(F)c(F)c(F)c6F)c6ccc3[nH]6)C=C5)C=C4)cc2)CCC1
REMARK SMILES IDX 12 1 13 2 14 3 11 5 10 6 84 7 86 8 85 9 9 10 7 11 8 12 6 14
REMARK SMILES IDX 5 15 2 16 1 17 3 18 4 19 15 20 16 21 17 22 18 23 19 24 20 26
REMARK SMILES IDX 21 27 22 28 83 29 23 30 82 31 24 32 25 33 26 34 76 35 27 36
REMARK SMILES IDX 81 37 75 38 77 39 28 40 80 41 74 42 73 43 29 45 61 46 41 47
REMARK SMILES IDX 60 48 42 49 45 50 59 51 78 52 43 53 44 54 58 56 79 57 46 58
REMARK SMILES IDX 30 59 31 60 39 61 32 62 33 63 37 64 40 65 34 66 35 67 38 68
REMARK SMILES IDX 36 69 62 70 63 71 71 72 64 73 65 74 69 75 72 76 66 77 67 78
REMARK SMILES IDX 70 79 68 80 47 81 48 82 56 83 49 84 50 85 54 86 57 87 51 88
REMARK SMILES IDX 52 89 55 90 53 91
REMARK H PARENT 14 4 9 13 18 25 77 44 45 55
REMARK Flexibility Score: inf
ROOT
ATOM      1  C   UNL A   1      33.113  29.177  26.923  1.00  0.00     0.222 C 
ATOM      2  O   UNL A   1      34.303  28.979  27.177  1.00  0.00    -0.275 OA
ATOM      3  N   UNL A   1      32.731  30.446  26.614  1.00  0.00    -0.356 N 
ATOM      4  H   UNL A   1      33.466  31.097  26.555  1.00  0.00     0.163 HD
ENDROOT
BRANCH   1   5
ATOM      5  C   UNL A   1      32.116  28.038  26.928  1.00  0.00     0.128 C 
BRANCH   5   6
ATOM      6  C   UNL A   1      32.207  27.039  25.770  1.00  0.00     0.049 C 
ATOM      7  C   UNL A   1      30.958  26.107  25.617  1.00  0.00     0.029 C 
ATOM      8  C   UNL A   1      32.982  25.694  26.052  1.00  0.00     0.029 C 
ATOM      9  C   UNL A   1      31.659  25.065  26.495  1.00  0.00     0.005 C 
BRANCH   6  10
ATOM     10  N   UNL A   1      32.718  27.649  24.519  1.00  0.00    -0.349 N 
ATOM     11  C   UNL A   1      32.170  28.468  23.575  1.00  0.00     0.230 C 
ATOM     12  O   UNL A   1      32.946  28.886  22.704  1.00  0.00    -0.274 OA
ATOM     13  H   UNL A   1      33.655  27.412  24.329  1.00  0.00     0.164 HD
BRANCH  11  14
ATOM     14  C   UNL A   1      30.723  28.905  23.570  1.00  0.00     0.169 C 
BRANCH  14  15
ATOM     15  S   UNL A   1      30.121  29.684  22.046  1.00  0.00    -0.146 SA
BRANCH  15  16
ATOM     16  C   UNL A   1      28.448  30.368  22.457  1.00  0.00     0.008 C 
ATOM     17  C   UNL A   1      28.694  31.328  23.637  1.00  0.00     0.022 C 
ATOM     18  C   UNL A   1      27.397  29.346  22.895  1.00  0.00     0.022 C 
ATOM     19  C   UNL A   1      27.931  31.161  21.253  1.00  0.00     0.022 C 
ENDBRANCH  15  16
ENDBRANCH  14  15
ENDBRANCH  11  14
ENDBRANCH   6  10
ENDBRANCH   5   6
ENDBRANCH   1   5
BRANCH   3  20
ATOM     20  C   UNL A   1      31.411  30.990  26.358  1.00  0.00     0.117 C 
BRANCH  20  21
ATOM     21  C   UNL A   1      31.341  32.471  26.729  1.00  0.00     0.042 C 
BRANCH  21  22
ATOM     22  C   UNL A   1      32.675  33.065  27.160  1.00  0.00     0.118 C 
BRANCH  22  23
ATOM     23  N   UNL A   1      32.529  34.411  27.687  1.00  0.00    -0.352 N 
ATOM     24  C   UNL A   1      33.064  35.016  28.798  1.00  0.00     0.251 C 
ATOM     25  H   UNL A   1      31.943  34.993  27.153  1.00  0.00     0.163 HD
ATOM     26  O   UNL A   1      32.593  36.091  29.162  1.00  0.00    -0.269 OA
BRANCH  24  27
ATOM     27  C   UNL A   1      34.179  34.415  29.571  1.00  0.00     0.039 A 
ATOM     28  C   UNL A   1      35.477  34.526  29.054  1.00  0.00     0.014 A 
ATOM     29  C   UNL A   1      33.973  33.663  30.728  1.00  0.00     0.014 A 
ATOM     30  C   UNL A   1      36.552  33.916  29.706  1.00  0.00     0.010 A 
ATOM     31  C   UNL A   1      35.057  33.135  31.432  1.00  0.00     0.010 A 
ATOM     32  C   UNL A   1      36.355  33.230  30.914  1.00  0.00    -0.014 A 
BRANCH  32  33
ATOM     33  C   UNL A   1      37.488  32.565  31.612  1.00  0.00     0.031 A 
ATOM     34  C   UNL A   1      38.215  31.416  30.963  1.00  0.00     0.074 A 
ATOM     35  C   UNL A   1      37.841  32.968  32.849  1.00  0.00     0.049 A 
ATOM     36  N   UNL A   1      39.204  30.692  31.426  1.00  0.00    -0.248 NA
ATOM     37  C   UNL A   1      37.751  31.006  29.629  1.00  0.00     0.031 C 
ATOM     38  C   UNL A   1      37.180  34.026  33.615  1.00  0.00     0.029 A 
ATOM     39  N   UNL A   1      38.840  32.529  33.682  1.00  0.00    -0.354 N 
ATOM     40  C   UNL A   1      39.456  29.729  30.457  1.00  0.00     0.074 A 
ATOM     41  C   UNL A   1      38.490  29.930  29.400  1.00  0.00     0.031 C 
ATOM     42  C   UNL A   1      37.808  34.173  34.792  1.00  0.00     0.029 A 
ATOM     43  C   UNL A   1      38.897  33.204  34.877  1.00  0.00     0.049 A 
ATOM     44  H   UNL A   1      39.457  31.800  33.446  1.00  0.00     0.167 HD
ATOM     45  C   UNL A   1      40.422  28.779  30.437  1.00  0.00     0.037 A 
ATOM     46  C   UNL A   1      39.735  33.062  35.920  1.00  0.00     0.037 A 
ATOM     47  C   UNL A   1      41.419  28.615  31.460  1.00  0.00     0.049 A 
ATOM     48  C   UNL A   1      40.835  32.037  35.847  1.00  0.00     0.074 A 
ATOM     49  C   UNL A   1      42.490  27.737  31.490  1.00  0.00     0.029 A 
ATOM     50  N   UNL A   1      41.472  29.350  32.634  1.00  0.00    -0.354 N 
ATOM     51  N   UNL A   1      41.110  31.186  34.890  1.00  0.00    -0.248 NA
ATOM     52  C   UNL A   1      41.748  31.965  36.996  1.00  0.00     0.031 C 
ATOM     53  C   UNL A   1      43.172  27.921  32.698  1.00  0.00     0.029 A 
ATOM     54  C   UNL A   1      42.548  28.938  33.403  1.00  0.00     0.049 A 
ATOM     55  H   UNL A   1      40.838  30.060  32.885  1.00  0.00     0.167 HD
ATOM     56  C   UNL A   1      42.237  30.494  35.308  1.00  0.00     0.074 A 
ATOM     57  C   UNL A   1      42.608  31.037  36.597  1.00  0.00     0.031 C 
ATOM     58  C   UNL A   1      42.905  29.495  34.681  1.00  0.00     0.037 A 
BRANCH  45  59
ATOM     59  C   UNL A   1      40.455  27.846  29.261  1.00  0.00     0.064 A 
ATOM     60  C   UNL A   1      41.307  28.069  28.168  1.00  0.00     0.173 A 
ATOM     61  C   UNL A   1      39.655  26.694  29.244  1.00  0.00     0.173 A 
ATOM     62  F   UNL A   1      42.084  29.162  28.130  1.00  0.00    -0.203 F 
ATOM     63  C   UNL A   1      41.335  27.187  27.091  1.00  0.00     0.198 A 
ATOM     64  C   UNL A   1      39.706  25.800  28.178  1.00  0.00     0.198 A 
ATOM     65  F   UNL A   1      38.826  26.431  30.266  1.00  0.00    -0.203 F 
ATOM     66  F   UNL A   1      42.123  27.445  26.038  1.00  0.00    -0.200 F 
ATOM     67  C   UNL A   1      40.541  26.051  27.099  1.00  0.00     0.200 A 
ATOM     68  F   UNL A   1      38.945  24.697  28.192  1.00  0.00    -0.200 F 
ATOM     69  F   UNL A   1      40.574  25.201  26.064  1.00  0.00    -0.200 F 
ENDBRANCH  45  59
BRANCH  46  70
ATOM     70  C   UNL A   1      39.596  33.942  37.109  1.00  0.00     0.064 A 
ATOM     71  C   UNL A   1      40.191  35.211  37.136  1.00  0.00     0.173 A 
ATOM     72  C   UNL A   1      38.870  33.535  38.236  1.00  0.00     0.173 A 
ATOM     73  F   UNL A   1      40.911  35.635  36.087  1.00  0.00    -0.203 F 
ATOM     74  C   UNL A   1      40.082  36.032  38.257  1.00  0.00     0.198 A 
ATOM     75  C   UNL A   1      38.741  34.368  39.346  1.00  0.00     0.198 A 
ATOM     76  F   UNL A   1      38.276  32.332  38.256  1.00  0.00    -0.203 F 
ATOM     77  F   UNL A   1      40.697  37.223  38.274  1.00  0.00    -0.200 F 
ATOM     78  C   UNL A   1      39.353  35.612  39.358  1.00  0.00     0.200 A 
ATOM     79  F   UNL A   1      38.025  33.963  40.404  1.00  0.00    -0.200 F 
ATOM     80  F   UNL A   1      39.247  36.402  40.435  1.00  0.00    -0.200 F 
ENDBRANCH  46  70
BRANCH  58  81
ATOM     81  C   UNL A   1      44.120  28.947  35.369  1.00  0.00     0.064 A 
ATOM     82  C   UNL A   1      44.032  27.870  36.264  1.00  0.00     0.173 A 
ATOM     83  C   UNL A   1      45.388  29.489  35.114  1.00  0.00     0.173 A 
ATOM     84  F   UNL A   1      42.838  27.329  36.553  1.00  0.00    -0.203 F 
ATOM     85  C   UNL A   1      45.167  27.374  36.898  1.00  0.00     0.198 A 
ATOM     86  C   UNL A   1      46.524  28.974  35.729  1.00  0.00     0.198 A 
ATOM     87  F   UNL A   1      45.525  30.517  34.262  1.00  0.00    -0.203 F 
ATOM     88  F   UNL A   1      45.054  26.376  37.786  1.00  0.00    -0.200 F 
ATOM     89  C   UNL A   1      46.412  27.921  36.626  1.00  0.00     0.200 A 
ATOM     90  F   UNL A   1      47.728  29.497  35.458  1.00  0.00    -0.200 F 
ATOM     91  F   UNL A   1      47.504  27.442  37.237  1.00  0.00    -0.200 F 
ENDBRANCH  58  81
ENDBRANCH  32  33
ENDBRANCH  24  27
ENDBRANCH  22  23
ENDBRANCH  21  22
ENDBRANCH  20  21
ENDBRANCH   3  20
TORSDOF 15
ENDMDL
