MODEL 1
REMARK VINA RESULT:     -12.8      0.000      0.000
REMARK SMILES Cc1ccc2nc(C(=O)NCCCNC(=O)c3ccc(-c4c5nc(c(-c6c(F)c(F)c(F)c(F)c6F)c6ccc([nH]6)c(-c6c(F)c(F)c(F)c(F)c6F)c6nc(c(-c7c(F)c(F)c(F)c(F)c7F)c7ccc4[nH]7)C=C6)C=C5)cc3)cc(N3CCOCC3)c2c1
REMARK SMILES IDX 12 1 11 2 10 3 8 4 9 5 7 7 1 8 2 9 3 10 89 11 4 12 88 13
REMARK SMILES IDX 5 14 81 15 6 16 80 17 82 18 83 19 87 20 84 21 86 22 85 23
REMARK SMILES IDX 13 24 14 25 15 26 16 28 17 29 18 30 79 31 19 32 78 33 20 34
REMARK SMILES IDX 21 35 22 36 72 37 23 38 77 39 71 40 73 41 24 42 76 43 70 44
REMARK SMILES IDX 69 45 25 47 57 48 37 49 56 50 38 51 41 52 55 53 74 54 39 55
REMARK SMILES IDX 40 56 54 58 75 59 42 60 26 61 27 62 35 63 28 64 29 65 33 66
REMARK SMILES IDX 36 67 30 68 31 69 34 70 32 71 58 72 59 73 67 74 60 75 61 76
REMARK SMILES IDX 65 77 68 78 62 79 63 80 66 81 64 82 43 83 44 84 52 85 45 86
REMARK SMILES IDX 46 87 50 88 53 89 47 90 48 91 51 92 49 93
REMARK H PARENT 10 6 14 27 73 46 41 57
REMARK Flexibility Score: inf
ROOT
ATOM      1  C   UNL A   1      34.999  23.287  26.361  1.00  0.00     0.042 C 
ENDROOT
BRANCH   1   2
ATOM      2  C   UNL A   1      33.796  23.984  25.722  1.00  0.00     0.118 C 
BRANCH   2   3
ATOM      3  N   UNL A   1      34.003  24.180  24.300  1.00  0.00    -0.351 N 
ATOM      4  C   UNL A   1      33.711  25.217  23.443  1.00  0.00     0.269 C 
ATOM      5  O   UNL A   1      34.053  25.053  22.269  1.00  0.00    -0.268 OA
ATOM      6  H   UNL A   1      34.440  23.416  23.859  1.00  0.00     0.163 HD
BRANCH   4   7
ATOM      7  C   UNL A   1      33.052  26.506  23.862  1.00  0.00     0.130 A 
ATOM      8  C   UNL A   1      31.664  31.972  27.036  1.00  0.00     0.044 C 
ATOM      9  C   UNL A   1      32.198  30.696  26.462  1.00  0.00    -0.050 A 
ATOM     10  C   UNL A   1      33.370  30.118  26.939  1.00  0.00     0.005 A 
ATOM     11  C   UNL A   1      31.513  30.056  25.424  1.00  0.00     0.016 A 
ATOM     12  C   UNL A   1      33.834  28.921  26.387  1.00  0.00     0.029 A 
ATOM     13  C   UNL A   1      32.000  28.868  24.825  1.00  0.00     0.024 A 
ATOM     14  C   UNL A   1      33.170  28.284  25.349  1.00  0.00     0.073 A 
ATOM     15  C   UNL A   1      31.365  28.220  23.735  1.00  0.00     0.049 A 
ATOM     16  N   UNL A   1      33.671  27.130  24.892  1.00  0.00    -0.242 NA
ATOM     17  C   UNL A   1      31.938  27.044  23.242  1.00  0.00     0.060 A 
BRANCH  15  18
ATOM     18  N   UNL A   1      30.200  28.732  23.164  1.00  0.00    -0.366 N 
ATOM     19  C   UNL A   1      30.338  29.636  22.008  1.00  0.00     0.145 C 
ATOM     20  C   UNL A   1      28.965  27.933  23.148  1.00  0.00     0.145 C 
ATOM     21  C   UNL A   1      29.071  30.502  21.895  1.00  0.00     0.181 C 
ATOM     22  C   UNL A   1      27.757  28.869  22.981  1.00  0.00     0.181 C 
ATOM     23  O   UNL A   1      27.886  29.691  21.808  1.00  0.00    -0.378 OA
ENDBRANCH  15  18
ENDBRANCH   4   7
ENDBRANCH   2   3
ENDBRANCH   1   2
BRANCH   1  24
ATOM     24  C   UNL A   1      36.340  23.742  25.788  1.00  0.00     0.118 C 
BRANCH  24  25
ATOM     25  N   UNL A   1      37.372  22.733  25.964  1.00  0.00    -0.352 N 
ATOM     26  C   UNL A   1      38.687  22.862  26.328  1.00  0.00     0.251 C 
ATOM     27  H   UNL A   1      37.078  21.808  25.793  1.00  0.00     0.163 HD
ATOM     28  O   UNL A   1      39.440  21.902  26.193  1.00  0.00    -0.269 OA
BRANCH  26  29
ATOM     29  C   UNL A   1      39.216  24.131  26.879  1.00  0.00     0.039 A 
ATOM     30  C   UNL A   1      38.915  24.455  28.207  1.00  0.00     0.014 A 
ATOM     31  C   UNL A   1      39.921  25.043  26.087  1.00  0.00     0.014 A 
ATOM     32  C   UNL A   1      39.339  25.671  28.746  1.00  0.00     0.010 A 
ATOM     33  C   UNL A   1      40.398  26.230  26.644  1.00  0.00     0.010 A 
ATOM     34  C   UNL A   1      40.096  26.564  27.972  1.00  0.00    -0.014 A 
BRANCH  34  35
ATOM     35  C   UNL A   1      40.546  27.864  28.532  1.00  0.00     0.031 A 
ATOM     36  C   UNL A   1      41.993  28.078  28.879  1.00  0.00     0.074 A 
ATOM     37  C   UNL A   1      39.645  28.836  28.764  1.00  0.00     0.049 A 
ATOM     38  N   UNL A   1      42.571  29.123  29.418  1.00  0.00    -0.248 NA
ATOM     39  C   UNL A   1      42.910  26.959  28.608  1.00  0.00     0.031 C 
ATOM     40  C   UNL A   1      38.209  28.735  28.507  1.00  0.00     0.029 A 
ATOM     41  N   UNL A   1      39.804  30.100  29.274  1.00  0.00    -0.354 N 
ATOM     42  C   UNL A   1      43.910  28.781  29.566  1.00  0.00     0.074 A 
ATOM     43  C   UNL A   1      44.051  27.418  29.101  1.00  0.00     0.031 C 
ATOM     44  C   UNL A   1      37.620  29.894  28.842  1.00  0.00     0.029 A 
ATOM     45  C   UNL A   1      38.632  30.809  29.364  1.00  0.00     0.049 A 
ATOM     46  H   UNL A   1      40.676  30.464  29.550  1.00  0.00     0.167 HD
ATOM     47  C   UNL A   1      44.931  29.542  30.027  1.00  0.00     0.037 A 
ATOM     48  C   UNL A   1      38.400  32.056  29.815  1.00  0.00     0.037 A 
ATOM     49  C   UNL A   1      44.793  30.908  30.459  1.00  0.00     0.049 A 
ATOM     50  C   UNL A   1      39.556  32.888  30.299  1.00  0.00     0.074 A 
ATOM     51  C   UNL A   1      45.775  31.781  30.897  1.00  0.00     0.029 A 
ATOM     52  N   UNL A   1      43.594  31.603  30.503  1.00  0.00    -0.354 N 
ATOM     53  N   UNL A   1      40.825  32.574  30.382  1.00  0.00    -0.248 NA
ATOM     54  C   UNL A   1      39.245  34.255  30.741  1.00  0.00     0.031 C 
ATOM     55  C   UNL A   1      45.164  32.994  31.236  1.00  0.00     0.029 A 
ATOM     56  C   UNL A   1      43.809  32.890  30.969  1.00  0.00     0.049 A 
ATOM     57  H   UNL A   1      42.719  31.236  30.241  1.00  0.00     0.167 HD
ATOM     58  C   UNL A   1      41.469  33.708  30.857  1.00  0.00     0.074 A 
ATOM     59  C   UNL A   1      40.451  34.724  31.032  1.00  0.00     0.031 C 
ATOM     60  C   UNL A   1      42.785  33.891  31.126  1.00  0.00     0.037 A 
BRANCH  47  61
ATOM     61  C   UNL A   1      46.292  28.912  30.086  1.00  0.00     0.064 A 
ATOM     62  C   UNL A   1      46.742  28.243  31.234  1.00  0.00     0.173 A 
ATOM     63  C   UNL A   1      47.144  28.948  28.971  1.00  0.00     0.173 A 
ATOM     64  F   UNL A   1      45.971  28.191  32.331  1.00  0.00    -0.203 F 
ATOM     65  C   UNL A   1      48.007  27.661  31.275  1.00  0.00     0.198 A 
ATOM     66  C   UNL A   1      48.397  28.340  29.007  1.00  0.00     0.198 A 
ATOM     67  F   UNL A   1      46.760  29.569  27.846  1.00  0.00    -0.203 F 
ATOM     68  F   UNL A   1      48.434  27.070  32.400  1.00  0.00    -0.200 F 
ATOM     69  C   UNL A   1      48.830  27.704  30.160  1.00  0.00     0.200 A 
ATOM     70  F   UNL A   1      49.187  28.371  27.924  1.00  0.00    -0.200 F 
ATOM     71  F   UNL A   1      50.044  27.138  30.200  1.00  0.00    -0.200 F 
ENDBRANCH  47  61
BRANCH  48  72
ATOM     72  C   UNL A   1      37.021  32.606  29.792  1.00  0.00     0.064 A 
ATOM     73  C   UNL A   1      36.538  33.283  28.665  1.00  0.00     0.173 A 
ATOM     74  C   UNL A   1      36.160  32.464  30.889  1.00  0.00     0.173 A 
ATOM     75  F   UNL A   1      37.332  33.460  27.598  1.00  0.00    -0.203 F 
ATOM     76  C   UNL A   1      35.250  33.815  28.641  1.00  0.00     0.198 A 
ATOM     77  C   UNL A   1      34.864  32.974  30.855  1.00  0.00     0.198 A 
ATOM     78  F   UNL A   1      36.574  31.818  31.990  1.00  0.00    -0.203 F 
ATOM     79  F   UNL A   1      34.827  34.493  27.566  1.00  0.00    -0.200 F 
ATOM     80  C   UNL A   1      34.413  33.654  29.735  1.00  0.00     0.200 A 
ATOM     81  F   UNL A   1      34.052  32.805  31.908  1.00  0.00    -0.200 F 
ATOM     82  F   UNL A   1      33.172  34.162  29.711  1.00  0.00    -0.200 F 
ENDBRANCH  48  72
BRANCH  60  83
ATOM     83  C   UNL A   1      43.203  35.251  31.601  1.00  0.00     0.064 A 
ATOM     84  C   UNL A   1      43.677  36.226  30.711  1.00  0.00     0.173 A 
ATOM     85  C   UNL A   1      43.101  35.591  32.958  1.00  0.00     0.173 A 
ATOM     86  F   UNL A   1      43.807  35.943  29.407  1.00  0.00    -0.203 F 
ATOM     87  C   UNL A   1      44.060  37.484  31.169  1.00  0.00     0.198 A 
ATOM     88  C   UNL A   1      43.459  36.858  33.408  1.00  0.00     0.198 A 
ATOM     89  F   UNL A   1      42.648  34.694  33.848  1.00  0.00    -0.203 F 
ATOM     90  F   UNL A   1      44.555  38.385  30.310  1.00  0.00    -0.200 F 
ATOM     91  C   UNL A   1      43.945  37.800  32.515  1.00  0.00     0.200 A 
ATOM     92  F   UNL A   1      43.339  37.165  34.707  1.00  0.00    -0.200 F 
ATOM     93  F   UNL A   1      44.313  39.013  32.952  1.00  0.00    -0.200 F 
ENDBRANCH  60  83
ENDBRANCH  34  35
ENDBRANCH  26  29
ENDBRANCH  24  25
ENDBRANCH   1  24
TORSDOF 11
ENDMDL
MODEL 2
REMARK VINA RESULT:     -12.5      1.443      2.922
REMARK SMILES Cc1ccc2nc(C(=O)NCCCNC(=O)c3ccc(-c4c5nc(c(-c6c(F)c(F)c(F)c(F)c6F)c6ccc([nH]6)c(-c6c(F)c(F)c(F)c(F)c6F)c6nc(c(-c7c(F)c(F)c(F)c(F)c7F)c7ccc4[nH]7)C=C6)C=C5)cc3)cc(N3CCOCC3)c2c1
REMARK SMILES IDX 12 1 11 2 10 3 8 4 9 5 7 7 1 8 2 9 3 10 89 11 4 12 88 13
REMARK SMILES IDX 5 14 81 15 6 16 80 17 82 18 83 19 87 20 84 21 86 22 85 23
REMARK SMILES IDX 13 24 14 25 15 26 16 28 17 29 18 30 79 31 19 32 78 33 20 34
REMARK SMILES IDX 21 35 22 36 72 37 23 38 77 39 71 40 73 41 24 42 76 43 70 44
REMARK SMILES IDX 69 45 25 47 57 48 37 49 56 50 38 51 41 52 55 53 74 54 39 55
REMARK SMILES IDX 40 56 54 58 75 59 42 60 26 61 27 62 35 63 28 64 29 65 33 66
REMARK SMILES IDX 36 67 30 68 31 69 34 70 32 71 58 72 59 73 67 74 60 75 61 76
REMARK SMILES IDX 65 77 68 78 62 79 63 80 66 81 64 82 43 83 44 84 52 85 45 86
REMARK SMILES IDX 46 87 50 88 53 89 47 90 48 91 51 92 49 93
REMARK H PARENT 10 6 14 27 73 46 41 57
REMARK Flexibility Score: inf
ROOT
ATOM      1  C   UNL A   1      35.190  22.928  26.381  1.00  0.00     0.042 C 
ENDROOT
BRANCH   1   2
ATOM      2  C   UNL A   1      33.931  23.265  25.580  1.00  0.00     0.118 C 
BRANCH   2   3
ATOM      3  N   UNL A   1      32.737  23.069  26.379  1.00  0.00    -0.351 N 
ATOM      4  C   UNL A   1      31.663  23.877  26.677  1.00  0.00     0.269 C 
ATOM      5  O   UNL A   1      30.793  23.369  27.389  1.00  0.00    -0.268 OA
ATOM      6  H   UNL A   1      32.685  22.177  26.792  1.00  0.00     0.163 HD
BRANCH   4   7
ATOM      7  C   UNL A   1      31.491  25.283  26.165  1.00  0.00     0.130 A 
ATOM      8  C   UNL A   1      29.472  30.399  22.752  1.00  0.00     0.044 C 
ATOM      9  C   UNL A   1      29.754  29.080  23.405  1.00  0.00    -0.050 A 
ATOM     10  C   UNL A   1      29.044  27.933  23.065  1.00  0.00     0.005 A 
ATOM     11  C   UNL A   1      30.753  28.982  24.379  1.00  0.00     0.016 A 
ATOM     12  C   UNL A   1      29.341  26.717  23.686  1.00  0.00     0.029 A 
ATOM     13  C   UNL A   1      31.029  27.765  25.049  1.00  0.00     0.024 A 
ATOM     14  C   UNL A   1      30.321  26.611  24.662  1.00  0.00     0.073 A 
ATOM     15  C   UNL A   1      31.995  27.638  26.080  1.00  0.00     0.049 A 
ATOM     16  N   UNL A   1      30.556  25.404  25.192  1.00  0.00    -0.242 NA
ATOM     17  C   UNL A   1      32.184  26.377  26.654  1.00  0.00     0.060 A 
BRANCH  15  18
ATOM     18  N   UNL A   1      32.741  28.732  26.516  1.00  0.00    -0.366 N 
ATOM     19  C   UNL A   1      32.041  29.790  27.266  1.00  0.00     0.145 C 
ATOM     20  C   UNL A   1      34.151  28.566  26.901  1.00  0.00     0.145 C 
ATOM     21  C   UNL A   1      32.845  31.098  27.156  1.00  0.00     0.181 C 
ATOM     22  C   UNL A   1      34.865  29.925  26.814  1.00  0.00     0.181 C 
ATOM     23  O   UNL A   1      34.199  30.921  27.609  1.00  0.00    -0.378 OA
ENDBRANCH  15  18
ENDBRANCH   4   7
ENDBRANCH   2   3
ENDBRANCH   1   2
BRANCH   1  24
ATOM     24  C   UNL A   1      36.470  23.490  25.765  1.00  0.00     0.118 C 
BRANCH  24  25
ATOM     25  N   UNL A   1      37.596  22.587  25.946  1.00  0.00    -0.352 N 
ATOM     26  C   UNL A   1      38.884  22.842  26.342  1.00  0.00     0.251 C 
ATOM     27  H   UNL A   1      37.403  21.642  25.751  1.00  0.00     0.163 HD
ATOM     28  O   UNL A   1      39.734  21.968  26.207  1.00  0.00    -0.269 OA
BRANCH  26  29
ATOM     29  C   UNL A   1      39.268  24.147  26.929  1.00  0.00     0.039 A 
ATOM     30  C   UNL A   1      39.978  25.051  26.130  1.00  0.00     0.014 A 
ATOM     31  C   UNL A   1      39.021  24.455  28.270  1.00  0.00     0.014 A 
ATOM     32  C   UNL A   1      40.415  26.265  26.664  1.00  0.00     0.010 A 
ATOM     33  C   UNL A   1      39.402  25.694  28.786  1.00  0.00     0.010 A 
ATOM     34  C   UNL A   1      40.119  26.603  27.993  1.00  0.00    -0.014 A 
BRANCH  34  35
ATOM     35  C   UNL A   1      40.585  27.888  28.574  1.00  0.00     0.031 A 
ATOM     36  C   UNL A   1      42.039  28.085  28.905  1.00  0.00     0.074 A 
ATOM     37  C   UNL A   1      39.694  28.860  28.839  1.00  0.00     0.049 A 
ATOM     38  N   UNL A   1      42.631  29.114  29.458  1.00  0.00    -0.248 NA
ATOM     39  C   UNL A   1      42.944  26.967  28.597  1.00  0.00     0.031 C 
ATOM     40  C   UNL A   1      38.253  28.774  28.601  1.00  0.00     0.029 A 
ATOM     41  N   UNL A   1      39.869  30.112  29.374  1.00  0.00    -0.354 N 
ATOM     42  C   UNL A   1      43.969  28.761  29.579  1.00  0.00     0.074 A 
ATOM     43  C   UNL A   1      44.095  27.407  29.084  1.00  0.00     0.031 C 
ATOM     44  C   UNL A   1      37.677  29.930  28.969  1.00  0.00     0.029 A 
ATOM     45  C   UNL A   1      38.702  30.827  29.495  1.00  0.00     0.049 A 
ATOM     46  H   UNL A   1      40.747  30.464  29.646  1.00  0.00     0.167 HD
ATOM     47  C   UNL A   1      45.002  29.506  30.043  1.00  0.00     0.037 A 
ATOM     48  C   UNL A   1      38.486  32.065  29.977  1.00  0.00     0.037 A 
ATOM     49  C   UNL A   1      44.879  30.863  30.506  1.00  0.00     0.049 A 
ATOM     50  C   UNL A   1      39.654  32.879  30.462  1.00  0.00     0.074 A 
ATOM     51  C   UNL A   1      45.872  31.720  30.947  1.00  0.00     0.029 A 
ATOM     52  N   UNL A   1      43.685  31.565  30.581  1.00  0.00    -0.354 N 
ATOM     53  N   UNL A   1      40.921  32.555  30.520  1.00  0.00    -0.248 NA
ATOM     54  C   UNL A   1      39.358  34.238  30.938  1.00  0.00     0.031 C 
ATOM     55  C   UNL A   1      45.275  32.929  31.321  1.00  0.00     0.029 A 
ATOM     56  C   UNL A   1      43.915  32.840  31.071  1.00  0.00     0.049 A 
ATOM     57  H   UNL A   1      42.804  31.209  30.324  1.00  0.00     0.167 HD
ATOM     58  C   UNL A   1      41.579  33.674  31.010  1.00  0.00     0.074 A 
ATOM     59  C   UNL A   1      40.570  34.693  31.221  1.00  0.00     0.031 C 
ATOM     60  C   UNL A   1      42.900  33.843  31.265  1.00  0.00     0.037 A 
BRANCH  47  61
ATOM     61  C   UNL A   1      46.359  28.866  30.069  1.00  0.00     0.064 A 
ATOM     62  C   UNL A   1      47.229  28.943  28.970  1.00  0.00     0.173 A 
ATOM     63  C   UNL A   1      46.811  28.196  31.216  1.00  0.00     0.173 A 
ATOM     64  F   UNL A   1      46.841  29.563  27.845  1.00  0.00    -0.203 F 
ATOM     65  C   UNL A   1      48.487  28.347  29.008  1.00  0.00     0.198 A 
ATOM     66  C   UNL A   1      48.080  27.625  31.260  1.00  0.00     0.198 A 
ATOM     67  F   UNL A   1      46.022  28.098  32.297  1.00  0.00    -0.203 F 
ATOM     68  F   UNL A   1      49.280  28.392  27.929  1.00  0.00    -0.200 F 
ATOM     69  C   UNL A   1      48.914  27.695  30.154  1.00  0.00     0.200 A 
ATOM     70  F   UNL A   1      48.497  27.005  32.374  1.00  0.00    -0.200 F 
ATOM     71  F   UNL A   1      50.127  27.126  30.190  1.00  0.00    -0.200 F 
ENDBRANCH  47  61
BRANCH  48  72
ATOM     72  C   UNL A   1      37.110  32.624  29.985  1.00  0.00     0.064 A 
ATOM     73  C   UNL A   1      36.642  33.394  28.912  1.00  0.00     0.173 A 
ATOM     74  C   UNL A   1      36.237  32.400  31.059  1.00  0.00     0.173 A 
ATOM     75  F   UNL A   1      37.448  33.651  27.870  1.00  0.00    -0.203 F 
ATOM     76  C   UNL A   1      35.358  33.934  28.919  1.00  0.00     0.198 A 
ATOM     77  C   UNL A   1      34.944  32.919  31.053  1.00  0.00     0.198 A 
ATOM     78  F   UNL A   1      36.636  31.665  32.108  1.00  0.00    -0.203 F 
ATOM     79  F   UNL A   1      34.950  34.699  27.898  1.00  0.00    -0.200 F 
ATOM     80  C   UNL A   1      34.508  33.691  29.988  1.00  0.00     0.200 A 
ATOM     81  F   UNL A   1      34.121  32.671  32.082  1.00  0.00    -0.200 F 
ATOM     82  F   UNL A   1      33.271  34.207  29.993  1.00  0.00    -0.200 F 
ENDBRANCH  48  72
BRANCH  60  83
ATOM     83  C   UNL A   1      43.334  35.191  31.762  1.00  0.00     0.064 A 
ATOM     84  C   UNL A   1      43.338  35.503  33.128  1.00  0.00     0.173 A 
ATOM     85  C   UNL A   1      43.776  36.170  30.860  1.00  0.00     0.173 A 
ATOM     86  F   UNL A   1      42.908  34.606  34.027  1.00  0.00    -0.203 F 
ATOM     87  C   UNL A   1      43.744  36.759  33.572  1.00  0.00     0.198 A 
ATOM     88  C   UNL A   1      44.207  37.415  31.309  1.00  0.00     0.198 A 
ATOM     89  F   UNL A   1      43.795  35.917  29.542  1.00  0.00    -0.203 F 
ATOM     90  F   UNL A   1      43.695  37.054  34.878  1.00  0.00    -0.200 F 
ATOM     91  C   UNL A   1      44.183  37.711  32.663  1.00  0.00     0.200 A 
ATOM     92  F   UNL A   1      44.640  38.330  30.430  1.00  0.00    -0.200 F 
ATOM     93  F   UNL A   1      44.576  38.918  33.093  1.00  0.00    -0.200 F 
ENDBRANCH  60  83
ENDBRANCH  34  35
ENDBRANCH  26  29
ENDBRANCH  24  25
ENDBRANCH   1  24
TORSDOF 11
ENDMDL
MODEL 3
REMARK VINA RESULT:     -12.4      3.190      9.082
REMARK SMILES Cc1ccc2nc(C(=O)NCCCNC(=O)c3ccc(-c4c5nc(c(-c6c(F)c(F)c(F)c(F)c6F)c6ccc([nH]6)c(-c6c(F)c(F)c(F)c(F)c6F)c6nc(c(-c7c(F)c(F)c(F)c(F)c7F)c7ccc4[nH]7)C=C6)C=C5)cc3)cc(N3CCOCC3)c2c1
REMARK SMILES IDX 12 1 11 2 10 3 8 4 9 5 7 7 1 8 2 9 3 10 89 11 4 12 88 13
REMARK SMILES IDX 5 14 81 15 6 16 80 17 82 18 83 19 87 20 84 21 86 22 85 23
REMARK SMILES IDX 13 24 14 25 15 26 16 28 17 29 18 30 79 31 19 32 78 33 20 34
REMARK SMILES IDX 21 35 22 36 72 37 23 38 77 39 71 40 73 41 24 42 76 43 70 44
REMARK SMILES IDX 69 45 25 47 57 48 37 49 56 50 38 51 41 52 55 53 74 54 39 55
REMARK SMILES IDX 40 56 54 58 75 59 42 60 26 61 27 62 35 63 28 64 29 65 33 66
REMARK SMILES IDX 36 67 30 68 31 69 34 70 32 71 58 72 59 73 67 74 60 75 61 76
REMARK SMILES IDX 65 77 68 78 62 79 63 80 66 81 64 82 43 83 44 84 52 85 45 86
REMARK SMILES IDX 46 87 50 88 53 89 47 90 48 91 51 92 49 93
REMARK H PARENT 10 6 14 27 73 46 41 57
REMARK Flexibility Score: inf
ROOT
ATOM      1  C   UNL A   1      33.866  28.080  25.394  1.00  0.00     0.042 C 
ENDROOT
BRANCH   1   2
ATOM      2  C   UNL A   1      32.813  27.149  24.789  1.00  0.00     0.118 C 
BRANCH   2   3
ATOM      3  N   UNL A   1      33.025  26.978  23.365  1.00  0.00    -0.351 N 
ATOM      4  C   UNL A   1      33.467  25.922  22.601  1.00  0.00     0.269 C 
ATOM      5  O   UNL A   1      33.508  26.122  21.384  1.00  0.00    -0.268 OA
ATOM      6  H   UNL A   1      32.808  27.781  22.838  1.00  0.00     0.163 HD
BRANCH   4   7
ATOM      7  C   UNL A   1      33.856  24.576  23.156  1.00  0.00     0.130 A 
ATOM      8  C   UNL A   1      33.673  18.359  24.946  1.00  0.00     0.044 C 
ATOM      9  C   UNL A   1      33.476  19.749  24.424  1.00  0.00    -0.050 A 
ATOM     10  C   UNL A   1      32.328  20.108  23.725  1.00  0.00     0.005 A 
ATOM     11  C   UNL A   1      34.458  20.721  24.638  1.00  0.00     0.016 A 
ATOM     12  C   UNL A   1      32.172  21.418  23.263  1.00  0.00     0.029 A 
ATOM     13  C   UNL A   1      34.332  22.038  24.131  1.00  0.00     0.024 A 
ATOM     14  C   UNL A   1      33.145  22.387  23.458  1.00  0.00     0.073 A 
ATOM     15  C   UNL A   1      35.330  23.036  24.279  1.00  0.00     0.049 A 
ATOM     16  N   UNL A   1      32.908  23.622  22.999  1.00  0.00    -0.242 NA
ATOM     17  C   UNL A   1      35.079  24.303  23.744  1.00  0.00     0.060 A 
BRANCH  15  18
ATOM     18  N   UNL A   1      36.530  22.771  24.937  1.00  0.00    -0.366 N 
ATOM     19  C   UNL A   1      37.387  21.698  24.404  1.00  0.00     0.145 C 
ATOM     20  C   UNL A   1      37.276  23.858  25.589  1.00  0.00     0.145 C 
ATOM     21  C   UNL A   1      38.313  21.193  25.525  1.00  0.00     0.181 C 
ATOM     22  C   UNL A   1      38.212  23.264  26.655  1.00  0.00     0.181 C 
ATOM     23  O   UNL A   1      39.084  22.267  26.093  1.00  0.00    -0.378 OA
ENDBRANCH  15  18
ENDBRANCH   4   7
ENDBRANCH   2   3
ENDBRANCH   1   2
BRANCH   1  24
ATOM     24  C   UNL A   1      33.733  28.246  26.906  1.00  0.00     0.118 C 
BRANCH  24  25
ATOM     25  N   UNL A   1      33.624  29.646  27.287  1.00  0.00    -0.352 N 
ATOM     26  C   UNL A   1      34.489  30.444  27.990  1.00  0.00     0.251 C 
ATOM     27  H   UNL A   1      32.796  30.091  26.993  1.00  0.00     0.163 HD
ATOM     28  O   UNL A   1      34.098  31.534  28.397  1.00  0.00    -0.269 OA
BRANCH  26  29
ATOM     29  C   UNL A   1      35.881  30.020  28.268  1.00  0.00     0.039 A 
ATOM     30  C   UNL A   1      36.178  29.505  29.535  1.00  0.00     0.014 A 
ATOM     31  C   UNL A   1      36.908  30.203  27.337  1.00  0.00     0.014 A 
ATOM     32  C   UNL A   1      37.490  29.154  29.858  1.00  0.00     0.010 A 
ATOM     33  C   UNL A   1      38.207  29.794  27.638  1.00  0.00     0.010 A 
ATOM     34  C   UNL A   1      38.514  29.283  28.908  1.00  0.00    -0.014 A 
BRANCH  34  35
ATOM     35  C   UNL A   1      39.914  28.919  29.243  1.00  0.00     0.031 A 
ATOM     36  C   UNL A   1      40.759  29.847  30.072  1.00  0.00     0.074 A 
ATOM     37  C   UNL A   1      40.437  27.773  28.768  1.00  0.00     0.049 A 
ATOM     38  N   UNL A   1      42.013  29.728  30.431  1.00  0.00    -0.248 NA
ATOM     39  C   UNL A   1      40.116  31.085  30.540  1.00  0.00     0.031 C 
ATOM     40  C   UNL A   1      39.732  26.811  27.922  1.00  0.00     0.029 A 
ATOM     41  N   UNL A   1      41.686  27.227  28.926  1.00  0.00    -0.354 N 
ATOM     42  C   UNL A   1      42.312  30.881  31.148  1.00  0.00     0.074 A 
ATOM     43  C   UNL A   1      41.123  31.705  31.136  1.00  0.00     0.031 C 
ATOM     44  C   UNL A   1      40.551  25.783  27.650  1.00  0.00     0.029 A 
ATOM     45  C   UNL A   1      41.847  26.026  28.279  1.00  0.00     0.049 A 
ATOM     46  H   UNL A   1      42.399  27.655  29.453  1.00  0.00     0.167 HD
ATOM     47  C   UNL A   1      43.466  31.210  31.776  1.00  0.00     0.037 A 
ATOM     48  C   UNL A   1      42.918  25.216  28.202  1.00  0.00     0.037 A 
ATOM     49  C   UNL A   1      44.637  30.373  31.813  1.00  0.00     0.049 A 
ATOM     50  C   UNL A   1      44.179  25.594  28.929  1.00  0.00     0.074 A 
ATOM     51  C   UNL A   1      45.838  30.594  32.464  1.00  0.00     0.029 A 
ATOM     52  N   UNL A   1      44.750  29.148  31.173  1.00  0.00    -0.354 N 
ATOM     53  N   UNL A   1      44.432  26.658  29.649  1.00  0.00    -0.248 NA
ATOM     54  C   UNL A   1      45.301  24.648  28.840  1.00  0.00     0.031 C 
ATOM     55  C   UNL A   1      46.690  29.518  32.191  1.00  0.00     0.029 A 
ATOM     56  C   UNL A   1      46.003  28.606  31.405  1.00  0.00     0.049 A 
ATOM     57  H   UNL A   1      44.043  28.726  30.633  1.00  0.00     0.167 HD
ATOM     58  C   UNL A   1      45.727  26.500  30.123  1.00  0.00     0.074 A 
ATOM     59  C   UNL A   1      46.204  25.228  29.618  1.00  0.00     0.031 C 
ATOM     60  C   UNL A   1      46.456  27.334  30.904  1.00  0.00     0.037 A 
BRANCH  47  61
ATOM     61  C   UNL A   1      43.518  32.535  32.479  1.00  0.00     0.064 A 
ATOM     62  C   UNL A   1      43.172  32.662  33.833  1.00  0.00     0.173 A 
ATOM     63  C   UNL A   1      43.948  33.687  31.802  1.00  0.00     0.173 A 
ATOM     64  F   UNL A   1      42.744  31.594  34.523  1.00  0.00    -0.203 F 
ATOM     65  C   UNL A   1      43.226  33.898  34.474  1.00  0.00     0.198 A 
ATOM     66  C   UNL A   1      44.027  34.915  32.454  1.00  0.00     0.198 A 
ATOM     67  F   UNL A   1      44.296  33.620  30.508  1.00  0.00    -0.203 F 
ATOM     68  F   UNL A   1      42.845  34.002  35.755  1.00  0.00    -0.200 F 
ATOM     69  C   UNL A   1      43.660  35.020  33.786  1.00  0.00     0.200 A 
ATOM     70  F   UNL A   1      44.458  35.998  31.791  1.00  0.00    -0.200 F 
ATOM     71  F   UNL A   1      43.716  36.207  34.407  1.00  0.00    -0.200 F 
ENDBRANCH  47  61
BRANCH  48  72
ATOM     72  C   UNL A   1      42.830  23.944  27.438  1.00  0.00     0.064 A 
ATOM     73  C   UNL A   1      43.163  23.900  26.078  1.00  0.00     0.173 A 
ATOM     74  C   UNL A   1      42.416  22.753  28.050  1.00  0.00     0.173 A 
ATOM     75  F   UNL A   1      43.546  25.020  25.446  1.00  0.00    -0.203 F 
ATOM     76  C   UNL A   1      43.069  22.715  25.352  1.00  0.00     0.198 A 
ATOM     77  C   UNL A   1      42.346  21.563  27.329  1.00  0.00     0.198 A 
ATOM     78  F   UNL A   1      42.091  22.743  29.352  1.00  0.00    -0.203 F 
ATOM     79  F   UNL A   1      43.355  22.709  24.043  1.00  0.00    -0.200 F 
ATOM     80  C   UNL A   1      42.666  21.546  25.980  1.00  0.00     0.200 A 
ATOM     81  F   UNL A   1      41.969  20.432  27.942  1.00  0.00    -0.200 F 
ATOM     82  F   UNL A   1      42.580  20.405  25.283  1.00  0.00    -0.200 F 
ENDBRANCH  48  72
BRANCH  60  83
ATOM     83  C   UNL A   1      47.832  26.878  31.292  1.00  0.00     0.064 A 
ATOM     84  C   UNL A   1      48.045  26.048  32.401  1.00  0.00     0.173 A 
ATOM     85  C   UNL A   1      48.946  27.256  30.528  1.00  0.00     0.173 A 
ATOM     86  F   UNL A   1      47.013  25.673  33.172  1.00  0.00    -0.203 F 
ATOM     87  C   UNL A   1      49.329  25.634  32.747  1.00  0.00     0.198 A 
ATOM     88  C   UNL A   1      50.224  26.819  30.861  1.00  0.00     0.198 A 
ATOM     89  F   UNL A   1      48.793  28.046  29.454  1.00  0.00    -0.203 F 
ATOM     90  F   UNL A   1      49.516  24.880  33.839  1.00  0.00    -0.200 F 
ATOM     91  C   UNL A   1      50.415  26.014  31.974  1.00  0.00     0.200 A 
ATOM     92  F   UNL A   1      51.272  27.180  30.107  1.00  0.00    -0.200 F 
ATOM     93  F   UNL A   1      51.650  25.613  32.307  1.00  0.00    -0.200 F 
ENDBRANCH  60  83
ENDBRANCH  34  35
ENDBRANCH  26  29
ENDBRANCH  24  25
ENDBRANCH   1  24
TORSDOF 11
ENDMDL
