MODEL 1
REMARK VINA RESULT:     -14.0      0.000      0.000
REMARK SMILES C[C@@](O)(CNC(=O)Cc1ccc(F)cc1F)C(=O)NCCCNC(=O)c1ccc(-c2c3nc(c(-c4c(F)c(F)c(F)c(F)c4F)c4ccc([nH]4)c(-c4c(F)c(F)c(F)c(F)c4F)c4nc(c(-c5c(F)c(F)c(F)c(F)c5F)c5ccc2[nH]5)C=C4)C=C3)cc1
REMARK SMILES IDX 20 1 19 2 17 3 18 4 2 6 1 7 3 8 4 10 5 11 6 12 7 14 8 15
REMARK SMILES IDX 9 16 10 17 15 18 11 19 14 20 16 21 12 22 13 23 21 24 22 25
REMARK SMILES IDX 23 26 24 27 25 29 26 30 27 31 88 32 28 33 87 34 29 35 30 36
REMARK SMILES IDX 31 37 81 38 32 39 86 40 80 41 82 42 33 43 85 44 79 45 78 46
REMARK SMILES IDX 34 48 66 49 46 50 65 51 47 52 50 53 64 54 83 55 48 56 49 57
REMARK SMILES IDX 63 59 84 60 51 61 35 62 36 63 44 64 37 65 38 66 42 67 45 68
REMARK SMILES IDX 39 69 40 70 43 71 41 72 67 73 68 74 76 75 69 76 70 77 74 78
REMARK SMILES IDX 77 79 71 80 72 81 75 82 73 83 52 84 53 85 61 86 54 87 55 88
REMARK SMILES IDX 59 89 62 90 56 91 57 92 60 93 58 94
REMARK H PARENT 19 5 3 9 5 13 23 28 82 47 50 58
REMARK Flexibility Score: inf
ROOT
ATOM      1  C   UNL A   1      34.287  29.551  27.387  1.00  0.00     0.117 C 
ENDROOT
BRANCH   1   2
ATOM      2  N   UNL A   1      33.219  28.748  27.951  1.00  0.00    -0.353 N 
ATOM      3  C   UNL A   1      32.217  28.058  27.336  1.00  0.00     0.253 C 
ATOM      4  O   UNL A   1      31.240  27.781  28.040  1.00  0.00    -0.272 OA
ATOM      5  H   UNL A   1      33.215  28.695  28.934  1.00  0.00     0.163 HD
BRANCH   3   6
ATOM      6  C   UNL A   1      32.350  27.537  25.870  1.00  0.00     0.157 C 
ATOM      7  C   UNL A   1      33.735  26.875  25.756  1.00  0.00     0.055 C 
BRANCH   6   8
ATOM      8  O   UNL A   1      32.375  28.660  24.968  1.00  0.00    -0.378 OA
ATOM      9  H   UNL A   1      33.274  28.776  24.622  1.00  0.00     0.212 HD
ENDBRANCH   6   8
BRANCH   6  10
ATOM     10  C   UNL A   1      31.251  26.558  25.358  1.00  0.00     0.160 C 
BRANCH  10  11
ATOM     11  N   UNL A   1      30.787  25.540  26.299  1.00  0.00    -0.352 N 
ATOM     12  C   UNL A   1      30.944  24.180  26.329  1.00  0.00     0.224 C 
ATOM     13  H   UNL A   1      30.264  25.899  27.052  1.00  0.00     0.163 HD
ATOM     14  O   UNL A   1      30.622  23.592  27.364  1.00  0.00    -0.275 OA
BRANCH  12  15
ATOM     15  C   UNL A   1      31.511  23.398  25.149  1.00  0.00     0.138 C 
BRANCH  15  16
ATOM     16  C   UNL A   1      33.024  23.253  25.146  1.00  0.00    -0.003 A 
ATOM     17  C   UNL A   1      33.913  23.759  23.652  1.00  0.00     0.010 A 
ATOM     18  C   UNL A   1      33.802  22.120  26.317  1.00  0.00     0.129 A 
ATOM     19  C   UNL A   1      35.564  23.096  23.316  1.00  0.00     0.040 A 
ATOM     20  C   UNL A   1      35.454  21.477  26.002  1.00  0.00     0.078 A 
ATOM     21  F   UNL A   1      33.141  21.720  27.408  1.00  0.00    -0.207 F 
ATOM     22  C   UNL A   1      36.311  21.925  24.476  1.00  0.00     0.126 A 
ATOM     23  F   UNL A   1      37.527  21.422  24.234  1.00  0.00    -0.207 F 
ENDBRANCH  15  16
ENDBRANCH  12  15
ENDBRANCH  10  11
ENDBRANCH   6  10
ENDBRANCH   3   6
ENDBRANCH   1   2
BRANCH   1  24
ATOM     24  C   UNL A   1      34.079  31.222  27.600  1.00  0.00     0.042 C 
BRANCH  24  25
ATOM     25  C   UNL A   1      32.534  32.733  27.253  1.00  0.00     0.118 C 
BRANCH  25  26
ATOM     26  N   UNL A   1      32.508  34.309  27.625  1.00  0.00    -0.352 N 
ATOM     27  C   UNL A   1      33.030  35.022  28.668  1.00  0.00     0.251 C 
ATOM     28  H   UNL A   1      32.021  34.861  26.973  1.00  0.00     0.163 HD
ATOM     29  O   UNL A   1      32.563  36.119  28.960  1.00  0.00    -0.269 OA
BRANCH  27  30
ATOM     30  C   UNL A   1      34.199  34.520  29.398  1.00  0.00     0.039 A 
ATOM     31  C   UNL A   1      35.456  34.560  28.791  1.00  0.00     0.014 A 
ATOM     32  C   UNL A   1      34.007  33.840  30.604  1.00  0.00     0.014 A 
ATOM     33  C   UNL A   1      36.526  33.898  29.388  1.00  0.00     0.010 A 
ATOM     34  C   UNL A   1      35.084  33.232  31.228  1.00  0.00     0.010 A 
ATOM     35  C   UNL A   1      36.339  33.221  30.603  1.00  0.00    -0.014 A 
BRANCH  35  36
ATOM     36  C   UNL A   1      37.413  32.408  31.209  1.00  0.00     0.031 A 
ATOM     37  C   UNL A   1      37.906  32.753  32.585  1.00  0.00     0.074 A 
ATOM     38  C   UNL A   1      37.984  31.428  30.490  1.00  0.00     0.049 A 
ATOM     39  N   UNL A   1      38.930  32.273  33.242  1.00  0.00    -0.248 NA
ATOM     40  C   UNL A   1      37.166  33.802  33.307  1.00  0.00     0.031 C 
ATOM     41  C   UNL A   1      37.587  31.035  29.138  1.00  0.00     0.029 A 
ATOM     42  N   UNL A   1      39.033  30.599  30.788  1.00  0.00    -0.354 N 
ATOM     43  C   UNL A   1      38.972  32.979  34.438  1.00  0.00     0.074 A 
ATOM     44  C   UNL A   1      37.900  33.950  34.400  1.00  0.00     0.031 C 
ATOM     45  C   UNL A   1      38.378  30.032  28.725  1.00  0.00     0.029 A 
ATOM     46  C   UNL A   1      39.361  29.745  29.766  1.00  0.00     0.049 A 
ATOM     47  H   UNL A   1      39.505  30.616  31.651  1.00  0.00     0.167 HD
ATOM     48  C   UNL A   1      39.821  32.813  35.478  1.00  0.00     0.037 A 
ATOM     49  C   UNL A   1      40.355  28.841  29.681  1.00  0.00     0.037 A 
ATOM     50  C   UNL A   1      40.858  31.815  35.509  1.00  0.00     0.049 A 
ATOM     51  C   UNL A   1      41.284  28.674  30.851  1.00  0.00     0.074 A 
ATOM     52  C   UNL A   1      41.739  31.518  36.532  1.00  0.00     0.029 A 
ATOM     53  N   UNL A   1      41.145  30.948  34.464  1.00  0.00    -0.354 N 
ATOM     54  N   UNL A   1      41.294  29.316  31.995  1.00  0.00    -0.248 NA
ATOM     55  C   UNL A   1      42.334  27.655  30.724  1.00  0.00     0.031 C 
ATOM     56  C   UNL A   1      42.589  30.500  36.090  1.00  0.00     0.029 A 
ATOM     57  C   UNL A   1      42.203  30.125  34.812  1.00  0.00     0.049 A 
ATOM     58  H   UNL A   1      40.668  30.921  33.604  1.00  0.00     0.167 HD
ATOM     59  C   UNL A   1      42.334  28.767  32.733  1.00  0.00     0.074 A 
ATOM     60  C   UNL A   1      42.922  27.728  31.910  1.00  0.00     0.031 C 
ATOM     61  C   UNL A   1      42.764  29.093  33.976  1.00  0.00     0.037 A 
BRANCH  48  62
ATOM     62  C   UNL A   1      39.662  33.713  36.669  1.00  0.00     0.064 A 
ATOM     63  C   UNL A   1      38.832  33.341  37.738  1.00  0.00     0.173 A 
ATOM     64  C   UNL A   1      40.281  34.970  36.731  1.00  0.00     0.173 A 
ATOM     65  F   UNL A   1      38.210  32.152  37.731  1.00  0.00    -0.203 F 
ATOM     66  C   UNL A   1      38.621  34.198  38.816  1.00  0.00     0.198 A 
ATOM     67  C   UNL A   1      40.093  35.812  37.824  1.00  0.00     0.198 A 
ATOM     68  F   UNL A   1      41.094  35.372  35.741  1.00  0.00    -0.203 F 
ATOM     69  F   UNL A   1      37.799  33.833  39.809  1.00  0.00    -0.200 F 
ATOM     70  C   UNL A   1      39.255  35.430  38.861  1.00  0.00     0.200 A 
ATOM     71  F   UNL A   1      40.727  36.991  37.877  1.00  0.00    -0.200 F 
ATOM     72  F   UNL A   1      39.061  36.248  39.904  1.00  0.00    -0.200 F 
ENDBRANCH  48  62
BRANCH  49  73
ATOM     73  C   UNL A   1      40.481  28.012  28.457  1.00  0.00     0.064 A 
ATOM     74  C   UNL A   1      39.890  26.742  28.366  1.00  0.00     0.173 A 
ATOM     75  C   UNL A   1      41.250  28.452  27.372  1.00  0.00     0.173 A 
ATOM     76  F   UNL A   1      39.156  26.269  29.383  1.00  0.00    -0.203 F 
ATOM     77  C   UNL A   1      40.084  25.938  27.245  1.00  0.00     0.198 A 
ATOM     78  C   UNL A   1      41.421  27.658  26.240  1.00  0.00     0.198 A 
ATOM     79  F   UNL A   1      41.824  29.664  27.408  1.00  0.00    -0.203 F 
ATOM     80  F   UNL A   1      39.546  24.711  27.202  1.00  0.00    -0.200 F 
ATOM     81  C   UNL A   1      40.846  26.397  26.182  1.00  0.00     0.200 A 
ATOM     82  F   UNL A   1      42.144  28.113  25.209  1.00  0.00    -0.200 F 
ATOM     83  F   UNL A   1      41.029  25.624  25.103  1.00  0.00    -0.200 F 
ENDBRANCH  49  73
BRANCH  61  84
ATOM     84  C   UNL A   1      43.910  28.307  34.539  1.00  0.00     0.064 A 
ATOM     85  C   UNL A   1      43.673  27.132  35.269  1.00  0.00     0.173 A 
ATOM     86  C   UNL A   1      45.232  28.763  34.432  1.00  0.00     0.173 A 
ATOM     87  F   UNL A   1      42.425  26.662  35.406  1.00  0.00    -0.203 F 
ATOM     88  C   UNL A   1      44.717  26.451  35.885  1.00  0.00     0.198 A 
ATOM     89  C   UNL A   1      46.277  28.062  35.026  1.00  0.00     0.198 A 
ATOM     90  F   UNL A   1      45.508  29.875  33.735  1.00  0.00    -0.203 F 
ATOM     91  F   UNL A   1      44.463  25.352  36.609  1.00  0.00    -0.200 F 
ATOM     92  C   UNL A   1      46.018  26.914  35.761  1.00  0.00     0.200 A 
ATOM     93  F   UNL A   1      47.536  28.497  34.886  1.00  0.00    -0.200 F 
ATOM     94  F   UNL A   1      47.024  26.253  36.349  1.00  0.00    -0.200 F 
ENDBRANCH  61  84
ENDBRANCH  35  36
ENDBRANCH  27  30
ENDBRANCH  25  26
ENDBRANCH  24  25
ENDBRANCH   1  24
TORSDOF 15
ENDMDL
MODEL 2
REMARK VINA RESULT:     -13.6      0.804      7.588
REMARK SMILES C[C@@](O)(CNC(=O)Cc1ccc(F)cc1F)C(=O)NCCCNC(=O)c1ccc(-c2c3nc(c(-c4c(F)c(F)c(F)c(F)c4F)c4ccc([nH]4)c(-c4c(F)c(F)c(F)c(F)c4F)c4nc(c(-c5c(F)c(F)c(F)c(F)c5F)c5ccc2[nH]5)C=C4)C=C3)cc1
REMARK SMILES IDX 20 1 19 2 17 3 18 4 2 6 1 7 3 8 4 10 5 11 6 12 7 14 8 15
REMARK SMILES IDX 9 16 10 17 15 18 11 19 14 20 16 21 12 22 13 23 21 24 22 25
REMARK SMILES IDX 23 26 24 27 25 29 26 30 27 31 88 32 28 33 87 34 29 35 30 36
REMARK SMILES IDX 31 37 81 38 32 39 86 40 80 41 82 42 33 43 85 44 79 45 78 46
REMARK SMILES IDX 34 48 66 49 46 50 65 51 47 52 50 53 64 54 83 55 48 56 49 57
REMARK SMILES IDX 63 59 84 60 51 61 35 62 36 63 44 64 37 65 38 66 42 67 45 68
REMARK SMILES IDX 39 69 40 70 43 71 41 72 67 73 68 74 76 75 69 76 70 77 74 78
REMARK SMILES IDX 77 79 71 80 72 81 75 82 73 83 52 84 53 85 61 86 54 87 55 88
REMARK SMILES IDX 59 89 62 90 56 91 57 92 60 93 58 94
REMARK H PARENT 19 5 3 9 5 13 23 28 82 47 50 58
REMARK Flexibility Score: inf
ROOT
ATOM      1  C   UNL A   1      34.731  29.498  27.471  1.00  0.00     0.117 C 
ENDROOT
BRANCH   1   2
ATOM      2  N   UNL A   1      33.653  28.641  27.927  1.00  0.00    -0.353 N 
ATOM      3  C   UNL A   1      32.500  28.268  27.301  1.00  0.00     0.253 C 
ATOM      4  O   UNL A   1      31.597  27.854  28.036  1.00  0.00    -0.272 OA
ATOM      5  H   UNL A   1      33.771  28.272  28.832  1.00  0.00     0.163 HD
BRANCH   3   6
ATOM      6  C   UNL A   1      32.373  28.243  25.746  1.00  0.00     0.157 C 
ATOM      7  C   UNL A   1      33.699  27.681  25.200  1.00  0.00     0.055 C 
BRANCH   6   8
ATOM      8  O   UNL A   1      32.286  29.594  25.255  1.00  0.00    -0.378 OA
ATOM      9  H   UNL A   1      32.566  30.209  25.951  1.00  0.00     0.212 HD
ENDBRANCH   6   8
BRANCH   6  10
ATOM     10  C   UNL A   1      31.175  27.452  25.140  1.00  0.00     0.160 C 
BRANCH  10  11
ATOM     11  N   UNL A   1      30.695  26.299  25.900  1.00  0.00    -0.352 N 
ATOM     12  C   UNL A   1      31.025  24.971  25.856  1.00  0.00     0.224 C 
ATOM     13  H   UNL A   1      30.007  26.519  26.569  1.00  0.00     0.163 HD
ATOM     14  O   UNL A   1      30.610  24.250  26.766  1.00  0.00    -0.275 OA
BRANCH  12  15
ATOM     15  C   UNL A   1      31.886  24.382  24.744  1.00  0.00     0.138 C 
BRANCH  15  16
ATOM     16  C   UNL A   1      32.990  23.449  25.217  1.00  0.00    -0.003 A 
ATOM     17  C   UNL A   1      34.695  24.048  25.118  1.00  0.00     0.010 A 
ATOM     18  C   UNL A   1      32.662  21.676  25.316  1.00  0.00     0.129 A 
ATOM     19  C   UNL A   1      36.066  22.866  25.076  1.00  0.00     0.040 A 
ATOM     20  C   UNL A   1      34.021  20.496  25.301  1.00  0.00     0.078 A 
ATOM     21  F   UNL A   1      31.404  21.225  25.362  1.00  0.00    -0.207 F 
ATOM     22  C   UNL A   1      35.719  21.091  25.129  1.00  0.00     0.126 A 
ATOM     23  F   UNL A   1      36.723  20.207  25.091  1.00  0.00    -0.207 F 
ENDBRANCH  15  16
ENDBRANCH  12  15
ENDBRANCH  10  11
ENDBRANCH   6  10
ENDBRANCH   3   6
ENDBRANCH   1   2
BRANCH   1  24
ATOM     24  C   UNL A   1      34.389  31.155  27.587  1.00  0.00     0.042 C 
BRANCH  24  25
ATOM     25  C   UNL A   1      32.643  32.473  27.497  1.00  0.00     0.118 C 
BRANCH  25  26
ATOM     26  N   UNL A   1      32.534  34.080  27.662  1.00  0.00    -0.352 N 
ATOM     27  C   UNL A   1      33.019  34.949  28.599  1.00  0.00     0.251 C 
ATOM     28  H   UNL A   1      32.017  34.517  26.948  1.00  0.00     0.163 HD
ATOM     29  O   UNL A   1      32.496  36.049  28.751  1.00  0.00    -0.269 OA
BRANCH  27  30
ATOM     30  C   UNL A   1      34.215  34.608  29.378  1.00  0.00     0.039 A 
ATOM     31  C   UNL A   1      35.472  34.685  28.773  1.00  0.00     0.014 A 
ATOM     32  C   UNL A   1      34.062  34.033  30.642  1.00  0.00     0.014 A 
ATOM     33  C   UNL A   1      36.582  34.165  29.434  1.00  0.00     0.010 A 
ATOM     34  C   UNL A   1      35.175  33.571  31.325  1.00  0.00     0.010 A 
ATOM     35  C   UNL A   1      36.433  33.594  30.707  1.00  0.00    -0.014 A 
BRANCH  35  36
ATOM     36  C   UNL A   1      37.559  32.926  31.392  1.00  0.00     0.031 A 
ATOM     37  C   UNL A   1      38.242  31.768  30.722  1.00  0.00     0.074 A 
ATOM     38  C   UNL A   1      37.901  33.313  32.631  1.00  0.00     0.049 A 
ATOM     39  N   UNL A   1      39.143  30.949  31.199  1.00  0.00    -0.248 NA
ATOM     40  C   UNL A   1      37.831  31.470  29.339  1.00  0.00     0.031 C 
ATOM     41  C   UNL A   1      37.281  34.414  33.370  1.00  0.00     0.029 A 
ATOM     42  N   UNL A   1      38.837  32.812  33.495  1.00  0.00    -0.354 N 
ATOM     43  C   UNL A   1      39.385  30.028  30.188  1.00  0.00     0.074 A 
ATOM     44  C   UNL A   1      38.507  30.359  29.088  1.00  0.00     0.031 C 
ATOM     45  C   UNL A   1      37.862  34.510  34.576  1.00  0.00     0.029 A 
ATOM     46  C   UNL A   1      38.861  33.454  34.707  1.00  0.00     0.049 A 
ATOM     47  H   UNL A   1      39.435  32.063  33.269  1.00  0.00     0.167 HD
ATOM     48  C   UNL A   1      40.278  29.011  30.179  1.00  0.00     0.037 A 
ATOM     49  C   UNL A   1      39.601  33.203  35.803  1.00  0.00     0.037 A 
ATOM     50  C   UNL A   1      41.168  28.722  31.272  1.00  0.00     0.049 A 
ATOM     51  C   UNL A   1      40.587  32.068  35.768  1.00  0.00     0.074 A 
ATOM     52  C   UNL A   1      42.151  27.754  31.352  1.00  0.00     0.029 A 
ATOM     53  N   UNL A   1      41.182  29.411  32.477  1.00  0.00    -0.354 N 
ATOM     54  N   UNL A   1      40.840  31.225  34.795  1.00  0.00    -0.248 NA
ATOM     55  C   UNL A   1      41.393  31.852  36.977  1.00  0.00     0.031 C 
ATOM     56  C   UNL A   1      42.732  27.828  32.621  1.00  0.00     0.029 A 
ATOM     57  C   UNL A   1      42.148  28.877  33.314  1.00  0.00     0.049 A 
ATOM     58  H   UNL A   1      40.593  30.167  32.704  1.00  0.00     0.167 HD
ATOM     59  C   UNL A   1      41.848  30.393  35.263  1.00  0.00     0.074 A 
ATOM     60  C   UNL A   1      42.168  30.843  36.603  1.00  0.00     0.031 C 
ATOM     61  C   UNL A   1      42.451  29.351  34.641  1.00  0.00     0.037 A 
BRANCH  48  62
ATOM     62  C   UNL A   1      40.347  28.144  28.955  1.00  0.00     0.064 A 
ATOM     63  C   UNL A   1      41.097  28.547  27.838  1.00  0.00     0.173 A 
ATOM     64  C   UNL A   1      39.626  26.945  28.859  1.00  0.00     0.173 A 
ATOM     65  F   UNL A   1      41.803  29.688  27.872  1.00  0.00    -0.203 F 
ATOM     66  C   UNL A   1      41.114  27.786  26.672  1.00  0.00     0.198 A 
ATOM     67  C   UNL A   1      39.669  26.171  27.701  1.00  0.00     0.198 A 
ATOM     68  F   UNL A   1      38.901  26.508  29.900  1.00  0.00    -0.203 F 
ATOM     69  F   UNL A   1      41.812  28.208  25.609  1.00  0.00    -0.200 F 
ATOM     70  C   UNL A   1      40.404  26.597  26.606  1.00  0.00     0.200 A 
ATOM     71  F   UNL A   1      39.003  25.010  27.650  1.00  0.00    -0.200 F 
ATOM     72  F   UNL A   1      40.430  25.860  25.487  1.00  0.00    -0.200 F 
ENDBRANCH  48  62
BRANCH  49  73
ATOM     73  C   UNL A   1      39.453  34.074  36.996  1.00  0.00     0.064 A 
ATOM     74  C   UNL A   1      40.141  35.291  37.107  1.00  0.00     0.173 A 
ATOM     75  C   UNL A   1      38.661  33.671  38.080  1.00  0.00     0.173 A 
ATOM     76  F   UNL A   1      40.923  35.715  36.103  1.00  0.00    -0.203 F 
ATOM     77  C   UNL A   1      40.060  36.061  38.265  1.00  0.00     0.198 A 
ATOM     78  C   UNL A   1      38.559  34.455  39.227  1.00  0.00     0.198 A 
ATOM     79  F   UNL A   1      37.975  32.521  38.016  1.00  0.00    -0.203 F 
ATOM     80  F   UNL A   1      40.762  37.197  38.363  1.00  0.00    -0.200 F 
ATOM     81  C   UNL A   1      39.267  35.644  39.323  1.00  0.00     0.200 A 
ATOM     82  F   UNL A   1      37.778  34.057  40.240  1.00  0.00    -0.200 F 
ATOM     83  F   UNL A   1      39.186  36.386  40.436  1.00  0.00    -0.200 F 
ENDBRANCH  49  73
BRANCH  61  84
ATOM     84  C   UNL A   1      43.537  28.635  35.388  1.00  0.00     0.064 A 
ATOM     85  C   UNL A   1      44.884  28.957  35.160  1.00  0.00     0.173 A 
ATOM     86  C   UNL A   1      43.249  27.576  36.261  1.00  0.00     0.173 A 
ATOM     87  F   UNL A   1      45.209  29.956  34.327  1.00  0.00    -0.203 F 
ATOM     88  C   UNL A   1      45.904  28.232  35.766  1.00  0.00     0.198 A 
ATOM     89  C   UNL A   1      44.273  26.872  36.888  1.00  0.00     0.198 A 
ATOM     90  F   UNL A   1      41.977  27.240  36.517  1.00  0.00    -0.203 F 
ATOM     91  F   UNL A   1      47.184  28.531  35.505  1.00  0.00    -0.200 F 
ATOM     92  C   UNL A   1      45.599  27.192  36.632  1.00  0.00     0.200 A 
ATOM     93  F   UNL A   1      43.976  25.883  37.741  1.00  0.00    -0.200 F 
ATOM     94  F   UNL A   1      46.582  26.499  37.221  1.00  0.00    -0.200 F 
ENDBRANCH  61  84
ENDBRANCH  35  36
ENDBRANCH  27  30
ENDBRANCH  25  26
ENDBRANCH  24  25
ENDBRANCH   1  24
TORSDOF 15
ENDMDL
MODEL 3
REMARK VINA RESULT:     -13.4      0.947      7.370
REMARK SMILES C[C@@](O)(CNC(=O)Cc1ccc(F)cc1F)C(=O)NCCCNC(=O)c1ccc(-c2c3nc(c(-c4c(F)c(F)c(F)c(F)c4F)c4ccc([nH]4)c(-c4c(F)c(F)c(F)c(F)c4F)c4nc(c(-c5c(F)c(F)c(F)c(F)c5F)c5ccc2[nH]5)C=C4)C=C3)cc1
REMARK SMILES IDX 20 1 19 2 17 3 18 4 2 6 1 7 3 8 4 10 5 11 6 12 7 14 8 15
REMARK SMILES IDX 9 16 10 17 15 18 11 19 14 20 16 21 12 22 13 23 21 24 22 25
REMARK SMILES IDX 23 26 24 27 25 29 26 30 27 31 88 32 28 33 87 34 29 35 30 36
REMARK SMILES IDX 31 37 81 38 32 39 86 40 80 41 82 42 33 43 85 44 79 45 78 46
REMARK SMILES IDX 34 48 66 49 46 50 65 51 47 52 50 53 64 54 83 55 48 56 49 57
REMARK SMILES IDX 63 59 84 60 51 61 35 62 36 63 44 64 37 65 38 66 42 67 45 68
REMARK SMILES IDX 39 69 40 70 43 71 41 72 67 73 68 74 76 75 69 76 70 77 74 78
REMARK SMILES IDX 77 79 71 80 72 81 75 82 73 83 52 84 53 85 61 86 54 87 55 88
REMARK SMILES IDX 59 89 62 90 56 91 57 92 60 93 58 94
REMARK H PARENT 19 5 3 9 5 13 23 28 82 47 50 58
REMARK Flexibility Score: inf
ROOT
ATOM      1  C   UNL A   1      34.671  29.484  27.583  1.00  0.00     0.117 C 
ENDROOT
BRANCH   1   2
ATOM      2  N   UNL A   1      33.569  28.645  28.018  1.00  0.00    -0.353 N 
ATOM      3  C   UNL A   1      32.482  28.194  27.330  1.00  0.00     0.253 C 
ATOM      4  O   UNL A   1      31.524  27.824  28.016  1.00  0.00    -0.272 OA
ATOM      5  H   UNL A   1      33.614  28.357  28.958  1.00  0.00     0.163 HD
BRANCH   3   6
ATOM      6  C   UNL A   1      32.492  28.033  25.777  1.00  0.00     0.157 C 
ATOM      7  C   UNL A   1      33.938  27.690  25.374  1.00  0.00     0.055 C 
BRANCH   6   8
ATOM      8  O   UNL A   1      32.206  29.306  25.166  1.00  0.00    -0.378 OA
ATOM      9  H   UNL A   1      32.224  30.001  25.844  1.00  0.00     0.212 HD
ENDBRANCH   6   8
BRANCH   6  10
ATOM     10  C   UNL A   1      31.510  26.993  25.160  1.00  0.00     0.160 C 
BRANCH  10  11
ATOM     11  N   UNL A   1      31.140  25.857  26.003  1.00  0.00    -0.352 N 
ATOM     12  C   UNL A   1      31.856  24.784  26.460  1.00  0.00     0.224 C 
ATOM     13  H   UNL A   1      30.200  25.866  26.297  1.00  0.00     0.163 HD
ATOM     14  O   UNL A   1      31.339  24.085  27.336  1.00  0.00    -0.275 OA
BRANCH  12  15
ATOM     15  C   UNL A   1      33.249  24.451  25.938  1.00  0.00     0.138 C 
BRANCH  15  16
ATOM     16  C   UNL A   1      33.358  23.120  25.210  1.00  0.00    -0.003 A 
ATOM     17  C   UNL A   1      32.671  23.019  23.539  1.00  0.00     0.010 A 
ATOM     18  C   UNL A   1      33.627  21.613  26.167  1.00  0.00     0.129 A 
ATOM     19  C   UNL A   1      32.215  21.408  22.847  1.00  0.00     0.040 A 
ATOM     20  C   UNL A   1      33.201  20.007  25.476  1.00  0.00     0.078 A 
ATOM     21  F   UNL A   1      34.109  21.683  27.412  1.00  0.00    -0.207 F 
ATOM     22  C   UNL A   1      32.447  19.911  23.836  1.00  0.00     0.126 A 
ATOM     23  F   UNL A   1      32.106  18.716  23.339  1.00  0.00    -0.207 F 
ENDBRANCH  15  16
ENDBRANCH  12  15
ENDBRANCH  10  11
ENDBRANCH   6  10
ENDBRANCH   3   6
ENDBRANCH   1   2
BRANCH   1  24
ATOM     24  C   UNL A   1      34.344  31.147  27.669  1.00  0.00     0.042 C 
BRANCH  24  25
ATOM     25  C   UNL A   1      32.624  32.486  27.471  1.00  0.00     0.118 C 
BRANCH  25  26
ATOM     26  N   UNL A   1      32.517  34.090  27.667  1.00  0.00    -0.352 N 
ATOM     27  C   UNL A   1      33.021  34.942  28.610  1.00  0.00     0.251 C 
ATOM     28  H   UNL A   1      31.984  34.539  26.972  1.00  0.00     0.163 HD
ATOM     29  O   UNL A   1      32.500  36.038  28.793  1.00  0.00    -0.269 OA
BRANCH  27  30
ATOM     30  C   UNL A   1      34.233  34.588  29.357  1.00  0.00     0.039 A 
ATOM     31  C   UNL A   1      35.476  34.664  28.723  1.00  0.00     0.014 A 
ATOM     32  C   UNL A   1      34.107  34.003  30.620  1.00  0.00     0.014 A 
ATOM     33  C   UNL A   1      36.599  34.133  29.353  1.00  0.00     0.010 A 
ATOM     34  C   UNL A   1      35.233  33.529  31.272  1.00  0.00     0.010 A 
ATOM     35  C   UNL A   1      36.477  33.552  30.624  1.00  0.00    -0.014 A 
BRANCH  35  36
ATOM     36  C   UNL A   1      37.615  32.872  31.276  1.00  0.00     0.031 A 
ATOM     37  C   UNL A   1      38.292  31.732  30.570  1.00  0.00     0.074 A 
ATOM     38  C   UNL A   1      37.975  33.232  32.519  1.00  0.00     0.049 A 
ATOM     39  N   UNL A   1      39.202  30.906  31.014  1.00  0.00    -0.248 NA
ATOM     40  C   UNL A   1      37.860  31.464  29.186  1.00  0.00     0.031 C 
ATOM     41  C   UNL A   1      37.364  34.313  33.292  1.00  0.00     0.029 A 
ATOM     42  N   UNL A   1      38.926  32.714  33.357  1.00  0.00    -0.354 N 
ATOM     43  C   UNL A   1      39.432  30.008  29.978  1.00  0.00     0.074 A 
ATOM     44  C   UNL A   1      38.535  30.362  28.900  1.00  0.00     0.031 C 
ATOM     45  C   UNL A   1      37.963  34.384  34.491  1.00  0.00     0.029 A 
ATOM     46  C   UNL A   1      38.967  33.328  34.583  1.00  0.00     0.049 A 
ATOM     47  H   UNL A   1      39.522  31.973  33.104  1.00  0.00     0.167 HD
ATOM     48  C   UNL A   1      40.327  28.995  29.933  1.00  0.00     0.037 A 
ATOM     49  C   UNL A   1      39.724  33.055  35.661  1.00  0.00     0.037 A 
ATOM     50  C   UNL A   1      41.235  28.685  31.005  1.00  0.00     0.049 A 
ATOM     51  C   UNL A   1      40.713  31.925  35.585  1.00  0.00     0.074 A 
ATOM     52  C   UNL A   1      42.222  27.718  31.047  1.00  0.00     0.029 A 
ATOM     53  N   UNL A   1      41.266  29.346  32.225  1.00  0.00    -0.354 N 
ATOM     54  N   UNL A   1      40.953  31.105  34.589  1.00  0.00    -0.248 NA
ATOM     55  C   UNL A   1      41.538  31.684  36.775  1.00  0.00     0.031 C 
ATOM     56  C   UNL A   1      42.822  27.765  32.309  1.00  0.00     0.029 A 
ATOM     57  C   UNL A   1      42.246  28.796  33.034  1.00  0.00     0.049 A 
ATOM     58  H   UNL A   1      40.678  30.094  32.478  1.00  0.00     0.167 HD
ATOM     59  C   UNL A   1      41.971  30.266  35.022  1.00  0.00     0.074 A 
ATOM     60  C   UNL A   1      42.311  30.686  36.367  1.00  0.00     0.031 C 
ATOM     61  C   UNL A   1      42.568  29.240  34.368  1.00  0.00     0.037 A 
BRANCH  48  62
ATOM     62  C   UNL A   1      40.380  28.157  28.688  1.00  0.00     0.064 A 
ATOM     63  C   UNL A   1      39.707  26.926  28.627  1.00  0.00     0.173 A 
ATOM     64  C   UNL A   1      41.144  28.538  27.575  1.00  0.00     0.173 A 
ATOM     65  F   UNL A   1      38.965  26.509  29.665  1.00  0.00    -0.203 F 
ATOM     66  C   UNL A   1      39.805  26.108  27.505  1.00  0.00     0.198 A 
ATOM     67  C   UNL A   1      41.216  27.731  26.441  1.00  0.00     0.198 A 
ATOM     68  F   UNL A   1      41.799  29.709  27.574  1.00  0.00    -0.203 F 
ATOM     69  F   UNL A   1      39.179  24.924  27.485  1.00  0.00    -0.200 F 
ATOM     70  C   UNL A   1      40.555  26.513  26.412  1.00  0.00     0.200 A 
ATOM     71  F   UNL A   1      41.920  28.137  25.376  1.00  0.00    -0.200 F 
ATOM     72  F   UNL A   1      40.639  25.730  25.327  1.00  0.00    -0.200 F 
ENDBRANCH  48  62
BRANCH  49  73
ATOM     73  C   UNL A   1      39.592  33.898  36.876  1.00  0.00     0.064 A 
ATOM     74  C   UNL A   1      38.781  33.511  37.954  1.00  0.00     0.173 A 
ATOM     75  C   UNL A   1      40.231  35.142  36.954  1.00  0.00     0.173 A 
ATOM     76  F   UNL A   1      38.136  32.336  37.921  1.00  0.00    -0.203 F 
ATOM     77  C   UNL A   1      38.599  34.348  39.052  1.00  0.00     0.198 A 
ATOM     78  C   UNL A   1      40.069  35.966  38.066  1.00  0.00     0.198 A 
ATOM     79  F   UNL A   1      41.026  35.549  35.954  1.00  0.00    -0.203 F 
ATOM     80  F   UNL A   1      37.784  33.975  40.048  1.00  0.00    -0.200 F 
ATOM     81  C   UNL A   1      39.245  35.573  39.109  1.00  0.00     0.200 A 
ATOM     82  F   UNL A   1      40.710  37.141  38.123  1.00  0.00    -0.200 F 
ATOM     83  F   UNL A   1      39.072  36.376  40.168  1.00  0.00    -0.200 F 
ENDBRANCH  49  73
BRANCH  61  84
ATOM     84  C   UNL A   1      43.668  28.512  35.081  1.00  0.00     0.064 A 
ATOM     85  C   UNL A   1      43.368  27.456  35.955  1.00  0.00     0.173 A 
ATOM     86  C   UNL A   1      45.006  28.915  34.967  1.00  0.00     0.173 A 
ATOM     87  F   UNL A   1      42.101  27.041  36.104  1.00  0.00    -0.203 F 
ATOM     88  C   UNL A   1      44.366  26.841  36.702  1.00  0.00     0.198 A 
ATOM     89  C   UNL A   1      46.006  28.278  35.695  1.00  0.00     0.198 A 
ATOM     90  F   UNL A   1      45.341  29.913  34.136  1.00  0.00    -0.203 F 
ATOM     91  F   UNL A   1      44.052  25.859  37.559  1.00  0.00    -0.200 F 
ATOM     92  C   UNL A   1      45.685  27.249  36.570  1.00  0.00     0.200 A 
ATOM     93  F   UNL A   1      47.282  28.658  35.549  1.00  0.00    -0.200 F 
ATOM     94  F   UNL A   1      46.647  26.652  37.285  1.00  0.00    -0.200 F 
ENDBRANCH  61  84
ENDBRANCH  35  36
ENDBRANCH  27  30
ENDBRANCH  25  26
ENDBRANCH  24  25
ENDBRANCH   1  24
TORSDOF 15
ENDMDL
