MODEL 1
REMARK VINA RESULT:     -11.6      0.000      0.000
REMARK SMILES CCCC(O)(CCC)[C@@]1(C)CC[C@@H](C(=O)NCCCNC(=O)c2ccc(-c3c4nc(c(-c5c(F)c(F)c(F)c(F)c5F)c5ccc([nH]5)c(-c5c(F)c(F)c(F)c(F)c5F)c5nc(c(-c6c(F)c(F)c(F)c(F)c6F)c6ccc3[nH]6)C=C5)C=C4)cc2)C(C)(C)O1
REMARK SMILES IDX 17 1 16 2 14 3 15 4 13 6 9 7 10 8 11 9 89 10 12 11 86 12
REMARK SMILES IDX 87 13 88 14 4 15 3 16 2 17 1 18 5 19 6 21 7 22 8 23 18 24
REMARK SMILES IDX 19 25 20 26 21 27 22 29 23 30 24 31 85 32 25 33 84 34 26 35
REMARK SMILES IDX 27 36 28 37 78 38 29 39 83 40 77 41 79 42 30 43 82 44 76 45
REMARK SMILES IDX 75 46 31 48 63 49 43 50 62 51 44 52 47 53 61 54 80 55 45 56
REMARK SMILES IDX 46 57 60 59 81 60 48 61 32 62 33 63 41 64 34 65 35 66 39 67
REMARK SMILES IDX 42 68 36 69 37 70 40 71 38 72 64 73 65 74 73 75 66 76 67 77
REMARK SMILES IDX 71 78 74 79 68 80 69 81 72 82 70 83 49 84 50 85 58 86 51 87
REMARK SMILES IDX 52 88 56 89 59 90 53 91 54 92 57 93 55 94
REMARK H PARENT 16 5 5 20 20 28 79 47 47 58
REMARK Flexibility Score: inf
ROOT
ATOM      1  C   UNL A   1      32.415  28.485  23.540  1.00  0.00     0.117 C 
ENDROOT
BRANCH   1   2
ATOM      2  N   UNL A   1      33.091  27.520  22.688  1.00  0.00    -0.356 N 
ATOM      3  C   UNL A   1      33.423  26.213  22.852  1.00  0.00     0.226 C 
ATOM      4  O   UNL A   1      34.028  25.688  21.909  1.00  0.00    -0.275 OA
ATOM      5  H   UNL A   1      33.363  27.888  21.815  1.00  0.00     0.163 HD
BRANCH   3   6
ATOM      6  C   UNL A   1      33.126  25.388  24.110  1.00  0.00     0.110 C 
ATOM      7  C   UNL A   1      33.635  23.104  25.973  1.00  0.00     0.095 C 
ATOM      8  C   UNL A   1      32.918  22.487  27.201  1.00  0.00     0.045 C 
ATOM      9  C   UNL A   1      33.904  24.577  26.359  1.00  0.00     0.039 C 
ATOM     10  O   UNL A   1      32.611  23.067  24.962  1.00  0.00    -0.366 OA
ATOM     11  C   UNL A   1      34.175  25.521  25.205  1.00  0.00     0.019 C 
ATOM     12  C   UNL A   1      32.578  23.962  23.839  1.00  0.00     0.075 C 
ATOM     13  C   UNL A   1      33.172  23.251  22.626  1.00  0.00     0.043 C 
ATOM     14  C   UNL A   1      31.064  24.080  23.523  1.00  0.00     0.043 C 
BRANCH   7  15
ATOM     15  C   UNL A   1      34.927  22.230  25.595  1.00  0.00     0.093 C 
BRANCH  15  16
ATOM     16  C   UNL A   1      34.675  21.019  24.626  1.00  0.00     0.038 C 
BRANCH  16  17
ATOM     17  C   UNL A   1      33.806  19.831  25.078  1.00  0.00    -0.000 C 
ATOM     18  C   UNL A   1      32.532  19.641  24.268  1.00  0.00     0.004 C 
ENDBRANCH  16  17
ENDBRANCH  15  16
BRANCH  15  19
ATOM     19  O   UNL A   1      35.509  21.685  26.800  1.00  0.00    -0.387 OA
ATOM     20  H   UNL A   1      35.988  20.869  26.587  1.00  0.00     0.211 HD
ENDBRANCH  15  19
BRANCH  15  21
ATOM     21  C   UNL A   1      36.135  23.048  25.009  1.00  0.00     0.038 C 
BRANCH  21  22
ATOM     22  C   UNL A   1      37.553  22.853  25.546  1.00  0.00    -0.000 C 
ATOM     23  C   UNL A   1      38.100  24.078  26.269  1.00  0.00     0.004 C 
ENDBRANCH  21  22
ENDBRANCH  15  21
ENDBRANCH   7  15
ENDBRANCH   3   6
ENDBRANCH   1   2
BRANCH   1  24
ATOM     24  C   UNL A   1      33.332  29.142  24.561  1.00  0.00     0.042 C 
BRANCH  24  25
ATOM     25  C   UNL A   1      32.698  29.340  25.921  1.00  0.00     0.118 C 
BRANCH  25  26
ATOM     26  N   UNL A   1      32.516  30.746  26.238  1.00  0.00    -0.352 N 
ATOM     27  C   UNL A   1      33.201  31.547  27.118  1.00  0.00     0.251 C 
ATOM     28  H   UNL A   1      31.789  31.193  25.747  1.00  0.00     0.163 HD
ATOM     29  O   UNL A   1      32.741  32.646  27.410  1.00  0.00    -0.269 OA
BRANCH  27  30
ATOM     30  C   UNL A   1      34.482  31.105  27.723  1.00  0.00     0.039 A 
ATOM     31  C   UNL A   1      34.617  29.766  28.105  1.00  0.00     0.014 A 
ATOM     32  C   UNL A   1      35.524  32.000  27.982  1.00  0.00     0.014 A 
ATOM     33  C   UNL A   1      35.793  29.330  28.721  1.00  0.00     0.010 A 
ATOM     34  C   UNL A   1      36.736  31.542  28.489  1.00  0.00     0.010 A 
ATOM     35  C   UNL A   1      36.869  30.212  28.907  1.00  0.00    -0.014 A 
BRANCH  35  36
ATOM     36  C   UNL A   1      38.100  29.787  29.622  1.00  0.00     0.031 A 
ATOM     37  C   UNL A   1      38.371  30.299  31.013  1.00  0.00     0.074 A 
ATOM     38  C   UNL A   1      38.986  28.973  29.017  1.00  0.00     0.049 A 
ATOM     39  N   UNL A   1      39.398  30.076  31.795  1.00  0.00    -0.248 NA
ATOM     40  C   UNL A   1      37.370  31.210  31.593  1.00  0.00     0.031 C 
ATOM     41  C   UNL A   1      38.867  28.455  27.654  1.00  0.00     0.029 A 
ATOM     42  N   UNL A   1      40.164  28.438  29.475  1.00  0.00    -0.354 N 
ATOM     43  C   UNL A   1      39.176  30.837  32.936  1.00  0.00     0.074 A 
ATOM     44  C   UNL A   1      37.952  31.575  32.724  1.00  0.00     0.031 C 
ATOM     45  C   UNL A   1      39.910  27.649  27.397  1.00  0.00     0.029 A 
ATOM     46  C   UNL A   1      40.784  27.616  28.567  1.00  0.00     0.049 A 
ATOM     47  H   UNL A   1      40.529  28.626  30.370  1.00  0.00     0.167 HD
ATOM     48  C   UNL A   1      39.907  30.891  34.075  1.00  0.00     0.037 A 
ATOM     49  C   UNL A   1      41.926  26.910  28.673  1.00  0.00     0.037 A 
ATOM     50  C   UNL A   1      41.096  30.115  34.307  1.00  0.00     0.049 A 
ATOM     51  C   UNL A   1      42.702  26.958  29.961  1.00  0.00     0.074 A 
ATOM     52  C   UNL A   1      41.869  30.040  35.451  1.00  0.00     0.029 A 
ATOM     53  N   UNL A   1      41.677  29.271  33.372  1.00  0.00    -0.354 N 
ATOM     54  N   UNL A   1      42.444  27.627  31.059  1.00  0.00    -0.248 NA
ATOM     55  C   UNL A   1      43.924  26.145  30.027  1.00  0.00     0.031 C 
ATOM     56  C   UNL A   1      42.939  29.174  35.198  1.00  0.00     0.029 A 
ATOM     57  C   UNL A   1      42.809  28.681  33.909  1.00  0.00     0.049 A 
ATOM     58  H   UNL A   1      41.336  29.114  32.462  1.00  0.00     0.167 HD
ATOM     59  C   UNL A   1      43.456  27.299  31.951  1.00  0.00     0.074 A 
ATOM     60  C   UNL A   1      44.321  26.356  31.274  1.00  0.00     0.031 C 
ATOM     61  C   UNL A   1      43.652  27.741  33.218  1.00  0.00     0.037 A 
BRANCH  48  62
ATOM     62  C   UNL A   1      39.429  31.808  35.163  1.00  0.00     0.064 A 
ATOM     63  C   UNL A   1      38.593  31.352  36.195  1.00  0.00     0.173 A 
ATOM     64  C   UNL A   1      39.828  33.153  35.188  1.00  0.00     0.173 A 
ATOM     65  F   UNL A   1      38.170  30.079  36.207  1.00  0.00    -0.203 F 
ATOM     66  C   UNL A   1      38.148  32.216  37.192  1.00  0.00     0.198 A 
ATOM     67  C   UNL A   1      39.406  34.006  36.205  1.00  0.00     0.198 A 
ATOM     68  F   UNL A   1      40.630  33.639  34.230  1.00  0.00    -0.203 F 
ATOM     69  F   UNL A   1      37.308  31.770  38.135  1.00  0.00    -0.200 F 
ATOM     70  C   UNL A   1      38.560  33.540  37.200  1.00  0.00     0.200 A 
ATOM     71  F   UNL A   1      39.814  35.283  36.219  1.00  0.00    -0.200 F 
ATOM     72  F   UNL A   1      38.136  34.369  38.164  1.00  0.00    -0.200 F 
ENDBRANCH  48  62
BRANCH  49  73
ATOM     73  C   UNL A   1      42.379  26.061  27.541  1.00  0.00     0.064 A 
ATOM     74  C   UNL A   1      41.840  24.782  27.344  1.00  0.00     0.173 A 
ATOM     75  C   UNL A   1      43.355  26.505  26.638  1.00  0.00     0.173 A 
ATOM     76  F   UNL A   1      40.919  24.305  28.194  1.00  0.00    -0.203 F 
ATOM     77  C   UNL A   1      42.273  23.971  26.296  1.00  0.00     0.198 A 
ATOM     78  C   UNL A   1      43.769  25.704  25.575  1.00  0.00     0.198 A 
ATOM     79  F   UNL A   1      43.898  27.722  26.782  1.00  0.00    -0.203 F 
ATOM     80  F   UNL A   1      41.771  22.737  26.155  1.00  0.00    -0.200 F 
ATOM     81  C   UNL A   1      43.233  24.435  25.410  1.00  0.00     0.200 A 
ATOM     82  F   UNL A   1      44.688  26.160  24.714  1.00  0.00    -0.200 F 
ATOM     83  F   UNL A   1      43.647  23.658  24.400  1.00  0.00    -0.200 F 
ENDBRANCH  49  73
BRANCH  61  84
ATOM     84  C   UNL A   1      44.837  27.195  33.957  1.00  0.00     0.064 A 
ATOM     85  C   UNL A   1      44.748  26.018  34.713  1.00  0.00     0.173 A 
ATOM     86  C   UNL A   1      46.082  27.836  33.877  1.00  0.00     0.173 A 
ATOM     87  F   UNL A   1      43.575  25.378  34.831  1.00  0.00    -0.203 F 
ATOM     88  C   UNL A   1      45.859  25.514  35.384  1.00  0.00     0.198 A 
ATOM     89  C   UNL A   1      47.197  27.315  34.526  1.00  0.00     0.198 A 
ATOM     90  F   UNL A   1      46.219  28.961  33.159  1.00  0.00    -0.203 F 
ATOM     91  F   UNL A   1      45.743  24.413  36.138  1.00  0.00    -0.200 F 
ATOM     92  C   UNL A   1      47.084  26.160  35.284  1.00  0.00     0.200 A 
ATOM     93  F   UNL A   1      48.383  27.932  34.420  1.00  0.00    -0.200 F 
ATOM     94  F   UNL A   1      48.153  25.671  35.927  1.00  0.00    -0.200 F 
ENDBRANCH  61  84
ENDBRANCH  35  36
ENDBRANCH  27  30
ENDBRANCH  25  26
ENDBRANCH  24  25
ENDBRANCH   1  24
TORSDOF 16
ENDMDL
MODEL 2
REMARK VINA RESULT:     -11.6      2.101      8.133
REMARK SMILES CCCC(O)(CCC)[C@@]1(C)CC[C@@H](C(=O)NCCCNC(=O)c2ccc(-c3c4nc(c(-c5c(F)c(F)c(F)c(F)c5F)c5ccc([nH]5)c(-c5c(F)c(F)c(F)c(F)c5F)c5nc(c(-c6c(F)c(F)c(F)c(F)c6F)c6ccc3[nH]6)C=C5)C=C4)cc2)C(C)(C)O1
REMARK SMILES IDX 17 1 16 2 14 3 15 4 13 6 9 7 10 8 11 9 89 10 12 11 86 12
REMARK SMILES IDX 87 13 88 14 4 15 3 16 2 17 1 18 5 19 6 21 7 22 8 23 18 24
REMARK SMILES IDX 19 25 20 26 21 27 22 29 23 30 24 31 85 32 25 33 84 34 26 35
REMARK SMILES IDX 27 36 28 37 78 38 29 39 83 40 77 41 79 42 30 43 82 44 76 45
REMARK SMILES IDX 75 46 31 48 63 49 43 50 62 51 44 52 47 53 61 54 80 55 45 56
REMARK SMILES IDX 46 57 60 59 81 60 48 61 32 62 33 63 41 64 34 65 35 66 39 67
REMARK SMILES IDX 42 68 36 69 37 70 40 71 38 72 64 73 65 74 73 75 66 76 67 77
REMARK SMILES IDX 71 78 74 79 68 80 69 81 72 82 70 83 49 84 50 85 58 86 51 87
REMARK SMILES IDX 52 88 56 89 59 90 53 91 54 92 57 93 55 94
REMARK H PARENT 16 5 5 20 20 28 79 47 47 58
REMARK Flexibility Score: inf
ROOT
ATOM      1  C   UNL A   1      31.367  30.852  26.153  1.00  0.00     0.117 C 
ENDROOT
BRANCH   1   2
ATOM      2  N   UNL A   1      32.664  30.221  26.329  1.00  0.00    -0.356 N 
ATOM      3  C   UNL A   1      33.138  28.981  26.035  1.00  0.00     0.226 C 
ATOM      4  O   UNL A   1      34.316  28.767  26.347  1.00  0.00    -0.275 OA
ATOM      5  H   UNL A   1      33.336  30.810  26.744  1.00  0.00     0.163 HD
BRANCH   3   6
ATOM      6  C   UNL A   1      32.314  27.862  25.388  1.00  0.00     0.110 C 
ATOM      7  C   UNL A   1      32.037  25.240  23.975  1.00  0.00     0.095 C 
ATOM      8  C   UNL A   1      30.883  24.455  23.300  1.00  0.00     0.045 C 
ATOM      9  C   UNL A   1      31.576  25.459  25.435  1.00  0.00     0.039 C 
ATOM     10  O   UNL A   1      32.005  26.502  23.283  1.00  0.00    -0.366 OA
ATOM     11  C   UNL A   1      32.282  26.569  26.189  1.00  0.00     0.019 C 
ATOM     12  C   UNL A   1      32.491  27.728  23.852  1.00  0.00     0.075 C 
ATOM     13  C   UNL A   1      33.901  27.987  23.330  1.00  0.00     0.043 C 
ATOM     14  C   UNL A   1      31.613  28.809  23.169  1.00  0.00     0.043 C 
BRANCH   7  15
ATOM     15  C   UNL A   1      33.422  24.451  23.788  1.00  0.00     0.093 C 
BRANCH  15  16
ATOM     16  C   UNL A   1      34.519  24.726  24.879  1.00  0.00     0.038 C 
BRANCH  16  17
ATOM     17  C   UNL A   1      35.917  24.093  24.749  1.00  0.00    -0.000 C 
ATOM     18  C   UNL A   1      36.437  23.453  26.028  1.00  0.00     0.004 C 
ENDBRANCH  16  17
ENDBRANCH  15  16
BRANCH  15  19
ATOM     19  O   UNL A   1      34.006  24.799  22.513  1.00  0.00    -0.387 OA
ATOM     20  H   UNL A   1      33.745  25.702  22.274  1.00  0.00     0.211 HD
ENDBRANCH  15  19
BRANCH  15  21
ATOM     21  C   UNL A   1      33.286  22.891  23.653  1.00  0.00     0.038 C 
BRANCH  21  22
ATOM     22  C   UNL A   1      33.068  22.010  24.883  1.00  0.00    -0.000 C 
ATOM     23  C   UNL A   1      33.912  20.741  24.876  1.00  0.00     0.004 C 
ENDBRANCH  21  22
ENDBRANCH  15  21
ENDBRANCH   7  15
ENDBRANCH   3   6
ENDBRANCH   1   2
BRANCH   1  24
ATOM     24  C   UNL A   1      31.381  32.352  26.409  1.00  0.00     0.042 C 
BRANCH  24  25
ATOM     25  C   UNL A   1      32.536  32.820  27.267  1.00  0.00     0.118 C 
BRANCH  25  26
ATOM     26  N   UNL A   1      32.415  34.222  27.628  1.00  0.00    -0.352 N 
ATOM     27  C   UNL A   1      33.012  34.925  28.646  1.00  0.00     0.251 C 
ATOM     28  H   UNL A   1      31.811  34.749  27.056  1.00  0.00     0.163 HD
ATOM     29  O   UNL A   1      32.596  36.046  28.923  1.00  0.00    -0.269 OA
BRANCH  27  30
ATOM     30  C   UNL A   1      34.142  34.352  29.417  1.00  0.00     0.039 A 
ATOM     31  C   UNL A   1      35.438  34.490  28.910  1.00  0.00     0.014 A 
ATOM     32  C   UNL A   1      33.940  33.624  30.593  1.00  0.00     0.014 A 
ATOM     33  C   UNL A   1      36.520  33.920  29.589  1.00  0.00     0.010 A 
ATOM     34  C   UNL A   1      35.026  33.157  31.328  1.00  0.00     0.010 A 
ATOM     35  C   UNL A   1      36.323  33.259  30.812  1.00  0.00    -0.014 A 
BRANCH  35  36
ATOM     36  C   UNL A   1      37.448  32.587  31.513  1.00  0.00     0.031 A 
ATOM     37  C   UNL A   1      38.162  31.438  30.850  1.00  0.00     0.074 A 
ATOM     38  C   UNL A   1      37.805  32.981  32.749  1.00  0.00     0.049 A 
ATOM     39  N   UNL A   1      39.144  30.697  31.302  1.00  0.00    -0.248 NA
ATOM     40  C   UNL A   1      37.691  31.046  29.510  1.00  0.00     0.031 C 
ATOM     41  C   UNL A   1      37.156  34.041  33.521  1.00  0.00     0.029 A 
ATOM     42  N   UNL A   1      38.807  32.533  33.575  1.00  0.00    -0.354 N 
ATOM     43  C   UNL A   1      39.383  29.745  30.319  1.00  0.00     0.074 A 
ATOM     44  C   UNL A   1      38.407  29.958  29.274  1.00  0.00     0.031 C 
ATOM     45  C   UNL A   1      37.797  34.187  34.693  1.00  0.00     0.029 A 
ATOM     46  C   UNL A   1      38.883  33.213  34.765  1.00  0.00     0.049 A 
ATOM     47  H   UNL A   1      39.413  31.795  33.335  1.00  0.00     0.167 HD
ATOM     48  C   UNL A   1      40.349  28.798  30.272  1.00  0.00     0.037 A 
ATOM     49  C   UNL A   1      39.739  33.069  35.794  1.00  0.00     0.037 A 
ATOM     50  C   UNL A   1      41.353  28.621  31.286  1.00  0.00     0.049 A 
ATOM     51  C   UNL A   1      40.828  32.034  35.704  1.00  0.00     0.074 A 
ATOM     52  C   UNL A   1      42.421  27.741  31.302  1.00  0.00     0.029 A 
ATOM     53  N   UNL A   1      41.414  29.349  32.466  1.00  0.00    -0.354 N 
ATOM     54  N   UNL A   1      41.087  31.186  34.737  1.00  0.00    -0.248 NA
ATOM     55  C   UNL A   1      41.749  31.942  36.845  1.00  0.00     0.031 C 
ATOM     56  C   UNL A   1      43.110  27.915  32.508  1.00  0.00     0.029 A 
ATOM     57  C   UNL A   1      42.494  28.929  33.223  1.00  0.00     0.049 A 
ATOM     58  H   UNL A   1      40.784  30.059  32.725  1.00  0.00     0.167 HD
ATOM     59  C   UNL A   1      42.210  30.478  35.142  1.00  0.00     0.074 A 
ATOM     60  C   UNL A   1      42.595  31.008  36.433  1.00  0.00     0.031 C 
ATOM     61  C   UNL A   1      42.862  29.475  34.504  1.00  0.00     0.037 A 
BRANCH  48  62
ATOM     62  C   UNL A   1      40.377  27.893  29.075  1.00  0.00     0.064 A 
ATOM     63  C   UNL A   1      41.151  28.193  27.943  1.00  0.00     0.173 A 
ATOM     64  C   UNL A   1      39.637  26.700  29.065  1.00  0.00     0.173 A 
ATOM     65  F   UNL A   1      41.864  29.328  27.896  1.00  0.00    -0.203 F 
ATOM     66  C   UNL A   1      41.160  27.350  26.836  1.00  0.00     0.198 A 
ATOM     67  C   UNL A   1      39.672  25.845  27.967  1.00  0.00     0.198 A 
ATOM     68  F   UNL A   1      38.883  26.363  30.122  1.00  0.00    -0.203 F 
ATOM     69  F   UNL A   1      41.866  27.684  25.747  1.00  0.00    -0.200 F 
ATOM     70  C   UNL A   1      40.425  26.174  26.851  1.00  0.00     0.200 A 
ATOM     71  F   UNL A   1      38.971  24.702  27.987  1.00  0.00    -0.200 F 
ATOM     72  F   UNL A   1      40.438  25.361  25.785  1.00  0.00    -0.200 F 
ENDBRANCH  48  62
BRANCH  49  73
ATOM     73  C   UNL A   1      39.630  33.959  36.979  1.00  0.00     0.064 A 
ATOM     74  C   UNL A   1      40.277  35.202  37.003  1.00  0.00     0.173 A 
ATOM     75  C   UNL A   1      38.883  33.587  38.106  1.00  0.00     0.173 A 
ATOM     76  F   UNL A   1      41.020  35.591  35.957  1.00  0.00    -0.203 F 
ATOM     77  C   UNL A   1      40.195  36.035  38.119  1.00  0.00     0.198 A 
ATOM     78  C   UNL A   1      38.781  34.432  39.210  1.00  0.00     0.198 A 
ATOM     79  F   UNL A   1      38.243  32.410  38.129  1.00  0.00    -0.203 F 
ATOM     80  F   UNL A   1      40.857  37.200  38.131  1.00  0.00    -0.200 F 
ATOM     81  C   UNL A   1      39.443  35.651  39.218  1.00  0.00     0.200 A 
ATOM     82  F   UNL A   1      38.044  34.064  40.266  1.00  0.00    -0.200 F 
ATOM     83  F   UNL A   1      39.361  36.453  40.289  1.00  0.00    -0.200 F 
ENDBRANCH  49  73
BRANCH  61  84
ATOM     84  C   UNL A   1      44.070  28.903  35.184  1.00  0.00     0.064 A 
ATOM     85  C   UNL A   1      45.352  29.424  34.959  1.00  0.00     0.173 A 
ATOM     86  C   UNL A   1      43.937  27.847  36.097  1.00  0.00     0.173 A 
ATOM     87  F   UNL A   1      45.530  30.425  34.084  1.00  0.00    -0.203 F 
ATOM     88  C   UNL A   1      46.463  28.892  35.607  1.00  0.00     0.198 A 
ATOM     89  C   UNL A   1      45.046  27.335  36.764  1.00  0.00     0.198 A 
ATOM     90  F   UNL A   1      42.731  27.319  36.351  1.00  0.00    -0.203 F 
ATOM     91  F   UNL A   1      47.685  29.375  35.344  1.00  0.00    -0.200 F 
ATOM     92  C   UNL A   1      46.308  27.853  36.513  1.00  0.00     0.200 A 
ATOM     93  F   UNL A   1      44.896  26.339  37.648  1.00  0.00    -0.200 F 
ATOM     94  F   UNL A   1      47.378  27.344  37.139  1.00  0.00    -0.200 F 
ENDBRANCH  61  84
ENDBRANCH  35  36
ENDBRANCH  27  30
ENDBRANCH  25  26
ENDBRANCH  24  25
ENDBRANCH   1  24
TORSDOF 16
ENDMDL
MODEL 3
REMARK VINA RESULT:     -11.6      2.239      3.968
REMARK SMILES CCCC(O)(CCC)[C@@]1(C)CC[C@@H](C(=O)NCCCNC(=O)c2ccc(-c3c4nc(c(-c5c(F)c(F)c(F)c(F)c5F)c5ccc([nH]5)c(-c5c(F)c(F)c(F)c(F)c5F)c5nc(c(-c6c(F)c(F)c(F)c(F)c6F)c6ccc3[nH]6)C=C5)C=C4)cc2)C(C)(C)O1
REMARK SMILES IDX 17 1 16 2 14 3 15 4 13 6 9 7 10 8 11 9 89 10 12 11 86 12
REMARK SMILES IDX 87 13 88 14 4 15 3 16 2 17 1 18 5 19 6 21 7 22 8 23 18 24
REMARK SMILES IDX 19 25 20 26 21 27 22 29 23 30 24 31 85 32 25 33 84 34 26 35
REMARK SMILES IDX 27 36 28 37 78 38 29 39 83 40 77 41 79 42 30 43 82 44 76 45
REMARK SMILES IDX 75 46 31 48 63 49 43 50 62 51 44 52 47 53 61 54 80 55 45 56
REMARK SMILES IDX 46 57 60 59 81 60 48 61 32 62 33 63 41 64 34 65 35 66 39 67
REMARK SMILES IDX 42 68 36 69 37 70 40 71 38 72 64 73 65 74 73 75 66 76 67 77
REMARK SMILES IDX 71 78 74 79 68 80 69 81 72 82 70 83 49 84 50 85 58 86 51 87
REMARK SMILES IDX 52 88 56 89 59 90 53 91 54 92 57 93 55 94
REMARK H PARENT 16 5 5 20 20 28 79 47 47 58
REMARK Flexibility Score: inf
ROOT
ATOM      1  C   UNL A   1      31.618  30.559  26.519  1.00  0.00     0.117 C 
ENDROOT
BRANCH   1   2
ATOM      2  N   UNL A   1      32.794  30.062  27.215  1.00  0.00    -0.356 N 
ATOM      3  C   UNL A   1      33.777  29.191  26.867  1.00  0.00     0.226 C 
ATOM      4  O   UNL A   1      34.634  28.972  27.731  1.00  0.00    -0.275 OA
ATOM      5  H   UNL A   1      32.899  30.430  28.123  1.00  0.00     0.163 HD
BRANCH   3   6
ATOM      6  C   UNL A   1      33.864  28.465  25.519  1.00  0.00     0.110 C 
ATOM      7  C   UNL A   1      32.648  27.206  23.094  1.00  0.00     0.095 C 
ATOM      8  C   UNL A   1      33.163  26.362  21.899  1.00  0.00     0.045 C 
ATOM      9  C   UNL A   1      33.459  28.522  23.038  1.00  0.00     0.039 C 
ATOM     10  O   UNL A   1      33.083  26.439  24.231  1.00  0.00    -0.366 OA
ATOM     11  C   UNL A   1      33.493  29.328  24.321  1.00  0.00     0.019 C 
ATOM     12  C   UNL A   1      33.321  27.012  25.526  1.00  0.00     0.075 C 
ATOM     13  C   UNL A   1      32.094  26.775  26.401  1.00  0.00     0.043 C 
ATOM     14  C   UNL A   1      34.416  26.091  26.126  1.00  0.00     0.043 C 
BRANCH   7  15
ATOM     15  C   UNL A   1      31.053  27.361  23.009  1.00  0.00     0.093 C 
BRANCH  15  16
ATOM     16  C   UNL A   1      30.217  26.180  23.621  1.00  0.00     0.038 C 
BRANCH  16  17
ATOM     17  C   UNL A   1      30.469  24.732  23.162  1.00  0.00    -0.000 C 
ATOM     18  C   UNL A   1      30.746  23.754  24.294  1.00  0.00     0.004 C 
ENDBRANCH  16  17
ENDBRANCH  15  16
BRANCH  15  19
ATOM     19  O   UNL A   1      30.653  27.482  21.626  1.00  0.00    -0.387 OA
ATOM     20  H   UNL A   1      31.436  27.419  21.057  1.00  0.00     0.211 HD
ENDBRANCH  15  19
BRANCH  15  21
ATOM     21  C   UNL A   1      30.481  28.694  23.615  1.00  0.00     0.038 C 
BRANCH  21  22
ATOM     22  C   UNL A   1      29.440  29.521  22.860  1.00  0.00    -0.000 C 
ATOM     23  C   UNL A   1      29.154  30.871  23.505  1.00  0.00     0.004 C 
ENDBRANCH  21  22
ENDBRANCH  15  21
ENDBRANCH   7  15
ENDBRANCH   3   6
ENDBRANCH   1   2
BRANCH   1  24
ATOM     24  C   UNL A   1      31.452  32.069  26.608  1.00  0.00     0.042 C 
BRANCH  24  25
ATOM     25  C   UNL A   1      32.741  32.816  26.877  1.00  0.00     0.118 C 
BRANCH  25  26
ATOM     26  N   UNL A   1      32.504  34.104  27.503  1.00  0.00    -0.352 N 
ATOM     27  C   UNL A   1      33.035  34.636  28.653  1.00  0.00     0.251 C 
ATOM     28  H   UNL A   1      31.864  34.685  27.033  1.00  0.00     0.163 HD
ATOM     29  O   UNL A   1      32.528  35.645  29.136  1.00  0.00    -0.269 OA
BRANCH  27  30
ATOM     30  C   UNL A   1      34.202  34.012  29.322  1.00  0.00     0.039 A 
ATOM     31  C   UNL A   1      35.487  34.380  28.910  1.00  0.00     0.014 A 
ATOM     32  C   UNL A   1      34.052  33.023  30.298  1.00  0.00     0.014 A 
ATOM     33  C   UNL A   1      36.607  33.774  29.488  1.00  0.00     0.010 A 
ATOM     34  C   UNL A   1      35.165  32.506  30.954  1.00  0.00     0.010 A 
ATOM     35  C   UNL A   1      36.456  32.840  30.525  1.00  0.00    -0.014 A 
BRANCH  35  36
ATOM     36  C   UNL A   1      37.628  32.135  31.104  1.00  0.00     0.031 A 
ATOM     37  C   UNL A   1      38.088  32.473  32.499  1.00  0.00     0.074 A 
ATOM     38  C   UNL A   1      38.296  31.222  30.375  1.00  0.00     0.049 A 
ATOM     39  N   UNL A   1      39.105  31.999  33.176  1.00  0.00    -0.248 NA
ATOM     40  C   UNL A   1      37.325  33.505  33.220  1.00  0.00     0.031 C 
ATOM     41  C   UNL A   1      37.985  30.848  28.995  1.00  0.00     0.029 A 
ATOM     42  N   UNL A   1      39.377  30.440  30.697  1.00  0.00    -0.354 N 
ATOM     43  C   UNL A   1      39.114  32.692  34.380  1.00  0.00     0.074 A 
ATOM     44  C   UNL A   1      38.044  33.662  34.320  1.00  0.00     0.031 C 
ATOM     45  C   UNL A   1      38.832  29.884  28.599  1.00  0.00     0.029 A 
ATOM     46  C   UNL A   1      39.762  29.593  29.687  1.00  0.00     0.049 A 
ATOM     47  H   UNL A   1      39.833  30.483  31.568  1.00  0.00     0.167 HD
ATOM     48  C   UNL A   1      39.919  32.516  35.454  1.00  0.00     0.037 A 
ATOM     49  C   UNL A   1      40.751  28.679  29.650  1.00  0.00     0.037 A 
ATOM     50  C   UNL A   1      40.948  31.516  35.534  1.00  0.00     0.049 A 
ATOM     51  C   UNL A   1      41.609  28.476  30.869  1.00  0.00     0.074 A 
ATOM     52  C   UNL A   1      41.770  31.204  36.602  1.00  0.00     0.029 A 
ATOM     53  N   UNL A   1      41.289  30.656  34.500  1.00  0.00    -0.354 N 
ATOM     54  N   UNL A   1      41.562  29.090  32.027  1.00  0.00    -0.248 NA
ATOM     55  C   UNL A   1      42.653  27.446  30.779  1.00  0.00     0.031 C 
ATOM     56  C   UNL A   1      42.632  30.176  36.203  1.00  0.00     0.029 A 
ATOM     57  C   UNL A   1      42.320  29.823  34.900  1.00  0.00     0.049 A 
ATOM     58  H   UNL A   1      40.862  30.640  33.613  1.00  0.00     0.167 HD
ATOM     59  C   UNL A   1      42.551  28.507  32.808  1.00  0.00     0.074 A 
ATOM     60  C   UNL A   1      43.169  27.477  31.999  1.00  0.00     0.031 C 
ATOM     61  C   UNL A   1      42.917  28.801  34.080  1.00  0.00     0.037 A 
BRANCH  48  62
ATOM     62  C   UNL A   1      39.703  33.415  36.637  1.00  0.00     0.064 A 
ATOM     63  C   UNL A   1      38.810  33.077  37.666  1.00  0.00     0.173 A 
ATOM     64  C   UNL A   1      40.414  34.619  36.756  1.00  0.00     0.173 A 
ATOM     65  F   UNL A   1      38.095  31.944  37.592  1.00  0.00    -0.203 F 
ATOM     66  C   UNL A   1      38.612  33.924  38.752  1.00  0.00     0.198 A 
ATOM     67  C   UNL A   1      40.235  35.450  37.859  1.00  0.00     0.198 A 
ATOM     68  F   UNL A   1      41.283  34.989  35.804  1.00  0.00    -0.203 F 
ATOM     69  F   UNL A   1      37.715  33.604  39.694  1.00  0.00    -0.200 F 
ATOM     70  C   UNL A   1      39.330  35.107  38.851  1.00  0.00     0.200 A 
ATOM     71  F   UNL A   1      40.938  36.588  37.961  1.00  0.00    -0.200 F 
ATOM     72  F   UNL A   1      39.142  35.920  39.900  1.00  0.00    -0.200 F 
ENDBRANCH  48  62
BRANCH  49  73
ATOM     73  C   UNL A   1      40.952  27.854  28.430  1.00  0.00     0.064 A 
ATOM     74  C   UNL A   1      41.800  28.289  27.403  1.00  0.00     0.173 A 
ATOM     75  C   UNL A   1      40.304  26.622  28.266  1.00  0.00     0.173 A 
ATOM     76  F   UNL A   1      42.425  29.471  27.506  1.00  0.00    -0.203 F 
ATOM     77  C   UNL A   1      41.980  27.530  26.247  1.00  0.00     0.198 A 
ATOM     78  C   UNL A   1      40.504  25.852  27.122  1.00  0.00     0.198 A 
ATOM     79  F   UNL A   1      39.486  26.161  29.223  1.00  0.00    -0.203 F 
ATOM     80  F   UNL A   1      42.764  27.990  25.263  1.00  0.00    -0.200 F 
ATOM     81  C   UNL A   1      41.336  26.311  26.111  1.00  0.00     0.200 A 
ATOM     82  F   UNL A   1      39.890  24.668  26.998  1.00  0.00    -0.200 F 
ATOM     83  F   UNL A   1      41.511  25.579  25.001  1.00  0.00    -0.200 F 
ENDBRANCH  49  73
BRANCH  61  84
ATOM     84  C   UNL A   1      44.022  27.983  34.679  1.00  0.00     0.064 A 
ATOM     85  C   UNL A   1      43.757  26.803  35.387  1.00  0.00     0.173 A 
ATOM     86  C   UNL A   1      45.360  28.368  34.512  1.00  0.00     0.173 A 
ATOM     87  F   UNL A   1      42.492  26.403  35.586  1.00  0.00    -0.203 F 
ATOM     88  C   UNL A   1      44.794  26.046  35.928  1.00  0.00     0.198 A 
ATOM     89  C   UNL A   1      46.396  27.595  35.030  1.00  0.00     0.198 A 
ATOM     90  F   UNL A   1      45.664  29.485  33.836  1.00  0.00    -0.203 F 
ATOM     91  F   UNL A   1      44.518  24.945  36.639  1.00  0.00    -0.200 F 
ATOM     92  C   UNL A   1      46.111  26.440  35.743  1.00  0.00     0.200 A 
ATOM     93  F   UNL A   1      47.669  27.969  34.841  1.00  0.00    -0.200 F 
ATOM     94  F   UNL A   1      47.108  25.709  36.260  1.00  0.00    -0.200 F 
ENDBRANCH  61  84
ENDBRANCH  35  36
ENDBRANCH  27  30
ENDBRANCH  25  26
ENDBRANCH  24  25
ENDBRANCH   1  24
TORSDOF 16
ENDMDL
