MODEL 1
REMARK VINA RESULT:     -13.7      0.000      0.000
REMARK SMILES C[C@H]1CCCCN1C(=O)N1Cc2nc[nH]c2C[C@H]1C(=O)NCCCNC(=O)c1ccc(-c2c3nc(c(-c4c(F)c(F)c(F)c(F)c4F)c4ccc([nH]4)c(-c4c(F)c(F)c(F)c(F)c4F)c4nc(c(-c5c(F)c(F)c(F)c(F)c5F)c5ccc2[nH]5)C=C4)C=C3)cc1
REMARK SMILES IDX 23 1 22 2 21 3 19 4 20 5 18 7 10 8 11 9 12 10 17 11 13 12
REMARK SMILES IDX 16 13 14 14 15 15 8 17 9 18 7 19 1 20 2 21 3 22 4 23 6 24
REMARK SMILES IDX 5 25 24 26 25 27 26 28 27 30 28 31 29 32 90 33 30 34 89 35
REMARK SMILES IDX 31 36 32 37 33 38 83 39 34 40 88 41 82 42 84 43 35 44 87 45
REMARK SMILES IDX 81 46 80 47 36 49 68 50 48 51 67 52 49 53 52 54 66 55 85 56
REMARK SMILES IDX 50 57 51 58 65 60 86 61 53 62 37 63 38 64 46 65 39 66 40 67
REMARK SMILES IDX 44 68 47 69 41 70 42 71 45 72 43 73 69 74 70 75 78 76 71 77
REMARK SMILES IDX 72 78 76 79 79 80 73 81 74 82 77 83 75 84 54 85 55 86 63 87
REMARK SMILES IDX 56 88 57 89 61 90 64 91 58 92 59 93 62 94 60 95
REMARK H PARENT 21 6 15 16 25 29 84 48 52 59
REMARK Flexibility Score: inf
ROOT
ATOM      1  C   UNL A   1      38.476  21.865  25.669  1.00  0.00     0.042 C 
ENDROOT
BRANCH   1   2
ATOM      2  C   UNL A   1      37.490  23.028  25.671  1.00  0.00     0.117 C 
BRANCH   2   3
ATOM      3  N   UNL A   1      36.475  22.949  24.636  1.00  0.00    -0.354 N 
ATOM      4  C   UNL A   1      35.202  23.437  24.672  1.00  0.00     0.243 C 
ATOM      5  O   UNL A   1      34.906  24.186  23.728  1.00  0.00    -0.273 OA
ATOM      6  H   UNL A   1      36.736  22.485  23.808  1.00  0.00     0.163 HD
BRANCH   4   7
ATOM      7  C   UNL A   1      34.163  23.201  25.814  1.00  0.00     0.182 C 
ATOM      8  N   UNL A   1      32.698  23.470  25.576  1.00  0.00    -0.306 N 
ATOM      9  C   UNL A   1      31.869  22.366  25.010  1.00  0.00     0.180 C 
ATOM     10  C   UNL A   1      32.498  21.023  25.168  1.00  0.00     0.081 A 
ATOM     11  C   UNL A   1      34.477  21.832  26.494  1.00  0.00     0.091 C 
ATOM     12  N   UNL A   1      32.105  19.889  24.499  1.00  0.00    -0.240 NA
ATOM     13  C   UNL A   1      33.671  20.785  25.840  1.00  0.00     0.042 A 
ATOM     14  C   UNL A   1      33.023  18.985  24.772  1.00  0.00     0.197 A 
ATOM     15  N   UNL A   1      33.987  19.477  25.614  1.00  0.00    -0.348 N 
ATOM     16  H   UNL A   1      34.754  18.984  25.983  1.00  0.00     0.167 HD
BRANCH   8  17
ATOM     17  C   UNL A   1      31.972  24.286  26.426  1.00  0.00     0.321 C 
ATOM     18  O   UNL A   1      31.597  23.798  27.501  1.00  0.00    -0.248 OA
BRANCH  17  19
ATOM     19  N   UNL A   1      31.590  25.580  26.098  1.00  0.00    -0.322 N 
ATOM     20  C   UNL A   1      33.778  26.992  25.932  1.00  0.00     0.031 C 
ATOM     21  C   UNL A   1      32.299  26.828  25.700  1.00  0.00     0.083 C 
ATOM     22  C   UNL A   1      32.001  27.188  24.230  1.00  0.00     0.025 C 
ATOM     23  C   UNL A   1      30.502  27.317  23.986  1.00  0.00     0.004 C 
ATOM     24  C   UNL A   1      30.129  25.745  25.912  1.00  0.00     0.121 C 
ATOM     25  C   UNL A   1      29.787  26.056  24.451  1.00  0.00     0.022 C 
ENDBRANCH  17  19
ENDBRANCH   8  17
ENDBRANCH   4   7
ENDBRANCH   2   3
ENDBRANCH   1   2
BRANCH   1  26
ATOM     26  C   UNL A   1      39.600  22.055  26.656  1.00  0.00     0.118 C 
BRANCH  26  27
ATOM     27  N   UNL A   1      40.919  22.183  26.024  1.00  0.00    -0.352 N 
ATOM     28  C   UNL A   1      41.713  23.324  25.955  1.00  0.00     0.251 C 
ATOM     29  H   UNL A   1      41.282  21.371  25.603  1.00  0.00     0.163 HD
ATOM     30  O   UNL A   1      42.628  23.431  25.170  1.00  0.00    -0.269 OA
BRANCH  28  31
ATOM     31  C   UNL A   1      41.377  24.414  26.891  1.00  0.00     0.039 A 
ATOM     32  C   UNL A   1      42.079  24.610  28.081  1.00  0.00     0.014 A 
ATOM     33  C   UNL A   1      40.465  25.348  26.426  1.00  0.00     0.014 A 
ATOM     34  C   UNL A   1      41.929  25.830  28.735  1.00  0.00     0.010 A 
ATOM     35  C   UNL A   1      40.546  26.621  26.909  1.00  0.00     0.010 A 
ATOM     36  C   UNL A   1      41.191  26.852  28.113  1.00  0.00    -0.014 A 
BRANCH  36  37
ATOM     37  C   UNL A   1      41.150  28.210  28.643  1.00  0.00     0.031 A 
ATOM     38  C   UNL A   1      42.250  29.082  28.161  1.00  0.00     0.074 A 
ATOM     39  C   UNL A   1      40.100  28.685  29.352  1.00  0.00     0.049 A 
ATOM     40  N   UNL A   1      43.285  29.468  28.829  1.00  0.00    -0.248 NA
ATOM     41  C   UNL A   1      42.305  29.434  26.733  1.00  0.00     0.031 C 
ATOM     42  C   UNL A   1      38.808  28.031  29.618  1.00  0.00     0.029 A 
ATOM     43  N   UNL A   1      39.928  29.910  29.923  1.00  0.00    -0.354 N 
ATOM     44  C   UNL A   1      43.998  30.309  27.979  1.00  0.00     0.074 A 
ATOM     45  C   UNL A   1      43.473  30.080  26.661  1.00  0.00     0.031 C 
ATOM     46  C   UNL A   1      37.916  28.937  30.071  1.00  0.00     0.029 A 
ATOM     47  C   UNL A   1      38.624  30.171  30.332  1.00  0.00     0.049 A 
ATOM     48  H   UNL A   1      40.663  30.554  30.036  1.00  0.00     0.167 HD
ATOM     49  C   UNL A   1      44.732  31.334  28.497  1.00  0.00     0.037 A 
ATOM     50  C   UNL A   1      38.159  31.322  30.873  1.00  0.00     0.037 A 
ATOM     51  C   UNL A   1      44.867  31.171  29.925  1.00  0.00     0.049 A 
ATOM     52  C   UNL A   1      39.329  32.035  31.428  1.00  0.00     0.074 A 
ATOM     53  C   UNL A   1      45.547  30.329  30.778  1.00  0.00     0.029 A 
ATOM     54  N   UNL A   1      43.841  31.735  30.639  1.00  0.00    -0.354 N 
ATOM     55  N   UNL A   1      40.026  31.595  32.439  1.00  0.00    -0.248 NA
ATOM     56  C   UNL A   1      39.978  33.061  30.621  1.00  0.00     0.031 C 
ATOM     57  C   UNL A   1      44.743  30.235  31.956  1.00  0.00     0.029 A 
ATOM     58  C   UNL A   1      43.632  31.066  31.813  1.00  0.00     0.049 A 
ATOM     59  H   UNL A   1      43.324  32.518  30.345  1.00  0.00     0.167 HD
ATOM     60  C   UNL A   1      41.327  31.952  32.142  1.00  0.00     0.074 A 
ATOM     61  C   UNL A   1      41.212  32.993  31.126  1.00  0.00     0.031 C 
ATOM     62  C   UNL A   1      42.366  31.148  32.509  1.00  0.00     0.037 A 
BRANCH  49  63
ATOM     63  C   UNL A   1      44.875  32.713  27.875  1.00  0.00     0.064 A 
ATOM     64  C   UNL A   1      46.147  33.112  27.405  1.00  0.00     0.173 A 
ATOM     65  C   UNL A   1      43.938  33.758  28.027  1.00  0.00     0.173 A 
ATOM     66  F   UNL A   1      47.126  32.211  27.233  1.00  0.00    -0.203 F 
ATOM     67  C   UNL A   1      46.475  34.456  27.194  1.00  0.00     0.198 A 
ATOM     68  C   UNL A   1      44.255  35.092  27.768  1.00  0.00     0.198 A 
ATOM     69  F   UNL A   1      42.720  33.560  28.538  1.00  0.00    -0.203 F 
ATOM     70  F   UNL A   1      47.731  34.793  26.876  1.00  0.00    -0.200 F 
ATOM     71  C   UNL A   1      45.531  35.445  27.385  1.00  0.00     0.200 A 
ATOM     72  F   UNL A   1      43.331  36.039  27.984  1.00  0.00    -0.200 F 
ATOM     73  F   UNL A   1      45.857  36.737  27.250  1.00  0.00    -0.200 F 
ENDBRANCH  49  63
BRANCH  50  74
ATOM     74  C   UNL A   1      36.833  31.960  30.717  1.00  0.00     0.064 A 
ATOM     75  C   UNL A   1      35.921  32.004  31.783  1.00  0.00     0.173 A 
ATOM     76  C   UNL A   1      36.565  32.805  29.623  1.00  0.00     0.173 A 
ATOM     77  F   UNL A   1      36.126  31.252  32.875  1.00  0.00    -0.203 F 
ATOM     78  C   UNL A   1      34.831  32.879  31.779  1.00  0.00     0.198 A 
ATOM     79  C   UNL A   1      35.475  33.678  29.619  1.00  0.00     0.198 A 
ATOM     80  F   UNL A   1      37.413  32.874  28.585  1.00  0.00    -0.203 F 
ATOM     81  F   UNL A   1      34.024  32.948  32.846  1.00  0.00    -0.200 F 
ATOM     82  C   UNL A   1      34.619  33.728  30.704  1.00  0.00     0.200 A 
ATOM     83  F   UNL A   1      35.303  34.521  28.591  1.00  0.00    -0.200 F 
ATOM     84  F   UNL A   1      33.622  34.622  30.733  1.00  0.00    -0.200 F 
ENDBRANCH  50  74
BRANCH  62  85
ATOM     85  C   UNL A   1      42.119  30.174  33.623  1.00  0.00     0.064 A 
ATOM     86  C   UNL A   1      41.721  28.838  33.449  1.00  0.00     0.173 A 
ATOM     87  C   UNL A   1      42.384  30.605  34.930  1.00  0.00     0.173 A 
ATOM     88  F   UNL A   1      41.525  28.329  32.227  1.00  0.00    -0.203 F 
ATOM     89  C   UNL A   1      41.558  27.988  34.542  1.00  0.00     0.198 A 
ATOM     90  C   UNL A   1      42.256  29.745  36.015  1.00  0.00     0.198 A 
ATOM     91  F   UNL A   1      42.805  31.859  35.150  1.00  0.00    -0.203 F 
ATOM     92  F   UNL A   1      41.158  26.720  34.355  1.00  0.00    -0.200 F 
ATOM     93  C   UNL A   1      41.833  28.440  35.822  1.00  0.00     0.200 A 
ATOM     94  F   UNL A   1      42.564  30.176  37.244  1.00  0.00    -0.200 F 
ATOM     95  F   UNL A   1      41.708  27.614  36.870  1.00  0.00    -0.200 F 
ENDBRANCH  62  85
ENDBRANCH  36  37
ENDBRANCH  28  31
ENDBRANCH  26  27
ENDBRANCH   1  26
TORSDOF 12
ENDMDL
MODEL 2
REMARK VINA RESULT:     -13.4      3.394      9.029
REMARK SMILES C[C@H]1CCCCN1C(=O)N1Cc2nc[nH]c2C[C@H]1C(=O)NCCCNC(=O)c1ccc(-c2c3nc(c(-c4c(F)c(F)c(F)c(F)c4F)c4ccc([nH]4)c(-c4c(F)c(F)c(F)c(F)c4F)c4nc(c(-c5c(F)c(F)c(F)c(F)c5F)c5ccc2[nH]5)C=C4)C=C3)cc1
REMARK SMILES IDX 23 1 22 2 21 3 19 4 20 5 18 7 10 8 11 9 12 10 17 11 13 12
REMARK SMILES IDX 16 13 14 14 15 15 8 17 9 18 7 19 1 20 2 21 3 22 4 23 6 24
REMARK SMILES IDX 5 25 24 26 25 27 26 28 27 30 28 31 29 32 90 33 30 34 89 35
REMARK SMILES IDX 31 36 32 37 33 38 83 39 34 40 88 41 82 42 84 43 35 44 87 45
REMARK SMILES IDX 81 46 80 47 36 49 68 50 48 51 67 52 49 53 52 54 66 55 85 56
REMARK SMILES IDX 50 57 51 58 65 60 86 61 53 62 37 63 38 64 46 65 39 66 40 67
REMARK SMILES IDX 44 68 47 69 41 70 42 71 45 72 43 73 69 74 70 75 78 76 71 77
REMARK SMILES IDX 72 78 76 79 79 80 73 81 74 82 77 83 75 84 54 85 55 86 63 87
REMARK SMILES IDX 56 88 57 89 61 90 64 91 58 92 59 93 62 94 60 95
REMARK H PARENT 21 6 15 16 25 29 84 48 52 59
REMARK Flexibility Score: inf
ROOT
ATOM      1  C   UNL A   1      33.298  30.773  27.503  1.00  0.00     0.042 C 
ENDROOT
BRANCH   1   2
ATOM      2  C   UNL A   1      33.581  29.744  26.415  1.00  0.00     0.117 C 
BRANCH   2   3
ATOM      3  N   UNL A   1      32.622  28.655  26.363  1.00  0.00    -0.354 N 
ATOM      4  C   UNL A   1      32.704  27.500  25.642  1.00  0.00     0.243 C 
ATOM      5  O   UNL A   1      32.577  26.461  26.310  1.00  0.00    -0.273 OA
ATOM      6  H   UNL A   1      31.813  28.764  26.913  1.00  0.00     0.163 HD
BRANCH   4   7
ATOM      7  C   UNL A   1      33.021  27.393  24.117  1.00  0.00     0.182 C 
ATOM      8  N   UNL A   1      32.481  26.240  23.308  1.00  0.00    -0.306 N 
ATOM      9  C   UNL A   1      31.124  26.386  22.704  1.00  0.00     0.180 C 
ATOM     10  C   UNL A   1      30.675  27.805  22.614  1.00  0.00     0.081 A 
ATOM     11  C   UNL A   1      32.821  28.799  23.470  1.00  0.00     0.091 C 
ATOM     12  N   UNL A   1      29.382  28.204  22.376  1.00  0.00    -0.240 NA
ATOM     13  C   UNL A   1      31.443  28.890  22.956  1.00  0.00     0.042 A 
ATOM     14  C   UNL A   1      29.377  29.508  22.564  1.00  0.00     0.197 A 
ATOM     15  N   UNL A   1      30.623  29.979  22.892  1.00  0.00    -0.348 N 
ATOM     16  H   UNL A   1      30.875  30.917  23.049  1.00  0.00     0.167 HD
BRANCH   8  17
ATOM     17  C   UNL A   1      33.317  25.457  22.531  1.00  0.00     0.321 C 
ATOM     18  O   UNL A   1      33.648  25.901  21.424  1.00  0.00    -0.248 OA
BRANCH  17  19
ATOM     19  N   UNL A   1      33.732  24.185  22.905  1.00  0.00    -0.322 N 
ATOM     20  C   UNL A   1      35.148  24.461  25.078  1.00  0.00     0.031 C 
ATOM     21  C   UNL A   1      34.412  23.594  24.090  1.00  0.00     0.083 C 
ATOM     22  C   UNL A   1      33.454  22.678  24.878  1.00  0.00     0.025 C 
ATOM     23  C   UNL A   1      32.879  21.584  23.986  1.00  0.00     0.004 C 
ATOM     24  C   UNL A   1      33.233  23.107  22.017  1.00  0.00     0.121 C 
ATOM     25  C   UNL A   1      32.237  22.201  22.751  1.00  0.00     0.022 C 
ENDBRANCH  17  19
ENDBRANCH   8  17
ENDBRANCH   4   7
ENDBRANCH   2   3
ENDBRANCH   1   2
BRANCH   1  26
ATOM     26  C   UNL A   1      34.490  31.649  27.799  1.00  0.00     0.118 C 
BRANCH  26  27
ATOM     27  N   UNL A   1      34.517  32.156  29.175  1.00  0.00    -0.352 N 
ATOM     28  C   UNL A   1      35.379  31.774  30.198  1.00  0.00     0.251 C 
ATOM     29  H   UNL A   1      33.851  32.846  29.400  1.00  0.00     0.163 HD
ATOM     30  O   UNL A   1      35.149  32.007  31.363  1.00  0.00    -0.269 OA
BRANCH  28  31
ATOM     31  C   UNL A   1      36.601  31.054  29.790  1.00  0.00     0.039 A 
ATOM     32  C   UNL A   1      37.812  31.712  29.577  1.00  0.00     0.014 A 
ATOM     33  C   UNL A   1      36.527  29.670  29.830  1.00  0.00     0.014 A 
ATOM     34  C   UNL A   1      38.974  30.946  29.522  1.00  0.00     0.010 A 
ATOM     35  C   UNL A   1      37.676  28.971  30.060  1.00  0.00     0.010 A 
ATOM     36  C   UNL A   1      38.899  29.572  29.813  1.00  0.00    -0.014 A 
BRANCH  36  37
ATOM     37  C   UNL A   1      40.092  28.747  29.963  1.00  0.00     0.031 A 
ATOM     38  C   UNL A   1      40.537  28.576  31.368  1.00  0.00     0.074 A 
ATOM     39  C   UNL A   1      40.626  28.044  28.938  1.00  0.00     0.049 A 
ATOM     40  N   UNL A   1      41.554  29.136  31.934  1.00  0.00    -0.248 NA
ATOM     41  C   UNL A   1      39.673  27.839  32.304  1.00  0.00     0.031 C 
ATOM     42  C   UNL A   1      40.093  27.867  27.576  1.00  0.00     0.029 A 
ATOM     43  N   UNL A   1      41.736  27.255  28.919  1.00  0.00    -0.354 N 
ATOM     44  C   UNL A   1      41.596  28.631  33.231  1.00  0.00     0.074 A 
ATOM     45  C   UNL A   1      40.316  28.020  33.462  1.00  0.00     0.031 C 
ATOM     46  C   UNL A   1      40.730  26.849  26.960  1.00  0.00     0.029 A 
ATOM     47  C   UNL A   1      41.848  26.453  27.788  1.00  0.00     0.049 A 
ATOM     48  H   UNL A   1      42.401  27.252  29.644  1.00  0.00     0.167 HD
ATOM     49  C   UNL A   1      42.794  28.495  33.867  1.00  0.00     0.037 A 
ATOM     50  C   UNL A   1      42.812  25.536  27.535  1.00  0.00     0.037 A 
ATOM     51  C   UNL A   1      43.821  29.205  33.142  1.00  0.00     0.049 A 
ATOM     52  C   UNL A   1      43.972  25.895  28.379  1.00  0.00     0.074 A 
ATOM     53  C   UNL A   1      44.158  30.520  32.913  1.00  0.00     0.029 A 
ATOM     54  N   UNL A   1      44.418  28.453  32.164  1.00  0.00    -0.354 N 
ATOM     55  N   UNL A   1      44.671  26.984  28.214  1.00  0.00    -0.248 NA
ATOM     56  C   UNL A   1      44.139  25.233  29.666  1.00  0.00     0.031 C 
ATOM     57  C   UNL A   1      44.780  30.545  31.627  1.00  0.00     0.029 A 
ATOM     58  C   UNL A   1      44.860  29.241  31.138  1.00  0.00     0.049 A 
ATOM     59  H   UNL A   1      44.515  27.475  32.196  1.00  0.00     0.167 HD
ATOM     60  C   UNL A   1      45.008  27.372  29.497  1.00  0.00     0.074 A 
ATOM     61  C   UNL A   1      44.818  26.181  30.317  1.00  0.00     0.031 C 
ATOM     62  C   UNL A   1      45.095  28.696  29.818  1.00  0.00     0.037 A 
BRANCH  49  63
ATOM     63  C   UNL A   1      43.172  27.348  34.789  1.00  0.00     0.064 A 
ATOM     64  C   UNL A   1      43.494  27.641  36.134  1.00  0.00     0.173 A 
ATOM     65  C   UNL A   1      43.559  26.064  34.348  1.00  0.00     0.173 A 
ATOM     66  F   UNL A   1      43.189  28.834  36.665  1.00  0.00    -0.203 F 
ATOM     67  C   UNL A   1      44.221  26.755  36.936  1.00  0.00     0.198 A 
ATOM     68  C   UNL A   1      44.242  25.164  35.166  1.00  0.00     0.198 A 
ATOM     69  F   UNL A   1      43.402  25.663  33.083  1.00  0.00    -0.203 F 
ATOM     70  F   UNL A   1      44.615  27.132  38.159  1.00  0.00    -0.200 F 
ATOM     71  C   UNL A   1      44.603  25.521  36.447  1.00  0.00     0.200 A 
ATOM     72  F   UNL A   1      44.624  23.981  34.665  1.00  0.00    -0.200 F 
ATOM     73  F   UNL A   1      45.356  24.696  37.187  1.00  0.00    -0.200 F 
ENDBRANCH  49  63
BRANCH  50  74
ATOM     74  C   UNL A   1      42.710  24.244  26.822  1.00  0.00     0.064 A 
ATOM     75  C   UNL A   1      43.315  24.059  25.569  1.00  0.00     0.173 A 
ATOM     76  C   UNL A   1      42.286  23.082  27.495  1.00  0.00     0.173 A 
ATOM     77  F   UNL A   1      43.776  25.114  24.882  1.00  0.00    -0.203 F 
ATOM     78  C   UNL A   1      43.530  22.782  25.042  1.00  0.00     0.198 A 
ATOM     79  C   UNL A   1      42.499  21.808  26.966  1.00  0.00     0.198 A 
ATOM     80  F   UNL A   1      41.750  23.158  28.723  1.00  0.00    -0.203 F 
ATOM     81  F   UNL A   1      44.179  22.640  23.878  1.00  0.00    -0.200 F 
ATOM     82  C   UNL A   1      43.138  21.657  25.749  1.00  0.00     0.200 A 
ATOM     83  F   UNL A   1      42.149  20.726  27.677  1.00  0.00    -0.200 F 
ATOM     84  F   UNL A   1      43.414  20.432  25.281  1.00  0.00    -0.200 F 
ENDBRANCH  50  74
BRANCH  62  85
ATOM     85  C   UNL A   1      45.301  29.664  28.691  1.00  0.00     0.064 A 
ATOM     86  C   UNL A   1      44.272  30.320  27.996  1.00  0.00     0.173 A 
ATOM     87  C   UNL A   1      46.621  30.000  28.360  1.00  0.00     0.173 A 
ATOM     88  F   UNL A   1      42.987  30.111  28.307  1.00  0.00    -0.203 F 
ATOM     89  C   UNL A   1      44.556  31.240  26.989  1.00  0.00     0.198 A 
ATOM     90  C   UNL A   1      46.902  30.945  27.380  1.00  0.00     0.198 A 
ATOM     91  F   UNL A   1      47.642  29.433  29.019  1.00  0.00    -0.203 F 
ATOM     92  F   UNL A   1      43.557  31.841  26.324  1.00  0.00    -0.200 F 
ATOM     93  C   UNL A   1      45.870  31.557  26.687  1.00  0.00     0.200 A 
ATOM     94  F   UNL A   1      48.174  31.278  27.124  1.00  0.00    -0.200 F 
ATOM     95  F   UNL A   1      46.145  32.467  25.741  1.00  0.00    -0.200 F 
ENDBRANCH  62  85
ENDBRANCH  36  37
ENDBRANCH  28  31
ENDBRANCH  26  27
ENDBRANCH   1  26
TORSDOF 12
ENDMDL
MODEL 3
REMARK VINA RESULT:     -13.4      2.874      7.744
REMARK SMILES C[C@H]1CCCCN1C(=O)N1Cc2nc[nH]c2C[C@H]1C(=O)NCCCNC(=O)c1ccc(-c2c3nc(c(-c4c(F)c(F)c(F)c(F)c4F)c4ccc([nH]4)c(-c4c(F)c(F)c(F)c(F)c4F)c4nc(c(-c5c(F)c(F)c(F)c(F)c5F)c5ccc2[nH]5)C=C4)C=C3)cc1
REMARK SMILES IDX 23 1 22 2 21 3 19 4 20 5 18 7 10 8 11 9 12 10 17 11 13 12
REMARK SMILES IDX 16 13 14 14 15 15 8 17 9 18 7 19 1 20 2 21 3 22 4 23 6 24
REMARK SMILES IDX 5 25 24 26 25 27 26 28 27 30 28 31 29 32 90 33 30 34 89 35
REMARK SMILES IDX 31 36 32 37 33 38 83 39 34 40 88 41 82 42 84 43 35 44 87 45
REMARK SMILES IDX 81 46 80 47 36 49 68 50 48 51 67 52 49 53 52 54 66 55 85 56
REMARK SMILES IDX 50 57 51 58 65 60 86 61 53 62 37 63 38 64 46 65 39 66 40 67
REMARK SMILES IDX 44 68 47 69 41 70 42 71 45 72 43 73 69 74 70 75 78 76 71 77
REMARK SMILES IDX 72 78 76 79 79 80 73 81 74 82 77 83 75 84 54 85 55 86 63 87
REMARK SMILES IDX 56 88 57 89 61 90 64 91 58 92 59 93 62 94 60 95
REMARK H PARENT 21 6 15 16 25 29 84 48 52 59
REMARK Flexibility Score: inf
ROOT
ATOM      1  C   UNL A   1      31.993  30.959  26.551  1.00  0.00     0.042 C 
ENDROOT
BRANCH   1   2
ATOM      2  C   UNL A   1      31.767  29.615  27.235  1.00  0.00     0.117 C 
BRANCH   2   3
ATOM      3  N   UNL A   1      32.988  28.949  27.654  1.00  0.00    -0.354 N 
ATOM      4  C   UNL A   1      33.835  28.197  26.893  1.00  0.00     0.243 C 
ATOM      5  O   UNL A   1      35.021  28.560  26.923  1.00  0.00    -0.273 OA
ATOM      6  H   UNL A   1      33.234  29.051  28.601  1.00  0.00     0.163 HD
BRANCH   4   7
ATOM      7  C   UNL A   1      33.421  27.016  25.959  1.00  0.00     0.182 C 
ATOM      8  N   UNL A   1      32.138  26.264  26.209  1.00  0.00    -0.306 N 
ATOM      9  C   UNL A   1      30.887  26.791  25.587  1.00  0.00     0.180 C 
ATOM     10  C   UNL A   1      31.148  27.727  24.456  1.00  0.00     0.081 A 
ATOM     11  C   UNL A   1      33.648  27.453  24.478  1.00  0.00     0.091 C 
ATOM     12  N   UNL A   1      30.212  28.567  23.902  1.00  0.00    -0.240 NA
ATOM     13  C   UNL A   1      32.392  28.020  23.956  1.00  0.00     0.042 A 
ATOM     14  C   UNL A   1      30.884  29.345  23.079  1.00  0.00     0.197 A 
ATOM     15  N   UNL A   1      32.218  29.029  23.054  1.00  0.00    -0.348 N 
ATOM     16  H   UNL A   1      32.912  29.447  22.496  1.00  0.00     0.167 HD
BRANCH   8  17
ATOM     17  C   UNL A   1      32.125  24.884  26.318  1.00  0.00     0.321 C 
ATOM     18  O   UNL A   1      31.458  24.391  27.237  1.00  0.00    -0.248 OA
BRANCH  17  19
ATOM     19  N   UNL A   1      32.876  24.049  25.500  1.00  0.00    -0.322 N 
ATOM     20  C   UNL A   1      31.818  24.175  23.119  1.00  0.00     0.031 C 
ATOM     21  C   UNL A   1      32.940  23.769  24.039  1.00  0.00     0.083 C 
ATOM     22  C   UNL A   1      34.264  24.279  23.436  1.00  0.00     0.025 C 
ATOM     23  C   UNL A   1      35.466  23.675  24.153  1.00  0.00     0.004 C 
ATOM     24  C   UNL A   1      34.019  23.404  26.190  1.00  0.00     0.121 C 
ATOM     25  C   UNL A   1      35.357  23.921  25.651  1.00  0.00     0.022 C 
ENDBRANCH  17  19
ENDBRANCH   8  17
ENDBRANCH   4   7
ENDBRANCH   2   3
ENDBRANCH   1   2
BRANCH   1  26
ATOM     26  C   UNL A   1      32.988  31.824  27.283  1.00  0.00     0.118 C 
BRANCH  26  27
ATOM     27  N   UNL A   1      32.529  33.203  27.485  1.00  0.00    -0.352 N 
ATOM     28  C   UNL A   1      33.013  34.127  28.406  1.00  0.00     0.251 C 
ATOM     29  H   UNL A   1      31.796  33.509  26.903  1.00  0.00     0.163 HD
ATOM     30  O   UNL A   1      32.395  35.119  28.717  1.00  0.00    -0.269 OA
BRANCH  28  31
ATOM     31  C   UNL A   1      34.332  33.831  28.999  1.00  0.00     0.039 A 
ATOM     32  C   UNL A   1      34.489  32.905  30.031  1.00  0.00     0.014 A 
ATOM     33  C   UNL A   1      35.424  34.370  28.338  1.00  0.00     0.014 A 
ATOM     34  C   UNL A   1      35.773  32.442  30.305  1.00  0.00     0.010 A 
ATOM     35  C   UNL A   1      36.614  33.708  28.418  1.00  0.00     0.010 A 
ATOM     36  C   UNL A   1      36.829  32.818  29.457  1.00  0.00    -0.014 A 
BRANCH  36  37
ATOM     37  C   UNL A   1      38.157  32.224  29.565  1.00  0.00     0.031 A 
ATOM     38  C   UNL A   1      38.227  30.811  29.117  1.00  0.00     0.074 A 
ATOM     39  C   UNL A   1      39.259  32.951  29.861  1.00  0.00     0.049 A 
ATOM     40  N   UNL A   1      38.327  29.763  29.865  1.00  0.00    -0.248 NA
ATOM     41  C   UNL A   1      37.992  30.502  27.697  1.00  0.00     0.031 C 
ATOM     42  C   UNL A   1      39.378  34.412  30.004  1.00  0.00     0.029 A 
ATOM     43  N   UNL A   1      40.548  32.539  30.015  1.00  0.00    -0.354 N 
ATOM     44  C   UNL A   1      38.411  28.679  28.995  1.00  0.00     0.074 A 
ATOM     45  C   UNL A   1      37.989  29.165  27.710  1.00  0.00     0.031 C 
ATOM     46  C   UNL A   1      40.678  34.774  29.976  1.00  0.00     0.029 A 
ATOM     47  C   UNL A   1      41.480  33.572  30.034  1.00  0.00     0.049 A 
ATOM     48  H   UNL A   1      40.799  31.591  30.105  1.00  0.00     0.167 HD
ATOM     49  C   UNL A   1      39.120  27.572  29.357  1.00  0.00     0.037 A 
ATOM     50  C   UNL A   1      42.826  33.449  30.115  1.00  0.00     0.037 A 
ATOM     51  C   UNL A   1      39.427  27.623  30.767  1.00  0.00     0.049 A 
ATOM     52  C   UNL A   1      43.098  32.117  30.696  1.00  0.00     0.074 A 
ATOM     53  C   UNL A   1      38.732  27.495  31.949  1.00  0.00     0.029 A 
ATOM     54  N   UNL A   1      40.594  28.286  31.048  1.00  0.00    -0.354 N 
ATOM     55  N   UNL A   1      42.783  31.788  31.919  1.00  0.00    -0.248 NA
ATOM     56  C   UNL A   1      43.378  31.002  29.801  1.00  0.00     0.031 C 
ATOM     57  C   UNL A   1      39.420  28.314  32.897  1.00  0.00     0.029 A 
ATOM     58  C   UNL A   1      40.545  28.867  32.284  1.00  0.00     0.049 A 
ATOM     59  H   UNL A   1      41.365  28.336  30.440  1.00  0.00     0.167 HD
ATOM     60  C   UNL A   1      42.404  30.463  31.831  1.00  0.00     0.074 A 
ATOM     61  C   UNL A   1      42.959  29.991  30.567  1.00  0.00     0.031 C 
ATOM     62  C   UNL A   1      41.412  29.973  32.630  1.00  0.00     0.037 A 
BRANCH  49  63
ATOM     63  C   UNL A   1      39.979  26.736  28.424  1.00  0.00     0.064 A 
ATOM     64  C   UNL A   1      39.742  25.344  28.354  1.00  0.00     0.173 A 
ATOM     65  C   UNL A   1      41.209  27.162  27.876  1.00  0.00     0.173 A 
ATOM     66  F   UNL A   1      38.614  24.817  28.854  1.00  0.00    -0.203 F 
ATOM     67  C   UNL A   1      40.697  24.450  27.859  1.00  0.00     0.198 A 
ATOM     68  C   UNL A   1      42.138  26.271  27.338  1.00  0.00     0.198 A 
ATOM     69  F   UNL A   1      41.620  28.431  27.937  1.00  0.00    -0.203 F 
ATOM     70  F   UNL A   1      40.478  23.131  27.935  1.00  0.00    -0.200 F 
ATOM     71  C   UNL A   1      41.899  24.914  27.360  1.00  0.00     0.200 A 
ATOM     72  F   UNL A   1      43.308  26.740  26.882  1.00  0.00    -0.200 F 
ATOM     73  F   UNL A   1      42.843  24.059  26.946  1.00  0.00    -0.200 F 
ENDBRANCH  49  63
BRANCH  50  74
ATOM     74  C   UNL A   1      43.880  34.283  29.496  1.00  0.00     0.064 A 
ATOM     75  C   UNL A   1      44.185  34.168  28.131  1.00  0.00     0.173 A 
ATOM     76  C   UNL A   1      44.384  35.417  30.161  1.00  0.00     0.173 A 
ATOM     77  F   UNL A   1      43.713  33.133  27.420  1.00  0.00    -0.203 F 
ATOM     78  C   UNL A   1      44.909  35.156  27.457  1.00  0.00     0.198 A 
ATOM     79  C   UNL A   1      45.109  36.401  29.488  1.00  0.00     0.198 A 
ATOM     80  F   UNL A   1      44.094  35.639  31.452  1.00  0.00    -0.203 F 
ATOM     81  F   UNL A   1      45.116  35.051  26.137  1.00  0.00    -0.200 F 
ATOM     82  C   UNL A   1      45.356  36.280  28.133  1.00  0.00     0.200 A 
ATOM     83  F   UNL A   1      45.502  37.502  30.144  1.00  0.00    -0.200 F 
ATOM     84  F   UNL A   1      45.981  37.264  27.472  1.00  0.00    -0.200 F 
ENDBRANCH  50  74
BRANCH  62  85
ATOM     85  C   UNL A   1      41.105  30.733  33.887  1.00  0.00     0.064 A 
ATOM     86  C   UNL A   1      40.059  31.658  34.032  1.00  0.00     0.173 A 
ATOM     87  C   UNL A   1      41.869  30.437  35.024  1.00  0.00     0.173 A 
ATOM     88  F   UNL A   1      39.237  31.937  33.013  1.00  0.00    -0.203 F 
ATOM     89  C   UNL A   1      39.818  32.287  35.252  1.00  0.00     0.198 A 
ATOM     90  C   UNL A   1      41.603  31.037  36.249  1.00  0.00     0.198 A 
ATOM     91  F   UNL A   1      42.855  29.530  34.952  1.00  0.00    -0.203 F 
ATOM     92  F   UNL A   1      38.825  33.183  35.364  1.00  0.00    -0.200 F 
ATOM     93  C   UNL A   1      40.585  31.970  36.361  1.00  0.00     0.200 A 
ATOM     94  F   UNL A   1      42.321  30.694  37.327  1.00  0.00    -0.200 F 
ATOM     95  F   UNL A   1      40.333  32.549  37.544  1.00  0.00    -0.200 F 
ENDBRANCH  62  85
ENDBRANCH  36  37
ENDBRANCH  28  31
ENDBRANCH  26  27
ENDBRANCH   1  26
TORSDOF 12
ENDMDL
