MODEL 1
REMARK VINA RESULT:     -12.1      0.000      0.000
REMARK SMILES C[NH2+][C@]1(C(=O)NCCCNC(=O)c2ccc(-c3c4nc(c(-c5c(F)c(F)c(F)c(F)c5F)c5ccc([nH]5)c(-c5c(F)c(F)c(F)c(F)c5F)c5nc(c(-c6c(F)c(F)c(F)c(F)c6F)c6ccc3[nH]6)C=C5)C=C4)cc2)CC[C@H](SC2CCCCC2)C1
REMARK SMILES IDX 8 1 7 2 6 3 4 4 5 5 3 7 76 8 86 9 77 10 78 11 2 12 1 13
REMARK SMILES IDX 79 16 80 17 81 18 85 19 82 20 84 21 83 22 9 23 10 24 11 25
REMARK SMILES IDX 12 27 13 28 14 29 75 30 15 31 74 32 16 33 17 34 18 35 68 36
REMARK SMILES IDX 19 37 73 38 67 39 69 40 20 41 72 42 66 43 65 44 21 46 53 47
REMARK SMILES IDX 33 48 52 49 34 50 37 51 51 52 70 53 35 54 36 55 50 57 71 58
REMARK SMILES IDX 38 59 22 60 23 61 31 62 24 63 25 64 29 65 32 66 26 67 27 68
REMARK SMILES IDX 30 69 28 70 54 71 55 72 63 73 56 74 57 75 61 76 64 77 58 78
REMARK SMILES IDX 59 79 62 80 60 81 39 82 40 83 48 84 41 85 42 86 46 87 49 88
REMARK SMILES IDX 43 89 44 90 47 91 45 92
REMARK H PARENT 6 6 2 14 2 15 10 26 69 45 37 56
REMARK Flexibility Score: inf
ROOT
ATOM      1  C   UNL A   1      31.476  32.547  26.580  1.00  0.00     0.042 C 
ENDROOT
BRANCH   1   2
ATOM      2  C   UNL A   1      31.458  31.022  26.554  1.00  0.00     0.118 C 
BRANCH   2   3
ATOM      3  N   UNL A   1      32.757  30.462  26.872  1.00  0.00    -0.351 N 
ATOM      4  C   UNL A   1      33.433  29.369  26.425  1.00  0.00     0.281 C 
ATOM      5  O   UNL A   1      34.455  29.100  27.071  1.00  0.00    -0.268 OA
ATOM      6  H   UNL A   1      33.251  30.976  27.551  1.00  0.00     0.163 HD
BRANCH   4   7
ATOM      7  C   UNL A   1      32.943  28.469  25.233  1.00  0.00     0.176 C 
ATOM      8  C   UNL A   1      33.785  27.190  25.182  1.00  0.00     0.080 C 
ATOM      9  C   UNL A   1      31.490  27.976  25.411  1.00  0.00     0.093 C 
ATOM     10  C   UNL A   1      32.879  26.117  24.609  1.00  0.00     0.022 C 
ATOM     11  C   UNL A   1      31.438  26.501  24.942  1.00  0.00     0.054 C 
BRANCH   7  12
ATOM     12  N   UNL A   1      33.131  29.282  24.008  1.00  0.00    -0.336 N 
ATOM     13  C   UNL A   1      33.989  28.820  22.941  1.00  0.00     0.331 C 
ATOM     14  H   UNL A   1      32.205  29.414  23.600  1.00  0.00     0.346 HD
ATOM     15  H   UNL A   1      33.622  30.107  24.354  1.00  0.00     0.346 HD
ENDBRANCH   7  12
BRANCH  11  16
ATOM     16  S   UNL A   1      30.241  26.349  23.551  1.00  0.00    -0.155 SA
BRANCH  16  17
ATOM     17  C   UNL A   1      29.542  28.027  23.284  1.00  0.00     0.047 C 
ATOM     18  C   UNL A   1      30.164  28.820  22.133  1.00  0.00     0.014 C 
ATOM     19  C   UNL A   1      28.014  28.038  23.214  1.00  0.00     0.014 C 
ATOM     20  C   UNL A   1      29.651  30.257  22.107  1.00  0.00     0.001 C 
ATOM     21  C   UNL A   1      27.493  29.480  23.164  1.00  0.00     0.001 C 
ATOM     22  C   UNL A   1      28.127  30.282  22.028  1.00  0.00     0.000 C 
ENDBRANCH  16  17
ENDBRANCH  11  16
ENDBRANCH   4   7
ENDBRANCH   2   3
ENDBRANCH   1   2
BRANCH   1  23
ATOM     23  C   UNL A   1      32.708  33.146  27.246  1.00  0.00     0.118 C 
BRANCH  23  24
ATOM     24  N   UNL A   1      32.474  34.492  27.751  1.00  0.00    -0.352 N 
ATOM     25  C   UNL A   1      33.032  35.142  28.822  1.00  0.00     0.251 C 
ATOM     26  H   UNL A   1      31.813  35.017  27.245  1.00  0.00     0.163 HD
ATOM     27  O   UNL A   1      32.548  36.208  29.206  1.00  0.00    -0.269 OA
BRANCH  25  28
ATOM     28  C   UNL A   1      34.192  34.567  29.532  1.00  0.00     0.039 A 
ATOM     29  C   UNL A   1      33.988  33.930  30.758  1.00  0.00     0.014 A 
ATOM     30  C   UNL A   1      35.483  34.673  29.008  1.00  0.00     0.014 A 
ATOM     31  C   UNL A   1      35.067  33.347  31.427  1.00  0.00     0.010 A 
ATOM     32  C   UNL A   1      36.541  34.014  29.626  1.00  0.00     0.010 A 
ATOM     33  C   UNL A   1      36.346  33.354  30.848  1.00  0.00    -0.014 A 
BRANCH  33  34
ATOM     34  C   UNL A   1      37.501  32.695  31.513  1.00  0.00     0.031 A 
ATOM     35  C   UNL A   1      38.199  31.545  30.842  1.00  0.00     0.074 A 
ATOM     36  C   UNL A   1      37.876  33.089  32.744  1.00  0.00     0.049 A 
ATOM     37  N   UNL A   1      39.169  30.788  31.289  1.00  0.00    -0.248 NA
ATOM     38  C   UNL A   1      37.721  31.173  29.501  1.00  0.00     0.031 C 
ATOM     39  C   UNL A   1      37.249  34.162  33.519  1.00  0.00     0.029 A 
ATOM     40  N   UNL A   1      38.871  32.623  33.569  1.00  0.00    -0.354 N 
ATOM     41  C   UNL A   1      39.401  29.844  30.297  1.00  0.00     0.074 A 
ATOM     42  C   UNL A   1      38.433  30.085  29.250  1.00  0.00     0.031 C 
ATOM     43  C   UNL A   1      37.888  34.288  34.693  1.00  0.00     0.029 A 
ATOM     44  C   UNL A   1      38.941  33.281  34.773  1.00  0.00     0.049 A 
ATOM     45  H   UNL A   1      39.476  31.888  33.320  1.00  0.00     0.167 HD
ATOM     46  C   UNL A   1      40.350  28.880  30.253  1.00  0.00     0.037 A 
ATOM     47  C   UNL A   1      39.759  33.086  35.825  1.00  0.00     0.037 A 
ATOM     48  C   UNL A   1      41.330  28.664  31.285  1.00  0.00     0.049 A 
ATOM     49  C   UNL A   1      40.804  32.006  35.752  1.00  0.00     0.074 A 
ATOM     50  C   UNL A   1      42.376  27.757  31.307  1.00  0.00     0.029 A 
ATOM     51  N   UNL A   1      41.384  29.364  32.482  1.00  0.00    -0.354 N 
ATOM     52  N   UNL A   1      41.060  31.167  34.778  1.00  0.00    -0.248 NA
ATOM     53  C   UNL A   1      41.678  31.851  36.922  1.00  0.00     0.031 C 
ATOM     54  C   UNL A   1      43.030  27.874  32.537  1.00  0.00     0.029 A 
ATOM     55  C   UNL A   1      42.429  28.893  33.259  1.00  0.00     0.049 A 
ATOM     56  H   UNL A   1      40.768  30.088  32.740  1.00  0.00     0.167 HD
ATOM     57  C   UNL A   1      42.143  30.408  35.203  1.00  0.00     0.074 A 
ATOM     58  C   UNL A   1      42.503  30.896  36.517  1.00  0.00     0.031 C 
ATOM     59  C   UNL A   1      42.781  29.398  34.561  1.00  0.00     0.037 A 
BRANCH  46  60
ATOM     60  C   UNL A   1      40.375  27.984  29.047  1.00  0.00     0.064 A 
ATOM     61  C   UNL A   1      41.155  28.285  27.919  1.00  0.00     0.173 A 
ATOM     62  C   UNL A   1      39.637  26.791  29.032  1.00  0.00     0.173 A 
ATOM     63  F   UNL A   1      41.872  29.418  27.878  1.00  0.00    -0.203 F 
ATOM     64  C   UNL A   1      41.165  27.446  26.808  1.00  0.00     0.198 A 
ATOM     65  C   UNL A   1      39.676  25.937  27.932  1.00  0.00     0.198 A 
ATOM     66  F   UNL A   1      38.880  26.449  30.085  1.00  0.00    -0.203 F 
ATOM     67  F   UNL A   1      41.874  27.784  25.722  1.00  0.00    -0.200 F 
ATOM     68  C   UNL A   1      40.432  26.268  26.819  1.00  0.00     0.200 A 
ATOM     69  F   UNL A   1      38.979  24.792  27.949  1.00  0.00    -0.200 F 
ATOM     70  F   UNL A   1      40.450  25.458  25.752  1.00  0.00    -0.200 F 
ENDBRANCH  46  60
BRANCH  47  71
ATOM     71  C   UNL A   1      39.642  33.952  37.028  1.00  0.00     0.064 A 
ATOM     72  C   UNL A   1      38.870  33.552  38.128  1.00  0.00     0.173 A 
ATOM     73  C   UNL A   1      40.289  35.193  37.103  1.00  0.00     0.173 A 
ATOM     74  F   UNL A   1      38.215  32.381  38.097  1.00  0.00    -0.203 F 
ATOM     75  C   UNL A   1      38.730  34.371  39.246  1.00  0.00     0.198 A 
ATOM     76  C   UNL A   1      40.174  35.999  38.235  1.00  0.00     0.198 A 
ATOM     77  F   UNL A   1      41.046  35.620  36.082  1.00  0.00    -0.203 F 
ATOM     78  F   UNL A   1      37.947  33.987  40.263  1.00  0.00    -0.200 F 
ATOM     79  C   UNL A   1      39.388  35.591  39.301  1.00  0.00     0.200 A 
ATOM     80  F   UNL A   1      40.823  37.169  38.290  1.00  0.00    -0.200 F 
ATOM     81  F   UNL A   1      39.256  36.378  40.378  1.00  0.00    -0.200 F 
ENDBRANCH  47  71
BRANCH  59  82
ATOM     82  C   UNL A   1      43.965  28.782  35.252  1.00  0.00     0.064 A 
ATOM     83  C   UNL A   1      45.267  29.264  35.057  1.00  0.00     0.173 A 
ATOM     84  C   UNL A   1      43.783  27.720  36.152  1.00  0.00     0.173 A 
ATOM     85  F   UNL A   1      45.495  30.267  34.196  1.00  0.00    -0.203 F 
ATOM     86  C   UNL A   1      46.348  28.688  35.718  1.00  0.00     0.198 A 
ATOM     87  C   UNL A   1      44.863  27.169  36.836  1.00  0.00     0.198 A 
ATOM     88  F   UNL A   1      42.556  27.227  36.380  1.00  0.00    -0.203 F 
ATOM     89  F   UNL A   1      47.590  29.130  35.479  1.00  0.00    -0.200 F 
ATOM     90  C   UNL A   1      46.145  27.647  36.612  1.00  0.00     0.200 A 
ATOM     91  F   UNL A   1      44.662  26.174  37.711  1.00  0.00    -0.200 F 
ATOM     92  F   UNL A   1      47.187  27.100  37.254  1.00  0.00    -0.200 F 
ENDBRANCH  59  82
ENDBRANCH  33  34
ENDBRANCH  25  28
ENDBRANCH  23  24
ENDBRANCH   1  23
TORSDOF 13
ENDMDL
MODEL 2
REMARK VINA RESULT:     -12.1      0.089      1.623
REMARK SMILES C[NH2+][C@]1(C(=O)NCCCNC(=O)c2ccc(-c3c4nc(c(-c5c(F)c(F)c(F)c(F)c5F)c5ccc([nH]5)c(-c5c(F)c(F)c(F)c(F)c5F)c5nc(c(-c6c(F)c(F)c(F)c(F)c6F)c6ccc3[nH]6)C=C5)C=C4)cc2)CC[C@H](SC2CCCCC2)C1
REMARK SMILES IDX 8 1 7 2 6 3 4 4 5 5 3 7 76 8 86 9 77 10 78 11 2 12 1 13
REMARK SMILES IDX 79 16 80 17 81 18 85 19 82 20 84 21 83 22 9 23 10 24 11 25
REMARK SMILES IDX 12 27 13 28 14 29 75 30 15 31 74 32 16 33 17 34 18 35 68 36
REMARK SMILES IDX 19 37 73 38 67 39 69 40 20 41 72 42 66 43 65 44 21 46 53 47
REMARK SMILES IDX 33 48 52 49 34 50 37 51 51 52 70 53 35 54 36 55 50 57 71 58
REMARK SMILES IDX 38 59 22 60 23 61 31 62 24 63 25 64 29 65 32 66 26 67 27 68
REMARK SMILES IDX 30 69 28 70 54 71 55 72 63 73 56 74 57 75 61 76 64 77 58 78
REMARK SMILES IDX 59 79 62 80 60 81 39 82 40 83 48 84 41 85 42 86 46 87 49 88
REMARK SMILES IDX 43 89 44 90 47 91 45 92
REMARK H PARENT 6 6 2 14 2 15 10 26 69 45 37 56
REMARK Flexibility Score: inf
ROOT
ATOM      1  C   UNL A   1      31.436  32.565  26.638  1.00  0.00     0.042 C 
ENDROOT
BRANCH   1   2
ATOM      2  C   UNL A   1      31.463  31.046  26.512  1.00  0.00     0.118 C 
BRANCH   2   3
ATOM      3  N   UNL A   1      32.763  30.499  26.855  1.00  0.00    -0.351 N 
ATOM      4  C   UNL A   1      33.461  29.418  26.415  1.00  0.00     0.281 C 
ATOM      5  O   UNL A   1      34.473  29.157  27.081  1.00  0.00    -0.268 OA
ATOM      6  H   UNL A   1      33.235  31.014  27.548  1.00  0.00     0.163 HD
BRANCH   4   7
ATOM      7  C   UNL A   1      33.009  28.520  25.206  1.00  0.00     0.176 C 
ATOM      8  C   UNL A   1      33.824  27.223  25.203  1.00  0.00     0.080 C 
ATOM      9  C   UNL A   1      31.539  28.061  25.318  1.00  0.00     0.093 C 
ATOM     10  C   UNL A   1      32.922  26.166  24.594  1.00  0.00     0.022 C 
ATOM     11  C   UNL A   1      31.476  26.585  24.855  1.00  0.00     0.054 C 
BRANCH   7  12
ATOM     12  N   UNL A   1      33.274  29.321  23.987  1.00  0.00    -0.336 N 
ATOM     13  C   UNL A   1      33.946  28.733  22.851  1.00  0.00     0.331 C 
ATOM     14  H   UNL A   1      32.369  29.650  23.651  1.00  0.00     0.346 HD
ATOM     15  H   UNL A   1      33.945  30.018  24.312  1.00  0.00     0.346 HD
ENDBRANCH   7  12
BRANCH  11  16
ATOM     16  S   UNL A   1      30.344  26.450  23.409  1.00  0.00    -0.155 SA
BRANCH  16  17
ATOM     17  C   UNL A   1      29.565  28.102  23.205  1.00  0.00     0.047 C 
ATOM     18  C   UNL A   1      30.143  28.963  22.081  1.00  0.00     0.014 C 
ATOM     19  C   UNL A   1      28.038  28.042  23.142  1.00  0.00     0.014 C 
ATOM     20  C   UNL A   1      29.562  30.374  22.108  1.00  0.00     0.001 C 
ATOM     21  C   UNL A   1      27.450  29.459  23.145  1.00  0.00     0.001 C 
ATOM     22  C   UNL A   1      28.039  30.330  22.037  1.00  0.00     0.000 C 
ENDBRANCH  16  17
ENDBRANCH  11  16
ENDBRANCH   4   7
ENDBRANCH   2   3
ENDBRANCH   1   2
BRANCH   1  23
ATOM     23  C   UNL A   1      32.674  33.160  27.299  1.00  0.00     0.118 C 
BRANCH  23  24
ATOM     24  N   UNL A   1      32.452  34.514  27.788  1.00  0.00    -0.352 N 
ATOM     25  C   UNL A   1      33.021  35.173  28.847  1.00  0.00     0.251 C 
ATOM     26  H   UNL A   1      31.791  35.037  27.279  1.00  0.00     0.163 HD
ATOM     27  O   UNL A   1      32.546  36.248  29.220  1.00  0.00    -0.269 OA
BRANCH  25  28
ATOM     28  C   UNL A   1      34.182  34.600  29.556  1.00  0.00     0.039 A 
ATOM     29  C   UNL A   1      33.994  34.045  30.825  1.00  0.00     0.014 A 
ATOM     30  C   UNL A   1      35.459  34.629  28.990  1.00  0.00     0.014 A 
ATOM     31  C   UNL A   1      35.073  33.464  31.496  1.00  0.00     0.010 A 
ATOM     32  C   UNL A   1      36.512  33.969  29.616  1.00  0.00     0.010 A 
ATOM     33  C   UNL A   1      36.333  33.390  30.882  1.00  0.00    -0.014 A 
BRANCH  33  34
ATOM     34  C   UNL A   1      37.483  32.731  31.551  1.00  0.00     0.031 A 
ATOM     35  C   UNL A   1      38.179  31.575  30.886  1.00  0.00     0.074 A 
ATOM     36  C   UNL A   1      37.858  33.129  32.782  1.00  0.00     0.049 A 
ATOM     37  N   UNL A   1      39.147  30.818  31.339  1.00  0.00    -0.248 NA
ATOM     38  C   UNL A   1      37.703  31.199  29.546  1.00  0.00     0.031 C 
ATOM     39  C   UNL A   1      37.232  34.207  33.550  1.00  0.00     0.029 A 
ATOM     40  N   UNL A   1      38.850  32.664  33.610  1.00  0.00    -0.354 N 
ATOM     41  C   UNL A   1      39.377  29.868  30.352  1.00  0.00     0.074 A 
ATOM     42  C   UNL A   1      38.412  30.108  29.301  1.00  0.00     0.031 C 
ATOM     43  C   UNL A   1      37.869  34.337  34.725  1.00  0.00     0.029 A 
ATOM     44  C   UNL A   1      38.920  33.327  34.811  1.00  0.00     0.049 A 
ATOM     45  H   UNL A   1      39.453  31.926  33.366  1.00  0.00     0.167 HD
ATOM     46  C   UNL A   1      40.323  28.901  30.314  1.00  0.00     0.037 A 
ATOM     47  C   UNL A   1      39.735  33.134  35.866  1.00  0.00     0.037 A 
ATOM     48  C   UNL A   1      41.300  28.686  31.349  1.00  0.00     0.049 A 
ATOM     49  C   UNL A   1      40.776  32.050  35.799  1.00  0.00     0.074 A 
ATOM     50  C   UNL A   1      42.343  27.777  31.376  1.00  0.00     0.029 A 
ATOM     51  N   UNL A   1      41.354  29.391  32.542  1.00  0.00    -0.354 N 
ATOM     52  N   UNL A   1      41.032  31.206  34.830  1.00  0.00    -0.248 NA
ATOM     53  C   UNL A   1      41.648  31.897  36.972  1.00  0.00     0.031 C 
ATOM     54  C   UNL A   1      42.995  27.896  32.607  1.00  0.00     0.029 A 
ATOM     55  C   UNL A   1      42.396  28.920  33.324  1.00  0.00     0.049 A 
ATOM     56  H   UNL A   1      40.740  30.119  32.796  1.00  0.00     0.167 HD
ATOM     57  C   UNL A   1      42.111  30.445  35.260  1.00  0.00     0.074 A 
ATOM     58  C   UNL A   1      42.471  30.938  36.573  1.00  0.00     0.031 C 
ATOM     59  C   UNL A   1      42.747  29.431  34.625  1.00  0.00     0.037 A 
BRANCH  46  60
ATOM     60  C   UNL A   1      40.348  27.999  29.112  1.00  0.00     0.064 A 
ATOM     61  C   UNL A   1      39.617  26.802  29.072  1.00  0.00     0.173 A 
ATOM     62  C   UNL A   1      41.087  28.353  27.973  1.00  0.00     0.173 A 
ATOM     63  F   UNL A   1      38.902  26.412  30.138  1.00  0.00    -0.203 F 
ATOM     64  C   UNL A   1      39.652  25.976  27.951  1.00  0.00     0.198 A 
ATOM     65  C   UNL A   1      41.093  27.541  26.841  1.00  0.00     0.198 A 
ATOM     66  F   UNL A   1      41.799  29.489  27.953  1.00  0.00    -0.203 F 
ATOM     67  F   UNL A   1      38.989  24.811  27.959  1.00  0.00    -0.200 F 
ATOM     68  C   UNL A   1      40.384  26.350  26.834  1.00  0.00     0.200 A 
ATOM     69  F   UNL A   1      41.789  27.910  25.757  1.00  0.00    -0.200 F 
ATOM     70  F   UNL A   1      40.411  25.558  25.754  1.00  0.00    -0.200 F 
ENDBRANCH  46  60
BRANCH  47  71
ATOM     71  C   UNL A   1      39.618  34.005  37.065  1.00  0.00     0.064 A 
ATOM     72  C   UNL A   1      38.873  33.597  38.180  1.00  0.00     0.173 A 
ATOM     73  C   UNL A   1      40.239  35.261  37.121  1.00  0.00     0.173 A 
ATOM     74  F   UNL A   1      38.243  32.411  38.167  1.00  0.00    -0.203 F 
ATOM     75  C   UNL A   1      38.733  34.420  39.295  1.00  0.00     0.198 A 
ATOM     76  C   UNL A   1      40.124  36.072  38.249  1.00  0.00     0.198 A 
ATOM     77  F   UNL A   1      40.969  35.697  36.085  1.00  0.00    -0.203 F 
ATOM     78  F   UNL A   1      37.975  34.026  40.327  1.00  0.00    -0.200 F 
ATOM     79  C   UNL A   1      39.364  35.654  39.331  1.00  0.00     0.200 A 
ATOM     80  F   UNL A   1      40.749  37.256  38.286  1.00  0.00    -0.200 F 
ATOM     81  F   UNL A   1      39.233  36.446  40.404  1.00  0.00    -0.200 F 
ENDBRANCH  47  71
BRANCH  59  82
ATOM     82  C   UNL A   1      43.927  28.814  35.320  1.00  0.00     0.064 A 
ATOM     83  C   UNL A   1      43.780  27.757  36.231  1.00  0.00     0.173 A 
ATOM     84  C   UNL A   1      45.228  29.263  35.038  1.00  0.00     0.173 A 
ATOM     85  F   UNL A   1      42.557  27.303  36.545  1.00  0.00    -0.203 F 
ATOM     86  C   UNL A   1      44.889  27.191  36.854  1.00  0.00     0.198 A 
ATOM     87  C   UNL A   1      46.335  28.671  35.638  1.00  0.00     0.198 A 
ATOM     88  F   UNL A   1      45.424  30.266  34.169  1.00  0.00    -0.203 F 
ATOM     89  F   UNL A   1      44.721  26.217  37.758  1.00  0.00    -0.200 F 
ATOM     90  C   UNL A   1      46.164  27.642  36.551  1.00  0.00     0.200 A 
ATOM     91  F   UNL A   1      47.568  29.098  35.332  1.00  0.00    -0.200 F 
ATOM     92  F   UNL A   1      47.231  27.089  37.146  1.00  0.00    -0.200 F 
ENDBRANCH  59  82
ENDBRANCH  33  34
ENDBRANCH  25  28
ENDBRANCH  23  24
ENDBRANCH   1  23
TORSDOF 13
ENDMDL
MODEL 3
REMARK VINA RESULT:     -12.1      5.940     10.831
REMARK SMILES C[NH2+][C@]1(C(=O)NCCCNC(=O)c2ccc(-c3c4nc(c(-c5c(F)c(F)c(F)c(F)c5F)c5ccc([nH]5)c(-c5c(F)c(F)c(F)c(F)c5F)c5nc(c(-c6c(F)c(F)c(F)c(F)c6F)c6ccc3[nH]6)C=C5)C=C4)cc2)CC[C@H](SC2CCCCC2)C1
REMARK SMILES IDX 8 1 7 2 6 3 4 4 5 5 3 7 76 8 86 9 77 10 78 11 2 12 1 13
REMARK SMILES IDX 79 16 80 17 81 18 85 19 82 20 84 21 83 22 9 23 10 24 11 25
REMARK SMILES IDX 12 27 13 28 14 29 75 30 15 31 74 32 16 33 17 34 18 35 68 36
REMARK SMILES IDX 19 37 73 38 67 39 69 40 20 41 72 42 66 43 65 44 21 46 53 47
REMARK SMILES IDX 33 48 52 49 34 50 37 51 51 52 70 53 35 54 36 55 50 57 71 58
REMARK SMILES IDX 38 59 22 60 23 61 31 62 24 63 25 64 29 65 32 66 26 67 27 68
REMARK SMILES IDX 30 69 28 70 54 71 55 72 63 73 56 74 57 75 61 76 64 77 58 78
REMARK SMILES IDX 59 79 62 80 60 81 39 82 40 83 48 84 41 85 42 86 46 87 49 88
REMARK SMILES IDX 43 89 44 90 47 91 45 92
REMARK H PARENT 6 6 2 14 2 15 10 26 69 45 37 56
REMARK Flexibility Score: inf
ROOT
ATOM      1  C   UNL A   1      37.811  19.778  24.961  1.00  0.00     0.042 C 
ENDROOT
BRANCH   1   2
ATOM      2  C   UNL A   1      36.620  20.730  24.975  1.00  0.00     0.118 C 
BRANCH   2   3
ATOM      3  N   UNL A   1      35.359  20.017  25.060  1.00  0.00    -0.351 N 
ATOM      4  C   UNL A   1      34.091  20.404  25.362  1.00  0.00     0.281 C 
ATOM      5  O   UNL A   1      33.293  19.469  25.517  1.00  0.00    -0.268 OA
ATOM      6  H   UNL A   1      35.438  19.057  24.858  1.00  0.00     0.163 HD
BRANCH   4   7
ATOM      7  C   UNL A   1      33.662  21.903  25.566  1.00  0.00     0.176 C 
ATOM      8  C   UNL A   1      34.693  22.611  26.451  1.00  0.00     0.080 C 
ATOM      9  C   UNL A   1      33.655  22.709  24.248  1.00  0.00     0.093 C 
ATOM     10  C   UNL A   1      34.687  24.064  26.017  1.00  0.00     0.022 C 
ATOM     11  C   UNL A   1      34.238  24.110  24.557  1.00  0.00     0.054 C 
BRANCH   7  12
ATOM     12  N   UNL A   1      32.334  21.858  26.224  1.00  0.00    -0.336 N 
ATOM     13  C   UNL A   1      31.169  22.407  25.570  1.00  0.00     0.331 C 
ATOM     14  H   UNL A   1      32.130  20.874  26.403  1.00  0.00     0.346 HD
ATOM     15  H   UNL A   1      32.456  22.474  27.028  1.00  0.00     0.346 HD
ENDBRANCH   7  12
BRANCH  11  16
ATOM     16  S   UNL A   1      32.978  25.392  24.161  1.00  0.00    -0.155 SA
BRANCH  16  17
ATOM     17  C   UNL A   1      32.882  26.496  25.626  1.00  0.00     0.047 C 
ATOM     18  C   UNL A   1      33.822  27.703  25.600  1.00  0.00     0.014 C 
ATOM     19  C   UNL A   1      31.451  26.904  25.980  1.00  0.00     0.014 C 
ATOM     20  C   UNL A   1      33.803  28.452  26.929  1.00  0.00     0.001 C 
ATOM     21  C   UNL A   1      31.429  27.677  27.305  1.00  0.00     0.001 C 
ATOM     22  C   UNL A   1      32.381  28.872  27.290  1.00  0.00     0.000 C 
ENDBRANCH  16  17
ENDBRANCH  11  16
ENDBRANCH   4   7
ENDBRANCH   2   3
ENDBRANCH   1   2
BRANCH   1  23
ATOM     23  C   UNL A   1      39.003  20.254  25.781  1.00  0.00     0.118 C 
BRANCH  23  24
ATOM     24  N   UNL A   1      40.064  19.259  25.858  1.00  0.00    -0.352 N 
ATOM     25  C   UNL A   1      41.408  19.419  26.072  1.00  0.00     0.251 C 
ATOM     26  H   UNL A   1      39.770  18.328  25.738  1.00  0.00     0.163 HD
ATOM     27  O   UNL A   1      42.170  18.466  25.896  1.00  0.00    -0.269 OA
BRANCH  25  28
ATOM     28  C   UNL A   1      41.956  20.725  26.490  1.00  0.00     0.039 A 
ATOM     29  C   UNL A   1      42.260  21.677  25.512  1.00  0.00     0.014 A 
ATOM     30  C   UNL A   1      42.194  21.010  27.837  1.00  0.00     0.014 A 
ATOM     31  C   UNL A   1      42.743  22.932  25.890  1.00  0.00     0.010 A 
ATOM     32  C   UNL A   1      42.585  22.289  28.219  1.00  0.00     0.010 A 
ATOM     33  C   UNL A   1      42.876  23.260  27.249  1.00  0.00    -0.014 A 
BRANCH  33  34
ATOM     34  C   UNL A   1      43.336  24.605  27.679  1.00  0.00     0.031 A 
ATOM     35  C   UNL A   1      42.332  25.663  28.042  1.00  0.00     0.074 A 
ATOM     36  C   UNL A   1      44.652  24.892  27.678  1.00  0.00     0.049 A 
ATOM     37  N   UNL A   1      42.528  26.918  28.364  1.00  0.00    -0.248 NA
ATOM     38  C   UNL A   1      40.915  25.269  28.009  1.00  0.00     0.031 C 
ATOM     39  C   UNL A   1      45.721  23.966  27.302  1.00  0.00     0.029 A 
ATOM     40  N   UNL A   1      45.315  26.053  27.995  1.00  0.00    -0.354 N 
ATOM     41  C   UNL A   1      41.263  27.462  28.549  1.00  0.00     0.074 A 
ATOM     42  C   UNL A   1      40.306  26.421  28.249  1.00  0.00     0.031 C 
ATOM     43  C   UNL A   1      46.906  24.585  27.432  1.00  0.00     0.029 A 
ATOM     44  C   UNL A   1      46.679  25.961  27.861  1.00  0.00     0.049 A 
ATOM     45  H   UNL A   1      44.856  26.872  28.289  1.00  0.00     0.167 HD
ATOM     46  C   UNL A   1      40.932  28.710  28.956  1.00  0.00     0.037 A 
ATOM     47  C   UNL A   1      47.637  26.888  28.054  1.00  0.00     0.037 A 
ATOM     48  C   UNL A   1      41.890  29.734  29.283  1.00  0.00     0.049 A 
ATOM     49  C   UNL A   1      47.242  28.269  28.504  1.00  0.00     0.074 A 
ATOM     50  C   UNL A   1      41.659  31.009  29.769  1.00  0.00     0.029 A 
ATOM     51  N   UNL A   1      43.264  29.598  29.155  1.00  0.00    -0.354 N 
ATOM     52  N   UNL A   1      46.047  28.750  28.745  1.00  0.00    -0.248 NA
ATOM     53  C   UNL A   1      48.330  29.233  28.715  1.00  0.00     0.031 C 
ATOM     54  C   UNL A   1      42.890  31.662  29.885  1.00  0.00     0.029 A 
ATOM     55  C   UNL A   1      43.893  30.775  29.529  1.00  0.00     0.049 A 
ATOM     56  H   UNL A   1      43.725  28.785  28.844  1.00  0.00     0.167 HD
ATOM     57  C   UNL A   1      46.241  30.059  29.167  1.00  0.00     0.074 A 
ATOM     58  C   UNL A   1      47.670  30.291  29.161  1.00  0.00     0.031 C 
ATOM     59  C   UNL A   1      45.318  30.985  29.528  1.00  0.00     0.037 A 
BRANCH  46  60
ATOM     60  C   UNL A   1      39.471  29.038  29.073  1.00  0.00     0.064 A 
ATOM     61  C   UNL A   1      38.800  28.996  30.305  1.00  0.00     0.173 A 
ATOM     62  C   UNL A   1      38.738  29.432  27.943  1.00  0.00     0.173 A 
ATOM     63  F   UNL A   1      39.451  28.617  31.415  1.00  0.00    -0.203 F 
ATOM     64  C   UNL A   1      37.444  29.301  30.396  1.00  0.00     0.198 A 
ATOM     65  C   UNL A   1      37.390  29.768  28.043  1.00  0.00     0.198 A 
ATOM     66  F   UNL A   1      39.329  29.497  26.741  1.00  0.00    -0.203 F 
ATOM     67  F   UNL A   1      36.814  29.199  31.575  1.00  0.00    -0.200 F 
ATOM     68  C   UNL A   1      36.742  29.694  29.267  1.00  0.00     0.200 A 
ATOM     69  F   UNL A   1      36.716  30.162  26.954  1.00  0.00    -0.200 F 
ATOM     70  F   UNL A   1      35.439  29.995  29.357  1.00  0.00    -0.200 F 
ENDBRANCH  46  60
BRANCH  47  71
ATOM     71  C   UNL A   1      49.066  26.534  27.850  1.00  0.00     0.064 A 
ATOM     72  C   UNL A   1      49.907  26.280  28.943  1.00  0.00     0.173 A 
ATOM     73  C   UNL A   1      49.623  26.447  26.566  1.00  0.00     0.173 A 
ATOM     74  F   UNL A   1      49.426  26.370  30.192  1.00  0.00    -0.203 F 
ATOM     75  C   UNL A   1      51.255  25.978  28.761  1.00  0.00     0.198 A 
ATOM     76  C   UNL A   1      50.964  26.114  26.383  1.00  0.00     0.198 A 
ATOM     77  F   UNL A   1      48.861  26.672  25.486  1.00  0.00    -0.203 F 
ATOM     78  F   UNL A   1      52.047  25.788  29.825  1.00  0.00    -0.200 F 
ATOM     79  C   UNL A   1      51.781  25.888  27.481  1.00  0.00     0.200 A 
ATOM     80  F   UNL A   1      51.465  26.013  25.144  1.00  0.00    -0.200 F 
ATOM     81  F   UNL A   1      53.076  25.594  27.305  1.00  0.00    -0.200 F 
ENDBRANCH  47  71
BRANCH  59  82
ATOM     82  C   UNL A   1      45.827  32.321  29.990  1.00  0.00     0.064 A 
ATOM     83  C   UNL A   1      45.995  33.395  29.103  1.00  0.00     0.173 A 
ATOM     84  C   UNL A   1      46.110  32.538  31.348  1.00  0.00     0.173 A 
ATOM     85  F   UNL A   1      45.753  33.233  27.794  1.00  0.00    -0.203 F 
ATOM     86  C   UNL A   1      46.454  34.629  29.555  1.00  0.00     0.198 A 
ATOM     87  C   UNL A   1      46.537  33.783  31.800  1.00  0.00     0.198 A 
ATOM     88  F   UNL A   1      45.958  31.546  32.238  1.00  0.00    -0.203 F 
ATOM     89  F   UNL A   1      46.656  35.626  28.683  1.00  0.00    -0.200 F 
ATOM     90  C   UNL A   1      46.716  34.825  30.902  1.00  0.00     0.200 A 
ATOM     91  F   UNL A   1      46.774  33.974  33.105  1.00  0.00    -0.200 F 
ATOM     92  F   UNL A   1      47.150  36.017  31.336  1.00  0.00    -0.200 F 
ENDBRANCH  59  82
ENDBRANCH  33  34
ENDBRANCH  25  28
ENDBRANCH  23  24
ENDBRANCH   1  23
TORSDOF 13
ENDMDL
