MODEL 1
REMARK VINA RESULT:      -9.9      0.000      0.000
REMARK SMILES O=C(NCCCNC(=O)c1ccc2nc(-c3cc(F)cc(Br)c3)[nH]c2c1)c1ccc(-c2c3nc(c(-c4c(F)c(F)c(F)c(F)c4F)c4ccc([nH]4)c(-c4c(F)c(F)c(F)c(F)c4F)c4nc(c(-c5c(F)c(F)c(F)c(F)c5F)c5ccc2[nH]5)C=C4)C=C3)cc1
REMARK SMILES IDX 4 1 3 2 1 3 2 4 27 6 28 7 89 8 29 9 88 10 30 11 31 12 32 13
REMARK SMILES IDX 82 14 33 15 87 16 81 17 83 18 34 19 86 20 80 21 79 22 35 24
REMARK SMILES IDX 67 25 47 26 66 27 48 28 51 29 65 30 84 31 49 32 50 33 64 35
REMARK SMILES IDX 85 36 52 37 36 38 37 39 45 40 38 41 39 42 43 43 46 44 40 45
REMARK SMILES IDX 41 46 44 47 42 48 68 49 69 50 77 51 70 52 71 53 75 54 78 55
REMARK SMILES IDX 72 56 73 57 76 58 74 59 53 60 54 61 62 62 55 63 56 64 60 65
REMARK SMILES IDX 63 66 57 67 58 68 61 69 59 70 5 71 6 72 7 73 8 74 9 76 10 77
REMARK SMILES IDX 11 78 26 79 12 80 25 81 13 82 24 83 14 84 15 85 16 87 17 88
REMARK SMILES IDX 23 89 18 90 21 91 19 92 20 93 22 94
REMARK H PARENT 3 5 83 23 51 34 7 75 24 86
REMARK Flexibility Score: inf
ROOT
ATOM      1  C   UNL A   1      34.710  32.527  28.952  1.00  0.00     0.118 C 
ENDROOT
BRANCH   1   2
ATOM      2  N   UNL A   1      34.104  31.342  28.353  1.00  0.00    -0.352 N 
ATOM      3  O   UNL A   1      34.004  29.377  27.263  1.00  0.00    -0.269 OA
ATOM      4  C   UNL A   1      34.675  30.175  27.913  1.00  0.00     0.251 C 
ATOM      5  H   UNL A   1      33.127  31.389  28.247  1.00  0.00     0.163 HD
BRANCH   4   6
ATOM      6  C   UNL A   1      36.095  29.878  28.196  1.00  0.00     0.039 A 
ATOM      7  C   UNL A   1      37.089  30.182  27.265  1.00  0.00     0.014 A 
ATOM      8  C   UNL A   1      36.443  29.314  29.426  1.00  0.00     0.014 A 
ATOM      9  C   UNL A   1      38.397  29.770  27.487  1.00  0.00     0.010 A 
ATOM     10  C   UNL A   1      37.778  28.999  29.696  1.00  0.00     0.010 A 
ATOM     11  C   UNL A   1      38.762  29.193  28.714  1.00  0.00    -0.014 A 
BRANCH  11  12
ATOM     12  C   UNL A   1      40.188  28.867  28.965  1.00  0.00     0.031 A 
ATOM     13  C   UNL A   1      41.086  29.817  29.704  1.00  0.00     0.074 A 
ATOM     14  C   UNL A   1      40.662  27.681  28.535  1.00  0.00     0.049 A 
ATOM     15  N   UNL A   1      42.353  29.685  30.011  1.00  0.00    -0.248 NA
ATOM     16  C   UNL A   1      40.491  31.084  30.153  1.00  0.00     0.031 C 
ATOM     17  C   UNL A   1      39.885  26.682  27.798  1.00  0.00     0.029 A 
ATOM     18  N   UNL A   1      41.899  27.106  28.667  1.00  0.00    -0.354 N 
ATOM     19  C   UNL A   1      42.710  30.854  30.669  1.00  0.00     0.074 A 
ATOM     20  C   UNL A   1      41.535  31.698  30.695  1.00  0.00     0.031 C 
ATOM     21  C   UNL A   1      40.647  25.602  27.583  1.00  0.00     0.029 A 
ATOM     22  C   UNL A   1      41.985  25.857  28.102  1.00  0.00     0.049 A 
ATOM     23  H   UNL A   1      42.654  27.546  29.122  1.00  0.00     0.167 HD
ATOM     24  C   UNL A   1      43.909  31.184  31.209  1.00  0.00     0.037 A 
ATOM     25  C   UNL A   1      43.030  25.018  27.993  1.00  0.00     0.037 A 
ATOM     26  C   UNL A   1      45.070  30.331  31.189  1.00  0.00     0.049 A 
ATOM     27  C   UNL A   1      44.353  25.426  28.571  1.00  0.00     0.074 A 
ATOM     28  C   UNL A   1      46.319  30.561  31.740  1.00  0.00     0.029 A 
ATOM     29  N   UNL A   1      45.127  29.085  30.581  1.00  0.00    -0.354 N 
ATOM     30  N   UNL A   1      44.670  26.519  29.222  1.00  0.00    -0.248 NA
ATOM     31  C   UNL A   1      45.468  24.485  28.397  1.00  0.00     0.031 C 
ATOM     32  C   UNL A   1      47.146  29.478  31.420  1.00  0.00     0.029 A 
ATOM     33  C   UNL A   1      46.397  28.546  30.719  1.00  0.00     0.049 A 
ATOM     34  H   UNL A   1      44.375  28.648  30.118  1.00  0.00     0.167 HD
ATOM     35  C   UNL A   1      46.010  26.391  29.552  1.00  0.00     0.074 A 
ATOM     36  C   UNL A   1      46.443  25.103  29.047  1.00  0.00     0.031 C 
ATOM     37  C   UNL A   1      46.812  27.262  30.212  1.00  0.00     0.037 A 
BRANCH  24  38
ATOM     38  C   UNL A   1      44.037  32.537  31.851  1.00  0.00     0.064 A 
ATOM     39  C   UNL A   1      44.271  33.696  31.094  1.00  0.00     0.173 A 
ATOM     40  C   UNL A   1      43.875  32.683  33.238  1.00  0.00     0.173 A 
ATOM     41  F   UNL A   1      44.443  33.612  29.766  1.00  0.00    -0.203 F 
ATOM     42  C   UNL A   1      44.363  34.945  31.705  1.00  0.00     0.198 A 
ATOM     43  C   UNL A   1      43.938  33.936  33.840  1.00  0.00     0.198 A 
ATOM     44  F   UNL A   1      43.641  31.610  34.007  1.00  0.00    -0.203 F 
ATOM     45  F   UNL A   1      44.632  36.031  30.968  1.00  0.00    -0.200 F 
ATOM     46  C   UNL A   1      44.190  35.065  33.076  1.00  0.00     0.200 A 
ATOM     47  F   UNL A   1      43.756  34.052  35.164  1.00  0.00    -0.200 F 
ATOM     48  F   UNL A   1      44.270  36.269  33.660  1.00  0.00    -0.200 F 
ENDBRANCH  24  38
BRANCH  25  49
ATOM     49  C   UNL A   1      42.859  23.716  27.299  1.00  0.00     0.064 A 
ATOM     50  C   UNL A   1      43.236  23.556  25.959  1.00  0.00     0.173 A 
ATOM     51  C   UNL A   1      42.329  22.600  27.966  1.00  0.00     0.173 A 
ATOM     52  F   UNL A   1      43.731  24.598  25.274  1.00  0.00    -0.203 F 
ATOM     53  C   UNL A   1      43.077  22.334  25.309  1.00  0.00     0.198 A 
ATOM     54  C   UNL A   1      42.200  21.372  27.324  1.00  0.00     0.198 A 
ATOM     55  F   UNL A   1      41.959  22.700  29.251  1.00  0.00    -0.203 F 
ATOM     56  F   UNL A   1      43.407  22.219  24.016  1.00  0.00    -0.200 F 
ATOM     57  C   UNL A   1      42.567  21.242  25.993  1.00  0.00     0.200 A 
ATOM     58  F   UNL A   1      41.725  20.314  27.996  1.00  0.00    -0.200 F 
ATOM     59  F   UNL A   1      42.424  20.064  25.370  1.00  0.00    -0.200 F 
ENDBRANCH  25  49
BRANCH  37  60
ATOM     60  C   UNL A   1      48.230  26.837  30.454  1.00  0.00     0.064 A 
ATOM     61  C   UNL A   1      48.575  26.006  31.532  1.00  0.00     0.173 A 
ATOM     62  C   UNL A   1      49.252  27.244  29.583  1.00  0.00     0.173 A 
ATOM     63  F   UNL A   1      47.638  25.605  32.402  1.00  0.00    -0.203 F 
ATOM     64  C   UNL A   1      49.897  25.622  31.743  1.00  0.00     0.198 A 
ATOM     65  C   UNL A   1      50.566  26.833  29.780  1.00  0.00     0.198 A 
ATOM     66  F   UNL A   1      48.973  28.034  28.536  1.00  0.00    -0.203 F 
ATOM     67  F   UNL A   1      50.213  24.873  32.807  1.00  0.00    -0.200 F 
ATOM     68  C   UNL A   1      50.890  26.029  30.862  1.00  0.00     0.200 A 
ATOM     69  F   UNL A   1      51.522  27.216  28.921  1.00  0.00    -0.200 F 
ATOM     70  F   UNL A   1      52.160  25.654  31.064  1.00  0.00    -0.200 F 
ENDBRANCH  37  60
ENDBRANCH  11  12
ENDBRANCH   4   6
ENDBRANCH   1   2
BRANCH   1  71
ATOM     71  C   UNL A   1      34.777  32.450  30.469  1.00  0.00     0.042 C 
BRANCH  71  72
ATOM     72  C   UNL A   1      36.172  32.673  31.031  1.00  0.00     0.118 C 
BRANCH  72  73
ATOM     73  N   UNL A   1      36.140  33.104  32.422  1.00  0.00    -0.352 N 
ATOM     74  C   UNL A   1      36.631  32.480  33.539  1.00  0.00     0.251 C 
ATOM     75  H   UNL A   1      35.702  33.971  32.582  1.00  0.00     0.163 HD
ATOM     76  O   UNL A   1      36.313  32.874  34.656  1.00  0.00    -0.269 OA
BRANCH  74  77
ATOM     77  C   UNL A   1      37.532  31.317  33.396  1.00  0.00     0.042 A 
ATOM     78  C   UNL A   1      37.026  30.084  32.960  1.00  0.00     0.016 A 
ATOM     79  C   UNL A   1      38.895  31.497  33.680  1.00  0.00     0.042 A 
ATOM     80  C   UNL A   1      37.857  28.964  32.876  1.00  0.00     0.031 A 
ATOM     81  C   UNL A   1      39.697  30.360  33.576  1.00  0.00     0.067 A 
ATOM     82  C   UNL A   1      39.213  29.115  33.192  1.00  0.00     0.089 A 
ATOM     83  N   UNL A   1      41.036  30.147  33.786  1.00  0.00    -0.338 N 
ATOM     84  N   UNL A   1      40.215  28.186  33.171  1.00  0.00    -0.229 NA
ATOM     85  C   UNL A   1      41.309  28.821  33.540  1.00  0.00     0.138 A 
ATOM     86  H   UNL A   1      41.690  30.828  34.066  1.00  0.00     0.168 HD
BRANCH  85  87
ATOM     87  C   UNL A   1      42.639  28.235  33.621  1.00  0.00     0.021 A 
ATOM     88  C   UNL A   1      42.975  27.076  32.916  1.00  0.00     0.051 A 
ATOM     89  C   UNL A   1      43.616  28.870  34.402  1.00  0.00     0.027 A 
ATOM     90  C   UNL A   1      44.268  26.568  33.006  1.00  0.00     0.125 A 
ATOM     91  C   UNL A   1      44.901  28.337  34.490  1.00  0.00     0.021 A 
ATOM     92  F   UNL A   1      44.585  25.464  32.316  1.00  0.00    -0.207 F 
ATOM     93  C   UNL A   1      45.235  27.183  33.791  1.00  0.00     0.055 A 
ATOM     94  Br  UNL A   1      46.195  29.192  35.571  1.00  0.00    -0.051 Br
ENDBRANCH  85  87
ENDBRANCH  74  77
ENDBRANCH  72  73
ENDBRANCH  71  72
ENDBRANCH   1  71
TORSDOF 11
ENDMDL
MODEL 2
REMARK VINA RESULT:      -9.9      4.745      8.329
REMARK SMILES O=C(NCCCNC(=O)c1ccc2nc(-c3cc(F)cc(Br)c3)[nH]c2c1)c1ccc(-c2c3nc(c(-c4c(F)c(F)c(F)c(F)c4F)c4ccc([nH]4)c(-c4c(F)c(F)c(F)c(F)c4F)c4nc(c(-c5c(F)c(F)c(F)c(F)c5F)c5ccc2[nH]5)C=C4)C=C3)cc1
REMARK SMILES IDX 4 1 3 2 1 3 2 4 27 6 28 7 89 8 29 9 88 10 30 11 31 12 32 13
REMARK SMILES IDX 82 14 33 15 87 16 81 17 83 18 34 19 86 20 80 21 79 22 35 24
REMARK SMILES IDX 67 25 47 26 66 27 48 28 51 29 65 30 84 31 49 32 50 33 64 35
REMARK SMILES IDX 85 36 52 37 36 38 37 39 45 40 38 41 39 42 43 43 46 44 40 45
REMARK SMILES IDX 41 46 44 47 42 48 68 49 69 50 77 51 70 52 71 53 75 54 78 55
REMARK SMILES IDX 72 56 73 57 76 58 74 59 53 60 54 61 62 62 55 63 56 64 60 65
REMARK SMILES IDX 63 66 57 67 58 68 61 69 59 70 5 71 6 72 7 73 8 74 9 76 10 77
REMARK SMILES IDX 11 78 26 79 12 80 25 81 13 82 24 83 14 84 15 85 16 87 17 88
REMARK SMILES IDX 23 89 18 90 21 91 19 92 20 93 22 94
REMARK H PARENT 3 5 83 23 51 34 7 75 24 86
REMARK Flexibility Score: inf
ROOT
ATOM      1  C   UNL A   1      32.280  32.405  26.959  1.00  0.00     0.118 C 
ENDROOT
BRANCH   1   2
ATOM      2  N   UNL A   1      32.244  33.800  27.380  1.00  0.00    -0.352 N 
ATOM      3  O   UNL A   1      32.674  35.607  28.651  1.00  0.00    -0.269 OA
ATOM      4  C   UNL A   1      32.996  34.471  28.311  1.00  0.00     0.251 C 
ATOM      5  H   UNL A   1      31.568  34.351  26.923  1.00  0.00     0.163 HD
BRANCH   4   6
ATOM      6  C   UNL A   1      34.180  33.831  28.925  1.00  0.00     0.039 A 
ATOM      7  C   UNL A   1      34.050  32.676  29.697  1.00  0.00     0.014 A 
ATOM      8  C   UNL A   1      35.446  34.378  28.698  1.00  0.00     0.014 A 
ATOM      9  C   UNL A   1      35.149  32.171  30.378  1.00  0.00     0.010 A 
ATOM     10  C   UNL A   1      36.571  33.803  29.297  1.00  0.00     0.010 A 
ATOM     11  C   UNL A   1      36.427  32.714  30.169  1.00  0.00    -0.014 A 
BRANCH  11  12
ATOM     12  C   UNL A   1      37.598  32.080  30.825  1.00  0.00     0.031 A 
ATOM     13  C   UNL A   1      38.002  32.451  32.223  1.00  0.00     0.074 A 
ATOM     14  C   UNL A   1      38.284  31.139  30.148  1.00  0.00     0.049 A 
ATOM     15  N   UNL A   1      38.994  31.991  32.945  1.00  0.00    -0.248 NA
ATOM     16  C   UNL A   1      37.195  33.476  32.902  1.00  0.00     0.031 C 
ATOM     17  C   UNL A   1      37.990  30.704  28.781  1.00  0.00     0.029 A 
ATOM     18  N   UNL A   1      39.356  30.368  30.516  1.00  0.00    -0.354 N 
ATOM     19  C   UNL A   1      38.943  32.681  34.149  1.00  0.00     0.074 A 
ATOM     20  C   UNL A   1      37.839  33.611  34.054  1.00  0.00     0.031 C 
ATOM     21  C   UNL A   1      38.828  29.716  28.442  1.00  0.00     0.029 A 
ATOM     22  C   UNL A   1      39.764  29.495  29.538  1.00  0.00     0.049 A 
ATOM     23  H   UNL A   1      39.793  30.435  31.397  1.00  0.00     0.167 HD
ATOM     24  C   UNL A   1      39.742  32.540  35.235  1.00  0.00     0.037 A 
ATOM     25  C   UNL A   1      40.790  28.627  29.514  1.00  0.00     0.037 A 
ATOM     26  C   UNL A   1      40.832  31.602  35.324  1.00  0.00     0.049 A 
ATOM     27  C   UNL A   1      41.678  28.518  30.720  1.00  0.00     0.074 A 
ATOM     28  C   UNL A   1      41.676  31.360  36.394  1.00  0.00     0.029 A 
ATOM     29  N   UNL A   1      41.233  30.755  34.301  1.00  0.00    -0.354 N 
ATOM     30  N   UNL A   1      41.598  29.150  31.866  1.00  0.00    -0.248 NA
ATOM     31  C   UNL A   1      42.802  27.577  30.629  1.00  0.00     0.031 C 
ATOM     32  C   UNL A   1      42.620  30.404  36.001  1.00  0.00     0.029 A 
ATOM     33  C   UNL A   1      42.330  30.008  34.705  1.00  0.00     0.049 A 
ATOM     34  H   UNL A   1      40.803  30.693  33.417  1.00  0.00     0.167 HD
ATOM     35  C   UNL A   1      42.645  28.672  32.638  1.00  0.00     0.074 A 
ATOM     36  C   UNL A   1      43.334  27.680  31.838  1.00  0.00     0.031 C 
ATOM     37  C   UNL A   1      43.004  29.024  33.897  1.00  0.00     0.037 A 
BRANCH  24  38
ATOM     38  C   UNL A   1      39.483  33.437  36.412  1.00  0.00     0.064 A 
ATOM     39  C   UNL A   1      38.676  33.033  37.487  1.00  0.00     0.173 A 
ATOM     40  C   UNL A   1      40.090  34.701  36.489  1.00  0.00     0.173 A 
ATOM     41  F   UNL A   1      38.064  31.839  37.461  1.00  0.00    -0.203 F 
ATOM     42  C   UNL A   1      38.468  33.870  38.582  1.00  0.00     0.198 A 
ATOM     43  C   UNL A   1      39.902  35.522  37.598  1.00  0.00     0.198 A 
ATOM     44  F   UNL A   1      40.877  35.134  35.494  1.00  0.00    -0.203 F 
ATOM     45  F   UNL A   1      37.658  33.480  39.576  1.00  0.00    -0.200 F 
ATOM     46  C   UNL A   1      39.085  35.110  38.639  1.00  0.00     0.200 A 
ATOM     47  F   UNL A   1      40.512  36.714  37.658  1.00  0.00    -0.200 F 
ATOM     48  F   UNL A   1      38.890  35.910  39.697  1.00  0.00    -0.200 F 
ENDBRANCH  24  38
BRANCH  25  49
ATOM     49  C   UNL A   1      41.031  27.804  28.301  1.00  0.00     0.064 A 
ATOM     50  C   UNL A   1      41.845  28.273  27.261  1.00  0.00     0.173 A 
ATOM     51  C   UNL A   1      40.466  26.528  28.164  1.00  0.00     0.173 A 
ATOM     52  F   UNL A   1      42.395  29.494  27.338  1.00  0.00    -0.203 F 
ATOM     53  C   UNL A   1      42.073  27.500  26.124  1.00  0.00     0.198 A 
ATOM     54  C   UNL A   1      40.719  25.745  27.042  1.00  0.00     0.198 A 
ATOM     55  F   UNL A   1      39.684  26.031  29.135  1.00  0.00    -0.203 F 
ATOM     56  F   UNL A   1      42.821  27.988  25.126  1.00  0.00    -0.200 F 
ATOM     57  C   UNL A   1      41.516  26.235  26.018  1.00  0.00     0.200 A 
ATOM     58  F   UNL A   1      40.195  24.514  26.953  1.00  0.00    -0.200 F 
ATOM     59  F   UNL A   1      41.744  25.489  24.928  1.00  0.00    -0.200 F 
ENDBRANCH  25  49
BRANCH  37  60
ATOM     60  C   UNL A   1      44.178  28.307  34.497  1.00  0.00     0.064 A 
ATOM     61  C   UNL A   1      45.480  28.823  34.408  1.00  0.00     0.173 A 
ATOM     62  C   UNL A   1      43.994  27.102  35.192  1.00  0.00     0.173 A 
ATOM     63  F   UNL A   1      45.710  29.962  33.738  1.00  0.00    -0.203 F 
ATOM     64  C   UNL A   1      46.558  28.144  34.969  1.00  0.00     0.198 A 
ATOM     65  C   UNL A   1      45.070  26.443  35.778  1.00  0.00     0.198 A 
ATOM     66  F   UNL A   1      42.769  26.569  35.310  1.00  0.00    -0.203 F 
ATOM     67  F   UNL A   1      47.800  28.627  34.827  1.00  0.00    -0.200 F 
ATOM     68  C   UNL A   1      46.351  26.958  35.660  1.00  0.00     0.200 A 
ATOM     69  F   UNL A   1      44.866  25.304  36.458  1.00  0.00    -0.200 F 
ATOM     70  F   UNL A   1      47.389  26.309  36.205  1.00  0.00    -0.200 F 
ENDBRANCH  37  60
ENDBRANCH  11  12
ENDBRANCH   4   6
ENDBRANCH   1   2
BRANCH   1  71
ATOM     71  C   UNL A   1      31.073  32.011  26.122  1.00  0.00     0.042 C 
BRANCH  71  72
ATOM     72  C   UNL A   1      31.203  30.644  25.467  1.00  0.00     0.118 C 
BRANCH  72  73
ATOM     73  N   UNL A   1      30.298  30.491  24.336  1.00  0.00    -0.352 N 
ATOM     74  C   UNL A   1      30.387  29.650  23.257  1.00  0.00     0.251 C 
ATOM     75  H   UNL A   1      29.507  31.076  24.349  1.00  0.00     0.163 HD
ATOM     76  O   UNL A   1      29.660  29.816  22.284  1.00  0.00    -0.269 OA
BRANCH  74  77
ATOM     77  C   UNL A   1      31.377  28.552  23.261  1.00  0.00     0.042 A 
ATOM     78  C   UNL A   1      32.662  28.761  22.742  1.00  0.00     0.016 A 
ATOM     79  C   UNL A   1      30.997  27.321  23.820  1.00  0.00     0.042 A 
ATOM     80  C   UNL A   1      33.586  27.714  22.687  1.00  0.00     0.031 A 
ATOM     81  C   UNL A   1      31.948  26.301  23.757  1.00  0.00     0.067 A 
ATOM     82  C   UNL A   1      33.213  26.468  23.206  1.00  0.00     0.089 A 
ATOM     83  N   UNL A   1      31.934  24.994  24.172  1.00  0.00    -0.338 N 
ATOM     84  N   UNL A   1      33.936  25.310  23.282  1.00  0.00    -0.229 NA
ATOM     85  C   UNL A   1      33.148  24.426  23.860  1.00  0.00     0.138 A 
ATOM     86  H   UNL A   1      31.183  24.539  24.617  1.00  0.00     0.168 HD
BRANCH  85  87
ATOM     87  C   UNL A   1      33.514  23.056  24.188  1.00  0.00     0.021 A 
ATOM     88  C   UNL A   1      32.556  22.043  24.282  1.00  0.00     0.051 A 
ATOM     89  C   UNL A   1      34.866  22.742  24.386  1.00  0.00     0.027 A 
ATOM     90  C   UNL A   1      32.958  20.742  24.574  1.00  0.00     0.125 A 
ATOM     91  C   UNL A   1      35.248  21.436  24.693  1.00  0.00     0.021 A 
ATOM     92  F   UNL A   1      32.035  19.775  24.648  1.00  0.00    -0.207 F 
ATOM     93  C   UNL A   1      34.295  20.428  24.787  1.00  0.00     0.055 A 
ATOM     94  Br  UNL A   1      37.072  21.038  24.983  1.00  0.00    -0.051 Br
ENDBRANCH  85  87
ENDBRANCH  74  77
ENDBRANCH  72  73
ENDBRANCH  71  72
ENDBRANCH   1  71
TORSDOF 11
ENDMDL
MODEL 3
REMARK VINA RESULT:      -9.9      4.742      8.309
REMARK SMILES O=C(NCCCNC(=O)c1ccc2nc(-c3cc(F)cc(Br)c3)[nH]c2c1)c1ccc(-c2c3nc(c(-c4c(F)c(F)c(F)c(F)c4F)c4ccc([nH]4)c(-c4c(F)c(F)c(F)c(F)c4F)c4nc(c(-c5c(F)c(F)c(F)c(F)c5F)c5ccc2[nH]5)C=C4)C=C3)cc1
REMARK SMILES IDX 4 1 3 2 1 3 2 4 27 6 28 7 89 8 29 9 88 10 30 11 31 12 32 13
REMARK SMILES IDX 82 14 33 15 87 16 81 17 83 18 34 19 86 20 80 21 79 22 35 24
REMARK SMILES IDX 67 25 47 26 66 27 48 28 51 29 65 30 84 31 49 32 50 33 64 35
REMARK SMILES IDX 85 36 52 37 36 38 37 39 45 40 38 41 39 42 43 43 46 44 40 45
REMARK SMILES IDX 41 46 44 47 42 48 68 49 69 50 77 51 70 52 71 53 75 54 78 55
REMARK SMILES IDX 72 56 73 57 76 58 74 59 53 60 54 61 62 62 55 63 56 64 60 65
REMARK SMILES IDX 63 66 57 67 58 68 61 69 59 70 5 71 6 72 7 73 8 74 9 76 10 77
REMARK SMILES IDX 11 78 26 79 12 80 25 81 13 82 24 83 14 84 15 85 16 87 17 88
REMARK SMILES IDX 23 89 18 90 21 91 19 92 20 93 22 94
REMARK H PARENT 3 5 83 23 51 34 7 75 24 86
REMARK Flexibility Score: inf
ROOT
ATOM      1  C   UNL A   1      32.397  32.419  26.906  1.00  0.00     0.118 C 
ENDROOT
BRANCH   1   2
ATOM      2  N   UNL A   1      32.320  33.800  27.369  1.00  0.00    -0.352 N 
ATOM      3  O   UNL A   1      32.684  35.576  28.702  1.00  0.00    -0.269 OA
ATOM      4  C   UNL A   1      33.039  34.458  28.335  1.00  0.00     0.251 C 
ATOM      5  H   UNL A   1      31.640  34.348  26.915  1.00  0.00     0.163 HD
BRANCH   4   6
ATOM      6  C   UNL A   1      34.225  33.828  28.951  1.00  0.00     0.039 A 
ATOM      7  C   UNL A   1      34.092  32.731  29.802  1.00  0.00     0.014 A 
ATOM      8  C   UNL A   1      35.497  34.323  28.648  1.00  0.00     0.014 A 
ATOM      9  C   UNL A   1      35.200  32.240  30.480  1.00  0.00     0.010 A 
ATOM     10  C   UNL A   1      36.627  33.757  29.247  1.00  0.00     0.010 A 
ATOM     11  C   UNL A   1      36.484  32.732  30.195  1.00  0.00    -0.014 A 
BRANCH  11  12
ATOM     12  C   UNL A   1      37.660  32.111  30.853  1.00  0.00     0.031 A 
ATOM     13  C   UNL A   1      38.071  32.502  32.244  1.00  0.00     0.074 A 
ATOM     14  C   UNL A   1      38.345  31.162  30.186  1.00  0.00     0.049 A 
ATOM     15  N   UNL A   1      39.068  32.056  32.967  1.00  0.00    -0.248 NA
ATOM     16  C   UNL A   1      37.265  33.535  32.912  1.00  0.00     0.031 C 
ATOM     17  C   UNL A   1      38.044  30.707  28.827  1.00  0.00     0.029 A 
ATOM     18  N   UNL A   1      39.421  30.399  30.560  1.00  0.00    -0.354 N 
ATOM     19  C   UNL A   1      39.021  32.762  34.161  1.00  0.00     0.074 A 
ATOM     20  C   UNL A   1      37.914  33.689  34.058  1.00  0.00     0.031 C 
ATOM     21  C   UNL A   1      38.883  29.715  28.498  1.00  0.00     0.029 A 
ATOM     22  C   UNL A   1      39.825  29.512  29.592  1.00  0.00     0.049 A 
ATOM     23  H   UNL A   1      39.862  30.479  31.437  1.00  0.00     0.167 HD
ATOM     24  C   UNL A   1      39.826  32.639  35.244  1.00  0.00     0.037 A 
ATOM     25  C   UNL A   1      40.854  28.646  29.575  1.00  0.00     0.037 A 
ATOM     26  C   UNL A   1      40.918  31.704  35.341  1.00  0.00     0.049 A 
ATOM     27  C   UNL A   1      41.747  28.556  30.778  1.00  0.00     0.074 A 
ATOM     28  C   UNL A   1      41.769  31.479  36.411  1.00  0.00     0.029 A 
ATOM     29  N   UNL A   1      41.316  30.843  34.329  1.00  0.00    -0.354 N 
ATOM     30  N   UNL A   1      41.672  29.204  31.914  1.00  0.00    -0.248 NA
ATOM     31  C   UNL A   1      42.873  27.617  30.695  1.00  0.00     0.031 C 
ATOM     32  C   UNL A   1      42.713  30.520  36.026  1.00  0.00     0.029 A 
ATOM     33  C   UNL A   1      42.416  30.105  34.738  1.00  0.00     0.049 A 
ATOM     34  H   UNL A   1      40.881  30.768  33.448  1.00  0.00     0.167 HD
ATOM     35  C   UNL A   1      42.724  28.740  32.688  1.00  0.00     0.074 A 
ATOM     36  C   UNL A   1      43.412  27.738  31.899  1.00  0.00     0.031 C 
ATOM     37  C   UNL A   1      43.089  29.111  33.940  1.00  0.00     0.037 A 
BRANCH  24  38
ATOM     38  C   UNL A   1      39.571  33.552  36.411  1.00  0.00     0.064 A 
ATOM     39  C   UNL A   1      38.760  33.166  37.489  1.00  0.00     0.173 A 
ATOM     40  C   UNL A   1      40.185  34.813  36.472  1.00  0.00     0.173 A 
ATOM     41  F   UNL A   1      38.141  31.976  37.477  1.00  0.00    -0.203 F 
ATOM     42  C   UNL A   1      38.555  34.018  38.573  1.00  0.00     0.198 A 
ATOM     43  C   UNL A   1      40.001  35.648  37.571  1.00  0.00     0.198 A 
ATOM     44  F   UNL A   1      40.976  35.229  35.473  1.00  0.00    -0.203 F 
ATOM     45  F   UNL A   1      37.742  33.646  39.571  1.00  0.00    -0.200 F 
ATOM     46  C   UNL A   1      39.181  35.255  38.616  1.00  0.00     0.200 A 
ATOM     47  F   UNL A   1      40.619  36.838  37.617  1.00  0.00    -0.200 F 
ATOM     48  F   UNL A   1      38.989  36.069  39.664  1.00  0.00    -0.200 F 
ENDBRANCH  24  38
BRANCH  25  49
ATOM     49  C   UNL A   1      41.090  27.807  28.372  1.00  0.00     0.064 A 
ATOM     50  C   UNL A   1      40.500  26.542  28.246  1.00  0.00     0.173 A 
ATOM     51  C   UNL A   1      41.898  28.260  27.318  1.00  0.00     0.173 A 
ATOM     52  F   UNL A   1      39.733  26.060  29.235  1.00  0.00    -0.203 F 
ATOM     53  C   UNL A   1      40.721  25.757  27.117  1.00  0.00     0.198 A 
ATOM     54  C   UNL A   1      42.092  27.486  26.177  1.00  0.00     0.198 A 
ATOM     55  F   UNL A   1      42.480  29.466  27.388  1.00  0.00    -0.203 F 
ATOM     56  F   UNL A   1      40.178  24.534  27.039  1.00  0.00    -0.200 F 
ATOM     57  C   UNL A   1      41.510  26.232  26.081  1.00  0.00     0.200 A 
ATOM     58  F   UNL A   1      42.839  27.959  25.169  1.00  0.00    -0.200 F 
ATOM     59  F   UNL A   1      41.713  25.479  24.991  1.00  0.00    -0.200 F 
ENDBRANCH  25  49
BRANCH  37  60
ATOM     60  C   UNL A   1      44.268  28.405  34.544  1.00  0.00     0.064 A 
ATOM     61  C   UNL A   1      44.122  27.200  35.249  1.00  0.00     0.173 A 
ATOM     62  C   UNL A   1      45.561  28.928  34.396  1.00  0.00     0.173 A 
ATOM     63  F   UNL A   1      42.905  26.669  35.434  1.00  0.00    -0.203 F 
ATOM     64  C   UNL A   1      45.227  26.560  35.805  1.00  0.00     0.198 A 
ATOM     65  C   UNL A   1      46.665  28.270  34.926  1.00  0.00     0.198 A 
ATOM     66  F   UNL A   1      45.754  30.076  33.727  1.00  0.00    -0.203 F 
ATOM     67  F   UNL A   1      45.059  25.439  36.519  1.00  0.00    -0.200 F 
ATOM     68  C   UNL A   1      46.498  27.091  35.637  1.00  0.00     0.200 A 
ATOM     69  F   UNL A   1      47.894  28.777  34.751  1.00  0.00    -0.200 F 
ATOM     70  F   UNL A   1      47.560  26.471  36.168  1.00  0.00    -0.200 F 
ENDBRANCH  37  60
ENDBRANCH  11  12
ENDBRANCH   4   6
ENDBRANCH   1   2
BRANCH   1  71
ATOM     71  C   UNL A   1      31.147  31.977  26.162  1.00  0.00     0.042 C 
BRANCH  71  72
ATOM     72  C   UNL A   1      31.286  30.623  25.483  1.00  0.00     0.118 C 
BRANCH  72  73
ATOM     73  N   UNL A   1      30.340  30.459  24.389  1.00  0.00    -0.352 N 
ATOM     74  C   UNL A   1      30.389  29.608  23.315  1.00  0.00     0.251 C 
ATOM     75  H   UNL A   1      29.550  31.044  24.426  1.00  0.00     0.163 HD
ATOM     76  O   UNL A   1      29.626  29.765  22.368  1.00  0.00    -0.269 OA
BRANCH  74  77
ATOM     77  C   UNL A   1      31.379  28.511  23.291  1.00  0.00     0.042 A 
ATOM     78  C   UNL A   1      32.644  28.715  22.723  1.00  0.00     0.016 A 
ATOM     79  C   UNL A   1      31.021  27.285  23.874  1.00  0.00     0.042 A 
ATOM     80  C   UNL A   1      33.566  27.669  22.643  1.00  0.00     0.031 A 
ATOM     81  C   UNL A   1      31.969  26.264  23.785  1.00  0.00     0.067 A 
ATOM     82  C   UNL A   1      33.213  26.427  23.186  1.00  0.00     0.089 A 
ATOM     83  N   UNL A   1      31.971  24.960  24.211  1.00  0.00    -0.338 N 
ATOM     84  N   UNL A   1      33.938  25.270  23.245  1.00  0.00    -0.229 NA
ATOM     85  C   UNL A   1      33.173  24.390  23.859  1.00  0.00     0.138 A 
ATOM     86  H   UNL A   1      31.237  24.509  24.687  1.00  0.00     0.168 HD
BRANCH  85  87
ATOM     87  C   UNL A   1      33.552  23.023  24.185  1.00  0.00     0.021 A 
ATOM     88  C   UNL A   1      32.601  22.004  24.292  1.00  0.00     0.051 A 
ATOM     89  C   UNL A   1      34.908  22.718  24.367  1.00  0.00     0.027 A 
ATOM     90  C   UNL A   1      33.015  20.707  24.582  1.00  0.00     0.125 A 
ATOM     91  C   UNL A   1      35.301  21.415  24.671  1.00  0.00     0.021 A 
ATOM     92  F   UNL A   1      32.099  19.734  24.669  1.00  0.00    -0.207 F 
ATOM     93  C   UNL A   1      34.357  20.401  24.779  1.00  0.00     0.055 A 
ATOM     94  Br  UNL A   1      37.132  21.029  24.940  1.00  0.00    -0.051 Br
ENDBRANCH  85  87
ENDBRANCH  74  77
ENDBRANCH  72  73
ENDBRANCH  71  72
ENDBRANCH   1  71
TORSDOF 11
ENDMDL
