MODEL 1
REMARK VINA RESULT:     -12.5      0.000      0.000
REMARK SMILES Cc1nc(-c2ccc(C(F)(F)F)cc2)nc(SCC(=O)NCCCNC(=O)c2ccc(-c3c4nc(c(-c5c(F)c(F)c(F)c(F)c5F)c5ccc([nH]5)c(-c5c(F)c(F)c(F)c(F)c5F)c5nc(c(-c6c(F)c(F)c(F)c(F)c6F)c6ccc3[nH]6)C=C5)C=C4)cc2)c1C
REMARK SMILES IDX 22 1 21 2 19 3 20 4 18 6 17 7 16 8 1 9 2 10 3 11 91 12 4 13
REMARK SMILES IDX 92 14 15 15 5 16 6 17 14 18 7 19 13 20 8 21 9 22 10 23 11 24
REMARK SMILES IDX 12 25 23 26 24 27 25 28 26 29 27 31 28 32 29 33 90 34 30 35
REMARK SMILES IDX 89 36 31 37 32 38 33 39 83 40 34 41 88 42 82 43 84 44 35 45
REMARK SMILES IDX 87 46 81 47 80 48 36 50 68 51 48 52 67 53 49 54 52 55 66 56
REMARK SMILES IDX 85 57 50 58 51 59 65 61 86 62 53 63 37 64 38 65 46 66 39 67
REMARK SMILES IDX 40 68 44 69 47 70 41 71 42 72 45 73 43 74 69 75 70 76 78 77
REMARK SMILES IDX 71 78 72 79 76 80 79 81 73 82 74 83 77 84 75 85 54 86 55 87
REMARK SMILES IDX 63 88 56 89 57 90 61 91 64 92 58 93 59 94 62 95 60 96
REMARK H PARENT 21 5 25 30 84 49 52 60
REMARK Flexibility Score: inf
ROOT
ATOM      1  C   UNL A   1      31.435  30.853  26.108  1.00  0.00     0.117 C 
ENDROOT
BRANCH   1   2
ATOM      2  N   UNL A   1      32.716  30.264  26.453  1.00  0.00    -0.355 N 
ATOM      3  C   UNL A   1      33.092  28.959  26.496  1.00  0.00     0.230 C 
ATOM      4  O   UNL A   1      34.303  28.732  26.593  1.00  0.00    -0.274 OA
ATOM      5  H   UNL A   1      33.420  30.910  26.693  1.00  0.00     0.163 HD
BRANCH   3   6
ATOM      6  C   UNL A   1      32.104  27.826  26.319  1.00  0.00     0.176 C 
BRANCH   6   7
ATOM      7  S   UNL A   1      32.803  26.156  26.275  1.00  0.00    -0.096 SA
BRANCH   7   8
ATOM      8  C   UNL A   1      32.798  25.446  24.640  1.00  0.00     0.104 A 
ATOM      9  C   UNL A   1      32.686  25.563  20.863  1.00  0.00     0.067 C 
ATOM     10  C   UNL A   1      32.780  25.122  22.297  1.00  0.00     0.045 A 
ATOM     11  N   UNL A   1      32.991  23.803  22.448  1.00  0.00    -0.233 NA
ATOM     12  C   UNL A   1      32.661  26.012  23.375  1.00  0.00     0.003 A 
ATOM     13  C   UNL A   1      33.055  23.341  23.696  1.00  0.00     0.160 A 
ATOM     14  C   UNL A   1      32.478  27.464  23.083  1.00  0.00     0.049 C 
ATOM     15  N   UNL A   1      32.963  24.105  24.790  1.00  0.00    -0.221 NA
BRANCH  13  16
ATOM     16  C   UNL A   1      33.243  21.896  23.852  1.00  0.00     0.019 A 
ATOM     17  C   UNL A   1      32.307  20.994  23.318  1.00  0.00     0.012 A 
ATOM     18  C   UNL A   1      34.320  21.370  24.583  1.00  0.00     0.012 A 
ATOM     19  C   UNL A   1      32.430  19.617  23.518  1.00  0.00     0.014 A 
ATOM     20  C   UNL A   1      34.437  19.991  24.802  1.00  0.00     0.014 A 
ATOM     21  C   UNL A   1      33.489  19.101  24.278  1.00  0.00     0.056 A 
BRANCH  21  22
ATOM     22  C   UNL A   1      33.581  17.614  24.524  1.00  0.00     0.416 C 
ATOM     23  F   UNL A   1      33.168  16.884  23.449  1.00  0.00    -0.166 F 
ATOM     24  F   UNL A   1      34.853  17.206  24.784  1.00  0.00    -0.166 F 
ATOM     25  F   UNL A   1      32.827  17.185  25.575  1.00  0.00    -0.166 F 
ENDBRANCH  21  22
ENDBRANCH  13  16
ENDBRANCH   7   8
ENDBRANCH   6   7
ENDBRANCH   3   6
ENDBRANCH   1   2
BRANCH   1  26
ATOM     26  C   UNL A   1      31.339  32.324  26.493  1.00  0.00     0.042 C 
BRANCH  26  27
ATOM     27  C   UNL A   1      32.548  32.857  27.260  1.00  0.00     0.118 C 
BRANCH  27  28
ATOM     28  N   UNL A   1      32.398  34.248  27.663  1.00  0.00    -0.352 N 
ATOM     29  C   UNL A   1      33.027  34.965  28.651  1.00  0.00     0.251 C 
ATOM     30  H   UNL A   1      31.739  34.759  27.141  1.00  0.00     0.163 HD
ATOM     31  O   UNL A   1      32.613  36.082  28.945  1.00  0.00    -0.269 OA
BRANCH  29  32
ATOM     32  C   UNL A   1      34.183  34.398  29.378  1.00  0.00     0.039 A 
ATOM     33  C   UNL A   1      33.960  33.759  30.602  1.00  0.00     0.014 A 
ATOM     34  C   UNL A   1      35.484  34.527  28.887  1.00  0.00     0.014 A 
ATOM     35  C   UNL A   1      35.031  33.190  31.294  1.00  0.00     0.010 A 
ATOM     36  C   UNL A   1      36.540  33.893  29.538  1.00  0.00     0.010 A 
ATOM     37  C   UNL A   1      36.325  33.221  30.750  1.00  0.00    -0.014 A 
BRANCH  37  38
ATOM     38  C   UNL A   1      37.466  32.569  31.443  1.00  0.00     0.031 A 
ATOM     39  C   UNL A   1      38.200  31.434  30.783  1.00  0.00     0.074 A 
ATOM     40  C   UNL A   1      37.822  32.980  32.677  1.00  0.00     0.049 A 
ATOM     41  N   UNL A   1      39.180  30.701  31.248  1.00  0.00    -0.248 NA
ATOM     42  C   UNL A   1      37.767  31.061  29.425  1.00  0.00     0.031 C 
ATOM     43  C   UNL A   1      37.177  34.058  33.428  1.00  0.00     0.029 A 
ATOM     44  N   UNL A   1      38.816  32.540  33.517  1.00  0.00    -0.354 N 
ATOM     45  C   UNL A   1      39.482  29.791  30.243  1.00  0.00     0.074 A 
ATOM     46  C   UNL A   1      38.543  30.018  29.167  1.00  0.00     0.031 C 
ATOM     47  C   UNL A   1      37.813  34.219  34.600  1.00  0.00     0.029 A 
ATOM     48  C   UNL A   1      38.880  33.229  34.705  1.00  0.00     0.049 A 
ATOM     49  H   UNL A   1      39.425  31.801  33.290  1.00  0.00     0.167 HD
ATOM     50  C   UNL A   1      40.476  28.874  30.208  1.00  0.00     0.037 A 
ATOM     51  C   UNL A   1      39.704  33.074  35.760  1.00  0.00     0.037 A 
ATOM     52  C   UNL A   1      41.423  28.664  31.270  1.00  0.00     0.049 A 
ATOM     53  C   UNL A   1      40.758  31.999  35.714  1.00  0.00     0.074 A 
ATOM     54  C   UNL A   1      42.475  27.765  31.319  1.00  0.00     0.029 A 
ATOM     55  N   UNL A   1      41.441  29.366  32.466  1.00  0.00    -0.354 N 
ATOM     56  N   UNL A   1      41.058  31.172  34.741  1.00  0.00    -0.248 NA
ATOM     57  C   UNL A   1      41.591  31.835  36.914  1.00  0.00     0.031 C 
ATOM     58  C   UNL A   1      43.105  27.897  32.558  1.00  0.00     0.029 A 
ATOM     59  C   UNL A   1      42.477  28.910  33.263  1.00  0.00     0.049 A 
ATOM     60  H   UNL A   1      40.810  30.082  32.710  1.00  0.00     0.167 HD
ATOM     61  C   UNL A   1      42.131  30.419  35.197  1.00  0.00     0.074 A 
ATOM     62  C   UNL A   1      42.444  30.897  36.527  1.00  0.00     0.031 C 
ATOM     63  C   UNL A   1      42.794  29.417  34.573  1.00  0.00     0.037 A 
BRANCH  50  64
ATOM     64  C   UNL A   1      40.629  28.045  28.968  1.00  0.00     0.064 A 
ATOM     65  C   UNL A   1      39.898  26.861  28.797  1.00  0.00     0.173 A 
ATOM     66  C   UNL A   1      41.421  28.491  27.899  1.00  0.00     0.173 A 
ATOM     67  F   UNL A   1      39.135  26.387  29.793  1.00  0.00    -0.203 F 
ATOM     68  C   UNL A   1      39.953  26.153  27.599  1.00  0.00     0.198 A 
ATOM     69  C   UNL A   1      41.453  27.795  26.694  1.00  0.00     0.198 A 
ATOM     70  F   UNL A   1      42.135  29.622  28.012  1.00  0.00    -0.203 F 
ATOM     71  F   UNL A   1      39.259  25.014  27.464  1.00  0.00    -0.200 F 
ATOM     72  C   UNL A   1      40.718  26.627  26.545  1.00  0.00     0.200 A 
ATOM     73  F   UNL A   1      42.179  28.263  25.670  1.00  0.00    -0.200 F 
ATOM     74  F   UNL A   1      40.746  25.960  25.383  1.00  0.00    -0.200 F 
ENDBRANCH  50  64
BRANCH  51  75
ATOM     75  C   UNL A   1      39.592  33.968  36.944  1.00  0.00     0.064 A 
ATOM     76  C   UNL A   1      38.827  33.588  38.057  1.00  0.00     0.173 A 
ATOM     77  C   UNL A   1      40.209  35.226  36.980  1.00  0.00     0.173 A 
ATOM     78  F   UNL A   1      38.198  32.402  38.065  1.00  0.00    -0.203 F 
ATOM     79  C   UNL A   1      38.659  34.443  39.144  1.00  0.00     0.198 A 
ATOM     80  C   UNL A   1      40.067  36.068  38.081  1.00  0.00     0.198 A 
ATOM     81  F   UNL A   1      40.953  35.640  35.944  1.00  0.00    -0.203 F 
ATOM     82  F   UNL A   1      37.873  34.077  40.166  1.00  0.00    -0.200 F 
ATOM     83  C   UNL A   1      39.282  35.681  39.158  1.00  0.00     0.200 A 
ATOM     84  F   UNL A   1      40.684  37.258  38.097  1.00  0.00    -0.200 F 
ATOM     85  F   UNL A   1      39.118  36.505  40.202  1.00  0.00    -0.200 F 
ENDBRANCH  51  75
BRANCH  63  86
ATOM     86  C   UNL A   1      43.950  28.787  35.294  1.00  0.00     0.064 A 
ATOM     87  C   UNL A   1      45.256  29.272  35.148  1.00  0.00     0.173 A 
ATOM     88  C   UNL A   1      43.734  27.737  36.202  1.00  0.00     0.173 A 
ATOM     89  F   UNL A   1      45.516  30.265  34.284  1.00  0.00    -0.203 F 
ATOM     90  C   UNL A   1      46.309  28.720  35.874  1.00  0.00     0.198 A 
ATOM     91  C   UNL A   1      44.782  27.210  36.948  1.00  0.00     0.198 A 
ATOM     92  F   UNL A   1      42.499  27.245  36.385  1.00  0.00    -0.203 F 
ATOM     93  F   UNL A   1      47.556  29.175  35.691  1.00  0.00    -0.200 F 
ATOM     94  C   UNL A   1      46.070  27.698  36.780  1.00  0.00     0.200 A 
ATOM     95  F   UNL A   1      44.546  26.236  37.838  1.00  0.00    -0.200 F 
ATOM     96  F   UNL A   1      47.081  27.182  37.492  1.00  0.00    -0.200 F 
ENDBRANCH  63  86
ENDBRANCH  37  38
ENDBRANCH  29  32
ENDBRANCH  27  28
ENDBRANCH  26  27
ENDBRANCH   1  26
TORSDOF 14
ENDMDL
MODEL 2
REMARK VINA RESULT:     -12.5      1.962      7.596
REMARK SMILES Cc1nc(-c2ccc(C(F)(F)F)cc2)nc(SCC(=O)NCCCNC(=O)c2ccc(-c3c4nc(c(-c5c(F)c(F)c(F)c(F)c5F)c5ccc([nH]5)c(-c5c(F)c(F)c(F)c(F)c5F)c5nc(c(-c6c(F)c(F)c(F)c(F)c6F)c6ccc3[nH]6)C=C5)C=C4)cc2)c1C
REMARK SMILES IDX 22 1 21 2 19 3 20 4 18 6 17 7 16 8 1 9 2 10 3 11 91 12 4 13
REMARK SMILES IDX 92 14 15 15 5 16 6 17 14 18 7 19 13 20 8 21 9 22 10 23 11 24
REMARK SMILES IDX 12 25 23 26 24 27 25 28 26 29 27 31 28 32 29 33 90 34 30 35
REMARK SMILES IDX 89 36 31 37 32 38 33 39 83 40 34 41 88 42 82 43 84 44 35 45
REMARK SMILES IDX 87 46 81 47 80 48 36 50 68 51 48 52 67 53 49 54 52 55 66 56
REMARK SMILES IDX 85 57 50 58 51 59 65 61 86 62 53 63 37 64 38 65 46 66 39 67
REMARK SMILES IDX 40 68 44 69 47 70 41 71 42 72 45 73 43 74 69 75 70 76 78 77
REMARK SMILES IDX 71 78 72 79 76 80 79 81 73 82 74 83 77 84 75 85 54 86 55 87
REMARK SMILES IDX 63 88 56 89 57 90 61 91 64 92 58 93 59 94 62 95 60 96
REMARK H PARENT 21 5 25 30 84 49 52 60
REMARK Flexibility Score: inf
ROOT
ATOM      1  C   UNL A   1      31.389  30.467  26.222  1.00  0.00     0.117 C 
ENDROOT
BRANCH   1   2
ATOM      2  N   UNL A   1      31.351  30.161  24.805  1.00  0.00    -0.355 N 
ATOM      3  C   UNL A   1      31.581  28.986  24.161  1.00  0.00     0.230 C 
ATOM      4  O   UNL A   1      31.256  28.932  22.970  1.00  0.00    -0.274 OA
ATOM      5  H   UNL A   1      31.123  30.920  24.220  1.00  0.00     0.163 HD
BRANCH   3   6
ATOM      6  C   UNL A   1      32.103  27.759  24.877  1.00  0.00     0.176 C 
BRANCH   6   7
ATOM      7  S   UNL A   1      33.654  27.066  24.249  1.00  0.00    -0.096 SA
BRANCH   7   8
ATOM      8  C   UNL A   1      33.565  25.307  23.973  1.00  0.00     0.104 A 
ATOM      9  C   UNL A   1      32.006  22.130  22.643  1.00  0.00     0.067 C 
ATOM     10  C   UNL A   1      32.921  23.140  23.280  1.00  0.00     0.045 A 
ATOM     11  N   UNL A   1      34.069  22.618  23.742  1.00  0.00    -0.233 NA
ATOM     12  C   UNL A   1      32.598  24.501  23.377  1.00  0.00     0.003 A 
ATOM     13  C   UNL A   1      34.913  23.454  24.347  1.00  0.00     0.160 A 
ATOM     14  C   UNL A   1      31.314  24.974  22.782  1.00  0.00     0.049 C 
ATOM     15  N   UNL A   1      34.705  24.768  24.482  1.00  0.00    -0.221 NA
BRANCH  13  16
ATOM     16  C   UNL A   1      36.143  22.870  24.886  1.00  0.00     0.019 A 
ATOM     17  C   UNL A   1      37.019  23.645  25.665  1.00  0.00     0.012 A 
ATOM     18  C   UNL A   1      36.517  21.548  24.596  1.00  0.00     0.012 A 
ATOM     19  C   UNL A   1      38.232  23.129  26.127  1.00  0.00     0.014 A 
ATOM     20  C   UNL A   1      37.741  21.031  25.041  1.00  0.00     0.014 A 
ATOM     21  C   UNL A   1      38.615  21.819  25.805  1.00  0.00     0.056 A 
BRANCH  21  22
ATOM     22  C   UNL A   1      39.950  21.292  26.272  1.00  0.00     0.416 C 
ATOM     23  F   UNL A   1      40.157  21.510  27.602  1.00  0.00    -0.166 F 
ATOM     24  F   UNL A   1      40.072  19.948  26.092  1.00  0.00    -0.166 F 
ATOM     25  F   UNL A   1      41.014  21.854  25.634  1.00  0.00    -0.166 F 
ENDBRANCH  21  22
ENDBRANCH  13  16
ENDBRANCH   7   8
ENDBRANCH   6   7
ENDBRANCH   3   6
ENDBRANCH   1   2
BRANCH   1  26
ATOM     26  C   UNL A   1      31.404  31.966  26.502  1.00  0.00     0.042 C 
BRANCH  26  27
ATOM     27  C   UNL A   1      32.697  32.477  27.134  1.00  0.00     0.118 C 
BRANCH  27  28
ATOM     28  N   UNL A   1      32.596  33.851  27.606  1.00  0.00    -0.352 N 
ATOM     29  C   UNL A   1      33.277  34.508  28.600  1.00  0.00     0.251 C 
ATOM     30  H   UNL A   1      31.928  34.399  27.133  1.00  0.00     0.163 HD
ATOM     31  O   UNL A   1      32.902  35.619  28.960  1.00  0.00    -0.269 OA
BRANCH  29  32
ATOM     32  C   UNL A   1      34.447  33.883  29.255  1.00  0.00     0.039 A 
ATOM     33  C   UNL A   1      34.229  32.889  30.214  1.00  0.00     0.014 A 
ATOM     34  C   UNL A   1      35.749  34.296  28.964  1.00  0.00     0.014 A 
ATOM     35  C   UNL A   1      35.317  32.263  30.825  1.00  0.00     0.010 A 
ATOM     36  C   UNL A   1      36.834  33.620  29.517  1.00  0.00     0.010 A 
ATOM     37  C   UNL A   1      36.630  32.598  30.455  1.00  0.00    -0.014 A 
BRANCH  37  38
ATOM     38  C   UNL A   1      37.798  31.902  31.053  1.00  0.00     0.031 A 
ATOM     39  C   UNL A   1      38.226  32.221  32.460  1.00  0.00     0.074 A 
ATOM     40  C   UNL A   1      38.489  31.005  30.321  1.00  0.00     0.049 A 
ATOM     41  N   UNL A   1      39.250  31.765  33.136  1.00  0.00    -0.248 NA
ATOM     42  C   UNL A   1      37.405  33.192  33.202  1.00  0.00     0.031 C 
ATOM     43  C   UNL A   1      38.182  30.623  28.942  1.00  0.00     0.029 A 
ATOM     44  N   UNL A   1      39.592  30.249  30.636  1.00  0.00    -0.354 N 
ATOM     45  C   UNL A   1      39.191  32.386  34.376  1.00  0.00     0.074 A 
ATOM     46  C   UNL A   1      38.070  33.299  34.343  1.00  0.00     0.031 C 
ATOM     47  C   UNL A   1      39.052  29.682  28.542  1.00  0.00     0.029 A 
ATOM     48  C   UNL A   1      40.005  29.424  29.617  1.00  0.00     0.049 A 
ATOM     49  H   UNL A   1      40.044  30.295  31.509  1.00  0.00     0.167 HD
ATOM     50  C   UNL A   1      39.980  32.185  35.457  1.00  0.00     0.037 A 
ATOM     51  C   UNL A   1      41.040  28.562  29.557  1.00  0.00     0.037 A 
ATOM     52  C   UNL A   1      41.081  31.261  35.497  1.00  0.00     0.049 A 
ATOM     53  C   UNL A   1      41.937  28.412  30.758  1.00  0.00     0.074 A 
ATOM     54  C   UNL A   1      41.930  30.979  36.554  1.00  0.00     0.029 A 
ATOM     55  N   UNL A   1      41.481  30.461  34.438  1.00  0.00    -0.354 N 
ATOM     56  N   UNL A   1      41.846  28.976  31.938  1.00  0.00    -0.248 NA
ATOM     57  C   UNL A   1      43.084  27.502  30.619  1.00  0.00     0.031 C 
ATOM     58  C   UNL A   1      42.867  30.038  36.123  1.00  0.00     0.029 A 
ATOM     59  C   UNL A   1      42.573  29.696  34.813  1.00  0.00     0.049 A 
ATOM     60  H   UNL A   1      41.052  30.440  33.552  1.00  0.00     0.167 HD
ATOM     61  C   UNL A   1      42.896  28.465  32.688  1.00  0.00     0.074 A 
ATOM     62  C   UNL A   1      43.603  27.531  31.838  1.00  0.00     0.031 C 
ATOM     63  C   UNL A   1      43.248  28.749  33.964  1.00  0.00     0.037 A 
BRANCH  50  64
ATOM     64  C   UNL A   1      39.667  32.945  36.711  1.00  0.00     0.064 A 
ATOM     65  C   UNL A   1      40.321  34.151  37.007  1.00  0.00     0.173 A 
ATOM     66  C   UNL A   1      38.633  32.531  37.564  1.00  0.00     0.173 A 
ATOM     67  F   UNL A   1      41.323  34.584  36.229  1.00  0.00    -0.203 F 
ATOM     68  C   UNL A   1      39.949  34.914  38.111  1.00  0.00     0.198 A 
ATOM     69  C   UNL A   1      38.247  33.310  38.651  1.00  0.00     0.198 A 
ATOM     70  F   UNL A   1      37.973  31.388  37.321  1.00  0.00    -0.203 F 
ATOM     71  F   UNL A   1      40.599  36.054  38.383  1.00  0.00    -0.200 F 
ATOM     72  C   UNL A   1      38.904  34.501  38.923  1.00  0.00     0.200 A 
ATOM     73  F   UNL A   1      37.226  32.918  39.426  1.00  0.00    -0.200 F 
ATOM     74  F   UNL A   1      38.529  35.252  39.967  1.00  0.00    -0.200 F 
ENDBRANCH  50  64
BRANCH  51  75
ATOM     75  C   UNL A   1      41.278  27.751  28.333  1.00  0.00     0.064 A 
ATOM     76  C   UNL A   1      40.810  26.431  28.248  1.00  0.00     0.173 A 
ATOM     77  C   UNL A   1      42.001  28.255  27.243  1.00  0.00     0.173 A 
ATOM     78  F   UNL A   1      40.131  25.894  29.273  1.00  0.00    -0.203 F 
ATOM     79  C   UNL A   1      41.084  25.638  27.135  1.00  0.00     0.198 A 
ATOM     80  C   UNL A   1      42.247  27.472  26.117  1.00  0.00     0.198 A 
ATOM     81  F   UNL A   1      42.470  29.511  27.270  1.00  0.00    -0.203 F 
ATOM     82  F   UNL A   1      40.677  24.362  27.109  1.00  0.00    -0.200 F 
ATOM     83  C   UNL A   1      41.799  26.160  26.069  1.00  0.00     0.200 A 
ATOM     84  F   UNL A   1      42.925  27.985  25.081  1.00  0.00    -0.200 F 
ATOM     85  F   UNL A   1      42.064  25.397  25.000  1.00  0.00    -0.200 F 
ENDBRANCH  51  75
BRANCH  63  86
ATOM     86  C   UNL A   1      44.424  28.020  34.545  1.00  0.00     0.064 A 
ATOM     87  C   UNL A   1      45.715  28.564  34.508  1.00  0.00     0.173 A 
ATOM     88  C   UNL A   1      44.243  26.799  35.215  1.00  0.00     0.173 A 
ATOM     89  F   UNL A   1      45.942  29.722  33.868  1.00  0.00    -0.203 F 
ATOM     90  C   UNL A   1      46.786  27.906  35.108  1.00  0.00     0.198 A 
ATOM     91  C   UNL A   1      45.309  26.161  35.841  1.00  0.00     0.198 A 
ATOM     92  F   UNL A   1      43.024  26.242  35.288  1.00  0.00    -0.203 F 
ATOM     93  F   UNL A   1      48.018  28.427  35.028  1.00  0.00    -0.200 F 
ATOM     94  C   UNL A   1      46.580  26.713  35.783  1.00  0.00     0.200 A 
ATOM     95  F   UNL A   1      45.105  25.018  36.510  1.00  0.00    -0.200 F 
ATOM     96  F   UNL A   1      47.608  26.092  36.378  1.00  0.00    -0.200 F 
ENDBRANCH  63  86
ENDBRANCH  37  38
ENDBRANCH  29  32
ENDBRANCH  27  28
ENDBRANCH  26  27
ENDBRANCH   1  26
TORSDOF 14
ENDMDL
MODEL 3
REMARK VINA RESULT:     -12.4      6.043     10.192
REMARK SMILES Cc1nc(-c2ccc(C(F)(F)F)cc2)nc(SCC(=O)NCCCNC(=O)c2ccc(-c3c4nc(c(-c5c(F)c(F)c(F)c(F)c5F)c5ccc([nH]5)c(-c5c(F)c(F)c(F)c(F)c5F)c5nc(c(-c6c(F)c(F)c(F)c(F)c6F)c6ccc3[nH]6)C=C5)C=C4)cc2)c1C
REMARK SMILES IDX 22 1 21 2 19 3 20 4 18 6 17 7 16 8 1 9 2 10 3 11 91 12 4 13
REMARK SMILES IDX 92 14 15 15 5 16 6 17 14 18 7 19 13 20 8 21 9 22 10 23 11 24
REMARK SMILES IDX 12 25 23 26 24 27 25 28 26 29 27 31 28 32 29 33 90 34 30 35
REMARK SMILES IDX 89 36 31 37 32 38 33 39 83 40 34 41 88 42 82 43 84 44 35 45
REMARK SMILES IDX 87 46 81 47 80 48 36 50 68 51 48 52 67 53 49 54 52 55 66 56
REMARK SMILES IDX 85 57 50 58 51 59 65 61 86 62 53 63 37 64 38 65 46 66 39 67
REMARK SMILES IDX 40 68 44 69 47 70 41 71 42 72 45 73 43 74 69 75 70 76 78 77
REMARK SMILES IDX 71 78 72 79 76 80 79 81 73 82 74 83 77 84 75 85 54 86 55 87
REMARK SMILES IDX 63 88 56 89 57 90 61 91 64 92 58 93 59 94 62 95 60 96
REMARK H PARENT 21 5 25 30 84 49 52 60
REMARK Flexibility Score: inf
ROOT
ATOM      1  C   UNL A   1      36.933  20.408  25.014  1.00  0.00     0.117 C 
ENDROOT
BRANCH   1   2
ATOM      2  N   UNL A   1      36.813  21.480  24.044  1.00  0.00    -0.355 N 
ATOM      3  C   UNL A   1      36.313  22.736  24.189  1.00  0.00     0.230 C 
ATOM      4  O   UNL A   1      36.539  23.534  23.273  1.00  0.00    -0.274 OA
ATOM      5  H   UNL A   1      37.145  21.265  23.142  1.00  0.00     0.163 HD
BRANCH   3   6
ATOM      6  C   UNL A   1      35.612  23.186  25.453  1.00  0.00     0.176 C 
BRANCH   6   7
ATOM      7  S   UNL A   1      34.730  24.765  25.358  1.00  0.00    -0.096 SA
BRANCH   7   8
ATOM      8  C   UNL A   1      32.975  24.596  25.624  1.00  0.00     0.104 A 
ATOM      9  C   UNL A   1      29.882  23.026  27.126  1.00  0.00     0.067 C 
ATOM     10  C   UNL A   1      30.842  23.908  26.377  1.00  0.00     0.045 A 
ATOM     11  N   UNL A   1      30.254  24.942  25.751  1.00  0.00    -0.233 NA
ATOM     12  C   UNL A   1      32.223  23.669  26.342  1.00  0.00     0.003 A 
ATOM     13  C   UNL A   1      31.046  25.747  25.042  1.00  0.00     0.160 A 
ATOM     14  C   UNL A   1      32.768  22.517  27.119  1.00  0.00     0.049 C 
ATOM     15  N   UNL A   1      32.373  25.613  24.953  1.00  0.00    -0.221 NA
BRANCH  13  16
ATOM     16  C   UNL A   1      30.393  26.847  24.329  1.00  0.00     0.019 A 
ATOM     17  C   UNL A   1      31.038  28.088  24.187  1.00  0.00     0.012 A 
ATOM     18  C   UNL A   1      29.091  26.722  23.818  1.00  0.00     0.012 A 
ATOM     19  C   UNL A   1      30.403  29.171  23.574  1.00  0.00     0.014 A 
ATOM     20  C   UNL A   1      28.443  27.811  23.219  1.00  0.00     0.014 A 
ATOM     21  C   UNL A   1      29.091  29.049  23.098  1.00  0.00     0.056 A 
BRANCH  21  22
ATOM     22  C   UNL A   1      28.403  30.242  22.479  1.00  0.00     0.416 C 
ATOM     23  F   UNL A   1      29.260  31.280  22.261  1.00  0.00    -0.166 F 
ATOM     24  F   UNL A   1      27.849  29.956  21.270  1.00  0.00    -0.166 F 
ATOM     25  F   UNL A   1      27.394  30.749  23.243  1.00  0.00    -0.166 F 
ENDBRANCH  21  22
ENDBRANCH  13  16
ENDBRANCH   7   8
ENDBRANCH   6   7
ENDBRANCH   3   6
ENDBRANCH   1   2
BRANCH   1  26
ATOM     26  C   UNL A   1      38.247  19.645  24.890  1.00  0.00     0.042 C 
BRANCH  26  27
ATOM     27  C   UNL A   1      39.245  19.920  26.013  1.00  0.00     0.118 C 
BRANCH  27  28
ATOM     28  N   UNL A   1      40.418  19.059  25.956  1.00  0.00    -0.352 N 
ATOM     29  C   UNL A   1      41.755  19.366  26.013  1.00  0.00     0.251 C 
ATOM     30  H   UNL A   1      40.220  18.100  25.860  1.00  0.00     0.163 HD
ATOM     31  O   UNL A   1      42.587  18.500  25.756  1.00  0.00    -0.269 OA
BRANCH  29  32
ATOM     32  C   UNL A   1      42.204  20.731  26.361  1.00  0.00     0.039 A 
ATOM     33  C   UNL A   1      42.447  21.642  25.328  1.00  0.00     0.014 A 
ATOM     34  C   UNL A   1      42.428  21.106  27.687  1.00  0.00     0.014 A 
ATOM     35  C   UNL A   1      42.843  22.946  25.631  1.00  0.00     0.010 A 
ATOM     36  C   UNL A   1      42.748  22.427  27.993  1.00  0.00     0.010 A 
ATOM     37  C   UNL A   1      42.963  23.360  26.968  1.00  0.00    -0.014 A 
BRANCH  37  38
ATOM     38  C   UNL A   1      43.326  24.759  27.310  1.00  0.00     0.031 A 
ATOM     39  C   UNL A   1      44.735  25.244  27.097  1.00  0.00     0.074 A 
ATOM     40  C   UNL A   1      42.398  25.583  27.837  1.00  0.00     0.049 A 
ATOM     41  N   UNL A   1      45.261  26.408  27.386  1.00  0.00    -0.248 NA
ATOM     42  C   UNL A   1      45.683  24.293  26.494  1.00  0.00     0.031 C 
ATOM     43  C   UNL A   1      41.005  25.224  28.106  1.00  0.00     0.029 A 
ATOM     44  N   UNL A   1      42.486  26.893  28.240  1.00  0.00    -0.354 N 
ATOM     45  C   UNL A   1      46.591  26.329  26.995  1.00  0.00     0.074 A 
ATOM     46  C   UNL A   1      46.813  24.986  26.507  1.00  0.00     0.031 C 
ATOM     47  C   UNL A   1      40.361  26.296  28.596  1.00  0.00     0.029 A 
ATOM     48  C   UNL A   1      41.303  27.404  28.718  1.00  0.00     0.049 A 
ATOM     49  H   UNL A   1      43.318  27.416  28.191  1.00  0.00     0.167 HD
ATOM     50  C   UNL A   1      47.532  27.301  27.009  1.00  0.00     0.037 A 
ATOM     51  C   UNL A   1      41.014  28.628  29.204  1.00  0.00     0.037 A 
ATOM     52  C   UNL A   1      47.305  28.643  27.475  1.00  0.00     0.049 A 
ATOM     53  C   UNL A   1      42.104  29.666  29.266  1.00  0.00     0.074 A 
ATOM     54  C   UNL A   1      48.196  29.702  27.515  1.00  0.00     0.029 A 
ATOM     55  N   UNL A   1      46.100  29.115  27.972  1.00  0.00    -0.354 N 
ATOM     56  N   UNL A   1      43.347  29.590  28.856  1.00  0.00    -0.248 NA
ATOM     57  C   UNL A   1      41.750  30.965  29.858  1.00  0.00     0.031 C 
ATOM     58  C   UNL A   1      47.542  30.803  28.071  1.00  0.00     0.029 A 
ATOM     59  C   UNL A   1      46.230  30.445  28.333  1.00  0.00     0.049 A 
ATOM     60  H   UNL A   1      45.275  28.583  28.055  1.00  0.00     0.167 HD
ATOM     61  C   UNL A   1      43.909  30.834  29.107  1.00  0.00     0.074 A 
ATOM     62  C   UNL A   1      42.868  31.655  29.689  1.00  0.00     0.031 C 
ATOM     63  C   UNL A   1      45.175  31.257  28.883  1.00  0.00     0.037 A 
BRANCH  50  64
ATOM     64  C   UNL A   1      48.893  26.974  26.471  1.00  0.00     0.064 A 
ATOM     65  C   UNL A   1      49.875  26.398  27.290  1.00  0.00     0.173 A 
ATOM     66  C   UNL A   1      49.183  27.132  25.107  1.00  0.00     0.173 A 
ATOM     67  F   UNL A   1      49.650  26.237  28.603  1.00  0.00    -0.203 F 
ATOM     68  C   UNL A   1      51.097  25.990  26.763  1.00  0.00     0.198 A 
ATOM     69  C   UNL A   1      50.395  26.698  24.579  1.00  0.00     0.198 A 
ATOM     70  F   UNL A   1      48.274  27.673  24.280  1.00  0.00    -0.203 F 
ATOM     71  F   UNL A   1      52.027  25.457  27.569  1.00  0.00    -0.200 F 
ATOM     72  C   UNL A   1      51.351  26.126  25.407  1.00  0.00     0.200 A 
ATOM     73  F   UNL A   1      50.634  26.815  23.266  1.00  0.00    -0.200 F 
ATOM     74  F   UNL A   1      52.516  25.705  24.897  1.00  0.00    -0.200 F 
ENDBRANCH  50  64
BRANCH  51  75
ATOM     75  C   UNL A   1      39.634  28.958  29.650  1.00  0.00     0.064 A 
ATOM     76  C   UNL A   1      39.229  28.705  30.969  1.00  0.00     0.173 A 
ATOM     77  C   UNL A   1      38.683  29.494  28.770  1.00  0.00     0.173 A 
ATOM     78  F   UNL A   1      40.095  28.172  31.845  1.00  0.00    -0.203 F 
ATOM     79  C   UNL A   1      37.920  28.947  31.381  1.00  0.00     0.198 A 
ATOM     80  C   UNL A   1      37.383  29.766  29.192  1.00  0.00     0.198 A 
ATOM     81  F   UNL A   1      39.016  29.756  27.498  1.00  0.00    -0.203 F 
ATOM     82  F   UNL A   1      37.546  28.638  32.631  1.00  0.00    -0.200 F 
ATOM     83  C   UNL A   1      36.999  29.480  30.494  1.00  0.00     0.200 A 
ATOM     84  F   UNL A   1      36.499  30.296  28.335  1.00  0.00    -0.200 F 
ATOM     85  F   UNL A   1      35.739  29.710  30.890  1.00  0.00    -0.200 F 
ENDBRANCH  51  75
BRANCH  63  86
ATOM     86  C   UNL A   1      45.509  32.680  29.227  1.00  0.00     0.064 A 
ATOM     87  C   UNL A   1      46.052  33.025  30.472  1.00  0.00     0.173 A 
ATOM     88  C   UNL A   1      45.359  33.695  28.269  1.00  0.00     0.173 A 
ATOM     89  F   UNL A   1      46.204  32.093  31.425  1.00  0.00    -0.203 F 
ATOM     90  C   UNL A   1      46.418  34.340  30.752  1.00  0.00     0.198 A 
ATOM     91  C   UNL A   1      45.755  35.001  28.541  1.00  0.00     0.198 A 
ATOM     92  F   UNL A   1      44.854  33.413  27.058  1.00  0.00    -0.203 F 
ATOM     93  F   UNL A   1      46.899  34.654  31.962  1.00  0.00    -0.200 F 
ATOM     94  C   UNL A   1      46.280  35.323  29.784  1.00  0.00     0.200 A 
ATOM     95  F   UNL A   1      45.639  35.945  27.598  1.00  0.00    -0.200 F 
ATOM     96  F   UNL A   1      46.651  36.583  30.049  1.00  0.00    -0.200 F 
ENDBRANCH  63  86
ENDBRANCH  37  38
ENDBRANCH  29  32
ENDBRANCH  27  28
ENDBRANCH  26  27
ENDBRANCH   1  26
TORSDOF 14
ENDMDL
