MODEL 1
REMARK VINA RESULT:     -11.7      0.000      0.000
REMARK SMILES O=C(C[C@H]1C[N@@H+](CCSc2ccccc2F)CCO1)NCCCNC(=O)c1ccc(-c2c3nc(c(-c4c(F)c(F)c(F)c(F)c4F)c4ccc([nH]4)c(-c4c(F)c(F)c(F)c(F)c4F)c4nc(c(-c5c(F)c(F)c(F)c(F)c5F)c5ccc2[nH]5)C=C4)C=C3)cc1
REMARK SMILES IDX 1 1 2 2 20 3 3 5 4 6 5 7 19 8 6 9 18 10 17 11 7 13 8 14 9 15
REMARK SMILES IDX 10 16 11 17 15 18 12 19 14 20 16 21 13 22 21 23 22 24 23 25
REMARK SMILES IDX 24 26 25 27 26 29 27 30 28 31 89 32 29 33 88 34 30 35 31 36
REMARK SMILES IDX 32 37 82 38 33 39 87 40 81 41 83 42 34 43 86 44 80 45 79 46
REMARK SMILES IDX 35 48 67 49 47 50 66 51 48 52 51 53 65 54 84 55 49 56 50 57
REMARK SMILES IDX 64 59 85 60 52 61 36 62 37 63 45 64 38 65 39 66 43 67 46 68
REMARK SMILES IDX 40 69 41 70 44 71 42 72 68 73 69 74 77 75 70 76 71 77 75 78
REMARK SMILES IDX 78 79 72 80 73 81 76 82 74 83 53 84 54 85 62 86 55 87 56 88
REMARK SMILES IDX 60 89 63 90 57 91 58 92 61 93 59 94
REMARK H PARENT 20 4 6 12 24 28 83 47 51 58
REMARK Flexibility Score: inf
ROOT
ATOM      1  O   UNL A   1      33.735  28.538  27.262  1.00  0.00    -0.275 OA
ATOM      2  C   UNL A   1      33.363  28.854  26.143  1.00  0.00     0.222 C 
ATOM      3  N   UNL A   1      32.546  29.930  25.882  1.00  0.00    -0.356 N 
ATOM      4  H   UNL A   1      32.495  30.287  24.966  1.00  0.00     0.163 HD
ENDROOT
BRANCH   2   5
ATOM      5  C   UNL A   1      33.634  28.015  24.915  1.00  0.00     0.138 C 
BRANCH   5   6
ATOM      6  C   UNL A   1      32.910  28.690  23.743  1.00  0.00     0.182 C 
ATOM      7  C   UNL A   1      33.383  28.229  22.331  1.00  0.00     0.295 C 
ATOM      8  O   UNL A   1      31.484  28.590  23.899  1.00  0.00    -0.366 OA
ATOM      9  N   UNL A   1      32.819  26.967  21.837  1.00  0.00    -0.330 N 
ATOM     10  C   UNL A   1      30.977  27.326  23.477  1.00  0.00     0.222 C 
ATOM     11  C   UNL A   1      31.382  27.050  22.028  1.00  0.00     0.291 C 
ATOM     12  H   UNL A   1      33.024  26.881  20.841  1.00  0.00     0.348 HD
BRANCH   9  13
ATOM     13  C   UNL A   1      33.501  25.705  22.174  1.00  0.00     0.273 C 
BRANCH  13  14
ATOM     14  C   UNL A   1      32.860  24.282  22.086  1.00  0.00     0.136 C 
BRANCH  14  15
ATOM     15  S   UNL A   1      33.073  23.054  23.464  1.00  0.00    -0.117 SA
BRANCH  15  16
ATOM     16  C   UNL A   1      34.702  23.378  24.124  1.00  0.00     0.043 A 
ATOM     17  C   UNL A   1      35.780  22.729  23.499  1.00  0.00     0.018 A 
ATOM     18  C   UNL A   1      34.960  24.134  25.274  1.00  0.00     0.136 A 
ATOM     19  C   UNL A   1      37.044  22.706  24.101  1.00  0.00     0.001 A 
ATOM     20  C   UNL A   1      36.232  24.143  25.858  1.00  0.00     0.040 A 
ATOM     21  F   UNL A   1      33.968  24.780  25.907  1.00  0.00    -0.206 F 
ATOM     22  C   UNL A   1      37.263  23.392  25.294  1.00  0.00     0.003 A 
ENDBRANCH  15  16
ENDBRANCH  14  15
ENDBRANCH  13  14
ENDBRANCH   9  13
ENDBRANCH   5   6
ENDBRANCH   2   5
BRANCH   3  23
ATOM     23  C   UNL A   1      31.758  30.549  26.925  1.00  0.00     0.117 C 
BRANCH  23  24
ATOM     24  C   UNL A   1      31.653  32.055  26.744  1.00  0.00     0.042 C 
BRANCH  24  25
ATOM     25  C   UNL A   1      32.840  32.846  27.291  1.00  0.00     0.118 C 
BRANCH  25  26
ATOM     26  N   UNL A   1      32.509  34.209  27.671  1.00  0.00    -0.352 N 
ATOM     27  C   UNL A   1      33.040  34.997  28.668  1.00  0.00     0.251 C 
ATOM     28  H   UNL A   1      31.799  34.633  27.137  1.00  0.00     0.163 HD
ATOM     29  O   UNL A   1      32.533  36.077  28.939  1.00  0.00    -0.269 OA
BRANCH  27  30
ATOM     30  C   UNL A   1      34.207  34.520  29.440  1.00  0.00     0.039 A 
ATOM     31  C   UNL A   1      33.997  33.974  30.708  1.00  0.00     0.014 A 
ATOM     32  C   UNL A   1      35.500  34.594  28.914  1.00  0.00     0.014 A 
ATOM     33  C   UNL A   1      35.071  33.425  31.413  1.00  0.00     0.010 A 
ATOM     34  C   UNL A   1      36.554  33.972  29.579  1.00  0.00     0.010 A 
ATOM     35  C   UNL A   1      36.351  33.376  30.833  1.00  0.00    -0.014 A 
BRANCH  35  36
ATOM     36  C   UNL A   1      37.478  32.689  31.516  1.00  0.00     0.031 A 
ATOM     37  C   UNL A   1      38.161  31.518  30.867  1.00  0.00     0.074 A 
ATOM     38  C   UNL A   1      37.851  33.087  32.748  1.00  0.00     0.049 A 
ATOM     39  N   UNL A   1      39.118  30.756  31.334  1.00  0.00    -0.248 NA
ATOM     40  C   UNL A   1      37.693  31.135  29.526  1.00  0.00     0.031 C 
ATOM     41  C   UNL A   1      37.242  34.183  33.502  1.00  0.00     0.029 A 
ATOM     42  N   UNL A   1      38.830  32.612  33.588  1.00  0.00    -0.354 N 
ATOM     43  C   UNL A   1      39.360  29.807  30.351  1.00  0.00     0.074 A 
ATOM     44  C   UNL A   1      38.413  30.050  29.285  1.00  0.00     0.031 C 
ATOM     45  C   UNL A   1      37.880  34.320  34.675  1.00  0.00     0.029 A 
ATOM     46  C   UNL A   1      38.913  33.292  34.779  1.00  0.00     0.049 A 
ATOM     47  H   UNL A   1      39.417  31.856  33.358  1.00  0.00     0.167 HD
ATOM     48  C   UNL A   1      40.306  28.839  30.329  1.00  0.00     0.037 A 
ATOM     49  C   UNL A   1      39.723  33.107  35.839  1.00  0.00     0.037 A 
ATOM     50  C   UNL A   1      41.264  28.617  31.380  1.00  0.00     0.049 A 
ATOM     51  C   UNL A   1      40.749  32.007  35.800  1.00  0.00     0.074 A 
ATOM     52  C   UNL A   1      42.294  27.692  31.422  1.00  0.00     0.029 A 
ATOM     53  N   UNL A   1      41.310  29.322  32.573  1.00  0.00    -0.354 N 
ATOM     54  N   UNL A   1      41.003  31.150  34.841  1.00  0.00    -0.248 NA
ATOM     55  C   UNL A   1      41.602  31.848  36.987  1.00  0.00     0.031 C 
ATOM     56  C   UNL A   1      42.928  27.801  32.662  1.00  0.00     0.029 A 
ATOM     57  C   UNL A   1      42.335  28.835  33.369  1.00  0.00     0.049 A 
ATOM     58  H   UNL A   1      40.706  30.060  32.818  1.00  0.00     0.167 HD
ATOM     59  C   UNL A   1      42.058  30.370  35.296  1.00  0.00     0.074 A 
ATOM     60  C   UNL A   1      42.405  30.862  36.613  1.00  0.00     0.031 C 
ATOM     61  C   UNL A   1      42.678  29.338  34.675  1.00  0.00     0.037 A 
BRANCH  48  62
ATOM     62  C   UNL A   1      40.371  27.947  29.123  1.00  0.00     0.064 A 
ATOM     63  C   UNL A   1      41.123  28.319  27.999  1.00  0.00     0.173 A 
ATOM     64  C   UNL A   1      39.623  26.762  29.048  1.00  0.00     0.173 A 
ATOM     65  F   UNL A   1      41.851  29.447  28.016  1.00  0.00    -0.203 F 
ATOM     66  C   UNL A   1      41.110  27.549  26.839  1.00  0.00     0.198 A 
ATOM     67  C   UNL A   1      39.637  25.977  27.898  1.00  0.00     0.198 A 
ATOM     68  F   UNL A   1      38.895  26.354  30.099  1.00  0.00    -0.203 F 
ATOM     69  F   UNL A   1      41.805  27.946  25.765  1.00  0.00    -0.200 F 
ATOM     70  C   UNL A   1      40.371  26.377  26.791  1.00  0.00     0.200 A 
ATOM     71  F   UNL A   1      38.942  24.831  27.862  1.00  0.00    -0.200 F 
ATOM     72  F   UNL A   1      40.366  25.631  25.677  1.00  0.00    -0.200 F 
ENDBRANCH  48  62
BRANCH  49  73
ATOM     73  C   UNL A   1      39.612  34.010  37.015  1.00  0.00     0.064 A 
ATOM     74  C   UNL A   1      38.839  33.664  38.134  1.00  0.00     0.173 A 
ATOM     75  C   UNL A   1      40.255  35.256  37.027  1.00  0.00     0.173 A 
ATOM     76  F   UNL A   1      38.200  32.486  38.171  1.00  0.00    -0.203 F 
ATOM     77  C   UNL A   1      38.696  34.539  39.209  1.00  0.00     0.198 A 
ATOM     78  C   UNL A   1      40.135  36.119  38.115  1.00  0.00     0.198 A 
ATOM     79  F   UNL A   1      41.021  35.623  35.990  1.00  0.00    -0.203 F 
ATOM     80  F   UNL A   1      37.920  34.201  40.248  1.00  0.00    -0.200 F 
ATOM     81  C   UNL A   1      39.348  35.764  39.200  1.00  0.00     0.200 A 
ATOM     82  F   UNL A   1      40.786  37.290  38.114  1.00  0.00    -0.200 F 
ATOM     83  F   UNL A   1      39.219  36.601  40.239  1.00  0.00    -0.200 F 
ENDBRANCH  49  73
BRANCH  61  84
ATOM     84  C   UNL A   1      43.820  28.674  35.390  1.00  0.00     0.064 A 
ATOM     85  C   UNL A   1      43.574  27.667  36.337  1.00  0.00     0.173 A 
ATOM     86  C   UNL A   1      45.144  29.097  35.211  1.00  0.00     0.173 A 
ATOM     87  F   UNL A   1      42.323  27.233  36.553  1.00  0.00    -0.203 F 
ATOM     88  C   UNL A   1      44.609  27.122  37.091  1.00  0.00     0.198 A 
ATOM     89  C   UNL A   1      46.182  28.528  35.944  1.00  0.00     0.198 A 
ATOM     90  F   UNL A   1      45.434  30.048  34.310  1.00  0.00    -0.203 F 
ATOM     91  F   UNL A   1      44.343  26.192  38.019  1.00  0.00    -0.200 F 
ATOM     92  C   UNL A   1      45.912  27.551  36.892  1.00  0.00     0.200 A 
ATOM     93  F   UNL A   1      47.444  28.926  35.735  1.00  0.00    -0.200 F 
ATOM     94  F   UNL A   1      46.910  27.022  37.615  1.00  0.00    -0.200 F 
ENDBRANCH  61  84
ENDBRANCH  35  36
ENDBRANCH  27  30
ENDBRANCH  25  26
ENDBRANCH  24  25
ENDBRANCH  23  24
ENDBRANCH   3  23
TORSDOF 15
ENDMDL
MODEL 2
REMARK VINA RESULT:     -11.7      0.822      7.360
REMARK SMILES O=C(C[C@H]1C[N@@H+](CCSc2ccccc2F)CCO1)NCCCNC(=O)c1ccc(-c2c3nc(c(-c4c(F)c(F)c(F)c(F)c4F)c4ccc([nH]4)c(-c4c(F)c(F)c(F)c(F)c4F)c4nc(c(-c5c(F)c(F)c(F)c(F)c5F)c5ccc2[nH]5)C=C4)C=C3)cc1
REMARK SMILES IDX 1 1 2 2 20 3 3 5 4 6 5 7 19 8 6 9 18 10 17 11 7 13 8 14 9 15
REMARK SMILES IDX 10 16 11 17 15 18 12 19 14 20 16 21 13 22 21 23 22 24 23 25
REMARK SMILES IDX 24 26 25 27 26 29 27 30 28 31 89 32 29 33 88 34 30 35 31 36
REMARK SMILES IDX 32 37 82 38 33 39 87 40 81 41 83 42 34 43 86 44 80 45 79 46
REMARK SMILES IDX 35 48 67 49 47 50 66 51 48 52 51 53 65 54 84 55 49 56 50 57
REMARK SMILES IDX 64 59 85 60 52 61 36 62 37 63 45 64 38 65 39 66 43 67 46 68
REMARK SMILES IDX 40 69 41 70 44 71 42 72 68 73 69 74 77 75 70 76 71 77 75 78
REMARK SMILES IDX 78 79 72 80 73 81 76 82 74 83 53 84 54 85 62 86 55 87 56 88
REMARK SMILES IDX 60 89 63 90 57 91 58 92 61 93 59 94
REMARK H PARENT 20 4 6 12 24 28 83 47 51 58
REMARK Flexibility Score: inf
ROOT
ATOM      1  O   UNL A   1      33.786  29.170  25.985  1.00  0.00    -0.275 OA
ATOM      2  C   UNL A   1      32.955  29.318  25.102  1.00  0.00     0.222 C 
ATOM      3  N   UNL A   1      31.881  30.174  25.198  1.00  0.00    -0.356 N 
ATOM      4  H   UNL A   1      31.407  30.446  24.379  1.00  0.00     0.163 HD
ENDROOT
BRANCH   2   5
ATOM      5  C   UNL A   1      32.920  28.473  23.850  1.00  0.00     0.138 C 
BRANCH   5   6
ATOM      6  C   UNL A   1      31.458  28.065  23.627  1.00  0.00     0.182 C 
ATOM      7  C   UNL A   1      31.225  27.107  22.420  1.00  0.00     0.295 C 
ATOM      8  O   UNL A   1      30.879  27.560  24.842  1.00  0.00    -0.366 OA
ATOM      9  N   UNL A   1      31.493  25.684  22.658  1.00  0.00    -0.330 N 
ATOM     10  C   UNL A   1      31.217  26.196  25.082  1.00  0.00     0.222 C 
ATOM     11  C   UNL A   1      30.807  25.331  23.889  1.00  0.00     0.291 C 
ATOM     12  H   UNL A   1      31.105  25.140  21.887  1.00  0.00     0.348 HD
BRANCH   9  13
ATOM     13  C   UNL A   1      32.858  25.173  22.444  1.00  0.00     0.273 C 
BRANCH  13  14
ATOM     14  C   UNL A   1      33.265  23.664  22.427  1.00  0.00     0.136 C 
BRANCH  14  15
ATOM     15  S   UNL A   1      33.349  22.681  24.001  1.00  0.00    -0.117 SA
BRANCH  15  16
ATOM     16  C   UNL A   1      35.072  22.714  24.475  1.00  0.00     0.043 A 
ATOM     17  C   UNL A   1      35.741  21.480  24.519  1.00  0.00     0.018 A 
ATOM     18  C   UNL A   1      35.758  23.856  24.907  1.00  0.00     0.136 A 
ATOM     19  C   UNL A   1      36.997  21.371  25.129  1.00  0.00     0.001 A 
ATOM     20  C   UNL A   1      37.030  23.755  25.484  1.00  0.00     0.040 A 
ATOM     21  F   UNL A   1      35.169  25.061  24.880  1.00  0.00    -0.206 F 
ATOM     22  C   UNL A   1      37.630  22.505  25.635  1.00  0.00     0.003 A 
ENDBRANCH  15  16
ENDBRANCH  14  15
ENDBRANCH  13  14
ENDBRANCH   9  13
ENDBRANCH   5   6
ENDBRANCH   2   5
BRANCH   3  23
ATOM     23  C   UNL A   1      31.433  30.681  26.476  1.00  0.00     0.117 C 
BRANCH  23  24
ATOM     24  C   UNL A   1      31.405  32.201  26.507  1.00  0.00     0.042 C 
BRANCH  24  25
ATOM     25  C   UNL A   1      32.574  32.843  27.254  1.00  0.00     0.118 C 
BRANCH  25  26
ATOM     26  N   UNL A   1      32.340  34.230  27.623  1.00  0.00    -0.352 N 
ATOM     27  C   UNL A   1      32.968  35.003  28.574  1.00  0.00     0.251 C 
ATOM     28  H   UNL A   1      31.629  34.684  27.118  1.00  0.00     0.163 HD
ATOM     29  O   UNL A   1      32.538  36.115  28.849  1.00  0.00    -0.269 OA
BRANCH  27  30
ATOM     30  C   UNL A   1      34.145  34.472  29.295  1.00  0.00     0.039 A 
ATOM     31  C   UNL A   1      33.953  33.849  30.529  1.00  0.00     0.014 A 
ATOM     32  C   UNL A   1      35.429  34.574  28.752  1.00  0.00     0.014 A 
ATOM     33  C   UNL A   1      35.036  33.252  31.179  1.00  0.00     0.010 A 
ATOM     34  C   UNL A   1      36.491  33.907  29.359  1.00  0.00     0.010 A 
ATOM     35  C   UNL A   1      36.306  33.234  30.575  1.00  0.00    -0.014 A 
BRANCH  35  36
ATOM     36  C   UNL A   1      37.440  32.500  31.194  1.00  0.00     0.031 A 
ATOM     37  C   UNL A   1      37.944  32.886  32.556  1.00  0.00     0.074 A 
ATOM     38  C   UNL A   1      38.053  31.518  30.504  1.00  0.00     0.049 A 
ATOM     39  N   UNL A   1      38.958  32.403  33.230  1.00  0.00    -0.248 NA
ATOM     40  C   UNL A   1      37.231  33.973  33.246  1.00  0.00     0.031 C 
ATOM     41  C   UNL A   1      37.686  31.076  29.158  1.00  0.00     0.029 A 
ATOM     42  N   UNL A   1      39.119  30.716  30.835  1.00  0.00    -0.354 N 
ATOM     43  C   UNL A   1      39.006  33.128  34.412  1.00  0.00     0.074 A 
ATOM     44  C   UNL A   1      37.958  34.122  34.343  1.00  0.00     0.031 C 
ATOM     45  C   UNL A   1      38.486  30.064  28.792  1.00  0.00     0.029 A 
ATOM     46  C   UNL A   1      39.456  29.814  29.856  1.00  0.00     0.049 A 
ATOM     47  H   UNL A   1      39.596  30.782  31.694  1.00  0.00     0.167 HD
ATOM     48  C   UNL A   1      39.832  32.961  35.471  1.00  0.00     0.037 A 
ATOM     49  C   UNL A   1      40.438  28.892  29.814  1.00  0.00     0.037 A 
ATOM     50  C   UNL A   1      40.858  31.954  35.548  1.00  0.00     0.049 A 
ATOM     51  C   UNL A   1      41.360  28.743  30.993  1.00  0.00     0.074 A 
ATOM     52  C   UNL A   1      41.711  31.674  36.602  1.00  0.00     0.029 A 
ATOM     53  N   UNL A   1      41.172  31.063  34.532  1.00  0.00    -0.354 N 
ATOM     54  N   UNL A   1      41.361  29.400  32.128  1.00  0.00    -0.248 NA
ATOM     55  C   UNL A   1      42.416  27.726  30.890  1.00  0.00     0.031 C 
ATOM     56  C   UNL A   1      42.577  30.653  36.205  1.00  0.00     0.029 A 
ATOM     57  C   UNL A   1      42.225  30.251  34.927  1.00  0.00     0.049 A 
ATOM     58  H   UNL A   1      40.716  31.014  33.661  1.00  0.00     0.167 HD
ATOM     59  C   UNL A   1      42.395  28.861  32.882  1.00  0.00     0.074 A 
ATOM     60  C   UNL A   1      42.994  27.813  32.080  1.00  0.00     0.031 C 
ATOM     61  C   UNL A   1      42.808  29.206  34.124  1.00  0.00     0.037 A 
BRANCH  48  62
ATOM     62  C   UNL A   1      39.661  33.875  36.650  1.00  0.00     0.064 A 
ATOM     63  C   UNL A   1      40.362  35.089  36.719  1.00  0.00     0.173 A 
ATOM     64  C   UNL A   1      38.867  33.513  37.748  1.00  0.00     0.173 A 
ATOM     65  F   UNL A   1      41.140  35.480  35.699  1.00  0.00    -0.203 F 
ATOM     66  C   UNL A   1      40.287  35.896  37.851  1.00  0.00     0.198 A 
ATOM     67  C   UNL A   1      38.769  34.337  38.866  1.00  0.00     0.198 A 
ATOM     68  F   UNL A   1      38.167  32.367  37.728  1.00  0.00    -0.203 F 
ATOM     69  F   UNL A   1      40.996  37.031  37.910  1.00  0.00    -0.200 F 
ATOM     70  C   UNL A   1      39.489  35.522  38.921  1.00  0.00     0.200 A 
ATOM     71  F   UNL A   1      37.978  33.986  39.889  1.00  0.00    -0.200 F 
ATOM     72  F   UNL A   1      39.411  36.304  40.007  1.00  0.00    -0.200 F 
ENDBRANCH  48  62
BRANCH  49  73
ATOM     73  C   UNL A   1      40.574  28.019  28.619  1.00  0.00     0.064 A 
ATOM     74  C   UNL A   1      39.953  26.762  28.557  1.00  0.00     0.173 A 
ATOM     75  C   UNL A   1      41.356  28.413  27.524  1.00  0.00     0.173 A 
ATOM     76  F   UNL A   1      39.197  26.334  29.578  1.00  0.00    -0.203 F 
ATOM     77  C   UNL A   1      40.129  25.925  27.456  1.00  0.00     0.198 A 
ATOM     78  C   UNL A   1      41.508  27.588  26.412  1.00  0.00     0.198 A 
ATOM     79  F   UNL A   1      41.953  29.614  27.529  1.00  0.00    -0.203 F 
ATOM     80  F   UNL A   1      39.557  24.714  27.439  1.00  0.00    -0.200 F 
ATOM     81  C   UNL A   1      40.903  26.341  26.383  1.00  0.00     0.200 A 
ATOM     82  F   UNL A   1      42.236  28.005  25.367  1.00  0.00    -0.200 F 
ATOM     83  F   UNL A   1      41.063  25.542  25.320  1.00  0.00    -0.200 F 
ENDBRANCH  49  73
BRANCH  61  84
ATOM     84  C   UNL A   1      43.950  28.436  34.723  1.00  0.00     0.064 A 
ATOM     85  C   UNL A   1      45.274  28.856  34.516  1.00  0.00     0.173 A 
ATOM     86  C   UNL A   1      43.743  27.235  35.416  1.00  0.00     0.173 A 
ATOM     87  F   UNL A   1      45.527  29.992  33.851  1.00  0.00    -0.203 F 
ATOM     88  C   UNL A   1      46.347  28.092  34.965  1.00  0.00     0.198 A 
ATOM     89  C   UNL A   1      44.818  26.489  35.891  1.00  0.00     0.198 A 
ATOM     90  F   UNL A   1      42.497  26.796  35.649  1.00  0.00    -0.203 F 
ATOM     91  F   UNL A   1      47.602  28.492  34.719  1.00  0.00    -0.200 F 
ATOM     92  C   UNL A   1      46.118  26.911  35.655  1.00  0.00     0.200 A 
ATOM     93  F   UNL A   1      44.596  25.359  36.577  1.00  0.00    -0.200 F 
ATOM     94  F   UNL A   1      47.152  26.178  36.091  1.00  0.00    -0.200 F 
ENDBRANCH  61  84
ENDBRANCH  35  36
ENDBRANCH  27  30
ENDBRANCH  25  26
ENDBRANCH  24  25
ENDBRANCH  23  24
ENDBRANCH   3  23
TORSDOF 15
ENDMDL
MODEL 3
REMARK VINA RESULT:     -11.7      5.735     10.833
REMARK SMILES O=C(C[C@H]1C[N@@H+](CCSc2ccccc2F)CCO1)NCCCNC(=O)c1ccc(-c2c3nc(c(-c4c(F)c(F)c(F)c(F)c4F)c4ccc([nH]4)c(-c4c(F)c(F)c(F)c(F)c4F)c4nc(c(-c5c(F)c(F)c(F)c(F)c5F)c5ccc2[nH]5)C=C4)C=C3)cc1
REMARK SMILES IDX 1 1 2 2 20 3 3 5 4 6 5 7 19 8 6 9 18 10 17 11 7 13 8 14 9 15
REMARK SMILES IDX 10 16 11 17 15 18 12 19 14 20 16 21 13 22 21 23 22 24 23 25
REMARK SMILES IDX 24 26 25 27 26 29 27 30 28 31 89 32 29 33 88 34 30 35 31 36
REMARK SMILES IDX 32 37 82 38 33 39 87 40 81 41 83 42 34 43 86 44 80 45 79 46
REMARK SMILES IDX 35 48 67 49 47 50 66 51 48 52 51 53 65 54 84 55 49 56 50 57
REMARK SMILES IDX 64 59 85 60 52 61 36 62 37 63 45 64 38 65 39 66 43 67 46 68
REMARK SMILES IDX 40 69 41 70 44 71 42 72 68 73 69 74 77 75 70 76 71 77 75 78
REMARK SMILES IDX 78 79 72 80 73 81 76 82 74 83 53 84 54 85 62 86 55 87 56 88
REMARK SMILES IDX 60 89 63 90 57 91 58 92 61 93 59 94
REMARK H PARENT 20 4 6 12 24 28 83 47 51 58
REMARK Flexibility Score: inf
ROOT
ATOM      1  O   UNL A   1      36.451  23.617  25.856  1.00  0.00    -0.275 OA
ATOM      2  C   UNL A   1      35.673  22.679  25.930  1.00  0.00     0.222 C 
ATOM      3  N   UNL A   1      35.970  21.402  25.511  1.00  0.00    -0.356 N 
ATOM      4  H   UNL A   1      35.421  20.649  25.828  1.00  0.00     0.163 HD
ENDROOT
BRANCH   2   5
ATOM      5  C   UNL A   1      34.231  22.832  26.355  1.00  0.00     0.138 C 
BRANCH   5   6
ATOM      6  C   UNL A   1      33.387  21.993  25.388  1.00  0.00     0.182 C 
ATOM      7  C   UNL A   1      31.848  22.077  25.623  1.00  0.00     0.295 C 
ATOM      8  O   UNL A   1      33.745  22.273  24.024  1.00  0.00    -0.366 OA
ATOM      9  N   UNL A   1      31.168  23.249  25.059  1.00  0.00    -0.330 N 
ATOM     10  C   UNL A   1      33.124  23.457  23.529  1.00  0.00     0.222 C 
ATOM     11  C   UNL A   1      31.605  23.361  23.679  1.00  0.00     0.291 C 
ATOM     12  H   UNL A   1      30.160  23.090  25.083  1.00  0.00     0.348 HD
BRANCH   9  13
ATOM     13  C   UNL A   1      31.079  24.476  25.870  1.00  0.00     0.273 C 
BRANCH  13  14
ATOM     14  C   UNL A   1      30.378  25.801  25.427  1.00  0.00     0.136 C 
BRANCH  14  15
ATOM     15  S   UNL A   1      31.197  26.959  24.228  1.00  0.00    -0.117 SA
BRANCH  15  16
ATOM     16  C   UNL A   1      31.992  28.193  25.247  1.00  0.00     0.043 A 
ATOM     17  C   UNL A   1      33.055  27.759  26.056  1.00  0.00     0.018 A 
ATOM     18  C   UNL A   1      31.561  29.519  25.375  1.00  0.00     0.136 A 
ATOM     19  C   UNL A   1      33.558  28.580  27.073  1.00  0.00     0.001 A 
ATOM     20  C   UNL A   1      32.087  30.354  26.368  1.00  0.00     0.040 A 
ATOM     21  F   UNL A   1      30.553  29.989  24.622  1.00  0.00    -0.206 F 
ATOM     22  C   UNL A   1      33.056  29.868  27.245  1.00  0.00     0.003 A 
ENDBRANCH  15  16
ENDBRANCH  14  15
ENDBRANCH  13  14
ENDBRANCH   9  13
ENDBRANCH   5   6
ENDBRANCH   2   5
BRANCH   3  23
ATOM     23  C   UNL A   1      37.074  21.141  24.612  1.00  0.00     0.117 C 
BRANCH  23  24
ATOM     24  C   UNL A   1      37.893  19.937  25.050  1.00  0.00     0.042 C 
BRANCH  24  25
ATOM     25  C   UNL A   1      39.154  20.280  25.843  1.00  0.00     0.118 C 
BRANCH  25  26
ATOM     26  N   UNL A   1      40.144  19.216  25.855  1.00  0.00    -0.352 N 
ATOM     27  C   UNL A   1      41.502  19.282  26.074  1.00  0.00     0.251 C 
ATOM     28  H   UNL A   1      39.792  18.313  25.680  1.00  0.00     0.163 HD
ATOM     29  O   UNL A   1      42.205  18.296  25.901  1.00  0.00    -0.269 OA
BRANCH  27  30
ATOM     30  C   UNL A   1      42.120  20.561  26.486  1.00  0.00     0.039 A 
ATOM     31  C   UNL A   1      42.635  21.406  25.501  1.00  0.00     0.014 A 
ATOM     32  C   UNL A   1      42.179  20.933  27.832  1.00  0.00     0.014 A 
ATOM     33  C   UNL A   1      43.132  22.662  25.859  1.00  0.00     0.010 A 
ATOM     34  C   UNL A   1      42.595  22.217  28.176  1.00  0.00     0.010 A 
ATOM     35  C   UNL A   1      43.071  23.097  27.194  1.00  0.00    -0.014 A 
BRANCH  35  36
ATOM     36  C   UNL A   1      43.482  24.475  27.572  1.00  0.00     0.031 A 
ATOM     37  C   UNL A   1      42.448  25.509  27.917  1.00  0.00     0.074 A 
ATOM     38  C   UNL A   1      44.788  24.809  27.553  1.00  0.00     0.049 A 
ATOM     39  N   UNL A   1      42.612  26.775  28.212  1.00  0.00    -0.248 NA
ATOM     40  C   UNL A   1      41.043  25.074  27.909  1.00  0.00     0.031 C 
ATOM     41  C   UNL A   1      45.885  23.908  27.197  1.00  0.00     0.029 A 
ATOM     42  N   UNL A   1      45.415  25.999  27.833  1.00  0.00    -0.354 N 
ATOM     43  C   UNL A   1      41.337  27.284  28.416  1.00  0.00     0.074 A 
ATOM     44  C   UNL A   1      40.405  26.209  28.157  1.00  0.00     0.031 C 
ATOM     45  C   UNL A   1      47.049  24.563  27.313  1.00  0.00     0.029 A 
ATOM     46  C   UNL A   1      46.782  25.945  27.705  1.00  0.00     0.049 A 
ATOM     47  H   UNL A   1      44.931  26.813  28.101  1.00  0.00     0.167 HD
ATOM     48  C   UNL A   1      40.979  28.528  28.811  1.00  0.00     0.037 A 
ATOM     49  C   UNL A   1      47.716  26.900  27.876  1.00  0.00     0.037 A 
ATOM     50  C   UNL A   1      41.910  29.589  29.093  1.00  0.00     0.049 A 
ATOM     51  C   UNL A   1      47.290  28.282  28.291  1.00  0.00     0.074 A 
ATOM     52  C   UNL A   1      41.643  30.868  29.549  1.00  0.00     0.029 A 
ATOM     53  N   UNL A   1      43.285  29.496  28.944  1.00  0.00    -0.354 N 
ATOM     54  N   UNL A   1      46.084  28.736  28.533  1.00  0.00    -0.248 NA
ATOM     55  C   UNL A   1      48.352  29.285  28.458  1.00  0.00     0.031 C 
ATOM     56  C   UNL A   1      42.850  31.567  29.624  1.00  0.00     0.029 A 
ATOM     57  C   UNL A   1      43.877  30.706  29.275  1.00  0.00     0.049 A 
ATOM     58  H   UNL A   1      43.771  28.692  28.648  1.00  0.00     0.167 HD
ATOM     59  C   UNL A   1      46.243  30.064  28.905  1.00  0.00     0.074 A 
ATOM     60  C   UNL A   1      47.664  30.342  28.868  1.00  0.00     0.031 C 
ATOM     61  C   UNL A   1      45.293  30.969  29.243  1.00  0.00     0.037 A 
BRANCH  48  62
ATOM     62  C   UNL A   1      39.516  28.819  28.980  1.00  0.00     0.064 A 
ATOM     63  C   UNL A   1      38.754  29.301  27.904  1.00  0.00     0.173 A 
ATOM     64  C   UNL A   1      38.884  28.698  30.227  1.00  0.00     0.173 A 
ATOM     65  F   UNL A   1      39.311  29.442  26.691  1.00  0.00    -0.203 F 
ATOM     66  C   UNL A   1      37.423  29.669  28.076  1.00  0.00     0.198 A 
ATOM     67  C   UNL A   1      37.544  29.036  30.388  1.00  0.00     0.198 A 
ATOM     68  F   UNL A   1      39.564  28.231  31.286  1.00  0.00    -0.203 F 
ATOM     69  F   UNL A   1      36.727  30.163  27.043  1.00  0.00    -0.200 F 
ATOM     70  C   UNL A   1      36.817  29.532  29.316  1.00  0.00     0.200 A 
ATOM     71  F   UNL A   1      36.953  28.881  31.582  1.00  0.00    -0.200 F 
ATOM     72  F   UNL A   1      35.533  29.878  29.478  1.00  0.00    -0.200 F 
ENDBRANCH  48  62
BRANCH  49  73
ATOM     73  C   UNL A   1      49.152  26.565  27.685  1.00  0.00     0.064 A 
ATOM     74  C   UNL A   1      49.712  26.449  26.404  1.00  0.00     0.173 A 
ATOM     75  C   UNL A   1      49.987  26.325  28.786  1.00  0.00     0.173 A 
ATOM     76  F   UNL A   1      48.957  26.665  25.318  1.00  0.00    -0.203 F 
ATOM     77  C   UNL A   1      51.046  26.082  26.231  1.00  0.00     0.198 A 
ATOM     78  C   UNL A   1      51.328  25.986  28.613  1.00  0.00     0.198 A 
ATOM     79  F   UNL A   1      49.503  26.444  30.030  1.00  0.00    -0.203 F 
ATOM     80  F   UNL A   1      51.545  25.939  24.996  1.00  0.00    -0.200 F 
ATOM     81  C   UNL A   1      51.853  25.855  27.336  1.00  0.00     0.200 A 
ATOM     82  F   UNL A   1      52.110  25.792  29.683  1.00  0.00    -0.200 F 
ATOM     83  F   UNL A   1      53.138  25.513  27.171  1.00  0.00    -0.200 F 
ENDBRANCH  49  73
BRANCH  61  84
ATOM     84  C   UNL A   1      45.746  32.348  29.631  1.00  0.00     0.064 A 
ATOM     85  C   UNL A   1      45.867  33.354  28.659  1.00  0.00     0.173 A 
ATOM     86  C   UNL A   1      46.149  32.648  30.939  1.00  0.00     0.173 A 
ATOM     87  F   UNL A   1      45.504  33.115  27.389  1.00  0.00    -0.203 F 
ATOM     88  C   UNL A   1      46.394  34.602  28.979  1.00  0.00     0.198 A 
ATOM     89  C   UNL A   1      46.646  33.908  31.263  1.00  0.00     0.198 A 
ATOM     90  F   UNL A   1      46.043  31.725  31.907  1.00  0.00    -0.203 F 
ATOM     91  F   UNL A   1      46.539  35.531  28.025  1.00  0.00    -0.200 F 
ATOM     92  C   UNL A   1      46.780  34.878  30.281  1.00  0.00     0.200 A 
ATOM     93  F   UNL A   1      46.998  34.182  32.527  1.00  0.00    -0.200 F 
ATOM     94  F   UNL A   1      47.282  36.082  30.590  1.00  0.00    -0.200 F 
ENDBRANCH  61  84
ENDBRANCH  35  36
ENDBRANCH  27  30
ENDBRANCH  25  26
ENDBRANCH  24  25
ENDBRANCH  23  24
ENDBRANCH   3  23
TORSDOF 15
ENDMDL
