MODEL 1
REMARK VINA RESULT:     -12.6      0.000      0.000
REMARK SMILES O=C(NCCCNC(=O)c1ccncc1-c1ccc(F)cc1F)c1ccc(-c2c3nc(c(-c4c(F)c(F)c(F)c(F)c4F)c4ccc([nH]4)c(-c4c(F)c(F)c(F)c(F)c4F)c4nc(c(-c5c(F)c(F)c(F)c(F)c5F)c5ccc2[nH]5)C=C4)C=C3)cc1
REMARK SMILES IDX 4 1 3 2 1 3 2 4 24 6 25 7 86 8 26 9 85 10 27 11 28 12 29 13
REMARK SMILES IDX 79 14 30 15 84 16 78 17 80 18 31 19 83 20 77 21 76 22 32 24
REMARK SMILES IDX 64 25 44 26 63 27 45 28 48 29 62 30 81 31 46 32 47 33 61 35
REMARK SMILES IDX 82 36 49 37 33 38 34 39 42 40 35 41 36 42 40 43 43 44 37 45
REMARK SMILES IDX 38 46 41 47 39 48 65 49 66 50 74 51 67 52 68 53 72 54 75 55
REMARK SMILES IDX 69 56 70 57 73 58 71 59 50 60 51 61 59 62 52 63 53 64 57 65
REMARK SMILES IDX 60 66 54 67 55 68 58 69 56 70 5 71 6 72 7 73 8 74 9 76 10 77
REMARK SMILES IDX 11 78 15 79 12 80 14 81 13 82 16 83 17 84 22 85 18 86 21 87
REMARK SMILES IDX 23 88 19 89 20 90
REMARK H PARENT 3 5 80 23 48 34 7 75
REMARK Flexibility Score: inf
ROOT
ATOM      1  C   UNL A   1      32.683  32.459  26.958  1.00  0.00     0.118 C 
ENDROOT
BRANCH   1   2
ATOM      2  N   UNL A   1      32.471  33.827  27.408  1.00  0.00    -0.352 N 
ATOM      3  O   UNL A   1      32.638  35.627  28.754  1.00  0.00    -0.269 OA
ATOM      4  C   UNL A   1      33.079  34.530  28.419  1.00  0.00     0.251 C 
ATOM      5  H   UNL A   1      31.784  34.327  26.909  1.00  0.00     0.163 HD
BRANCH   4   6
ATOM      6  C   UNL A   1      34.251  33.964  29.118  1.00  0.00     0.039 A 
ATOM      7  C   UNL A   1      34.085  33.038  30.149  1.00  0.00     0.014 A 
ATOM      8  C   UNL A   1      35.537  34.336  28.713  1.00  0.00     0.014 A 
ATOM      9  C   UNL A   1      35.185  32.605  30.874  1.00  0.00     0.010 A 
ATOM     10  C   UNL A   1      36.652  33.812  29.371  1.00  0.00     0.010 A 
ATOM     11  C   UNL A   1      36.482  32.954  30.468  1.00  0.00    -0.014 A 
BRANCH  11  12
ATOM     12  C   UNL A   1      37.639  32.297  31.122  1.00  0.00     0.031 A 
ATOM     13  C   UNL A   1      38.075  32.662  32.508  1.00  0.00     0.074 A 
ATOM     14  C   UNL A   1      38.281  31.331  30.438  1.00  0.00     0.049 A 
ATOM     15  N   UNL A   1      39.052  32.160  33.220  1.00  0.00    -0.248 NA
ATOM     16  C   UNL A   1      37.327  33.731  33.182  1.00  0.00     0.031 C 
ATOM     17  C   UNL A   1      37.939  30.900  29.080  1.00  0.00     0.029 A 
ATOM     18  N   UNL A   1      39.331  30.523  30.787  1.00  0.00    -0.354 N 
ATOM     19  C   UNL A   1      39.041  32.852  34.423  1.00  0.00     0.074 A 
ATOM     20  C   UNL A   1      37.983  33.836  34.330  1.00  0.00     0.031 C 
ATOM     21  C   UNL A   1      38.717  29.868  28.737  1.00  0.00     0.029 A 
ATOM     22  C   UNL A   1      39.666  29.614  29.815  1.00  0.00     0.049 A 
ATOM     23  H   UNL A   1      39.799  30.588  31.651  1.00  0.00     0.167 HD
ATOM     24  C   UNL A   1      39.840  32.671  35.503  1.00  0.00     0.037 A 
ATOM     25  C   UNL A   1      40.639  28.687  29.781  1.00  0.00     0.037 A 
ATOM     26  C   UNL A   1      40.899  31.694  35.571  1.00  0.00     0.049 A 
ATOM     27  C   UNL A   1      41.545  28.546  30.966  1.00  0.00     0.074 A 
ATOM     28  C   UNL A   1      41.762  31.428  36.620  1.00  0.00     0.029 A 
ATOM     29  N   UNL A   1      41.247  30.827  34.543  1.00  0.00    -0.354 N 
ATOM     30  N   UNL A   1      41.521  29.198  32.103  1.00  0.00    -0.248 NA
ATOM     31  C   UNL A   1      42.614  27.546  30.865  1.00  0.00     0.031 C 
ATOM     32  C   UNL A   1      42.668  30.446  36.207  1.00  0.00     0.029 A 
ATOM     33  C   UNL A   1      42.328  30.044  34.925  1.00  0.00     0.049 A 
ATOM     34  H   UNL A   1      40.795  30.775  33.670  1.00  0.00     0.167 HD
ATOM     35  C   UNL A   1      42.554  28.674  32.864  1.00  0.00     0.074 A 
ATOM     36  C   UNL A   1      43.181  27.643  32.060  1.00  0.00     0.031 C 
ATOM     37  C   UNL A   1      42.943  29.019  34.116  1.00  0.00     0.037 A 
BRANCH  24  38
ATOM     38  C   UNL A   1      39.614  33.561  36.694  1.00  0.00     0.064 A 
ATOM     39  C   UNL A   1      38.767  33.157  37.738  1.00  0.00     0.173 A 
ATOM     40  C   UNL A   1      40.201  34.833  36.788  1.00  0.00     0.173 A 
ATOM     41  F   UNL A   1      38.172  31.955  37.699  1.00  0.00    -0.203 F 
ATOM     42  C   UNL A   1      38.511  33.991  38.824  1.00  0.00     0.198 A 
ATOM     43  C   UNL A   1      39.971  35.652  37.892  1.00  0.00     0.198 A 
ATOM     44  F   UNL A   1      41.027  35.268  35.825  1.00  0.00    -0.203 F 
ATOM     45  F   UNL A   1      37.677  33.592  39.793  1.00  0.00    -0.200 F 
ATOM     46  C   UNL A   1      39.120  35.234  38.904  1.00  0.00     0.200 A 
ATOM     47  F   UNL A   1      40.584  36.840  37.982  1.00  0.00    -0.200 F 
ATOM     48  F   UNL A   1      38.895  36.026  39.962  1.00  0.00    -0.200 F 
ENDBRANCH  24  38
BRANCH  25  49
ATOM     49  C   UNL A   1      40.759  27.817  28.585  1.00  0.00     0.064 A 
ATOM     50  C   UNL A   1      41.533  28.203  27.478  1.00  0.00     0.173 A 
ATOM     51  C   UNL A   1      40.019  26.633  28.485  1.00  0.00     0.173 A 
ATOM     52  F   UNL A   1      42.248  29.337  27.522  1.00  0.00    -0.203 F 
ATOM     53  C   UNL A   1      41.528  27.457  26.303  1.00  0.00     0.198 A 
ATOM     54  C   UNL A   1      40.039  25.872  27.318  1.00  0.00     0.198 A 
ATOM     55  F   UNL A   1      39.275  26.220  29.521  1.00  0.00    -0.203 F 
ATOM     56  F   UNL A   1      42.225  27.880  25.240  1.00  0.00    -0.200 F 
ATOM     57  C   UNL A   1      40.781  26.291  26.224  1.00  0.00     0.200 A 
ATOM     58  F   UNL A   1      39.328  24.738  27.250  1.00  0.00    -0.200 F 
ATOM     59  F   UNL A   1      40.770  25.577  25.091  1.00  0.00    -0.200 F 
ENDBRANCH  25  49
BRANCH  37  60
ATOM     60  C   UNL A   1      44.082  28.248  34.720  1.00  0.00     0.064 A 
ATOM     61  C   UNL A   1      43.833  27.069  35.441  1.00  0.00     0.173 A 
ATOM     62  C   UNL A   1      45.408  28.700  34.639  1.00  0.00     0.173 A 
ATOM     63  F   UNL A   1      42.582  26.597  35.553  1.00  0.00    -0.203 F 
ATOM     64  C   UNL A   1      44.866  26.380  36.069  1.00  0.00     0.198 A 
ATOM     65  C   UNL A   1      46.443  27.990  35.241  1.00  0.00     0.198 A 
ATOM     66  F   UNL A   1      45.701  29.812  33.949  1.00  0.00    -0.203 F 
ATOM     67  F   UNL A   1      44.598  25.277  36.780  1.00  0.00    -0.200 F 
ATOM     68  C   UNL A   1      46.171  26.837  35.964  1.00  0.00     0.200 A 
ATOM     69  F   UNL A   1      47.708  28.416  35.114  1.00  0.00    -0.200 F 
ATOM     70  F   UNL A   1      47.167  26.165  36.555  1.00  0.00    -0.200 F 
ENDBRANCH  37  60
ENDBRANCH  11  12
ENDBRANCH   4   6
ENDBRANCH   1   2
BRANCH   1  71
ATOM     71  C   UNL A   1      31.402  31.778  26.501  1.00  0.00     0.042 C 
BRANCH  71  72
ATOM     72  C   UNL A   1      31.542  30.282  26.274  1.00  0.00     0.118 C 
BRANCH  72  73
ATOM     73  N   UNL A   1      32.377  29.966  25.125  1.00  0.00    -0.352 N 
ATOM     74  C   UNL A   1      32.097  29.272  23.975  1.00  0.00     0.252 C 
ATOM     75  H   UNL A   1      33.298  30.309  25.182  1.00  0.00     0.163 HD
ATOM     76  O   UNL A   1      33.001  29.051  23.176  1.00  0.00    -0.269 OA
BRANCH  74  77
ATOM     77  C   UNL A   1      30.719  28.806  23.699  1.00  0.00     0.050 A 
ATOM     78  C   UNL A   1      29.836  29.687  23.063  1.00  0.00     0.034 A 
ATOM     79  C   UNL A   1      30.326  27.488  23.985  1.00  0.00     0.016 A 
ATOM     80  C   UNL A   1      28.548  29.261  22.818  1.00  0.00     0.112 A 
ATOM     81  C   UNL A   1      29.004  27.172  23.670  1.00  0.00     0.120 A 
ATOM     82  N   UNL A   1      28.107  28.028  23.126  1.00  0.00    -0.264 NA
BRANCH  79  83
ATOM     83  C   UNL A   1      31.216  26.459  24.543  1.00  0.00     0.020 A 
ATOM     84  C   UNL A   1      31.959  25.599  23.717  1.00  0.00     0.015 A 
ATOM     85  C   UNL A   1      31.337  26.303  25.936  1.00  0.00     0.134 A 
ATOM     86  C   UNL A   1      32.781  24.616  24.275  1.00  0.00     0.040 A 
ATOM     87  C   UNL A   1      32.151  25.325  26.497  1.00  0.00     0.079 A 
ATOM     88  F   UNL A   1      30.657  27.114  26.761  1.00  0.00    -0.206 F 
ATOM     89  C   UNL A   1      32.865  24.486  25.658  1.00  0.00     0.126 A 
ATOM     90  F   UNL A   1      33.651  23.539  26.184  1.00  0.00    -0.207 F 
ENDBRANCH  79  83
ENDBRANCH  74  77
ENDBRANCH  72  73
ENDBRANCH  71  72
ENDBRANCH   1  71
TORSDOF 11
ENDMDL
MODEL 2
REMARK VINA RESULT:     -12.6      0.095      1.150
REMARK SMILES O=C(NCCCNC(=O)c1ccncc1-c1ccc(F)cc1F)c1ccc(-c2c3nc(c(-c4c(F)c(F)c(F)c(F)c4F)c4ccc([nH]4)c(-c4c(F)c(F)c(F)c(F)c4F)c4nc(c(-c5c(F)c(F)c(F)c(F)c5F)c5ccc2[nH]5)C=C4)C=C3)cc1
REMARK SMILES IDX 4 1 3 2 1 3 2 4 24 6 25 7 86 8 26 9 85 10 27 11 28 12 29 13
REMARK SMILES IDX 79 14 30 15 84 16 78 17 80 18 31 19 83 20 77 21 76 22 32 24
REMARK SMILES IDX 64 25 44 26 63 27 45 28 48 29 62 30 81 31 46 32 47 33 61 35
REMARK SMILES IDX 82 36 49 37 33 38 34 39 42 40 35 41 36 42 40 43 43 44 37 45
REMARK SMILES IDX 38 46 41 47 39 48 65 49 66 50 74 51 67 52 68 53 72 54 75 55
REMARK SMILES IDX 69 56 70 57 73 58 71 59 50 60 51 61 59 62 52 63 53 64 57 65
REMARK SMILES IDX 60 66 54 67 55 68 58 69 56 70 5 71 6 72 7 73 8 74 9 76 10 77
REMARK SMILES IDX 11 78 15 79 12 80 14 81 13 82 16 83 17 84 22 85 18 86 21 87
REMARK SMILES IDX 23 88 19 89 20 90
REMARK H PARENT 3 5 80 23 48 34 7 75
REMARK Flexibility Score: inf
ROOT
ATOM      1  C   UNL A   1      32.704  32.438  26.877  1.00  0.00     0.118 C 
ENDROOT
BRANCH   1   2
ATOM      2  N   UNL A   1      32.457  33.791  27.358  1.00  0.00    -0.352 N 
ATOM      3  O   UNL A   1      32.567  35.559  28.751  1.00  0.00    -0.269 OA
ATOM      4  C   UNL A   1      33.035  34.479  28.395  1.00  0.00     0.251 C 
ATOM      5  H   UNL A   1      31.768  34.289  26.862  1.00  0.00     0.163 HD
BRANCH   4   6
ATOM      6  C   UNL A   1      34.209  33.921  29.098  1.00  0.00     0.039 A 
ATOM      7  C   UNL A   1      34.052  32.918  30.056  1.00  0.00     0.014 A 
ATOM      8  C   UNL A   1      35.488  34.379  28.769  1.00  0.00     0.014 A 
ATOM      9  C   UNL A   1      35.146  32.485  30.791  1.00  0.00     0.010 A 
ATOM     10  C   UNL A   1      36.604  33.861  29.431  1.00  0.00     0.010 A 
ATOM     11  C   UNL A   1      36.438  32.921  30.459  1.00  0.00    -0.014 A 
BRANCH  11  12
ATOM     12  C   UNL A   1      37.602  32.273  31.110  1.00  0.00     0.031 A 
ATOM     13  C   UNL A   1      38.039  32.642  32.494  1.00  0.00     0.074 A 
ATOM     14  C   UNL A   1      38.250  31.313  30.424  1.00  0.00     0.049 A 
ATOM     15  N   UNL A   1      39.023  32.148  33.204  1.00  0.00    -0.248 NA
ATOM     16  C   UNL A   1      37.284  33.706  33.171  1.00  0.00     0.031 C 
ATOM     17  C   UNL A   1      37.908  30.879  29.067  1.00  0.00     0.029 A 
ATOM     18  N   UNL A   1      39.307  30.513  30.771  1.00  0.00    -0.354 N 
ATOM     19  C   UNL A   1      39.009  32.840  34.407  1.00  0.00     0.074 A 
ATOM     20  C   UNL A   1      37.943  33.816  34.317  1.00  0.00     0.031 C 
ATOM     21  C   UNL A   1      38.692  29.853  28.722  1.00  0.00     0.029 A 
ATOM     22  C   UNL A   1      39.647  29.607  29.797  1.00  0.00     0.049 A 
ATOM     23  H   UNL A   1      39.777  30.581  31.633  1.00  0.00     0.167 HD
ATOM     24  C   UNL A   1      39.812  32.666  35.485  1.00  0.00     0.037 A 
ATOM     25  C   UNL A   1      40.627  28.687  29.761  1.00  0.00     0.037 A 
ATOM     26  C   UNL A   1      40.879  31.697  35.550  1.00  0.00     0.049 A 
ATOM     27  C   UNL A   1      41.537  28.554  30.943  1.00  0.00     0.074 A 
ATOM     28  C   UNL A   1      41.748  31.438  36.596  1.00  0.00     0.029 A 
ATOM     29  N   UNL A   1      41.232  30.833  34.521  1.00  0.00    -0.354 N 
ATOM     30  N   UNL A   1      41.511  29.206  32.080  1.00  0.00    -0.248 NA
ATOM     31  C   UNL A   1      42.614  27.563  30.839  1.00  0.00     0.031 C 
ATOM     32  C   UNL A   1      42.660  30.463  36.181  1.00  0.00     0.029 A 
ATOM     33  C   UNL A   1      42.319  30.058  34.900  1.00  0.00     0.049 A 
ATOM     34  H   UNL A   1      40.777  30.777  33.649  1.00  0.00     0.167 HD
ATOM     35  C   UNL A   1      42.551  28.690  32.838  1.00  0.00     0.074 A 
ATOM     36  C   UNL A   1      43.183  27.664  32.033  1.00  0.00     0.031 C 
ATOM     37  C   UNL A   1      42.940  29.039  34.089  1.00  0.00     0.037 A 
BRANCH  24  38
ATOM     38  C   UNL A   1      39.583  33.554  36.677  1.00  0.00     0.064 A 
ATOM     39  C   UNL A   1      38.740  33.144  37.722  1.00  0.00     0.173 A 
ATOM     40  C   UNL A   1      40.162  34.830  36.769  1.00  0.00     0.173 A 
ATOM     41  F   UNL A   1      38.154  31.938  37.684  1.00  0.00    -0.203 F 
ATOM     42  C   UNL A   1      38.482  33.976  38.809  1.00  0.00     0.198 A 
ATOM     43  C   UNL A   1      39.928  35.647  37.874  1.00  0.00     0.198 A 
ATOM     44  F   UNL A   1      40.983  35.271  35.805  1.00  0.00    -0.203 F 
ATOM     45  F   UNL A   1      37.652  33.571  39.779  1.00  0.00    -0.200 F 
ATOM     46  C   UNL A   1      39.082  35.223  38.888  1.00  0.00     0.200 A 
ATOM     47  F   UNL A   1      40.533  36.839  37.962  1.00  0.00    -0.200 F 
ATOM     48  F   UNL A   1      38.853  36.013  39.946  1.00  0.00    -0.200 F 
ENDBRANCH  24  38
BRANCH  25  49
ATOM     49  C   UNL A   1      40.751  27.818  28.564  1.00  0.00     0.064 A 
ATOM     50  C   UNL A   1      41.520  28.209  27.457  1.00  0.00     0.173 A 
ATOM     51  C   UNL A   1      40.017  26.630  28.465  1.00  0.00     0.173 A 
ATOM     52  F   UNL A   1      42.228  29.348  27.499  1.00  0.00    -0.203 F 
ATOM     53  C   UNL A   1      41.518  27.463  26.282  1.00  0.00     0.198 A 
ATOM     54  C   UNL A   1      40.040  25.869  27.299  1.00  0.00     0.198 A 
ATOM     55  F   UNL A   1      39.278  26.212  29.502  1.00  0.00    -0.203 F 
ATOM     56  F   UNL A   1      42.211  27.891  25.218  1.00  0.00    -0.200 F 
ATOM     57  C   UNL A   1      40.778  26.293  26.203  1.00  0.00     0.200 A 
ATOM     58  F   UNL A   1      39.336  24.730  27.232  1.00  0.00    -0.200 F 
ATOM     59  F   UNL A   1      40.770  25.578  25.070  1.00  0.00    -0.200 F 
ENDBRANCH  25  49
BRANCH  37  60
ATOM     60  C   UNL A   1      44.088  28.276  34.690  1.00  0.00     0.064 A 
ATOM     61  C   UNL A   1      45.405  28.732  34.518  1.00  0.00     0.173 A 
ATOM     62  C   UNL A   1      43.895  27.071  35.380  1.00  0.00     0.173 A 
ATOM     63  F   UNL A   1      45.644  29.876  33.860  1.00  0.00    -0.203 F 
ATOM     64  C   UNL A   1      46.486  28.002  35.003  1.00  0.00     0.198 A 
ATOM     65  C   UNL A   1      44.977  26.360  35.893  1.00  0.00     0.198 A 
ATOM     66  F   UNL A   1      42.656  26.600  35.585  1.00  0.00    -0.203 F 
ATOM     67  F   UNL A   1      47.735  28.440  34.797  1.00  0.00    -0.200 F 
ATOM     68  C   UNL A   1      46.271  26.821  35.696  1.00  0.00     0.200 A 
ATOM     69  F   UNL A   1      44.767  25.233  36.588  1.00  0.00    -0.200 F 
ATOM     70  F   UNL A   1      47.311  26.126  36.177  1.00  0.00    -0.200 F 
ENDBRANCH  37  60
ENDBRANCH  11  12
ENDBRANCH   4   6
ENDBRANCH   1   2
BRANCH   1  71
ATOM     71  C   UNL A   1      31.430  31.699  26.501  1.00  0.00     0.042 C 
BRANCH  71  72
ATOM     72  C   UNL A   1      31.620  30.208  26.277  1.00  0.00     0.118 C 
BRANCH  72  73
ATOM     73  N   UNL A   1      32.433  29.918  25.105  1.00  0.00    -0.352 N 
ATOM     74  C   UNL A   1      32.128  29.257  23.942  1.00  0.00     0.252 C 
ATOM     75  H   UNL A   1      33.358  30.253  25.155  1.00  0.00     0.163 HD
ATOM     76  O   UNL A   1      33.018  29.051  23.122  1.00  0.00    -0.269 OA
BRANCH  74  77
ATOM     77  C   UNL A   1      30.743  28.808  23.677  1.00  0.00     0.050 A 
ATOM     78  C   UNL A   1      29.865  29.702  23.053  1.00  0.00     0.034 A 
ATOM     79  C   UNL A   1      30.337  27.494  23.963  1.00  0.00     0.016 A 
ATOM     80  C   UNL A   1      28.569  29.292  22.818  1.00  0.00     0.112 A 
ATOM     81  C   UNL A   1      29.008  27.195  23.660  1.00  0.00     0.120 A 
ATOM     82  N   UNL A   1      28.116  28.064  23.126  1.00  0.00    -0.264 NA
BRANCH  79  83
ATOM     83  C   UNL A   1      31.219  26.453  24.510  1.00  0.00     0.020 A 
ATOM     84  C   UNL A   1      31.963  25.603  23.674  1.00  0.00     0.015 A 
ATOM     85  C   UNL A   1      31.333  26.275  25.900  1.00  0.00     0.134 A 
ATOM     86  C   UNL A   1      32.777  24.607  24.221  1.00  0.00     0.040 A 
ATOM     87  C   UNL A   1      32.140  25.286  26.451  1.00  0.00     0.079 A 
ATOM     88  F   UNL A   1      30.653  27.077  26.735  1.00  0.00    -0.206 F 
ATOM     89  C   UNL A   1      32.854  24.457  25.602  1.00  0.00     0.126 A 
ATOM     90  F   UNL A   1      33.634  23.498  26.118  1.00  0.00    -0.207 F 
ENDBRANCH  79  83
ENDBRANCH  74  77
ENDBRANCH  72  73
ENDBRANCH  71  72
ENDBRANCH   1  71
TORSDOF 11
ENDMDL
MODEL 3
REMARK VINA RESULT:     -12.5      5.941     11.177
REMARK SMILES O=C(NCCCNC(=O)c1ccncc1-c1ccc(F)cc1F)c1ccc(-c2c3nc(c(-c4c(F)c(F)c(F)c(F)c4F)c4ccc([nH]4)c(-c4c(F)c(F)c(F)c(F)c4F)c4nc(c(-c5c(F)c(F)c(F)c(F)c5F)c5ccc2[nH]5)C=C4)C=C3)cc1
REMARK SMILES IDX 4 1 3 2 1 3 2 4 24 6 25 7 86 8 26 9 85 10 27 11 28 12 29 13
REMARK SMILES IDX 79 14 30 15 84 16 78 17 80 18 31 19 83 20 77 21 76 22 32 24
REMARK SMILES IDX 64 25 44 26 63 27 45 28 48 29 62 30 81 31 46 32 47 33 61 35
REMARK SMILES IDX 82 36 49 37 33 38 34 39 42 40 35 41 36 42 40 43 43 44 37 45
REMARK SMILES IDX 38 46 41 47 39 48 65 49 66 50 74 51 67 52 68 53 72 54 75 55
REMARK SMILES IDX 69 56 70 57 73 58 71 59 50 60 51 61 59 62 52 63 53 64 57 65
REMARK SMILES IDX 60 66 54 67 55 68 58 69 56 70 5 71 6 72 7 73 8 74 9 76 10 77
REMARK SMILES IDX 11 78 15 79 12 80 14 81 13 82 16 83 17 84 22 85 18 86 21 87
REMARK SMILES IDX 23 88 19 89 20 90
REMARK H PARENT 3 5 80 23 48 34 7 75
REMARK Flexibility Score: inf
ROOT
ATOM      1  C   UNL A   1      38.981  20.272  25.752  1.00  0.00     0.118 C 
ENDROOT
BRANCH   1   2
ATOM      2  N   UNL A   1      40.043  19.283  25.874  1.00  0.00    -0.352 N 
ATOM      3  O   UNL A   1      42.151  18.493  25.986  1.00  0.00    -0.269 OA
ATOM      4  C   UNL A   1      41.390  19.453  26.082  1.00  0.00     0.251 C 
ATOM      5  H   UNL A   1      39.750  18.346  25.795  1.00  0.00     0.163 HD
BRANCH   4   6
ATOM      6  C   UNL A   1      41.930  20.790  26.404  1.00  0.00     0.039 A 
ATOM      7  C   UNL A   1      42.075  21.757  25.407  1.00  0.00     0.014 A 
ATOM      8  C   UNL A   1      42.264  21.095  27.728  1.00  0.00     0.014 A 
ATOM      9  C   UNL A   1      42.692  22.965  25.700  1.00  0.00     0.010 A 
ATOM     10  C   UNL A   1      42.781  22.354  28.042  1.00  0.00     0.010 A 
ATOM     11  C   UNL A   1      43.014  23.292  27.026  1.00  0.00    -0.014 A 
BRANCH  11  12
ATOM     12  C   UNL A   1      43.462  24.671  27.334  1.00  0.00     0.031 A 
ATOM     13  C   UNL A   1      44.857  25.131  27.047  1.00  0.00     0.074 A 
ATOM     14  C   UNL A   1      42.560  25.520  27.864  1.00  0.00     0.049 A 
ATOM     15  N   UNL A   1      45.389  26.313  27.239  1.00  0.00    -0.248 NA
ATOM     16  C   UNL A   1      45.782  24.142  26.476  1.00  0.00     0.031 C 
ATOM     17  C   UNL A   1      41.174  25.172  28.186  1.00  0.00     0.029 A 
ATOM     18  N   UNL A   1      42.657  26.843  28.202  1.00  0.00    -0.354 N 
ATOM     19  C   UNL A   1      46.708  26.210  26.820  1.00  0.00     0.074 A 
ATOM     20  C   UNL A   1      46.907  24.839  26.397  1.00  0.00     0.031 C 
ATOM     21  C   UNL A   1      40.533  26.266  28.612  1.00  0.00     0.029 A 
ATOM     22  C   UNL A   1      41.480  27.373  28.671  1.00  0.00     0.049 A 
ATOM     23  H   UNL A   1      43.488  27.365  28.118  1.00  0.00     0.167 HD
ATOM     24  C   UNL A   1      47.657  27.177  26.788  1.00  0.00     0.037 A 
ATOM     25  C   UNL A   1      41.193  28.609  29.117  1.00  0.00     0.037 A 
ATOM     26  C   UNL A   1      47.442  28.534  27.227  1.00  0.00     0.049 A 
ATOM     27  C   UNL A   1      42.275  29.645  29.125  1.00  0.00     0.074 A 
ATOM     28  C   UNL A   1      48.336  29.591  27.233  1.00  0.00     0.029 A 
ATOM     29  N   UNL A   1      46.251  29.022  27.751  1.00  0.00    -0.354 N 
ATOM     30  N   UNL A   1      43.517  29.541  28.717  1.00  0.00    -0.248 NA
ATOM     31  C   UNL A   1      41.921  30.966  29.656  1.00  0.00     0.031 C 
ATOM     32  C   UNL A   1      47.707  30.698  27.812  1.00  0.00     0.029 A 
ATOM     33  C   UNL A   1      46.396  30.356  28.105  1.00  0.00     0.049 A 
ATOM     34  H   UNL A   1      45.425  28.497  27.857  1.00  0.00     0.167 HD
ATOM     35  C   UNL A   1      44.089  30.788  28.919  1.00  0.00     0.074 A 
ATOM     36  C   UNL A   1      43.053  31.635  29.478  1.00  0.00     0.031 C 
ATOM     37  C   UNL A   1      45.358  31.189  28.660  1.00  0.00     0.037 A 
BRANCH  24  38
ATOM     38  C   UNL A   1      49.021  26.800  26.278  1.00  0.00     0.064 A 
ATOM     39  C   UNL A   1      49.368  27.022  24.936  1.00  0.00     0.173 A 
ATOM     40  C   UNL A   1      49.972  26.181  27.104  1.00  0.00     0.173 A 
ATOM     41  F   UNL A   1      48.496  27.603  24.099  1.00  0.00    -0.203 F 
ATOM     42  C   UNL A   1      50.611  26.634  24.440  1.00  0.00     0.198 A 
ATOM     43  C   UNL A   1      51.227  25.825  26.613  1.00  0.00     0.198 A 
ATOM     44  F   UNL A   1      49.699  25.953  28.397  1.00  0.00    -0.203 F 
ATOM     45  F   UNL A   1      50.906  26.832  23.148  1.00  0.00    -0.200 F 
ATOM     46  C   UNL A   1      51.542  26.044  25.280  1.00  0.00     0.200 A 
ATOM     47  F   UNL A   1      52.136  25.281  27.434  1.00  0.00    -0.200 F 
ATOM     48  F   UNL A   1      52.747  25.694  24.808  1.00  0.00    -0.200 F 
ENDBRANCH  24  38
BRANCH  25  49
ATOM     49  C   UNL A   1      39.807  28.908  29.556  1.00  0.00     0.064 A 
ATOM     50  C   UNL A   1      39.386  28.647  30.870  1.00  0.00     0.173 A 
ATOM     51  C   UNL A   1      38.851  29.364  28.640  1.00  0.00     0.173 A 
ATOM     52  F   UNL A   1      40.263  28.195  31.778  1.00  0.00    -0.203 F 
ATOM     53  C   UNL A   1      38.052  28.792  31.238  1.00  0.00     0.198 A 
ATOM     54  C   UNL A   1      37.521  29.537  29.019  1.00  0.00     0.198 A 
ATOM     55  F   UNL A   1      39.210  29.638  27.378  1.00  0.00    -0.203 F 
ATOM     56  F   UNL A   1      37.664  28.476  32.481  1.00  0.00    -0.200 F 
ATOM     57  C   UNL A   1      37.120  29.237  30.313  1.00  0.00     0.200 A 
ATOM     58  F   UNL A   1      36.627  29.982  28.126  1.00  0.00    -0.200 F 
ATOM     59  F   UNL A   1      35.834  29.370  30.665  1.00  0.00    -0.200 F 
ENDBRANCH  25  49
BRANCH  37  60
ATOM     60  C   UNL A   1      45.696  32.626  28.943  1.00  0.00     0.064 A 
ATOM     61  C   UNL A   1      45.507  33.604  27.954  1.00  0.00     0.173 A 
ATOM     62  C   UNL A   1      46.260  33.027  30.164  1.00  0.00     0.173 A 
ATOM     63  F   UNL A   1      44.975  33.271  26.767  1.00  0.00    -0.203 F 
ATOM     64  C   UNL A   1      45.881  34.926  28.171  1.00  0.00     0.198 A 
ATOM     65  C   UNL A   1      46.603  34.358  30.389  1.00  0.00     0.198 A 
ATOM     66  F   UNL A   1      46.447  32.135  31.147  1.00  0.00    -0.203 F 
ATOM     67  F   UNL A   1      45.722  35.834  27.199  1.00  0.00    -0.200 F 
ATOM     68  C   UNL A   1      46.423  35.304  29.390  1.00  0.00     0.200 A 
ATOM     69  F   UNL A   1      47.100  34.727  31.578  1.00  0.00    -0.200 F 
ATOM     70  F   UNL A   1      46.769  36.579  29.604  1.00  0.00    -0.200 F 
ENDBRANCH  37  60
ENDBRANCH  11  12
ENDBRANCH   4   6
ENDBRANCH   1   2
BRANCH   1  71
ATOM     71  C   UNL A   1      37.776  19.757  24.981  1.00  0.00     0.042 C 
BRANCH  71  72
ATOM     72  C   UNL A   1      36.723  20.816  24.695  1.00  0.00     0.118 C 
BRANCH  72  73
ATOM     73  N   UNL A   1      35.854  21.062  25.836  1.00  0.00    -0.352 N 
ATOM     74  C   UNL A   1      34.496  20.921  25.977  1.00  0.00     0.252 C 
ATOM     75  H   UNL A   1      36.318  21.384  26.642  1.00  0.00     0.163 HD
ATOM     76  O   UNL A   1      33.964  21.284  27.022  1.00  0.00    -0.269 OA
BRANCH  74  77
ATOM     77  C   UNL A   1      33.688  20.330  24.887  1.00  0.00     0.050 A 
ATOM     78  C   UNL A   1      33.501  18.943  24.878  1.00  0.00     0.034 A 
ATOM     79  C   UNL A   1      33.049  21.141  23.934  1.00  0.00     0.016 A 
ATOM     80  C   UNL A   1      32.761  18.387  23.855  1.00  0.00     0.112 A 
ATOM     81  C   UNL A   1      32.312  20.462  22.964  1.00  0.00     0.120 A 
ATOM     82  N   UNL A   1      32.178  19.115  22.887  1.00  0.00    -0.264 NA
BRANCH  79  83
ATOM     83  C   UNL A   1      33.091  22.610  23.932  1.00  0.00     0.020 A 
ATOM     84  C   UNL A   1      34.073  23.318  23.218  1.00  0.00     0.015 A 
ATOM     85  C   UNL A   1      32.145  23.350  24.663  1.00  0.00     0.134 A 
ATOM     86  C   UNL A   1      34.102  24.715  23.252  1.00  0.00     0.040 A 
ATOM     87  C   UNL A   1      32.169  24.740  24.702  1.00  0.00     0.079 A 
ATOM     88  F   UNL A   1      31.180  22.714  25.346  1.00  0.00    -0.206 F 
ATOM     89  C   UNL A   1      33.154  25.411  23.996  1.00  0.00     0.126 A 
ATOM     90  F   UNL A   1      33.192  26.749  24.025  1.00  0.00    -0.207 F 
ENDBRANCH  79  83
ENDBRANCH  74  77
ENDBRANCH  72  73
ENDBRANCH  71  72
ENDBRANCH   1  71
TORSDOF 11
ENDMDL
