MODEL 1
REMARK VINA RESULT:     -12.6      0.000      0.000
REMARK SMILES COc1ccccc1NC(=O)N[C@@](C)(C(=O)NCCCNC(=O)c1ccc(-c2c3nc(c(-c4c(F)c(F)c(F)c(F)c4F)c4ccc([nH]4)c(-c4c(F)c(F)c(F)c(F)c4F)c4nc(c(-c5c(F)c(F)c(F)c(F)c5F)c5ccc2[nH]5)C=C4)C=C3)cc1)C(F)(F)F
REMARK SMILES IDX 18 1 17 2 15 3 16 4 13 6 14 7 12 8 9 9 10 10 11 12 8 14 3 15
REMARK SMILES IDX 4 16 5 17 7 18 6 19 2 20 1 21 87 22 88 23 89 24 90 25 19 26
REMARK SMILES IDX 20 27 21 28 22 29 23 31 24 32 25 33 86 34 26 35 85 36 27 37
REMARK SMILES IDX 28 38 29 39 79 40 30 41 84 42 78 43 80 44 31 45 83 46 77 47
REMARK SMILES IDX 76 48 32 50 64 51 44 52 63 53 45 54 48 55 62 56 81 57 46 58
REMARK SMILES IDX 47 59 61 61 82 62 49 63 33 64 34 65 42 66 35 67 36 68 40 69
REMARK SMILES IDX 43 70 37 71 38 72 41 73 39 74 65 75 66 76 74 77 67 78 68 79
REMARK SMILES IDX 72 80 75 81 69 82 70 83 73 84 71 85 50 86 51 87 59 88 52 89
REMARK SMILES IDX 53 90 57 91 60 92 54 93 55 94 58 95 56 96
REMARK H PARENT 17 5 9 11 12 13 21 30 80 49 48 60
REMARK Flexibility Score: inf
ROOT
ATOM      1  C   UNL A   1      31.783  30.505  26.524  1.00  0.00     0.117 C 
ENDROOT
BRANCH   1   2
ATOM      2  N   UNL A   1      33.038  30.089  25.934  1.00  0.00    -0.354 N 
ATOM      3  C   UNL A   1      33.515  28.806  25.988  1.00  0.00     0.255 C 
ATOM      4  O   UNL A   1      34.467  28.636  26.752  1.00  0.00    -0.272 OA
ATOM      5  H   UNL A   1      33.578  30.766  25.466  1.00  0.00     0.163 HD
BRANCH   3   6
ATOM      6  C   UNL A   1      32.832  27.680  25.153  1.00  0.00     0.213 C 
ATOM      7  C   UNL A   1      33.957  26.813  24.554  1.00  0.00     0.056 C 
BRANCH   6   8
ATOM      8  N   UNL A   1      32.017  28.274  24.044  1.00  0.00    -0.316 N 
ATOM      9  N   UNL A   1      31.007  26.579  22.668  1.00  0.00    -0.305 N 
ATOM     10  C   UNL A   1      31.277  27.847  23.010  1.00  0.00     0.320 C 
ATOM     11  H   UNL A   1      30.177  26.515  22.142  1.00  0.00     0.172 HD
ATOM     12  O   UNL A   1      30.677  28.733  22.389  1.00  0.00    -0.248 OA
ATOM     13  H   UNL A   1      32.025  29.257  24.087  1.00  0.00     0.166 HD
BRANCH   9  14
ATOM     14  C   UNL A   1      31.595  25.320  22.859  1.00  0.00     0.085 A 
ATOM     15  C   UNL A   1      32.651  24.899  22.028  1.00  0.00     0.142 A 
ATOM     16  C   UNL A   1      33.015  23.546  22.004  1.00  0.00     0.048 A 
ATOM     17  C   UNL A   1      32.410  22.635  22.871  1.00  0.00     0.004 A 
ATOM     18  C   UNL A   1      31.138  24.444  23.841  1.00  0.00     0.030 A 
ATOM     19  C   UNL A   1      31.510  23.095  23.826  1.00  0.00     0.002 A 
BRANCH  15  20
ATOM     20  O   UNL A   1      33.228  25.673  21.054  1.00  0.00    -0.495 OA
ATOM     21  C   UNL A   1      32.664  25.504  19.757  1.00  0.00     0.278 C 
ENDBRANCH  15  20
ENDBRANCH   9  14
ENDBRANCH   6   8
BRANCH   6  22
ATOM     22  C   UNL A   1      32.034  26.980  26.288  1.00  0.00     0.420 C 
ATOM     23  F   UNL A   1      32.128  27.636  27.469  1.00  0.00    -0.168 F 
ATOM     24  F   UNL A   1      30.726  26.856  26.037  1.00  0.00    -0.168 F 
ATOM     25  F   UNL A   1      32.473  25.707  26.478  1.00  0.00    -0.168 F 
ENDBRANCH   6  22
ENDBRANCH   3   6
ENDBRANCH   1   2
BRANCH   1  26
ATOM     26  C   UNL A   1      31.671  32.030  26.538  1.00  0.00     0.042 C 
BRANCH  26  27
ATOM     27  C   UNL A   1      32.734  32.736  27.383  1.00  0.00     0.118 C 
BRANCH  27  28
ATOM     28  N   UNL A   1      32.411  34.130  27.663  1.00  0.00    -0.352 N 
ATOM     29  C   UNL A   1      32.966  34.992  28.579  1.00  0.00     0.251 C 
ATOM     30  H   UNL A   1      31.688  34.511  27.115  1.00  0.00     0.163 HD
ATOM     31  O   UNL A   1      32.463  36.086  28.786  1.00  0.00    -0.269 OA
BRANCH  29  32
ATOM     32  C   UNL A   1      34.155  34.561  29.338  1.00  0.00     0.039 A 
ATOM     33  C   UNL A   1      33.981  34.046  30.623  1.00  0.00     0.014 A 
ATOM     34  C   UNL A   1      35.424  34.619  28.758  1.00  0.00     0.014 A 
ATOM     35  C   UNL A   1      35.076  33.505  31.296  1.00  0.00     0.010 A 
ATOM     36  C   UNL A   1      36.493  33.998  29.391  1.00  0.00     0.010 A 
ATOM     37  C   UNL A   1      36.329  33.431  30.665  1.00  0.00    -0.014 A 
BRANCH  37  38
ATOM     38  C   UNL A   1      37.478  32.753  31.315  1.00  0.00     0.031 A 
ATOM     39  C   UNL A   1      38.144  31.589  30.634  1.00  0.00     0.074 A 
ATOM     40  C   UNL A   1      37.867  33.137  32.547  1.00  0.00     0.049 A 
ATOM     41  N   UNL A   1      39.106  30.817  31.070  1.00  0.00    -0.248 NA
ATOM     42  C   UNL A   1      37.643  31.223  29.299  1.00  0.00     0.031 C 
ATOM     43  C   UNL A   1      37.258  34.214  33.330  1.00  0.00     0.029 A 
ATOM     44  N   UNL A   1      38.858  32.655  33.366  1.00  0.00    -0.354 N 
ATOM     45  C   UNL A   1      39.304  29.864  30.080  1.00  0.00     0.074 A 
ATOM     46  C   UNL A   1      38.336  30.124  29.038  1.00  0.00     0.031 C 
ATOM     47  C   UNL A   1      37.903  34.328  34.503  1.00  0.00     0.029 A 
ATOM     48  C   UNL A   1      38.938  33.303  34.576  1.00  0.00     0.049 A 
ATOM     49  H   UNL A   1      39.455  31.915  33.110  1.00  0.00     0.167 HD
ATOM     50  C   UNL A   1      40.226  28.876  30.036  1.00  0.00     0.037 A 
ATOM     51  C   UNL A   1      39.748  33.082  35.629  1.00  0.00     0.037 A 
ATOM     52  C   UNL A   1      41.217  28.654  31.055  1.00  0.00     0.049 A 
ATOM     53  C   UNL A   1      40.765  31.973  35.546  1.00  0.00     0.074 A 
ATOM     54  C   UNL A   1      42.261  27.745  31.057  1.00  0.00     0.029 A 
ATOM     55  N   UNL A   1      41.283  29.343  32.256  1.00  0.00    -0.354 N 
ATOM     56  N   UNL A   1      41.013  31.148  34.558  1.00  0.00    -0.248 NA
ATOM     57  C   UNL A   1      41.619  31.769  36.724  1.00  0.00     0.031 C 
ATOM     58  C   UNL A   1      42.920  27.842  32.285  1.00  0.00     0.029 A 
ATOM     59  C   UNL A   1      42.326  28.853  33.024  1.00  0.00     0.049 A 
ATOM     60  H   UNL A   1      40.678  30.072  32.523  1.00  0.00     0.167 HD
ATOM     61  C   UNL A   1      42.066  30.351  34.983  1.00  0.00     0.074 A 
ATOM     62  C   UNL A   1      42.427  30.804  36.308  1.00  0.00     0.031 C 
ATOM     63  C   UNL A   1      42.680  29.329  34.336  1.00  0.00     0.037 A 
BRANCH  50  64
ATOM     64  C   UNL A   1      40.222  27.954  28.852  1.00  0.00     0.064 A 
ATOM     65  C   UNL A   1      40.938  28.248  27.683  1.00  0.00     0.173 A 
ATOM     66  C   UNL A   1      39.555  26.721  28.921  1.00  0.00     0.173 A 
ATOM     67  F   UNL A   1      41.584  29.418  27.563  1.00  0.00    -0.203 F 
ATOM     68  C   UNL A   1      40.976  27.349  26.620  1.00  0.00     0.198 A 
ATOM     69  C   UNL A   1      39.620  25.812  27.868  1.00  0.00     0.198 A 
ATOM     70  F   UNL A   1      38.858  26.388  30.018  1.00  0.00    -0.203 F 
ATOM     71  F   UNL A   1      41.641  27.665  25.501  1.00  0.00    -0.200 F 
ATOM     72  C   UNL A   1      40.327  26.128  26.718  1.00  0.00     0.200 A 
ATOM     73  F   UNL A   1      39.005  24.625  27.971  1.00  0.00    -0.200 F 
ATOM     74  F   UNL A   1      40.384  25.254  25.704  1.00  0.00    -0.200 F 
ENDBRANCH  50  64
BRANCH  51  75
ATOM     75  C   UNL A   1      39.643  33.920  36.855  1.00  0.00     0.064 A 
ATOM     76  C   UNL A   1      38.848  33.517  37.938  1.00  0.00     0.173 A 
ATOM     77  C   UNL A   1      40.290  35.161  36.952  1.00  0.00     0.173 A 
ATOM     78  F   UNL A   1      38.191  32.349  37.888  1.00  0.00    -0.203 F 
ATOM     79  C   UNL A   1      38.673  34.339  39.050  1.00  0.00     0.198 A 
ATOM     80  C   UNL A   1      40.143  35.966  38.080  1.00  0.00     0.198 A 
ATOM     81  F   UNL A   1      41.068  35.593  35.948  1.00  0.00    -0.203 F 
ATOM     82  F   UNL A   1      37.851  33.957  40.039  1.00  0.00    -0.200 F 
ATOM     83  C   UNL A   1      39.322  35.561  39.121  1.00  0.00     0.200 A 
ATOM     84  F   UNL A   1      40.786  37.139  38.152  1.00  0.00    -0.200 F 
ATOM     85  F   UNL A   1      39.147  36.355  40.187  1.00  0.00    -0.200 F 
ENDBRANCH  51  75
BRANCH  63  86
ATOM     86  C   UNL A   1      43.826  28.659  35.035  1.00  0.00     0.064 A 
ATOM     87  C   UNL A   1      45.140  29.133  34.915  1.00  0.00     0.173 A 
ATOM     88  C   UNL A   1      43.600  27.555  35.870  1.00  0.00     0.173 A 
ATOM     89  F   UNL A   1      45.411  30.177  34.116  1.00  0.00    -0.203 F 
ATOM     90  C   UNL A   1      46.189  28.510  35.585  1.00  0.00     0.198 A 
ATOM     91  C   UNL A   1      44.645  26.956  36.566  1.00  0.00     0.198 A 
ATOM     92  F   UNL A   1      42.359  27.067  36.026  1.00  0.00    -0.203 F 
ATOM     93  F   UNL A   1      47.445  28.948  35.414  1.00  0.00    -0.200 F 
ATOM     94  C   UNL A   1      45.939  27.428  36.416  1.00  0.00     0.200 A 
ATOM     95  F   UNL A   1      44.399  25.922  37.383  1.00  0.00    -0.200 F 
ATOM     96  F   UNL A   1      46.949  26.837  37.069  1.00  0.00    -0.200 F 
ENDBRANCH  63  86
ENDBRANCH  37  38
ENDBRANCH  29  32
ENDBRANCH  27  28
ENDBRANCH  26  27
ENDBRANCH   1  26
TORSDOF 14
ENDMDL
MODEL 2
REMARK VINA RESULT:     -12.5      6.027     11.082
REMARK SMILES COc1ccccc1NC(=O)N[C@@](C)(C(=O)NCCCNC(=O)c1ccc(-c2c3nc(c(-c4c(F)c(F)c(F)c(F)c4F)c4ccc([nH]4)c(-c4c(F)c(F)c(F)c(F)c4F)c4nc(c(-c5c(F)c(F)c(F)c(F)c5F)c5ccc2[nH]5)C=C4)C=C3)cc1)C(F)(F)F
REMARK SMILES IDX 18 1 17 2 15 3 16 4 13 6 14 7 12 8 9 9 10 10 11 12 8 14 3 15
REMARK SMILES IDX 4 16 5 17 7 18 6 19 2 20 1 21 87 22 88 23 89 24 90 25 19 26
REMARK SMILES IDX 20 27 21 28 22 29 23 31 24 32 25 33 86 34 26 35 85 36 27 37
REMARK SMILES IDX 28 38 29 39 79 40 30 41 84 42 78 43 80 44 31 45 83 46 77 47
REMARK SMILES IDX 76 48 32 50 64 51 44 52 63 53 45 54 48 55 62 56 81 57 46 58
REMARK SMILES IDX 47 59 61 61 82 62 49 63 33 64 34 65 42 66 35 67 36 68 40 69
REMARK SMILES IDX 43 70 37 71 38 72 41 73 39 74 65 75 66 76 74 77 67 78 68 79
REMARK SMILES IDX 72 80 75 81 69 82 70 83 73 84 71 85 50 86 51 87 59 88 52 89
REMARK SMILES IDX 53 90 57 91 60 92 54 93 55 94 58 95 56 96
REMARK H PARENT 17 5 9 11 12 13 21 30 80 49 48 60
REMARK Flexibility Score: inf
ROOT
ATOM      1  C   UNL A   1      37.165  21.077  24.642  1.00  0.00     0.117 C 
ENDROOT
BRANCH   1   2
ATOM      2  N   UNL A   1      36.815  21.851  25.815  1.00  0.00    -0.354 N 
ATOM      3  C   UNL A   1      36.230  23.088  25.762  1.00  0.00     0.255 C 
ATOM      4  O   UNL A   1      36.970  24.027  26.058  1.00  0.00    -0.272 OA
ATOM      5  H   UNL A   1      37.008  21.465  26.699  1.00  0.00     0.163 HD
BRANCH   3   6
ATOM      6  C   UNL A   1      34.744  23.234  25.313  1.00  0.00     0.213 C 
ATOM      7  C   UNL A   1      34.100  24.306  26.213  1.00  0.00     0.056 C 
BRANCH   6   8
ATOM      8  N   UNL A   1      34.016  21.935  25.487  1.00  0.00    -0.316 N 
ATOM      9  N   UNL A   1      31.687  22.130  24.920  1.00  0.00    -0.305 N 
ATOM     10  C   UNL A   1      32.769  21.464  25.348  1.00  0.00     0.320 C 
ATOM     11  H   UNL A   1      31.009  21.519  24.549  1.00  0.00     0.172 HD
ATOM     12  O   UNL A   1      32.644  20.243  25.514  1.00  0.00    -0.248 OA
ATOM     13  H   UNL A   1      34.628  21.225  25.786  1.00  0.00     0.166 HD
BRANCH   9  14
ATOM     14  C   UNL A   1      31.264  23.467  24.861  1.00  0.00     0.085 A 
ATOM     15  C   UNL A   1      30.687  24.075  25.993  1.00  0.00     0.142 A 
ATOM     16  C   UNL A   1      29.983  25.278  25.846  1.00  0.00     0.048 A 
ATOM     17  C   UNL A   1      29.939  25.927  24.611  1.00  0.00     0.004 A 
ATOM     18  C   UNL A   1      31.371  24.214  23.691  1.00  0.00     0.030 A 
ATOM     19  C   UNL A   1      30.679  25.421  23.548  1.00  0.00     0.002 A 
BRANCH  15  20
ATOM     20  O   UNL A   1      30.561  23.474  27.219  1.00  0.00    -0.495 OA
ATOM     21  C   UNL A   1      29.350  22.745  27.396  1.00  0.00     0.278 C 
ENDBRANCH  15  20
ENDBRANCH   9  14
ENDBRANCH   6   8
BRANCH   6  22
ATOM     22  C   UNL A   1      34.973  23.697  23.847  1.00  0.00     0.420 C 
ATOM     23  F   UNL A   1      34.545  24.964  23.631  1.00  0.00    -0.168 F 
ATOM     24  F   UNL A   1      36.254  23.669  23.462  1.00  0.00    -0.168 F 
ATOM     25  F   UNL A   1      34.329  22.880  22.972  1.00  0.00    -0.168 F 
ENDBRANCH   6  22
ENDBRANCH   3   6
ENDBRANCH   1   2
BRANCH   1  26
ATOM     26  C   UNL A   1      38.027  19.875  25.024  1.00  0.00     0.042 C 
BRANCH  26  27
ATOM     27  C   UNL A   1      39.324  20.231  25.754  1.00  0.00     0.118 C 
BRANCH  27  28
ATOM     28  N   UNL A   1      40.244  19.106  25.874  1.00  0.00    -0.352 N 
ATOM     29  C   UNL A   1      41.596  19.101  26.122  1.00  0.00     0.251 C 
ATOM     30  H   UNL A   1      39.836  18.218  25.759  1.00  0.00     0.163 HD
ATOM     31  O   UNL A   1      42.239  18.066  26.032  1.00  0.00    -0.269 OA
BRANCH  29  32
ATOM     32  C   UNL A   1      42.267  20.370  26.458  1.00  0.00     0.039 A 
ATOM     33  C   UNL A   1      42.872  21.101  25.437  1.00  0.00     0.014 A 
ATOM     34  C   UNL A   1      42.248  20.854  27.768  1.00  0.00     0.014 A 
ATOM     35  C   UNL A   1      43.385  22.368  25.714  1.00  0.00     0.010 A 
ATOM     36  C   UNL A   1      42.676  22.151  28.023  1.00  0.00     0.010 A 
ATOM     37  C   UNL A   1      43.246  22.923  26.998  1.00  0.00    -0.014 A 
BRANCH  37  38
ATOM     38  C   UNL A   1      43.676  24.313  27.286  1.00  0.00     0.031 A 
ATOM     39  C   UNL A   1      42.667  25.332  27.738  1.00  0.00     0.074 A 
ATOM     40  C   UNL A   1      44.956  24.673  27.063  1.00  0.00     0.049 A 
ATOM     41  N   UNL A   1      42.828  26.611  27.963  1.00  0.00    -0.248 NA
ATOM     42  C   UNL A   1      41.286  24.860  27.936  1.00  0.00     0.031 C 
ATOM     43  C   UNL A   1      46.011  23.786  26.567  1.00  0.00     0.029 A 
ATOM     44  N   UNL A   1      45.587  25.883  27.210  1.00  0.00    -0.354 N 
ATOM     45  C   UNL A   1      41.571  27.096  28.300  1.00  0.00     0.074 A 
ATOM     46  C   UNL A   1      40.648  25.987  28.210  1.00  0.00     0.031 C 
ATOM     47  C   UNL A   1      47.160  24.474  26.475  1.00  0.00     0.029 A 
ATOM     48  C   UNL A   1      46.916  25.860  26.859  1.00  0.00     0.049 A 
ATOM     49  H   UNL A   1      45.130  26.692  27.536  1.00  0.00     0.167 HD
ATOM     50  C   UNL A   1      41.226  28.350  28.673  1.00  0.00     0.037 A 
ATOM     51  C   UNL A   1      47.828  26.851  26.836  1.00  0.00     0.037 A 
ATOM     52  C   UNL A   1      42.160  29.436  28.806  1.00  0.00     0.049 A 
ATOM     53  C   UNL A   1      47.409  28.235  27.259  1.00  0.00     0.074 A 
ATOM     54  C   UNL A   1      41.928  30.717  29.276  1.00  0.00     0.029 A 
ATOM     55  N   UNL A   1      43.501  29.370  28.464  1.00  0.00    -0.354 N 
ATOM     56  N   UNL A   1      46.240  28.656  27.679  1.00  0.00    -0.248 NA
ATOM     57  C   UNL A   1      48.439  29.282  27.209  1.00  0.00     0.031 C 
ATOM     58  C   UNL A   1      43.115  31.445  29.160  1.00  0.00     0.029 A 
ATOM     59  C   UNL A   1      44.102  30.600  28.675  1.00  0.00     0.049 A 
ATOM     60  H   UNL A   1      43.959  28.569  28.121  1.00  0.00     0.167 HD
ATOM     61  C   UNL A   1      46.403  30.003  27.970  1.00  0.00     0.074 A 
ATOM     62  C   UNL A   1      47.787  30.326  27.702  1.00  0.00     0.031 C 
ATOM     63  C   UNL A   1      45.487  30.897  28.416  1.00  0.00     0.037 A 
BRANCH  50  64
ATOM     64  C   UNL A   1      39.781  28.628  28.969  1.00  0.00     0.064 A 
ATOM     65  C   UNL A   1      39.239  28.440  30.249  1.00  0.00     0.173 A 
ATOM     66  C   UNL A   1      38.949  29.167  27.977  1.00  0.00     0.173 A 
ATOM     67  F   UNL A   1      39.991  27.918  31.231  1.00  0.00    -0.203 F 
ATOM     68  C   UNL A   1      37.914  28.768  30.521  1.00  0.00     0.198 A 
ATOM     69  C   UNL A   1      37.632  29.521  28.260  1.00  0.00     0.198 A 
ATOM     70  F   UNL A   1      39.418  29.371  26.736  1.00  0.00    -0.203 F 
ATOM     71  F   UNL A   1      37.409  28.551  31.743  1.00  0.00    -0.200 F 
ATOM     72  C   UNL A   1      37.115  29.319  29.530  1.00  0.00     0.200 A 
ATOM     73  F   UNL A   1      36.867  30.068  27.305  1.00  0.00    -0.200 F 
ATOM     74  F   UNL A   1      35.847  29.656  29.800  1.00  0.00    -0.200 F 
ENDBRANCH  50  64
BRANCH  51  75
ATOM     75  C   UNL A   1      49.227  26.584  26.404  1.00  0.00     0.064 A 
ATOM     76  C   UNL A   1      50.197  26.157  27.323  1.00  0.00     0.173 A 
ATOM     77  C   UNL A   1      49.638  26.797  25.080  1.00  0.00     0.173 A 
ATOM     78  F   UNL A   1      49.860  25.958  28.606  1.00  0.00    -0.203 F 
ATOM     79  C   UNL A   1      51.528  25.992  26.944  1.00  0.00     0.198 A 
ATOM     80  C   UNL A   1      50.962  26.597  24.694  1.00  0.00     0.198 A 
ATOM     81  F   UNL A   1      48.751  27.200  24.157  1.00  0.00    -0.203 F 
ATOM     82  F   UNL A   1      52.445  25.651  27.861  1.00  0.00    -0.200 F 
ATOM     83  C   UNL A   1      51.908  26.210  25.630  1.00  0.00     0.200 A 
ATOM     84  F   UNL A   1      51.323  26.793  23.418  1.00  0.00    -0.200 F 
ATOM     85  F   UNL A   1      53.190  26.060  25.267  1.00  0.00    -0.200 F 
ENDBRANCH  51  75
BRANCH  63  86
ATOM     86  C   UNL A   1      45.959  32.297  28.679  1.00  0.00     0.064 A 
ATOM     87  C   UNL A   1      46.495  32.673  29.919  1.00  0.00     0.173 A 
ATOM     88  C   UNL A   1      45.916  33.262  27.662  1.00  0.00     0.173 A 
ATOM     89  F   UNL A   1      46.544  31.791  30.929  1.00  0.00    -0.203 F 
ATOM     90  C   UNL A   1      46.945  33.972  30.139  1.00  0.00     0.198 A 
ATOM     91  C   UNL A   1      46.400  34.550  27.873  1.00  0.00     0.198 A 
ATOM     92  F   UNL A   1      45.421  32.951  26.454  1.00  0.00    -0.203 F 
ATOM     93  F   UNL A   1      47.405  34.323  31.348  1.00  0.00    -0.200 F 
ATOM     94  C   UNL A   1      46.905  34.906  29.114  1.00  0.00     0.200 A 
ATOM     95  F   UNL A   1      46.377  35.445  26.877  1.00  0.00    -0.200 F 
ATOM     96  F   UNL A   1      47.350  36.152  29.324  1.00  0.00    -0.200 F 
ENDBRANCH  63  86
ENDBRANCH  37  38
ENDBRANCH  29  32
ENDBRANCH  27  28
ENDBRANCH  26  27
ENDBRANCH   1  26
TORSDOF 14
ENDMDL
MODEL 3
REMARK VINA RESULT:     -12.5      5.911     11.006
REMARK SMILES COc1ccccc1NC(=O)N[C@@](C)(C(=O)NCCCNC(=O)c1ccc(-c2c3nc(c(-c4c(F)c(F)c(F)c(F)c4F)c4ccc([nH]4)c(-c4c(F)c(F)c(F)c(F)c4F)c4nc(c(-c5c(F)c(F)c(F)c(F)c5F)c5ccc2[nH]5)C=C4)C=C3)cc1)C(F)(F)F
REMARK SMILES IDX 18 1 17 2 15 3 16 4 13 6 14 7 12 8 9 9 10 10 11 12 8 14 3 15
REMARK SMILES IDX 4 16 5 17 7 18 6 19 2 20 1 21 87 22 88 23 89 24 90 25 19 26
REMARK SMILES IDX 20 27 21 28 22 29 23 31 24 32 25 33 86 34 26 35 85 36 27 37
REMARK SMILES IDX 28 38 29 39 79 40 30 41 84 42 78 43 80 44 31 45 83 46 77 47
REMARK SMILES IDX 76 48 32 50 64 51 44 52 63 53 45 54 48 55 62 56 81 57 46 58
REMARK SMILES IDX 47 59 61 61 82 62 49 63 33 64 34 65 42 66 35 67 36 68 40 69
REMARK SMILES IDX 43 70 37 71 38 72 41 73 39 74 65 75 66 76 74 77 67 78 68 79
REMARK SMILES IDX 72 80 75 81 69 82 70 83 73 84 71 85 50 86 51 87 59 88 52 89
REMARK SMILES IDX 53 90 57 91 60 92 54 93 55 94 58 95 56 96
REMARK H PARENT 17 5 9 11 12 13 21 30 80 49 48 60
REMARK Flexibility Score: inf
ROOT
ATOM      1  C   UNL A   1      36.645  20.444  25.052  1.00  0.00     0.117 C 
ENDROOT
BRANCH   1   2
ATOM      2  N   UNL A   1      36.446  21.493  26.030  1.00  0.00    -0.354 N 
ATOM      3  C   UNL A   1      36.020  22.755  25.715  1.00  0.00     0.255 C 
ATOM      4  O   UNL A   1      36.886  23.630  25.786  1.00  0.00    -0.272 OA
ATOM      5  H   UNL A   1      36.625  21.286  26.975  1.00  0.00     0.163 HD
BRANCH   3   6
ATOM      6  C   UNL A   1      34.547  22.997  25.264  1.00  0.00     0.213 C 
ATOM      7  C   UNL A   1      33.984  24.134  26.139  1.00  0.00     0.056 C 
BRANCH   6   8
ATOM      8  N   UNL A   1      33.728  21.758  25.471  1.00  0.00    -0.316 N 
ATOM      9  N   UNL A   1      31.414  22.110  24.917  1.00  0.00    -0.305 N 
ATOM     10  C   UNL A   1      32.449  21.376  25.351  1.00  0.00     0.320 C 
ATOM     11  H   UNL A   1      30.691  21.543  24.564  1.00  0.00     0.172 HD
ATOM     12  O   UNL A   1      32.237  20.172  25.543  1.00  0.00    -0.248 OA
ATOM     13  H   UNL A   1      34.290  21.012  25.780  1.00  0.00     0.166 HD
BRANCH   9  14
ATOM     14  C   UNL A   1      31.090  23.473  24.834  1.00  0.00     0.085 A 
ATOM     15  C   UNL A   1      30.612  24.156  25.969  1.00  0.00     0.142 A 
ATOM     16  C   UNL A   1      29.993  25.404  25.815  1.00  0.00     0.048 A 
ATOM     17  C   UNL A   1      29.939  26.017  24.562  1.00  0.00     0.004 A 
ATOM     18  C   UNL A   1      31.196  24.175  23.635  1.00  0.00     0.030 A 
ATOM     19  C   UNL A   1      30.589  25.427  23.484  1.00  0.00     0.002 A 
BRANCH  15  20
ATOM     20  O   UNL A   1      30.501  23.603  27.218  1.00  0.00    -0.495 OA
ATOM     21  C   UNL A   1      29.334  22.808  27.408  1.00  0.00     0.278 C 
ENDBRANCH  15  20
ENDBRANCH   9  14
ENDBRANCH   6   8
BRANCH   6  22
ATOM     22  C   UNL A   1      34.804  23.408  23.788  1.00  0.00     0.420 C 
ATOM     23  F   UNL A   1      34.605  24.730  23.574  1.00  0.00    -0.168 F 
ATOM     24  F   UNL A   1      36.044  23.147  23.359  1.00  0.00    -0.168 F 
ATOM     25  F   UNL A   1      33.992  22.718  22.943  1.00  0.00    -0.168 F 
ENDBRANCH   6  22
ENDBRANCH   3   6
ENDBRANCH   1   2
BRANCH   1  26
ATOM     26  C   UNL A   1      38.120  20.336  24.666  1.00  0.00     0.042 C 
BRANCH  26  27
ATOM     27  C   UNL A   1      39.091  20.437  25.845  1.00  0.00     0.118 C 
BRANCH  27  28
ATOM     28  N   UNL A   1      40.006  19.304  25.933  1.00  0.00    -0.352 N 
ATOM     29  C   UNL A   1      41.365  19.289  26.137  1.00  0.00     0.251 C 
ATOM     30  H   UNL A   1      39.588  18.419  25.830  1.00  0.00     0.163 HD
ATOM     31  O   UNL A   1      41.997  18.249  26.025  1.00  0.00    -0.269 OA
BRANCH  29  32
ATOM     32  C   UNL A   1      42.056  20.553  26.452  1.00  0.00     0.039 A 
ATOM     33  C   UNL A   1      42.492  21.360  25.402  1.00  0.00     0.014 A 
ATOM     34  C   UNL A   1      42.222  20.956  27.779  1.00  0.00     0.014 A 
ATOM     35  C   UNL A   1      43.019  22.621  25.683  1.00  0.00     0.010 A 
ATOM     36  C   UNL A   1      42.660  22.246  28.051  1.00  0.00     0.010 A 
ATOM     37  C   UNL A   1      43.060  23.093  27.005  1.00  0.00    -0.014 A 
BRANCH  37  38
ATOM     38  C   UNL A   1      43.504  24.475  27.316  1.00  0.00     0.031 A 
ATOM     39  C   UNL A   1      42.513  25.484  27.824  1.00  0.00     0.074 A 
ATOM     40  C   UNL A   1      44.778  24.836  27.065  1.00  0.00     0.049 A 
ATOM     41  N   UNL A   1      42.684  26.757  28.077  1.00  0.00    -0.248 NA
ATOM     42  C   UNL A   1      41.137  25.011  28.051  1.00  0.00     0.031 C 
ATOM     43  C   UNL A   1      45.814  23.958  26.515  1.00  0.00     0.029 A 
ATOM     44  N   UNL A   1      45.417  26.040  27.223  1.00  0.00    -0.354 N 
ATOM     45  C   UNL A   1      41.440  27.236  28.463  1.00  0.00     0.074 A 
ATOM     46  C   UNL A   1      40.510  26.133  28.372  1.00  0.00     0.031 C 
ATOM     47  C   UNL A   1      46.963  24.645  26.406  1.00  0.00     0.029 A 
ATOM     48  C   UNL A   1      46.735  26.021  26.832  1.00  0.00     0.049 A 
ATOM     49  H   UNL A   1      44.973  26.841  27.584  1.00  0.00     0.167 HD
ATOM     50  C   UNL A   1      41.111  28.481  28.878  1.00  0.00     0.037 A 
ATOM     51  C   UNL A   1      47.650  27.010  26.808  1.00  0.00     0.037 A 
ATOM     52  C   UNL A   1      42.052  29.560  29.012  1.00  0.00     0.049 A 
ATOM     53  C   UNL A   1      47.249  28.384  27.278  1.00  0.00     0.074 A 
ATOM     54  C   UNL A   1      41.840  30.830  29.521  1.00  0.00     0.029 A 
ATOM     55  N   UNL A   1      43.383  29.499  28.628  1.00  0.00    -0.354 N 
ATOM     56  N   UNL A   1      46.095  28.798  27.743  1.00  0.00    -0.248 NA
ATOM     57  C   UNL A   1      48.281  29.430  27.225  1.00  0.00     0.031 C 
ATOM     58  C   UNL A   1      43.026  31.557  29.387  1.00  0.00     0.029 A 
ATOM     59  C   UNL A   1      43.994  30.722  28.852  1.00  0.00     0.049 A 
ATOM     60  H   UNL A   1      43.827  28.706  28.251  1.00  0.00     0.167 HD
ATOM     61  C   UNL A   1      46.271  30.137  28.064  1.00  0.00     0.074 A 
ATOM     62  C   UNL A   1      47.648  30.462  27.763  1.00  0.00     0.031 C 
ATOM     63  C   UNL A   1      45.372  31.022  28.560  1.00  0.00     0.037 A 
BRANCH  50  64
ATOM     64  C   UNL A   1      39.677  28.756  29.224  1.00  0.00     0.064 A 
ATOM     65  C   UNL A   1      39.178  28.559  30.521  1.00  0.00     0.173 A 
ATOM     66  C   UNL A   1      38.811  29.302  28.264  1.00  0.00     0.173 A 
ATOM     67  F   UNL A   1      39.962  28.030  31.472  1.00  0.00    -0.203 F 
ATOM     68  C   UNL A   1      37.862  28.884  30.839  1.00  0.00     0.198 A 
ATOM     69  C   UNL A   1      37.505  29.653  28.593  1.00  0.00     0.198 A 
ATOM     70  F   UNL A   1      39.239  29.515  27.010  1.00  0.00    -0.203 F 
ATOM     71  F   UNL A   1      37.398  28.657  32.075  1.00  0.00    -0.200 F 
ATOM     72  C   UNL A   1      37.031  29.441  29.879  1.00  0.00     0.200 A 
ATOM     73  F   UNL A   1      36.708  30.206  27.668  1.00  0.00    -0.200 F 
ATOM     74  F   UNL A   1      35.771  29.775  30.193  1.00  0.00    -0.200 F 
ENDBRANCH  50  64
BRANCH  51  75
ATOM     75  C   UNL A   1      49.034  26.750  26.327  1.00  0.00     0.064 A 
ATOM     76  C   UNL A   1      49.395  27.003  24.995  1.00  0.00     0.173 A 
ATOM     77  C   UNL A   1      50.011  26.199  27.169  1.00  0.00     0.173 A 
ATOM     78  F   UNL A   1      48.491  27.511  24.143  1.00  0.00    -0.203 F 
ATOM     79  C   UNL A   1      50.661  26.677  24.515  1.00  0.00     0.198 A 
ATOM     80  C   UNL A   1      51.289  25.907  26.698  1.00  0.00     0.198 A 
ATOM     81  F   UNL A   1      49.724  25.943  28.454  1.00  0.00    -0.203 F 
ATOM     82  F   UNL A   1      50.953  26.865  23.220  1.00  0.00    -0.200 F 
ATOM     83  C   UNL A   1      51.609  26.132  25.368  1.00  0.00     0.200 A 
ATOM     84  F   UNL A   1      52.208  25.395  27.529  1.00  0.00    -0.200 F 
ATOM     85  F   UNL A   1      52.825  25.811  24.904  1.00  0.00    -0.200 F 
ENDBRANCH  51  75
BRANCH  63  86
ATOM     86  C   UNL A   1      45.857  32.413  28.844  1.00  0.00     0.064 A 
ATOM     87  C   UNL A   1      45.680  33.457  27.926  1.00  0.00     0.173 A 
ATOM     88  C   UNL A   1      46.469  32.714  30.071  1.00  0.00     0.173 A 
ATOM     89  F   UNL A   1      45.114  33.218  26.732  1.00  0.00    -0.203 F 
ATOM     90  C   UNL A   1      46.120  34.746  28.214  1.00  0.00     0.198 A 
ATOM     91  C   UNL A   1      46.877  34.010  30.370  1.00  0.00     0.198 A 
ATOM     92  F   UNL A   1      46.656  31.752  30.988  1.00  0.00    -0.203 F 
ATOM     93  F   UNL A   1      45.986  35.717  27.300  1.00  0.00    -0.200 F 
ATOM     94  C   UNL A   1      46.710  35.022  29.438  1.00  0.00     0.200 A 
ATOM     95  F   UNL A   1      47.430  34.278  31.560  1.00  0.00    -0.200 F 
ATOM     96  F   UNL A   1      47.123  36.266  29.718  1.00  0.00    -0.200 F 
ENDBRANCH  63  86
ENDBRANCH  37  38
ENDBRANCH  29  32
ENDBRANCH  27  28
ENDBRANCH  26  27
ENDBRANCH   1  26
TORSDOF 14
ENDMDL
