MODEL 1
REMARK VINA RESULT:     -13.4      0.000      0.000
REMARK SMILES COc1ccc(/C=C(/Sc2nc(C)n[nH]2)C(=O)NCCCNC(=O)c2ccc(-c3c4nc(c(-c5c(F)c(F)c(F)c(F)c5F)c5ccc([nH]5)c(-c5c(F)c(F)c(F)c(F)c5F)c5nc(c(-c6c(F)c(F)c(F)c(F)c6F)c6ccc3[nH]6)C=C5)C=C4)cc2)cc1OC
REMARK SMILES IDX 20 1 19 2 18 3 16 4 17 5 8 7 7 8 6 9 3 10 4 11 89 12 5 13
REMARK SMILES IDX 88 14 2 15 1 16 90 17 91 18 9 19 10 20 11 21 15 22 12 23
REMARK SMILES IDX 14 24 13 26 21 27 22 28 23 29 24 31 25 32 26 33 87 34 27 35
REMARK SMILES IDX 86 36 28 37 29 38 30 39 80 40 31 41 85 42 79 43 81 44 32 45
REMARK SMILES IDX 84 46 78 47 77 48 33 50 65 51 45 52 64 53 46 54 49 55 63 56
REMARK SMILES IDX 82 57 47 58 48 59 62 61 83 62 50 63 34 64 35 65 43 66 36 67
REMARK SMILES IDX 37 68 41 69 44 70 38 71 39 72 42 73 40 74 66 75 67 76 75 77
REMARK SMILES IDX 68 78 69 79 73 80 76 81 70 82 71 83 74 84 72 85 51 86 52 87
REMARK SMILES IDX 60 88 53 89 54 90 58 91 61 92 55 93 56 94 59 95 57 96
REMARK H PARENT 18 6 15 25 22 30 81 49 49 60
REMARK Flexibility Score: inf
ROOT
ATOM      1  C   UNL A   1      32.275  29.530  26.965  1.00  0.00     0.042 C 
ENDROOT
BRANCH   1   2
ATOM      2  C   UNL A   1      31.892  28.054  27.103  1.00  0.00     0.118 C 
BRANCH   2   3
ATOM      3  N   UNL A   1      31.143  27.501  25.978  1.00  0.00    -0.352 N 
ATOM      4  C   UNL A   1      31.519  26.935  24.788  1.00  0.00     0.258 C 
ATOM      5  O   UNL A   1      30.769  26.035  24.398  1.00  0.00    -0.269 OA
ATOM      6  H   UNL A   1      30.167  27.545  26.098  1.00  0.00     0.163 HD
BRANCH   4   7
ATOM      7  C   UNL A   1      32.719  27.371  23.959  1.00  0.00     0.081 C 
ATOM      8  C   UNL A   1      33.727  26.516  23.654  1.00  0.00     0.029 C 
BRANCH   8   9
ATOM      9  C   UNL A   1      34.005  25.078  23.938  1.00  0.00    -0.020 A 
ATOM     10  C   UNL A   1      34.833  22.415  24.508  1.00  0.00     0.160 A 
ATOM     11  C   UNL A   1      33.945  22.686  23.461  1.00  0.00     0.051 A 
ATOM     12  C   UNL A   1      35.346  23.472  25.263  1.00  0.00     0.161 A 
ATOM     13  C   UNL A   1      33.558  24.004  23.166  1.00  0.00     0.012 A 
ATOM     14  C   UNL A   1      34.908  24.782  24.977  1.00  0.00     0.058 A 
BRANCH  10  15
ATOM     15  O   UNL A   1      35.275  21.126  24.640  1.00  0.00    -0.493 OA
ATOM     16  C   UNL A   1      34.219  20.217  24.953  1.00  0.00     0.278 C 
ENDBRANCH  10  15
BRANCH  12  17
ATOM     17  O   UNL A   1      36.283  23.440  26.260  1.00  0.00    -0.493 OA
ATOM     18  C   UNL A   1      37.656  23.579  25.930  1.00  0.00     0.278 C 
ENDBRANCH  12  17
ENDBRANCH   8   9
BRANCH   7  19
ATOM     19  S   UNL A   1      32.683  29.011  23.366  1.00  0.00    -0.045 SA
BRANCH  19  20
ATOM     20  C   UNL A   1      31.067  29.338  22.906  1.00  0.00     0.188 A 
ATOM     21  N   UNL A   1      30.083  29.642  23.714  1.00  0.00    -0.206 NA
ATOM     22  N   UNL A   1      30.749  29.699  21.632  1.00  0.00    -0.254 N 
ATOM     23  C   UNL A   1      29.176  30.239  22.878  1.00  0.00     0.148 A 
ATOM     24  N   UNL A   1      29.535  30.280  21.587  1.00  0.00    -0.158 NA
ATOM     25  H   UNL A   1      31.329  29.556  20.850  1.00  0.00     0.192 HD
ATOM     26  C   UNL A   1      27.961  30.893  23.401  1.00  0.00     0.092 C 
ENDBRANCH  19  20
ENDBRANCH   7  19
ENDBRANCH   4   7
ENDBRANCH   2   3
ENDBRANCH   1   2
BRANCH   1  27
ATOM     27  C   UNL A   1      33.690  29.791  27.454  1.00  0.00     0.118 C 
BRANCH  27  28
ATOM     28  N   UNL A   1      34.116  31.184  27.251  1.00  0.00    -0.352 N 
ATOM     29  C   UNL A   1      35.273  31.823  27.666  1.00  0.00     0.251 C 
ATOM     30  H   UNL A   1      33.485  31.746  26.746  1.00  0.00     0.163 HD
ATOM     31  O   UNL A   1      35.373  33.033  27.641  1.00  0.00    -0.269 OA
BRANCH  29  32
ATOM     32  C   UNL A   1      36.386  30.991  28.154  1.00  0.00     0.039 A 
ATOM     33  C   UNL A   1      36.511  29.648  27.789  1.00  0.00     0.014 A 
ATOM     34  C   UNL A   1      37.350  31.614  28.934  1.00  0.00     0.014 A 
ATOM     35  C   UNL A   1      37.674  28.969  28.144  1.00  0.00     0.010 A 
ATOM     36  C   UNL A   1      38.571  31.023  29.079  1.00  0.00     0.010 A 
ATOM     37  C   UNL A   1      38.710  29.679  28.768  1.00  0.00    -0.014 A 
BRANCH  37  38
ATOM     38  C   UNL A   1      40.001  29.066  29.040  1.00  0.00     0.031 A 
ATOM     39  C   UNL A   1      40.300  28.860  30.481  1.00  0.00     0.074 A 
ATOM     40  C   UNL A   1      40.750  28.515  28.058  1.00  0.00     0.049 A 
ATOM     41  N   UNL A   1      41.239  29.408  31.177  1.00  0.00    -0.248 NA
ATOM     42  C   UNL A   1      39.366  28.048  31.280  1.00  0.00     0.031 C 
ATOM     43  C   UNL A   1      40.427  28.358  26.633  1.00  0.00     0.029 A 
ATOM     44  N   UNL A   1      41.938  27.868  28.159  1.00  0.00    -0.354 N 
ATOM     45  C   UNL A   1      41.140  28.869  32.457  1.00  0.00     0.074 A 
ATOM     46  C   UNL A   1      39.874  28.186  32.507  1.00  0.00     0.031 C 
ATOM     47  C   UNL A   1      41.266  27.461  26.071  1.00  0.00     0.029 A 
ATOM     48  C   UNL A   1      42.291  27.126  27.038  1.00  0.00     0.049 A 
ATOM     49  H   UNL A   1      42.504  27.918  28.963  1.00  0.00     0.167 HD
ATOM     50  C   UNL A   1      42.222  28.830  33.282  1.00  0.00     0.037 A 
ATOM     51  C   UNL A   1      43.341  26.276  26.935  1.00  0.00     0.037 A 
ATOM     52  C   UNL A   1      43.249  29.734  32.825  1.00  0.00     0.049 A 
ATOM     53  C   UNL A   1      44.292  26.629  28.020  1.00  0.00     0.074 A 
ATOM     54  C   UNL A   1      43.308  31.098  32.608  1.00  0.00     0.029 A 
ATOM     55  N   UNL A   1      44.312  29.207  32.132  1.00  0.00    -0.354 N 
ATOM     56  N   UNL A   1      44.954  27.752  28.061  1.00  0.00    -0.248 NA
ATOM     57  C   UNL A   1      44.132  25.951  29.298  1.00  0.00     0.031 C 
ATOM     58  C   UNL A   1      44.067  31.246  31.409  1.00  0.00     0.029 A 
ATOM     59  C   UNL A   1      44.495  29.979  31.013  1.00  0.00     0.049 A 
ATOM     60  H   UNL A   1      44.844  28.419  32.391  1.00  0.00     0.167 HD
ATOM     61  C   UNL A   1      44.913  28.138  29.393  1.00  0.00     0.074 A 
ATOM     62  C   UNL A   1      44.463  26.951  30.119  1.00  0.00     0.031 C 
ATOM     63  C   UNL A   1      44.958  29.456  29.748  1.00  0.00     0.037 A 
BRANCH  50  64
ATOM     64  C   UNL A   1      42.513  27.721  34.267  1.00  0.00     0.064 A 
ATOM     65  C   UNL A   1      43.079  26.519  33.793  1.00  0.00     0.173 A 
ATOM     66  C   UNL A   1      41.987  27.664  35.577  1.00  0.00     0.173 A 
ATOM     67  F   UNL A   1      43.605  26.450  32.560  1.00  0.00    -0.203 F 
ATOM     68  C   UNL A   1      43.031  25.335  34.533  1.00  0.00     0.198 A 
ATOM     69  C   UNL A   1      41.990  26.494  36.333  1.00  0.00     0.198 A 
ATOM     70  F   UNL A   1      41.348  28.697  36.136  1.00  0.00    -0.203 F 
ATOM     71  F   UNL A   1      43.458  24.190  33.985  1.00  0.00    -0.200 F 
ATOM     72  C   UNL A   1      42.478  25.322  35.800  1.00  0.00     0.200 A 
ATOM     73  F   UNL A   1      41.434  26.500  37.553  1.00  0.00    -0.200 F 
ATOM     74  F   UNL A   1      42.367  24.176  36.484  1.00  0.00    -0.200 F 
ENDBRANCH  50  64
BRANCH  51  75
ATOM     75  C   UNL A   1      43.422  25.006  26.177  1.00  0.00     0.064 A 
ATOM     76  C   UNL A   1      44.438  24.792  25.231  1.00  0.00     0.173 A 
ATOM     77  C   UNL A   1      42.680  23.873  26.565  1.00  0.00     0.173 A 
ATOM     78  F   UNL A   1      45.218  25.810  24.839  1.00  0.00    -0.203 F 
ATOM     79  C   UNL A   1      44.715  23.516  24.728  1.00  0.00     0.198 A 
ATOM     80  C   UNL A   1      42.954  22.601  26.057  1.00  0.00     0.198 A 
ATOM     81  F   UNL A   1      41.739  23.959  27.516  1.00  0.00    -0.203 F 
ATOM     82  F   UNL A   1      45.735  23.341  23.875  1.00  0.00    -0.200 F 
ATOM     83  C   UNL A   1      43.981  22.420  25.151  1.00  0.00     0.200 A 
ATOM     84  F   UNL A   1      42.259  21.544  26.502  1.00  0.00    -0.200 F 
ATOM     85  F   UNL A   1      44.288  21.189  24.719  1.00  0.00    -0.200 F 
ENDBRANCH  51  75
BRANCH  63  86
ATOM     86  C   UNL A   1      45.293  30.462  28.680  1.00  0.00     0.064 A 
ATOM     87  C   UNL A   1      44.343  31.064  27.834  1.00  0.00     0.173 A 
ATOM     88  C   UNL A   1      46.605  30.947  28.613  1.00  0.00     0.173 A 
ATOM     89  F   UNL A   1      43.049  30.736  27.904  1.00  0.00    -0.203 F 
ATOM     90  C   UNL A   1      44.702  32.069  26.935  1.00  0.00     0.198 A 
ATOM     91  C   UNL A   1      46.954  31.976  27.742  1.00  0.00     0.198 A 
ATOM     92  F   UNL A   1      47.544  30.454  29.435  1.00  0.00    -0.203 F 
ATOM     93  F   UNL A   1      43.776  32.617  26.134  1.00  0.00    -0.200 F 
ATOM     94  C   UNL A   1      46.006  32.529  26.896  1.00  0.00     0.200 A 
ATOM     95  F   UNL A   1      48.207  32.453  27.744  1.00  0.00    -0.200 F 
ATOM     96  F   UNL A   1      46.345  33.523  26.063  1.00  0.00    -0.200 F 
ENDBRANCH  63  86
ENDBRANCH  37  38
ENDBRANCH  29  32
ENDBRANCH  27  28
ENDBRANCH   1  27
TORSDOF 15
ENDMDL
MODEL 2
REMARK VINA RESULT:     -13.1      1.352      1.875
REMARK SMILES COc1ccc(/C=C(/Sc2nc(C)n[nH]2)C(=O)NCCCNC(=O)c2ccc(-c3c4nc(c(-c5c(F)c(F)c(F)c(F)c5F)c5ccc([nH]5)c(-c5c(F)c(F)c(F)c(F)c5F)c5nc(c(-c6c(F)c(F)c(F)c(F)c6F)c6ccc3[nH]6)C=C5)C=C4)cc2)cc1OC
REMARK SMILES IDX 20 1 19 2 18 3 16 4 17 5 8 7 7 8 6 9 3 10 4 11 89 12 5 13
REMARK SMILES IDX 88 14 2 15 1 16 90 17 91 18 9 19 10 20 11 21 15 22 12 23
REMARK SMILES IDX 14 24 13 26 21 27 22 28 23 29 24 31 25 32 26 33 87 34 27 35
REMARK SMILES IDX 86 36 28 37 29 38 30 39 80 40 31 41 85 42 79 43 81 44 32 45
REMARK SMILES IDX 84 46 78 47 77 48 33 50 65 51 45 52 64 53 46 54 49 55 63 56
REMARK SMILES IDX 82 57 47 58 48 59 62 61 83 62 50 63 34 64 35 65 43 66 36 67
REMARK SMILES IDX 37 68 41 69 44 70 38 71 39 72 42 73 40 74 66 75 67 76 75 77
REMARK SMILES IDX 68 78 69 79 73 80 76 81 70 82 71 83 74 84 72 85 51 86 52 87
REMARK SMILES IDX 60 88 53 89 54 90 58 91 61 92 55 93 56 94 59 95 57 96
REMARK H PARENT 18 6 15 25 22 30 81 49 49 60
REMARK Flexibility Score: inf
ROOT
ATOM      1  C   UNL A   1      33.308  30.894  27.222  1.00  0.00     0.042 C 
ENDROOT
BRANCH   1   2
ATOM      2  C   UNL A   1      33.466  29.376  27.332  1.00  0.00     0.118 C 
BRANCH   2   3
ATOM      3  N   UNL A   1      32.321  28.598  26.866  1.00  0.00    -0.352 N 
ATOM      4  C   UNL A   1      32.176  27.613  25.924  1.00  0.00     0.258 C 
ATOM      5  O   UNL A   1      31.329  26.762  26.211  1.00  0.00    -0.269 OA
ATOM      6  H   UNL A   1      31.479  28.830  27.321  1.00  0.00     0.163 HD
BRANCH   4   7
ATOM      7  C   UNL A   1      32.935  27.554  24.606  1.00  0.00     0.081 C 
ATOM      8  C   UNL A   1      33.589  26.434  24.206  1.00  0.00     0.029 C 
BRANCH   8   9
ATOM      9  C   UNL A   1      33.777  25.069  24.778  1.00  0.00    -0.020 A 
ATOM     10  C   UNL A   1      34.421  22.471  25.746  1.00  0.00     0.160 A 
ATOM     11  C   UNL A   1      33.193  22.726  25.128  1.00  0.00     0.051 A 
ATOM     12  C   UNL A   1      35.359  23.500  25.859  1.00  0.00     0.161 A 
ATOM     13  C   UNL A   1      32.887  24.003  24.628  1.00  0.00     0.012 A 
ATOM     14  C   UNL A   1      35.013  24.784  25.391  1.00  0.00     0.058 A 
BRANCH  10  15
ATOM     15  O   UNL A   1      34.703  21.171  26.074  1.00  0.00    -0.493 OA
ATOM     16  C   UNL A   1      34.864  20.343  24.922  1.00  0.00     0.278 C 
ENDBRANCH  10  15
BRANCH  12  17
ATOM     17  O   UNL A   1      36.639  23.447  26.340  1.00  0.00    -0.493 OA
ATOM     18  C   UNL A   1      37.658  22.859  25.547  1.00  0.00     0.278 C 
ENDBRANCH  12  17
ENDBRANCH   8   9
BRANCH   7  19
ATOM     19  S   UNL A   1      32.851  28.983  23.610  1.00  0.00    -0.045 SA
BRANCH  19  20
ATOM     20  C   UNL A   1      31.332  28.953  22.823  1.00  0.00     0.188 A 
ATOM     21  N   UNL A   1      30.210  28.510  23.331  1.00  0.00    -0.206 NA
ATOM     22  N   UNL A   1      31.072  29.747  21.748  1.00  0.00    -0.254 N 
ATOM     23  C   UNL A   1      29.262  29.104  22.540  1.00  0.00     0.148 A 
ATOM     24  N   UNL A   1      29.746  29.858  21.543  1.00  0.00    -0.158 NA
ATOM     25  H   UNL A   1      31.761  30.181  21.195  1.00  0.00     0.192 HD
ATOM     26  C   UNL A   1      27.824  29.009  22.858  1.00  0.00     0.092 C 
ENDBRANCH  19  20
ENDBRANCH   7  19
ENDBRANCH   4   7
ENDBRANCH   2   3
ENDBRANCH   1   2
BRANCH   1  27
ATOM     27  C   UNL A   1      34.566  31.623  27.667  1.00  0.00     0.118 C 
BRANCH  27  28
ATOM     28  N   UNL A   1      34.479  32.119  29.049  1.00  0.00    -0.352 N 
ATOM     29  C   UNL A   1      35.271  31.820  30.146  1.00  0.00     0.251 C 
ATOM     30  H   UNL A   1      33.749  32.757  29.220  1.00  0.00     0.163 HD
ATOM     31  O   UNL A   1      34.928  32.112  31.273  1.00  0.00    -0.269 OA
BRANCH  29  32
ATOM     32  C   UNL A   1      36.546  31.124  29.908  1.00  0.00     0.039 A 
ATOM     33  C   UNL A   1      37.751  31.821  29.782  1.00  0.00     0.014 A 
ATOM     34  C   UNL A   1      36.516  29.736  29.886  1.00  0.00     0.014 A 
ATOM     35  C   UNL A   1      38.936  31.093  29.731  1.00  0.00     0.010 A 
ATOM     36  C   UNL A   1      37.677  29.043  30.066  1.00  0.00     0.010 A 
ATOM     37  C   UNL A   1      38.887  29.701  29.901  1.00  0.00    -0.014 A 
BRANCH  37  38
ATOM     38  C   UNL A   1      40.097  28.899  29.996  1.00  0.00     0.031 A 
ATOM     39  C   UNL A   1      40.592  28.684  31.380  1.00  0.00     0.074 A 
ATOM     40  C   UNL A   1      40.583  28.215  28.937  1.00  0.00     0.049 A 
ATOM     41  N   UNL A   1      41.704  29.094  31.892  1.00  0.00    -0.248 NA
ATOM     42  C   UNL A   1      39.689  28.047  32.355  1.00  0.00     0.031 C 
ATOM     43  C   UNL A   1      40.012  28.077  27.589  1.00  0.00     0.029 A 
ATOM     44  N   UNL A   1      41.660  27.391  28.881  1.00  0.00    -0.354 N 
ATOM     45  C   UNL A   1      41.734  28.607  33.196  1.00  0.00     0.074 A 
ATOM     46  C   UNL A   1      40.405  28.133  33.479  1.00  0.00     0.031 C 
ATOM     47  C   UNL A   1      40.603  27.046  26.947  1.00  0.00     0.029 A 
ATOM     48  C   UNL A   1      41.709  26.577  27.756  1.00  0.00     0.049 A 
ATOM     49  H   UNL A   1      42.351  27.371  29.582  1.00  0.00     0.167 HD
ATOM     50  C   UNL A   1      42.918  28.418  33.842  1.00  0.00     0.037 A 
ATOM     51  C   UNL A   1      42.587  25.570  27.530  1.00  0.00     0.037 A 
ATOM     52  C   UNL A   1      43.982  29.138  33.185  1.00  0.00     0.049 A 
ATOM     53  C   UNL A   1      43.745  25.795  28.434  1.00  0.00     0.074 A 
ATOM     54  C   UNL A   1      44.211  30.471  32.895  1.00  0.00     0.029 A 
ATOM     55  N   UNL A   1      44.826  28.434  32.360  1.00  0.00    -0.354 N 
ATOM     56  N   UNL A   1      44.568  26.801  28.315  1.00  0.00    -0.248 NA
ATOM     57  C   UNL A   1      43.695  25.180  29.752  1.00  0.00     0.031 C 
ATOM     58  C   UNL A   1      44.777  30.469  31.586  1.00  0.00     0.029 A 
ATOM     59  C   UNL A   1      44.938  29.141  31.190  1.00  0.00     0.049 A 
ATOM     60  H   UNL A   1      45.267  27.579  32.570  1.00  0.00     0.167 HD
ATOM     61  C   UNL A   1      44.803  27.219  29.616  1.00  0.00     0.074 A 
ATOM     62  C   UNL A   1      44.303  26.136  30.461  1.00  0.00     0.031 C 
ATOM     63  C   UNL A   1      45.104  28.522  29.896  1.00  0.00     0.037 A 
BRANCH  50  64
ATOM     64  C   UNL A   1      43.195  27.301  34.822  1.00  0.00     0.064 A 
ATOM     65  C   UNL A   1      43.469  27.625  36.166  1.00  0.00     0.173 A 
ATOM     66  C   UNL A   1      43.504  25.975  34.446  1.00  0.00     0.173 A 
ATOM     67  F   UNL A   1      43.222  28.858  36.637  1.00  0.00    -0.203 F 
ATOM     68  C   UNL A   1      44.093  26.725  37.033  1.00  0.00     0.198 A 
ATOM     69  C   UNL A   1      44.077  25.063  35.329  1.00  0.00     0.198 A 
ATOM     70  F   UNL A   1      43.374  25.538  33.189  1.00  0.00    -0.203 F 
ATOM     71  F   UNL A   1      44.458  27.125  38.259  1.00  0.00    -0.200 F 
ATOM     72  C   UNL A   1      44.405  25.446  36.611  1.00  0.00     0.200 A 
ATOM     73  F   UNL A   1      44.385  23.833  34.894  1.00  0.00    -0.200 F 
ATOM     74  F   UNL A   1      45.066  24.604  37.415  1.00  0.00    -0.200 F 
ENDBRANCH  50  64
BRANCH  51  75
ATOM     75  C   UNL A   1      42.351  24.285  26.832  1.00  0.00     0.064 A 
ATOM     76  C   UNL A   1      43.254  23.810  25.867  1.00  0.00     0.173 A 
ATOM     77  C   UNL A   1      41.390  23.365  27.296  1.00  0.00     0.173 A 
ATOM     78  F   UNL A   1      44.226  24.609  25.403  1.00  0.00    -0.203 F 
ATOM     79  C   UNL A   1      43.217  22.485  25.417  1.00  0.00     0.198 A 
ATOM     80  C   UNL A   1      41.351  22.046  26.842  1.00  0.00     0.198 A 
ATOM     81  F   UNL A   1      40.531  23.700  28.270  1.00  0.00    -0.203 F 
ATOM     82  F   UNL A   1      44.136  22.051  24.543  1.00  0.00    -0.200 F 
ATOM     83  C   UNL A   1      42.273  21.601  25.914  1.00  0.00     0.200 A 
ATOM     84  F   UNL A   1      40.454  21.192  27.357  1.00  0.00    -0.200 F 
ATOM     85  F   UNL A   1      42.279  20.317  25.532  1.00  0.00    -0.200 F 
ENDBRANCH  51  75
BRANCH  63  86
ATOM     86  C   UNL A   1      45.408  29.438  28.740  1.00  0.00     0.064 A 
ATOM     87  C   UNL A   1      44.443  30.205  28.062  1.00  0.00     0.173 A 
ATOM     88  C   UNL A   1      46.750  29.661  28.406  1.00  0.00     0.173 A 
ATOM     89  F   UNL A   1      43.149  30.132  28.389  1.00  0.00    -0.203 F 
ATOM     90  C   UNL A   1      44.803  31.115  27.069  1.00  0.00     0.198 A 
ATOM     91  C   UNL A   1      47.111  30.597  27.440  1.00  0.00     0.198 A 
ATOM     92  F   UNL A   1      47.722  29.002  29.057  1.00  0.00    -0.203 F 
ATOM     93  F   UNL A   1      43.859  31.825  26.433  1.00  0.00    -0.200 F 
ATOM     94  C   UNL A   1      46.138  31.316  26.765  1.00  0.00     0.200 A 
ATOM     95  F   UNL A   1      48.407  30.824  27.185  1.00  0.00    -0.200 F 
ATOM     96  F   UNL A   1      46.489  32.220  25.840  1.00  0.00    -0.200 F 
ENDBRANCH  63  86
ENDBRANCH  37  38
ENDBRANCH  29  32
ENDBRANCH  27  28
ENDBRANCH   1  27
TORSDOF 15
ENDMDL
MODEL 3
REMARK VINA RESULT:     -13.0      5.310     11.321
REMARK SMILES COc1ccc(/C=C(/Sc2nc(C)n[nH]2)C(=O)NCCCNC(=O)c2ccc(-c3c4nc(c(-c5c(F)c(F)c(F)c(F)c5F)c5ccc([nH]5)c(-c5c(F)c(F)c(F)c(F)c5F)c5nc(c(-c6c(F)c(F)c(F)c(F)c6F)c6ccc3[nH]6)C=C5)C=C4)cc2)cc1OC
REMARK SMILES IDX 20 1 19 2 18 3 16 4 17 5 8 7 7 8 6 9 3 10 4 11 89 12 5 13
REMARK SMILES IDX 88 14 2 15 1 16 90 17 91 18 9 19 10 20 11 21 15 22 12 23
REMARK SMILES IDX 14 24 13 26 21 27 22 28 23 29 24 31 25 32 26 33 87 34 27 35
REMARK SMILES IDX 86 36 28 37 29 38 30 39 80 40 31 41 85 42 79 43 81 44 32 45
REMARK SMILES IDX 84 46 78 47 77 48 33 50 65 51 45 52 64 53 46 54 49 55 63 56
REMARK SMILES IDX 82 57 47 58 48 59 62 61 83 62 50 63 34 64 35 65 43 66 36 67
REMARK SMILES IDX 37 68 41 69 44 70 38 71 39 72 42 73 40 74 66 75 67 76 75 77
REMARK SMILES IDX 68 78 69 79 73 80 76 81 70 82 71 83 74 84 72 85 51 86 52 87
REMARK SMILES IDX 60 88 53 89 54 90 58 91 61 92 55 93 56 94 59 95 57 96
REMARK H PARENT 18 6 15 25 22 30 81 49 49 60
REMARK Flexibility Score: inf
ROOT
ATOM      1  C   UNL A   1      44.705  22.612  24.699  1.00  0.00     0.042 C 
ENDROOT
BRANCH   1   2
ATOM      2  C   UNL A   1      45.412  22.507  26.053  1.00  0.00     0.118 C 
BRANCH   2   3
ATOM      3  N   UNL A   1      46.650  23.272  26.166  1.00  0.00    -0.352 N 
ATOM      4  C   UNL A   1      46.976  24.442  26.802  1.00  0.00     0.258 C 
ATOM      5  O   UNL A   1      48.127  24.470  27.247  1.00  0.00    -0.269 OA
ATOM      6  H   UNL A   1      47.407  22.866  25.685  1.00  0.00     0.163 HD
BRANCH   4   7
ATOM      7  C   UNL A   1      46.053  25.645  26.935  1.00  0.00     0.081 C 
ATOM      8  C   UNL A   1      45.815  26.234  28.134  1.00  0.00     0.029 C 
BRANCH   8   9
ATOM      9  C   UNL A   1      46.284  25.999  29.531  1.00  0.00    -0.020 A 
ATOM     10  C   UNL A   1      46.915  25.685  32.288  1.00  0.00     0.160 A 
ATOM     11  C   UNL A   1      47.868  26.158  31.380  1.00  0.00     0.051 A 
ATOM     12  C   UNL A   1      45.624  25.395  31.840  1.00  0.00     0.161 A 
ATOM     13  C   UNL A   1      47.546  26.336  30.023  1.00  0.00     0.012 A 
ATOM     14  C   UNL A   1      45.337  25.539  30.466  1.00  0.00     0.058 A 
BRANCH  10  15
ATOM     15  O   UNL A   1      47.259  25.677  33.613  1.00  0.00    -0.493 OA
ATOM     16  C   UNL A   1      47.080  26.953  34.229  1.00  0.00     0.278 C 
ENDBRANCH  10  15
BRANCH  12  17
ATOM     17  O   UNL A   1      44.529  25.012  32.565  1.00  0.00    -0.493 OA
ATOM     18  C   UNL A   1      44.397  23.658  32.966  1.00  0.00     0.278 C 
ENDBRANCH  12  17
ENDBRANCH   8   9
BRANCH   7  19
ATOM     19  S   UNL A   1      45.381  26.260  25.449  1.00  0.00    -0.045 SA
BRANCH  19  20
ATOM     20  C   UNL A   1      46.646  27.068  24.627  1.00  0.00     0.188 A 
ATOM     21  N   UNL A   1      47.849  26.597  24.414  1.00  0.00    -0.206 NA
ATOM     22  N   UNL A   1      46.397  28.104  23.780  1.00  0.00    -0.254 N 
ATOM     23  C   UNL A   1      48.298  27.369  23.375  1.00  0.00     0.148 A 
ATOM     24  N   UNL A   1      47.446  28.319  22.964  1.00  0.00    -0.158 NA
ATOM     25  H   UNL A   1      45.562  28.625  23.764  1.00  0.00     0.192 HD
ATOM     26  C   UNL A   1      49.573  27.074  22.691  1.00  0.00     0.092 C 
ENDBRANCH  19  20
ENDBRANCH   7  19
ENDBRANCH   4   7
ENDBRANCH   2   3
ENDBRANCH   1   2
BRANCH   1  27
ATOM     27  C   UNL A   1      43.379  23.347  24.813  1.00  0.00     0.118 C 
BRANCH  27  28
ATOM     28  N   UNL A   1      42.247  22.445  25.070  1.00  0.00    -0.352 N 
ATOM     29  C   UNL A   1      41.352  22.430  26.128  1.00  0.00     0.251 C 
ATOM     30  H   UNL A   1      42.103  21.748  24.390  1.00  0.00     0.163 HD
ATOM     31  O   UNL A   1      40.627  21.478  26.331  1.00  0.00    -0.269 OA
BRANCH  29  32
ATOM     32  C   UNL A   1      41.310  23.606  27.014  1.00  0.00     0.039 A 
ATOM     33  C   UNL A   1      42.284  23.822  27.992  1.00  0.00     0.014 A 
ATOM     34  C   UNL A   1      40.302  24.533  26.789  1.00  0.00     0.014 A 
ATOM     35  C   UNL A   1      42.280  25.035  28.676  1.00  0.00     0.010 A 
ATOM     36  C   UNL A   1      40.437  25.796  27.289  1.00  0.00     0.010 A 
ATOM     37  C   UNL A   1      41.364  26.026  28.294  1.00  0.00    -0.014 A 
BRANCH  37  38
ATOM     38  C   UNL A   1      41.398  27.362  28.872  1.00  0.00     0.031 A 
ATOM     39  C   UNL A   1      42.532  28.207  28.415  1.00  0.00     0.074 A 
ATOM     40  C   UNL A   1      40.356  27.862  29.571  1.00  0.00     0.049 A 
ATOM     41  N   UNL A   1      43.504  28.672  29.127  1.00  0.00    -0.248 NA
ATOM     42  C   UNL A   1      42.679  28.460  26.972  1.00  0.00     0.031 C 
ATOM     43  C   UNL A   1      39.040  27.256  29.823  1.00  0.00     0.029 A 
ATOM     44  N   UNL A   1      40.218  29.094  30.122  1.00  0.00    -0.354 N 
ATOM     45  C   UNL A   1      44.284  29.438  28.264  1.00  0.00     0.074 A 
ATOM     46  C   UNL A   1      43.836  29.125  26.933  1.00  0.00     0.031 C 
ATOM     47  C   UNL A   1      38.177  28.202  30.251  1.00  0.00     0.029 A 
ATOM     48  C   UNL A   1      38.916  29.427  30.479  1.00  0.00     0.049 A 
ATOM     49  H   UNL A   1      40.977  29.705  30.256  1.00  0.00     0.167 HD
ATOM     50  C   UNL A   1      45.068  30.444  28.742  1.00  0.00     0.037 A 
ATOM     51  C   UNL A   1      38.484  30.638  30.906  1.00  0.00     0.037 A 
ATOM     52  C   UNL A   1      45.267  30.308  30.165  1.00  0.00     0.049 A 
ATOM     53  C   UNL A   1      39.681  31.384  31.372  1.00  0.00     0.074 A 
ATOM     54  C   UNL A   1      45.814  29.331  30.975  1.00  0.00     0.029 A 
ATOM     55  N   UNL A   1      44.511  31.095  31.001  1.00  0.00    -0.354 N 
ATOM     56  N   UNL A   1      40.379  31.046  32.422  1.00  0.00    -0.248 NA
ATOM     57  C   UNL A   1      40.380  32.206  30.396  1.00  0.00     0.031 C 
ATOM     58  C   UNL A   1      44.961  29.280  32.116  1.00  0.00     0.029 A 
ATOM     59  C   UNL A   1      43.998  30.280  31.977  1.00  0.00     0.049 A 
ATOM     60  H   UNL A   1      44.365  32.066  30.914  1.00  0.00     0.167 HD
ATOM     61  C   UNL A   1      41.700  31.231  32.042  1.00  0.00     0.074 A 
ATOM     62  C   UNL A   1      41.636  32.021  30.813  1.00  0.00     0.031 C 
ATOM     63  C   UNL A   1      42.703  30.480  32.585  1.00  0.00     0.037 A 
BRANCH  50  64
ATOM     64  C   UNL A   1      45.337  31.742  28.017  1.00  0.00     0.064 A 
ATOM     65  C   UNL A   1      44.245  32.535  27.608  1.00  0.00     0.173 A 
ATOM     66  C   UNL A   1      46.581  32.086  27.442  1.00  0.00     0.173 A 
ATOM     67  F   UNL A   1      43.011  32.297  28.082  1.00  0.00    -0.203 F 
ATOM     68  C   UNL A   1      44.372  33.523  26.629  1.00  0.00     0.198 A 
ATOM     69  C   UNL A   1      46.713  33.110  26.506  1.00  0.00     0.198 A 
ATOM     70  F   UNL A   1      47.694  31.382  27.669  1.00  0.00    -0.203 F 
ATOM     71  F   UNL A   1      43.281  34.154  26.174  1.00  0.00    -0.200 F 
ATOM     72  C   UNL A   1      45.606  33.804  26.072  1.00  0.00     0.200 A 
ATOM     73  F   UNL A   1      47.916  33.355  25.967  1.00  0.00    -0.200 F 
ATOM     74  F   UNL A   1      45.720  34.701  25.084  1.00  0.00    -0.200 F 
ENDBRANCH  50  64
BRANCH  51  75
ATOM     75  C   UNL A   1      37.181  31.291  30.646  1.00  0.00     0.064 A 
ATOM     76  C   UNL A   1      36.283  31.555  31.693  1.00  0.00     0.173 A 
ATOM     77  C   UNL A   1      36.911  31.924  29.416  1.00  0.00     0.173 A 
ATOM     78  F   UNL A   1      36.489  31.025  32.907  1.00  0.00    -0.203 F 
ATOM     79  C   UNL A   1      35.197  32.424  31.527  1.00  0.00     0.198 A 
ATOM     80  C   UNL A   1      35.825  32.785  29.251  1.00  0.00     0.198 A 
ATOM     81  F   UNL A   1      37.750  31.795  28.378  1.00  0.00    -0.203 F 
ATOM     82  F   UNL A   1      34.399  32.701  32.568  1.00  0.00    -0.200 F 
ATOM     83  C   UNL A   1      34.977  33.047  30.310  1.00  0.00     0.200 A 
ATOM     84  F   UNL A   1      35.645  33.410  28.078  1.00  0.00    -0.200 F 
ATOM     85  F   UNL A   1      33.978  33.929  30.170  1.00  0.00    -0.200 F 
ENDBRANCH  51  75
BRANCH  63  86
ATOM     86  C   UNL A   1      42.372  29.618  33.775  1.00  0.00     0.064 A 
ATOM     87  C   UNL A   1      41.847  28.316  33.686  1.00  0.00     0.173 A 
ATOM     88  C   UNL A   1      42.743  30.071  35.047  1.00  0.00     0.173 A 
ATOM     89  F   UNL A   1      41.563  27.764  32.502  1.00  0.00    -0.203 F 
ATOM     90  C   UNL A   1      41.661  27.527  34.822  1.00  0.00     0.198 A 
ATOM     91  C   UNL A   1      42.592  29.269  36.174  1.00  0.00     0.198 A 
ATOM     92  F   UNL A   1      43.304  31.282  35.190  1.00  0.00    -0.203 F 
ATOM     93  F   UNL A   1      41.148  26.293  34.707  1.00  0.00    -0.200 F 
ATOM     94  C   UNL A   1      42.041  28.003  36.064  1.00  0.00     0.200 A 
ATOM     95  F   UNL A   1      43.009  29.715  37.368  1.00  0.00    -0.200 F 
ATOM     96  F   UNL A   1      41.903  27.231  37.152  1.00  0.00    -0.200 F 
ENDBRANCH  63  86
ENDBRANCH  37  38
ENDBRANCH  29  32
ENDBRANCH  27  28
ENDBRANCH   1  27
TORSDOF 15
ENDMDL
