MODEL 1
REMARK VINA RESULT:     -11.6      0.000      0.000
REMARK SMILES O=C(NCCCNC(=O)c1cnn2c(C(F)(F)F)ccnc12)c1ccc(-c2c3nc(c(-c4c(F)c(F)c(F)c(F)c4F)c4ccc([nH]4)c(-c4c(F)c(F)c(F)c(F)c4F)c4nc(c(-c5c(F)c(F)c(F)c(F)c5F)c5ccc2[nH]5)C=C4)C=C3)cc1
REMARK SMILES IDX 4 1 3 2 1 3 2 4 23 6 24 7 85 8 25 9 84 10 26 11 27 12 28 13
REMARK SMILES IDX 78 14 29 15 83 16 77 17 79 18 30 19 82 20 76 21 75 22 31 24
REMARK SMILES IDX 63 25 43 26 62 27 44 28 47 29 61 30 80 31 45 32 46 33 60 35
REMARK SMILES IDX 81 36 48 37 32 38 33 39 41 40 34 41 35 42 39 43 42 44 36 45
REMARK SMILES IDX 37 46 40 47 38 48 64 49 65 50 73 51 66 52 67 53 71 54 74 55
REMARK SMILES IDX 68 56 69 57 72 58 70 59 49 60 50 61 58 62 51 63 52 64 56 65
REMARK SMILES IDX 59 66 53 67 54 68 57 69 55 70 5 71 6 72 7 73 8 74 9 76 10 77
REMARK SMILES IDX 11 78 22 79 12 80 13 81 21 82 14 83 20 84 19 85 15 86 16 87
REMARK SMILES IDX 17 88 18 89
REMARK H PARENT 3 5 79 23 47 34 7 75
REMARK Flexibility Score: inf
ROOT
ATOM      1  C   UNL A   1      34.323  34.305  28.461  1.00  0.00     0.118 C 
ENDROOT
BRANCH   1   2
ATOM      2  N   UNL A   1      33.550  33.184  27.946  1.00  0.00    -0.352 N 
ATOM      3  O   UNL A   1      33.187  31.144  27.067  1.00  0.00    -0.269 OA
ATOM      4  C   UNL A   1      33.926  31.885  27.709  1.00  0.00     0.251 C 
ATOM      5  H   UNL A   1      32.610  33.389  27.734  1.00  0.00     0.163 HD
BRANCH   4   6
ATOM      6  C   UNL A   1      35.217  31.372  28.218  1.00  0.00     0.039 A 
ATOM      7  C   UNL A   1      36.354  32.183  28.238  1.00  0.00     0.014 A 
ATOM      8  C   UNL A   1      35.275  30.079  28.747  1.00  0.00     0.014 A 
ATOM      9  C   UNL A   1      37.570  31.667  28.667  1.00  0.00     0.010 A 
ATOM     10  C   UNL A   1      36.475  29.592  29.268  1.00  0.00     0.010 A 
ATOM     11  C   UNL A   1      37.635  30.380  29.223  1.00  0.00    -0.014 A 
BRANCH  11  12
ATOM     12  C   UNL A   1      38.891  29.940  29.874  1.00  0.00     0.031 A 
ATOM     13  C   UNL A   1      39.400  30.598  31.121  1.00  0.00     0.074 A 
ATOM     14  C   UNL A   1      39.576  28.927  29.305  1.00  0.00     0.049 A 
ATOM     15  N   UNL A   1      40.494  30.344  31.794  1.00  0.00    -0.248 NA
ATOM     16  C   UNL A   1      38.586  31.685  31.687  1.00  0.00     0.031 C 
ATOM     17  C   UNL A   1      39.181  28.234  28.074  1.00  0.00     0.029 A 
ATOM     18  N   UNL A   1      40.738  28.304  29.675  1.00  0.00    -0.354 N 
ATOM     19  C   UNL A   1      40.514  31.250  32.845  1.00  0.00     0.074 A 
ATOM     20  C   UNL A   1      39.327  32.070  32.719  1.00  0.00     0.031 C 
ATOM     21  C   UNL A   1      40.070  27.268  27.807  1.00  0.00     0.029 A 
ATOM     22  C   UNL A   1      41.130  27.316  28.805  1.00  0.00     0.049 A 
ATOM     23  H   UNL A   1      41.243  28.540  30.487  1.00  0.00     0.167 HD
ATOM     24  C   UNL A   1      41.441  31.375  33.823  1.00  0.00     0.037 A 
ATOM     25  C   UNL A   1      42.240  26.555  28.790  1.00  0.00     0.037 A 
ATOM     26  C   UNL A   1      42.599  30.529  33.956  1.00  0.00     0.049 A 
ATOM     27  C   UNL A   1      43.257  26.739  29.876  1.00  0.00     0.074 A 
ATOM     28  C   UNL A   1      43.542  30.512  34.971  1.00  0.00     0.029 A 
ATOM     29  N   UNL A   1      42.980  29.559  33.040  1.00  0.00    -0.354 N 
ATOM     30  N   UNL A   1      43.226  27.550  30.906  1.00  0.00    -0.248 NA
ATOM     31  C   UNL A   1      44.469  25.914  29.795  1.00  0.00     0.031 C 
ATOM     32  C   UNL A   1      44.522  29.570  34.640  1.00  0.00     0.029 A 
ATOM     33  C   UNL A   1      44.169  28.971  33.442  1.00  0.00     0.049 A 
ATOM     34  H   UNL A   1      42.480  29.325  32.225  1.00  0.00     0.167 HD
ATOM     35  C   UNL A   1      44.409  27.333  31.594  1.00  0.00     0.074 A 
ATOM     36  C   UNL A   1      45.123  26.291  30.884  1.00  0.00     0.031 C 
ATOM     37  C   UNL A   1      44.869  27.948  32.710  1.00  0.00     0.037 A 
BRANCH  24  38
ATOM     38  C   UNL A   1      41.266  32.469  34.834  1.00  0.00     0.064 A 
ATOM     39  C   UNL A   1      41.804  33.748  34.637  1.00  0.00     0.173 A 
ATOM     40  C   UNL A   1      40.460  32.260  35.964  1.00  0.00     0.173 A 
ATOM     41  F   UNL A   1      42.585  33.998  33.575  1.00  0.00    -0.203 F 
ATOM     42  C   UNL A   1      41.545  34.779  35.538  1.00  0.00     0.198 A 
ATOM     43  C   UNL A   1      40.187  33.298  36.851  1.00  0.00     0.198 A 
ATOM     44  F   UNL A   1      39.917  31.055  36.193  1.00  0.00    -0.203 F 
ATOM     45  F   UNL A   1      42.081  35.992  35.340  1.00  0.00    -0.200 F 
ATOM     46  C   UNL A   1      40.729  34.556  36.638  1.00  0.00     0.200 A 
ATOM     47  F   UNL A   1      39.390  33.082  37.907  1.00  0.00    -0.200 F 
ATOM     48  F   UNL A   1      40.464  35.555  37.492  1.00  0.00    -0.200 F 
ENDBRANCH  24  38
BRANCH  25  49
ATOM     49  C   UNL A   1      42.458  25.590  27.683  1.00  0.00     0.064 A 
ATOM     50  C   UNL A   1      41.818  24.344  27.670  1.00  0.00     0.173 A 
ATOM     51  C   UNL A   1      43.316  25.896  26.615  1.00  0.00     0.173 A 
ATOM     52  F   UNL A   1      41.005  23.998  28.679  1.00  0.00    -0.203 F 
ATOM     53  C   UNL A   1      42.041  23.434  26.639  1.00  0.00     0.198 A 
ATOM     54  C   UNL A   1      43.512  24.998  25.570  1.00  0.00     0.198 A 
ATOM     55  F   UNL A   1      43.949  27.078  26.579  1.00  0.00    -0.203 F 
ATOM     56  F   UNL A   1      41.452  22.230  26.673  1.00  0.00    -0.200 F 
ATOM     57  C   UNL A   1      42.883  23.764  25.587  1.00  0.00     0.200 A 
ATOM     58  F   UNL A   1      44.313  25.329  24.548  1.00  0.00    -0.200 F 
ATOM     59  F   UNL A   1      43.093  22.889  24.594  1.00  0.00    -0.200 F 
ENDBRANCH  25  49
BRANCH  37  60
ATOM     60  C   UNL A   1      46.209  27.515  33.220  1.00  0.00     0.064 A 
ATOM     61  C   UNL A   1      47.382  28.178  32.832  1.00  0.00     0.173 A 
ATOM     62  C   UNL A   1      46.321  26.451  34.127  1.00  0.00     0.173 A 
ATOM     63  F   UNL A   1      47.326  29.188  31.950  1.00  0.00    -0.203 F 
ATOM     64  C   UNL A   1      48.623  27.779  33.319  1.00  0.00     0.198 A 
ATOM     65  C   UNL A   1      47.560  26.072  34.632  1.00  0.00     0.198 A 
ATOM     66  F   UNL A   1      45.227  25.787  34.529  1.00  0.00    -0.203 F 
ATOM     67  F   UNL A   1      49.736  28.399  32.902  1.00  0.00    -0.200 F 
ATOM     68  C   UNL A   1      48.711  26.731  34.224  1.00  0.00     0.200 A 
ATOM     69  F   UNL A   1      47.644  25.067  35.514  1.00  0.00    -0.200 F 
ATOM     70  F   UNL A   1      49.905  26.353  34.698  1.00  0.00    -0.200 F 
ENDBRANCH  37  60
ENDBRANCH  11  12
ENDBRANCH   4   6
ENDBRANCH   1   2
BRANCH   1  71
ATOM     71  C   UNL A   1      33.562  35.617  28.375  1.00  0.00     0.042 C 
BRANCH  71  72
ATOM     72  C   UNL A   1      33.733  36.500  29.602  1.00  0.00     0.118 C 
BRANCH  72  73
ATOM     73  N   UNL A   1      32.525  36.551  30.412  1.00  0.00    -0.352 N 
ATOM     74  C   UNL A   1      32.320  36.118  31.698  1.00  0.00     0.256 C 
ATOM     75  H   UNL A   1      31.742  36.956  29.974  1.00  0.00     0.163 HD
ATOM     76  O   UNL A   1      31.164  36.046  32.118  1.00  0.00    -0.269 OA
BRANCH  74  77
ATOM     77  C   UNL A   1      33.444  35.691  32.493  1.00  0.00     0.104 A 
ATOM     78  C   UNL A   1      34.104  36.431  33.489  1.00  0.00     0.151 A 
ATOM     79  C   UNL A   1      34.158  34.509  32.417  1.00  0.00     0.168 A 
ATOM     80  N   UNL A   1      35.065  35.740  34.101  1.00  0.00    -0.174 NA
ATOM     81  N   UNL A   1      35.073  34.535  33.481  1.00  0.00    -0.209 N 
ATOM     82  N   UNL A   1      34.048  33.426  31.582  1.00  0.00    -0.236 NA
ATOM     83  C   UNL A   1      35.819  33.403  33.793  1.00  0.00     0.150 A 
ATOM     84  C   UNL A   1      34.771  32.393  31.885  1.00  0.00     0.116 A 
ATOM     85  C   UNL A   1      35.696  32.294  33.039  1.00  0.00     0.053 A 
BRANCH  83  86
ATOM     86  C   UNL A   1      36.688  33.493  34.988  1.00  0.00     0.433 C 
ATOM     87  F   UNL A   1      37.736  34.333  34.818  1.00  0.00    -0.165 F 
ATOM     88  F   UNL A   1      36.012  33.882  36.098  1.00  0.00    -0.165 F 
ATOM     89  F   UNL A   1      37.227  32.278  35.293  1.00  0.00    -0.165 F 
ENDBRANCH  83  86
ENDBRANCH  74  77
ENDBRANCH  72  73
ENDBRANCH  71  72
ENDBRANCH   1  71
TORSDOF 11
ENDMDL
MODEL 2
REMARK VINA RESULT:     -11.6      3.727      9.906
REMARK SMILES O=C(NCCCNC(=O)c1cnn2c(C(F)(F)F)ccnc12)c1ccc(-c2c3nc(c(-c4c(F)c(F)c(F)c(F)c4F)c4ccc([nH]4)c(-c4c(F)c(F)c(F)c(F)c4F)c4nc(c(-c5c(F)c(F)c(F)c(F)c5F)c5ccc2[nH]5)C=C4)C=C3)cc1
REMARK SMILES IDX 4 1 3 2 1 3 2 4 23 6 24 7 85 8 25 9 84 10 26 11 27 12 28 13
REMARK SMILES IDX 78 14 29 15 83 16 77 17 79 18 30 19 82 20 76 21 75 22 31 24
REMARK SMILES IDX 63 25 43 26 62 27 44 28 47 29 61 30 80 31 45 32 46 33 60 35
REMARK SMILES IDX 81 36 48 37 32 38 33 39 41 40 34 41 35 42 39 43 42 44 36 45
REMARK SMILES IDX 37 46 40 47 38 48 64 49 65 50 73 51 66 52 67 53 71 54 74 55
REMARK SMILES IDX 68 56 69 57 72 58 70 59 49 60 50 61 58 62 51 63 52 64 56 65
REMARK SMILES IDX 59 66 53 67 54 68 57 69 55 70 5 71 6 72 7 73 8 74 9 76 10 77
REMARK SMILES IDX 11 78 22 79 12 80 13 81 21 82 14 83 20 84 19 85 15 86 16 87
REMARK SMILES IDX 17 88 18 89
REMARK H PARENT 3 5 79 23 47 34 7 75
REMARK Flexibility Score: inf
ROOT
ATOM      1  C   UNL A   1      32.642  32.811  27.249  1.00  0.00     0.118 C 
ENDROOT
BRANCH   1   2
ATOM      2  N   UNL A   1      32.471  34.203  27.636  1.00  0.00    -0.352 N 
ATOM      3  O   UNL A   1      32.615  36.023  28.952  1.00  0.00    -0.269 OA
ATOM      4  C   UNL A   1      33.055  34.916  28.654  1.00  0.00     0.251 C 
ATOM      5  H   UNL A   1      31.839  34.715  27.081  1.00  0.00     0.163 HD
BRANCH   4   6
ATOM      6  C   UNL A   1      34.206  34.359  29.398  1.00  0.00     0.039 A 
ATOM      7  C   UNL A   1      34.014  33.599  30.553  1.00  0.00     0.014 A 
ATOM      8  C   UNL A   1      35.496  34.543  28.891  1.00  0.00     0.014 A 
ATOM      9  C   UNL A   1      35.110  33.132  31.269  1.00  0.00     0.010 A 
ATOM     10  C   UNL A   1      36.592  33.990  29.557  1.00  0.00     0.010 A 
ATOM     11  C   UNL A   1      36.407  33.288  30.758  1.00  0.00    -0.014 A 
BRANCH  11  12
ATOM     12  C   UNL A   1      37.532  32.590  31.422  1.00  0.00     0.031 A 
ATOM     13  C   UNL A   1      38.229  31.432  30.773  1.00  0.00     0.074 A 
ATOM     14  C   UNL A   1      37.910  33.022  32.643  1.00  0.00     0.049 A 
ATOM     15  N   UNL A   1      39.211  30.702  31.238  1.00  0.00    -0.248 NA
ATOM     16  C   UNL A   1      37.765  31.034  29.436  1.00  0.00     0.031 C 
ATOM     17  C   UNL A   1      37.280  34.125  33.376  1.00  0.00     0.029 A 
ATOM     18  N   UNL A   1      38.905  32.595  33.482  1.00  0.00    -0.354 N 
ATOM     19  C   UNL A   1      39.469  29.747  30.265  1.00  0.00     0.074 A 
ATOM     20  C   UNL A   1      38.532  29.980  29.186  1.00  0.00     0.031 C 
ATOM     21  C   UNL A   1      37.918  34.303  34.540  1.00  0.00     0.029 A 
ATOM     22  C   UNL A   1      38.955  33.288  34.667  1.00  0.00     0.049 A 
ATOM     23  H   UNL A   1      39.525  31.863  33.257  1.00  0.00     0.167 HD
ATOM     24  C   UNL A   1      40.405  28.769  30.281  1.00  0.00     0.037 A 
ATOM     25  C   UNL A   1      39.727  33.104  35.754  1.00  0.00     0.037 A 
ATOM     26  C   UNL A   1      41.353  28.571  31.347  1.00  0.00     0.049 A 
ATOM     27  C   UNL A   1      40.738  31.996  35.744  1.00  0.00     0.074 A 
ATOM     28  C   UNL A   1      42.406  27.674  31.409  1.00  0.00     0.029 A 
ATOM     29  N   UNL A   1      41.355  29.272  32.545  1.00  0.00    -0.354 N 
ATOM     30  N   UNL A   1      41.020  31.146  34.787  1.00  0.00    -0.248 NA
ATOM     31  C   UNL A   1      41.529  31.811  36.967  1.00  0.00     0.031 C 
ATOM     32  C   UNL A   1      43.010  27.794  32.665  1.00  0.00     0.029 A 
ATOM     33  C   UNL A   1      42.361  28.794  33.370  1.00  0.00     0.049 A 
ATOM     34  H   UNL A   1      40.733  30.000  32.774  1.00  0.00     0.167 HD
ATOM     35  C   UNL A   1      42.019  30.328  35.290  1.00  0.00     0.074 A 
ATOM     36  C   UNL A   1      42.317  30.802  36.626  1.00  0.00     0.031 C 
ATOM     37  C   UNL A   1      42.629  29.270  34.701  1.00  0.00     0.037 A 
BRANCH  24  38
ATOM     38  C   UNL A   1      40.462  27.820  29.122  1.00  0.00     0.064 A 
ATOM     39  C   UNL A   1      39.667  26.667  29.073  1.00  0.00     0.173 A 
ATOM     40  C   UNL A   1      41.248  28.127  28.000  1.00  0.00     0.173 A 
ATOM     41  F   UNL A   1      38.903  26.327  30.121  1.00  0.00    -0.203 F 
ATOM     42  C   UNL A   1      39.659  25.852  27.942  1.00  0.00     0.198 A 
ATOM     43  C   UNL A   1      41.222  27.321  26.864  1.00  0.00     0.198 A 
ATOM     44  F   UNL A   1      42.022  29.223  27.995  1.00  0.00    -0.203 F 
ATOM     45  F   UNL A   1      38.903  24.745  27.921  1.00  0.00    -0.200 F 
ATOM     46  C   UNL A   1      40.428  26.185  26.836  1.00  0.00     0.200 A 
ATOM     47  F   UNL A   1      41.958  27.651  25.794  1.00  0.00    -0.200 F 
ATOM     48  F   UNL A   1      40.403  25.410  25.743  1.00  0.00    -0.200 F 
ENDBRANCH  24  38
BRANCH  25  49
ATOM     49  C   UNL A   1      39.536  33.964  36.949  1.00  0.00     0.064 A 
ATOM     50  C   UNL A   1      40.138  35.225  37.041  1.00  0.00     0.173 A 
ATOM     51  C   UNL A   1      38.745  33.536  38.027  1.00  0.00     0.173 A 
ATOM     52  F   UNL A   1      40.919  35.668  36.045  1.00  0.00    -0.203 F 
ATOM     53  C   UNL A   1      39.970  36.019  38.173  1.00  0.00     0.198 A 
ATOM     54  C   UNL A   1      38.552  34.345  39.144  1.00  0.00     0.198 A 
ATOM     55  F   UNL A   1      38.143  32.339  37.986  1.00  0.00    -0.203 F 
ATOM     56  F   UNL A   1      40.593  37.203  38.256  1.00  0.00    -0.200 F 
ATOM     57  C   UNL A   1      39.173  35.582  39.221  1.00  0.00     0.200 A 
ATOM     58  F   UNL A   1      37.768  33.924  40.145  1.00  0.00    -0.200 F 
ATOM     59  F   UNL A   1      39.009  36.349  40.307  1.00  0.00    -0.200 F 
ENDBRANCH  25  49
BRANCH  37  60
ATOM     60  C   UNL A   1      43.670  28.554  35.506  1.00  0.00     0.064 A 
ATOM     61  C   UNL A   1      43.319  27.529  36.397  1.00  0.00     0.173 A 
ATOM     62  C   UNL A   1      45.028  28.870  35.364  1.00  0.00     0.173 A 
ATOM     63  F   UNL A   1      42.029  27.207  36.581  1.00  0.00    -0.203 F 
ATOM     64  C   UNL A   1      44.291  26.859  37.132  1.00  0.00     0.198 A 
ATOM     65  C   UNL A   1      45.999  28.180  36.081  1.00  0.00     0.198 A 
ATOM     66  F   UNL A   1      45.412  29.842  34.523  1.00  0.00    -0.203 F 
ATOM     67  F   UNL A   1      43.931  25.912  38.010  1.00  0.00    -0.200 F 
ATOM     68  C   UNL A   1      45.631  27.179  36.969  1.00  0.00     0.200 A 
ATOM     69  F   UNL A   1      47.294  28.482  35.916  1.00  0.00    -0.200 F 
ATOM     70  F   UNL A   1      46.567  26.527  37.672  1.00  0.00    -0.200 F 
ENDBRANCH  37  60
ENDBRANCH  11  12
ENDBRANCH   4   6
ENDBRANCH   1   2
BRANCH   1  71
ATOM     71  C   UNL A   1      31.403  32.242  26.579  1.00  0.00     0.042 C 
BRANCH  71  72
ATOM     72  C   UNL A   1      31.581  30.816  26.081  1.00  0.00     0.118 C 
BRANCH  72  73
ATOM     73  N   UNL A   1      31.561  29.850  27.169  1.00  0.00    -0.352 N 
ATOM     74  C   UNL A   1      31.777  28.495  27.135  1.00  0.00     0.256 C 
ATOM     75  H   UNL A   1      31.366  30.223  28.059  1.00  0.00     0.163 HD
ATOM     76  O   UNL A   1      31.489  27.828  28.129  1.00  0.00    -0.269 OA
BRANCH  74  77
ATOM     77  C   UNL A   1      32.260  27.882  25.924  1.00  0.00     0.104 A 
ATOM     78  C   UNL A   1      33.534  28.034  25.349  1.00  0.00     0.151 A 
ATOM     79  C   UNL A   1      31.579  27.074  25.032  1.00  0.00     0.168 A 
ATOM     80  N   UNL A   1      33.709  27.282  24.263  1.00  0.00    -0.174 NA
ATOM     81  N   UNL A   1      32.525  26.647  24.088  1.00  0.00    -0.209 N 
ATOM     82  N   UNL A   1      30.278  26.639  25.002  1.00  0.00    -0.236 NA
ATOM     83  C   UNL A   1      32.195  25.668  23.156  1.00  0.00     0.150 A 
ATOM     84  C   UNL A   1      29.994  25.743  24.109  1.00  0.00     0.116 A 
ATOM     85  C   UNL A   1      30.946  25.165  23.131  1.00  0.00     0.053 A 
BRANCH  83  86
ATOM     86  C   UNL A   1      33.283  25.212  22.262  1.00  0.00     0.433 C 
ATOM     87  F   UNL A   1      33.653  26.150  21.359  1.00  0.00    -0.165 F 
ATOM     88  F   UNL A   1      34.391  24.823  22.942  1.00  0.00    -0.165 F 
ATOM     89  F   UNL A   1      32.896  24.125  21.535  1.00  0.00    -0.165 F 
ENDBRANCH  83  86
ENDBRANCH  74  77
ENDBRANCH  72  73
ENDBRANCH  71  72
ENDBRANCH   1  71
TORSDOF 11
ENDMDL
MODEL 3
REMARK VINA RESULT:     -11.5      3.717      9.766
REMARK SMILES O=C(NCCCNC(=O)c1cnn2c(C(F)(F)F)ccnc12)c1ccc(-c2c3nc(c(-c4c(F)c(F)c(F)c(F)c4F)c4ccc([nH]4)c(-c4c(F)c(F)c(F)c(F)c4F)c4nc(c(-c5c(F)c(F)c(F)c(F)c5F)c5ccc2[nH]5)C=C4)C=C3)cc1
REMARK SMILES IDX 4 1 3 2 1 3 2 4 23 6 24 7 85 8 25 9 84 10 26 11 27 12 28 13
REMARK SMILES IDX 78 14 29 15 83 16 77 17 79 18 30 19 82 20 76 21 75 22 31 24
REMARK SMILES IDX 63 25 43 26 62 27 44 28 47 29 61 30 80 31 45 32 46 33 60 35
REMARK SMILES IDX 81 36 48 37 32 38 33 39 41 40 34 41 35 42 39 43 42 44 36 45
REMARK SMILES IDX 37 46 40 47 38 48 64 49 65 50 73 51 66 52 67 53 71 54 74 55
REMARK SMILES IDX 68 56 69 57 72 58 70 59 49 60 50 61 58 62 51 63 52 64 56 65
REMARK SMILES IDX 59 66 53 67 54 68 57 69 55 70 5 71 6 72 7 73 8 74 9 76 10 77
REMARK SMILES IDX 11 78 22 79 12 80 13 81 21 82 14 83 20 84 19 85 15 86 16 87
REMARK SMILES IDX 17 88 18 89
REMARK H PARENT 3 5 79 23 47 34 7 75
REMARK Flexibility Score: inf
ROOT
ATOM      1  C   UNL A   1      32.669  32.826  27.237  1.00  0.00     0.118 C 
ENDROOT
BRANCH   1   2
ATOM      2  N   UNL A   1      32.486  34.212  27.642  1.00  0.00    -0.352 N 
ATOM      3  O   UNL A   1      32.610  36.015  28.983  1.00  0.00    -0.269 OA
ATOM      4  C   UNL A   1      33.059  34.916  28.673  1.00  0.00     0.251 C 
ATOM      5  H   UNL A   1      31.852  34.726  27.091  1.00  0.00     0.163 HD
BRANCH   4   6
ATOM      6  C   UNL A   1      34.211  34.357  29.414  1.00  0.00     0.039 A 
ATOM      7  C   UNL A   1      34.020  33.592  30.566  1.00  0.00     0.014 A 
ATOM      8  C   UNL A   1      35.501  34.545  28.908  1.00  0.00     0.014 A 
ATOM      9  C   UNL A   1      35.117  33.123  31.280  1.00  0.00     0.010 A 
ATOM     10  C   UNL A   1      36.598  33.991  29.573  1.00  0.00     0.010 A 
ATOM     11  C   UNL A   1      36.413  33.283  30.770  1.00  0.00    -0.014 A 
BRANCH  11  12
ATOM     12  C   UNL A   1      37.539  32.584  31.432  1.00  0.00     0.031 A 
ATOM     13  C   UNL A   1      38.236  31.428  30.780  1.00  0.00     0.074 A 
ATOM     14  C   UNL A   1      37.918  33.013  32.653  1.00  0.00     0.049 A 
ATOM     15  N   UNL A   1      39.219  30.697  31.242  1.00  0.00    -0.248 NA
ATOM     16  C   UNL A   1      37.771  31.032  29.442  1.00  0.00     0.031 C 
ATOM     17  C   UNL A   1      37.289  34.114  33.389  1.00  0.00     0.029 A 
ATOM     18  N   UNL A   1      38.915  32.585  33.490  1.00  0.00    -0.354 N 
ATOM     19  C   UNL A   1      39.476  29.744  30.267  1.00  0.00     0.074 A 
ATOM     20  C   UNL A   1      38.538  29.979  29.189  1.00  0.00     0.031 C 
ATOM     21  C   UNL A   1      37.928  34.289  34.553  1.00  0.00     0.029 A 
ATOM     22  C   UNL A   1      38.966  33.275  34.676  1.00  0.00     0.049 A 
ATOM     23  H   UNL A   1      39.534  31.853  33.263  1.00  0.00     0.167 HD
ATOM     24  C   UNL A   1      40.412  28.766  30.279  1.00  0.00     0.037 A 
ATOM     25  C   UNL A   1      39.739  33.089  35.762  1.00  0.00     0.037 A 
ATOM     26  C   UNL A   1      41.362  28.566  31.344  1.00  0.00     0.049 A 
ATOM     27  C   UNL A   1      40.750  31.981  35.749  1.00  0.00     0.074 A 
ATOM     28  C   UNL A   1      42.415  27.669  31.402  1.00  0.00     0.029 A 
ATOM     29  N   UNL A   1      41.364  29.264  32.543  1.00  0.00    -0.354 N 
ATOM     30  N   UNL A   1      41.031  31.133  34.790  1.00  0.00    -0.248 NA
ATOM     31  C   UNL A   1      41.543  31.793  36.971  1.00  0.00     0.031 C 
ATOM     32  C   UNL A   1      43.020  27.786  32.658  1.00  0.00     0.029 A 
ATOM     33  C   UNL A   1      42.371  28.785  33.366  1.00  0.00     0.049 A 
ATOM     34  H   UNL A   1      40.743  29.992  32.774  1.00  0.00     0.167 HD
ATOM     35  C   UNL A   1      42.031  30.314  35.290  1.00  0.00     0.074 A 
ATOM     36  C   UNL A   1      42.330  30.785  36.626  1.00  0.00     0.031 C 
ATOM     37  C   UNL A   1      42.640  29.258  34.698  1.00  0.00     0.037 A 
BRANCH  24  38
ATOM     38  C   UNL A   1      40.469  27.820  29.118  1.00  0.00     0.064 A 
ATOM     39  C   UNL A   1      39.671  26.668  29.065  1.00  0.00     0.173 A 
ATOM     40  C   UNL A   1      41.256  28.127  27.997  1.00  0.00     0.173 A 
ATOM     41  F   UNL A   1      38.905  26.328  30.112  1.00  0.00    -0.203 F 
ATOM     42  C   UNL A   1      39.662  25.856  27.933  1.00  0.00     0.198 A 
ATOM     43  C   UNL A   1      41.230  27.325  26.860  1.00  0.00     0.198 A 
ATOM     44  F   UNL A   1      42.032  29.222  27.996  1.00  0.00    -0.203 F 
ATOM     45  F   UNL A   1      38.904  24.751  27.908  1.00  0.00    -0.200 F 
ATOM     46  C   UNL A   1      40.433  26.190  26.828  1.00  0.00     0.200 A 
ATOM     47  F   UNL A   1      41.966  27.655  25.790  1.00  0.00    -0.200 F 
ATOM     48  F   UNL A   1      40.407  25.418  25.733  1.00  0.00    -0.200 F 
ENDBRANCH  24  38
BRANCH  25  49
ATOM     49  C   UNL A   1      39.548  33.945  36.960  1.00  0.00     0.064 A 
ATOM     50  C   UNL A   1      38.763  33.521  38.039  1.00  0.00     0.173 A 
ATOM     51  C   UNL A   1      40.150  35.211  37.047  1.00  0.00     0.173 A 
ATOM     52  F   UNL A   1      38.152  32.328  37.993  1.00  0.00    -0.203 F 
ATOM     53  C   UNL A   1      38.572  34.336  39.152  1.00  0.00     0.198 A 
ATOM     54  C   UNL A   1      39.984  36.011  38.174  1.00  0.00     0.198 A 
ATOM     55  F   UNL A   1      40.915  35.662  36.042  1.00  0.00    -0.203 F 
ATOM     56  F   UNL A   1      37.779  33.926  40.152  1.00  0.00    -0.200 F 
ATOM     57  C   UNL A   1      39.187  35.577  39.222  1.00  0.00     0.200 A 
ATOM     58  F   UNL A   1      40.594  37.202  38.242  1.00  0.00    -0.200 F 
ATOM     59  F   UNL A   1      39.006  36.359  40.295  1.00  0.00    -0.200 F 
ENDBRANCH  25  49
BRANCH  37  60
ATOM     60  C   UNL A   1      43.682  28.540  35.500  1.00  0.00     0.064 A 
ATOM     61  C   UNL A   1      45.038  28.886  35.402  1.00  0.00     0.173 A 
ATOM     62  C   UNL A   1      43.323  27.522  36.395  1.00  0.00     0.173 A 
ATOM     63  F   UNL A   1      45.431  29.839  34.544  1.00  0.00    -0.203 F 
ATOM     64  C   UNL A   1      46.000  28.224  36.159  1.00  0.00     0.198 A 
ATOM     65  C   UNL A   1      44.283  26.881  37.169  1.00  0.00     0.198 A 
ATOM     66  F   UNL A   1      42.038  27.158  36.524  1.00  0.00    -0.203 F 
ATOM     67  F   UNL A   1      47.294  28.541  36.019  1.00  0.00    -0.200 F 
ATOM     68  C   UNL A   1      45.622  27.227  37.047  1.00  0.00     0.200 A 
ATOM     69  F   UNL A   1      43.917  25.926  38.034  1.00  0.00    -0.200 F 
ATOM     70  F   UNL A   1      46.548  26.596  37.781  1.00  0.00    -0.200 F 
ENDBRANCH  37  60
ENDBRANCH  11  12
ENDBRANCH   4   6
ENDBRANCH   1   2
BRANCH   1  71
ATOM     71  C   UNL A   1      31.413  32.236  26.620  1.00  0.00     0.042 C 
BRANCH  71  72
ATOM     72  C   UNL A   1      31.592  30.807  26.128  1.00  0.00     0.118 C 
BRANCH  72  73
ATOM     73  N   UNL A   1      31.569  29.846  27.220  1.00  0.00    -0.352 N 
ATOM     74  C   UNL A   1      31.783  28.491  27.192  1.00  0.00     0.256 C 
ATOM     75  H   UNL A   1      31.373  30.223  28.108  1.00  0.00     0.163 HD
ATOM     76  O   UNL A   1      31.492  27.828  28.189  1.00  0.00    -0.269 OA
BRANCH  74  77
ATOM     77  C   UNL A   1      32.267  27.872  25.984  1.00  0.00     0.104 A 
ATOM     78  C   UNL A   1      33.547  28.009  25.419  1.00  0.00     0.151 A 
ATOM     79  C   UNL A   1      31.583  27.071  25.088  1.00  0.00     0.168 A 
ATOM     80  N   UNL A   1      33.721  27.255  24.334  1.00  0.00    -0.174 NA
ATOM     81  N   UNL A   1      32.531  26.633  24.150  1.00  0.00    -0.209 N 
ATOM     82  N   UNL A   1      30.277  26.651  25.048  1.00  0.00    -0.236 NA
ATOM     83  C   UNL A   1      32.196  25.658  23.216  1.00  0.00     0.150 A 
ATOM     84  C   UNL A   1      29.990  25.759  24.154  1.00  0.00     0.116 A 
ATOM     85  C   UNL A   1      30.942  25.170  23.182  1.00  0.00     0.053 A 
BRANCH  83  86
ATOM     86  C   UNL A   1      33.286  25.190  22.330  1.00  0.00     0.433 C 
ATOM     87  F   UNL A   1      33.653  26.113  21.410  1.00  0.00    -0.165 F 
ATOM     88  F   UNL A   1      34.394  24.816  23.016  1.00  0.00    -0.165 F 
ATOM     89  F   UNL A   1      32.902  24.089  21.623  1.00  0.00    -0.165 F 
ENDBRANCH  83  86
ENDBRANCH  74  77
ENDBRANCH  72  73
ENDBRANCH  71  72
ENDBRANCH   1  71
TORSDOF 11
ENDMDL
