MODEL 1
REMARK VINA RESULT:     -13.1      0.000      0.000
REMARK SMILES CCCCc1ncc(C[N@H+]2C[C@@H]3c4ccccc4OC[C@]3(C(=O)NCCCNC(=O)c3ccc(-c4c5nc(c(-c6c(F)c(F)c(F)c(F)c6F)c6ccc([nH]6)c(-c6c(F)c(F)c(F)c(F)c6F)c6nc(c(-c7c(F)c(F)c(F)c(F)c7F)c7ccc4[nH]7)C=C6)C=C5)cc3)C2)[nH]1
REMARK SMILES IDX 22 1 23 2 24 3 21 5 10 6 11 7 94 8 12 10 13 11 20 12 14 13
REMARK SMILES IDX 18 14 19 15 15 16 17 17 16 18 9 19 8 20 5 21 6 22 95 23 7 24
REMARK SMILES IDX 4 26 3 27 2 28 1 29 25 30 26 31 27 32 28 33 29 34 30 36
REMARK SMILES IDX 31 37 32 38 93 39 33 40 92 41 34 42 35 43 36 44 86 45 37 46
REMARK SMILES IDX 91 47 85 48 87 49 38 50 90 51 84 52 83 53 39 55 71 56 51 57
REMARK SMILES IDX 70 58 52 59 55 60 69 61 88 62 53 63 54 64 68 66 89 67 56 68
REMARK SMILES IDX 40 69 41 70 49 71 42 72 43 73 47 74 50 75 44 76 45 77 48 78
REMARK SMILES IDX 46 79 72 80 73 81 81 82 74 83 75 84 79 85 82 86 76 87 77 88
REMARK SMILES IDX 80 89 78 90 57 91 58 92 66 93 59 94 60 95 64 96 67 97 61 98
REMARK SMILES IDX 62 99 65 100 63 101
REMARK H PARENT 24 4 10 9 95 25 28 35 87 54 55 65
REMARK Flexibility Score: inf
ROOT
ATOM      1  C   UNL A   1      34.416  24.964  24.979  1.00  0.00     0.236 C 
ATOM      2  O   UNL A   1      34.570  25.504  26.076  1.00  0.00    -0.274 OA
ATOM      3  N   UNL A   1      35.535  24.415  24.363  1.00  0.00    -0.355 N 
ATOM      4  H   UNL A   1      36.398  24.851  24.555  1.00  0.00     0.163 HD
ENDROOT
BRANCH   1   5
ATOM      5  C   UNL A   1      33.039  24.883  24.197  1.00  0.00     0.144 C 
ATOM      6  N   UNL A   1      31.913  22.779  24.420  1.00  0.00    -0.328 N 
ATOM      7  C   UNL A   1      30.843  23.728  24.173  1.00  0.00     0.272 C 
ATOM      8  C   UNL A   1      32.933  23.572  25.100  1.00  0.00     0.284 C 
ATOM      9  H   UNL A   1      32.270  22.379  23.553  1.00  0.00     0.348 HD
ATOM     10  C   UNL A   1      31.481  25.093  24.519  1.00  0.00     0.103 C 
ATOM     11  C   UNL A   1      30.684  26.182  23.848  1.00  0.00     0.004 A 
ATOM     12  C   UNL A   1      33.356  26.416  23.924  1.00  0.00     0.253 C 
ATOM     13  C   UNL A   1      29.304  26.327  24.071  1.00  0.00     0.008 A 
ATOM     14  C   UNL A   1      31.331  27.101  23.040  1.00  0.00     0.123 A 
ATOM     15  O   UNL A   1      32.659  26.953  22.777  1.00  0.00    -0.492 OA
ATOM     16  C   UNL A   1      28.600  27.385  23.499  1.00  0.00     0.001 A 
ATOM     17  C   UNL A   1      30.640  28.170  22.473  1.00  0.00     0.047 A 
ATOM     18  C   UNL A   1      29.272  28.318  22.713  1.00  0.00     0.004 A 
BRANCH   6  19
ATOM     19  C   UNL A   1      31.521  21.530  25.073  1.00  0.00     0.319 C 
BRANCH  19  20
ATOM     20  C   UNL A   1      32.515  20.440  24.921  1.00  0.00     0.090 A 
ATOM     21  C   UNL A   1      33.361  18.558  24.125  1.00  0.00     0.106 A 
ATOM     22  N   UNL A   1      34.387  19.205  24.636  1.00  0.00    -0.241 NA
ATOM     23  N   UNL A   1      32.191  19.202  24.430  1.00  0.00    -0.341 N 
ATOM     24  C   UNL A   1      33.871  20.371  25.144  1.00  0.00     0.140 A 
ATOM     25  H   UNL A   1      31.282  18.840  24.319  1.00  0.00     0.168 HD
BRANCH  21  26
ATOM     26  C   UNL A   1      33.381  17.345  23.261  1.00  0.00     0.075 C 
BRANCH  26  27
ATOM     27  C   UNL A   1      34.078  16.154  23.913  1.00  0.00     0.008 C 
BRANCH  27  28
ATOM     28  C   UNL A   1      33.638  15.833  25.346  1.00  0.00    -0.003 C 
ATOM     29  C   UNL A   1      32.533  14.791  25.434  1.00  0.00     0.004 C 
ENDBRANCH  27  28
ENDBRANCH  26  27
ENDBRANCH  21  26
ENDBRANCH  19  20
ENDBRANCH   6  19
ENDBRANCH   1   5
BRANCH   3  30
ATOM     30  C   UNL A   1      35.574  23.264  23.460  1.00  0.00     0.117 C 
BRANCH  30  31
ATOM     31  C   UNL A   1      36.633  22.228  23.768  1.00  0.00     0.042 C 
BRANCH  31  32
ATOM     32  C   UNL A   1      36.993  22.128  25.239  1.00  0.00     0.118 C 
BRANCH  32  33
ATOM     33  N   UNL A   1      38.002  21.112  25.531  1.00  0.00    -0.352 N 
ATOM     34  C   UNL A   1      39.249  21.198  26.108  1.00  0.00     0.251 C 
ATOM     35  H   UNL A   1      37.743  20.200  25.267  1.00  0.00     0.163 HD
ATOM     36  O   UNL A   1      39.981  20.210  26.119  1.00  0.00    -0.269 OA
BRANCH  34  37
ATOM     37  C   UNL A   1      39.740  22.477  26.664  1.00  0.00     0.039 A 
ATOM     38  C   UNL A   1      39.217  23.688  26.227  1.00  0.00     0.014 A 
ATOM     39  C   UNL A   1      40.752  22.473  27.630  1.00  0.00     0.014 A 
ATOM     40  C   UNL A   1      39.875  24.870  26.529  1.00  0.00     0.010 A 
ATOM     41  C   UNL A   1      41.317  23.681  28.054  1.00  0.00     0.010 A 
ATOM     42  C   UNL A   1      40.931  24.888  27.452  1.00  0.00    -0.014 A 
BRANCH  42  43
ATOM     43  C   UNL A   1      41.602  26.183  27.752  1.00  0.00     0.031 A 
ATOM     44  C   UNL A   1      42.960  26.501  27.182  1.00  0.00     0.074 A 
ATOM     45  C   UNL A   1      40.942  27.109  28.475  1.00  0.00     0.049 A 
ATOM     46  N   UNL A   1      43.685  27.581  27.334  1.00  0.00    -0.248 NA
ATOM     47  C   UNL A   1      43.593  25.476  26.336  1.00  0.00     0.031 C 
ATOM     48  C   UNL A   1      39.616  26.924  29.069  1.00  0.00     0.029 A 
ATOM     49  N   UNL A   1      41.269  28.401  28.800  1.00  0.00    -0.354 N 
ATOM     50  C   UNL A   1      44.865  27.352  26.639  1.00  0.00     0.074 A 
ATOM     51  C   UNL A   1      44.773  26.023  26.076  1.00  0.00     0.031 C 
ATOM     52  C   UNL A   1      39.211  28.078  29.617  1.00  0.00     0.029 A 
ATOM     53  C   UNL A   1      40.283  29.057  29.497  1.00  0.00     0.049 A 
ATOM     54  H   UNL A   1      42.126  28.819  28.558  1.00  0.00     0.167 HD
ATOM     55  C   UNL A   1      45.923  28.181  26.479  1.00  0.00     0.037 A 
ATOM     56  C   UNL A   1      40.250  30.302  30.009  1.00  0.00     0.037 A 
ATOM     57  C   UNL A   1      45.988  29.522  26.999  1.00  0.00     0.049 A 
ATOM     58  C   UNL A   1      41.447  31.190  29.834  1.00  0.00     0.074 A 
ATOM     59  C   UNL A   1      47.004  30.452  26.859  1.00  0.00     0.029 A 
ATOM     60  N   UNL A   1      44.992  30.128  27.751  1.00  0.00    -0.354 N 
ATOM     61  N   UNL A   1      42.559  30.954  29.183  1.00  0.00    -0.248 NA
ATOM     62  C   UNL A   1      41.394  32.509  30.478  1.00  0.00     0.031 C 
ATOM     63  C   UNL A   1      46.643  31.604  27.564  1.00  0.00     0.029 A 
ATOM     64  C   UNL A   1      45.381  31.411  28.102  1.00  0.00     0.049 A 
ATOM     65  H   UNL A   1      44.136  29.709  27.998  1.00  0.00     0.167 HD
ATOM     66  C   UNL A   1      43.339  32.090  29.338  1.00  0.00     0.074 A 
ATOM     67  C   UNL A   1      42.559  33.029  30.118  1.00  0.00     0.031 C 
ATOM     68  C   UNL A   1      44.593  32.328  28.884  1.00  0.00     0.037 A 
BRANCH  55  69
ATOM     69  C   UNL A   1      47.114  27.673  25.717  1.00  0.00     0.064 A 
ATOM     70  C   UNL A   1      47.188  27.754  24.319  1.00  0.00     0.173 A 
ATOM     71  C   UNL A   1      48.234  27.180  26.406  1.00  0.00     0.173 A 
ATOM     72  F   UNL A   1      46.141  28.206  23.614  1.00  0.00    -0.203 F 
ATOM     73  C   UNL A   1      48.335  27.352  23.639  1.00  0.00     0.198 A 
ATOM     74  C   UNL A   1      49.389  26.804  25.724  1.00  0.00     0.198 A 
ATOM     75  F   UNL A   1      48.219  27.089  27.744  1.00  0.00    -0.203 F 
ATOM     76  F   UNL A   1      48.373  27.413  22.300  1.00  0.00    -0.200 F 
ATOM     77  C   UNL A   1      49.437  26.888  24.341  1.00  0.00     0.200 A 
ATOM     78  F   UNL A   1      50.458  26.369  26.406  1.00  0.00    -0.200 F 
ATOM     79  F   UNL A   1      50.547  26.522  23.685  1.00  0.00    -0.200 F 
ENDBRANCH  55  69
BRANCH  56  80
ATOM     80  C   UNL A   1      39.049  30.757  30.757  1.00  0.00     0.064 A 
ATOM     81  C   UNL A   1      37.968  31.354  30.097  1.00  0.00     0.173 A 
ATOM     82  C   UNL A   1      38.942  30.568  32.144  1.00  0.00     0.173 A 
ATOM     83  F   UNL A   1      38.029  31.575  28.775  1.00  0.00    -0.203 F 
ATOM     84  C   UNL A   1      36.828  31.748  30.795  1.00  0.00     0.198 A 
ATOM     85  C   UNL A   1      37.790  30.930  32.835  1.00  0.00     0.198 A 
ATOM     86  F   UNL A   1      39.948  29.996  32.824  1.00  0.00    -0.203 F 
ATOM     87  F   UNL A   1      35.820  32.344  30.145  1.00  0.00    -0.200 F 
ATOM     88  C   UNL A   1      36.735  31.525  32.161  1.00  0.00     0.200 A 
ATOM     89  F   UNL A   1      37.697  30.693  34.151  1.00  0.00    -0.200 F 
ATOM     90  F   UNL A   1      35.630  31.885  32.828  1.00  0.00    -0.200 F 
ENDBRANCH  56  80
BRANCH  68  91
ATOM     91  C   UNL A   1      45.202  33.657  29.217  1.00  0.00     0.064 A 
ATOM     92  C   UNL A   1      45.970  33.836  30.377  1.00  0.00     0.173 A 
ATOM     93  C   UNL A   1      45.071  34.743  28.339  1.00  0.00     0.173 A 
ATOM     94  F   UNL A   1      46.111  32.830  31.254  1.00  0.00    -0.203 F 
ATOM     95  C   UNL A   1      46.573  35.059  30.653  1.00  0.00     0.198 A 
ATOM     96  C   UNL A   1      45.699  35.956  28.604  1.00  0.00     0.198 A 
ATOM     97  F   UNL A   1      44.353  34.619  27.212  1.00  0.00    -0.203 F 
ATOM     98  F   UNL A   1      47.272  35.219  31.785  1.00  0.00    -0.200 F 
ATOM     99  C   UNL A   1      46.444  36.114  29.762  1.00  0.00     0.200 A 
ATOM    100  F   UNL A   1      45.586  36.971  27.735  1.00  0.00    -0.200 F 
ATOM    101  F   UNL A   1      47.038  37.288  30.022  1.00  0.00    -0.200 F 
ENDBRANCH  68  91
ENDBRANCH  42  43
ENDBRANCH  34  37
ENDBRANCH  32  33
ENDBRANCH  31  32
ENDBRANCH  30  31
ENDBRANCH   3  30
TORSDOF 15
ENDMDL
MODEL 2
REMARK VINA RESULT:     -13.0      4.265      7.928
REMARK SMILES CCCCc1ncc(C[N@H+]2C[C@@H]3c4ccccc4OC[C@]3(C(=O)NCCCNC(=O)c3ccc(-c4c5nc(c(-c6c(F)c(F)c(F)c(F)c6F)c6ccc([nH]6)c(-c6c(F)c(F)c(F)c(F)c6F)c6nc(c(-c7c(F)c(F)c(F)c(F)c7F)c7ccc4[nH]7)C=C6)C=C5)cc3)C2)[nH]1
REMARK SMILES IDX 22 1 23 2 24 3 21 5 10 6 11 7 94 8 12 10 13 11 20 12 14 13
REMARK SMILES IDX 18 14 19 15 15 16 17 17 16 18 9 19 8 20 5 21 6 22 95 23 7 24
REMARK SMILES IDX 4 26 3 27 2 28 1 29 25 30 26 31 27 32 28 33 29 34 30 36
REMARK SMILES IDX 31 37 32 38 93 39 33 40 92 41 34 42 35 43 36 44 86 45 37 46
REMARK SMILES IDX 91 47 85 48 87 49 38 50 90 51 84 52 83 53 39 55 71 56 51 57
REMARK SMILES IDX 70 58 52 59 55 60 69 61 88 62 53 63 54 64 68 66 89 67 56 68
REMARK SMILES IDX 40 69 41 70 49 71 42 72 43 73 47 74 50 75 44 76 45 77 48 78
REMARK SMILES IDX 46 79 72 80 73 81 81 82 74 83 75 84 79 85 82 86 76 87 77 88
REMARK SMILES IDX 80 89 78 90 57 91 58 92 66 93 59 94 60 95 64 96 67 97 61 98
REMARK SMILES IDX 62 99 65 100 63 101
REMARK H PARENT 24 4 10 9 95 25 28 35 87 54 55 65
REMARK Flexibility Score: inf
ROOT
ATOM      1  C   UNL A   1      33.653  26.296  22.937  1.00  0.00     0.236 C 
ATOM      2  O   UNL A   1      33.619  26.298  21.705  1.00  0.00    -0.274 OA
ATOM      3  N   UNL A   1      34.281  27.361  23.571  1.00  0.00    -0.355 N 
ATOM      4  H   UNL A   1      35.024  27.785  23.082  1.00  0.00     0.163 HD
ENDROOT
BRANCH   1   5
ATOM      5  C   UNL A   1      33.064  25.143  23.854  1.00  0.00     0.144 C 
ATOM      6  N   UNL A   1      30.757  25.436  24.430  1.00  0.00    -0.328 N 
ATOM      7  C   UNL A   1      30.955  23.999  24.485  1.00  0.00     0.272 C 
ATOM      8  C   UNL A   1      31.718  25.883  23.425  1.00  0.00     0.284 C 
ATOM      9  H   UNL A   1      30.931  25.877  25.332  1.00  0.00     0.348 HD
ATOM     10  C   UNL A   1      32.244  23.778  23.660  1.00  0.00     0.103 C 
ATOM     11  C   UNL A   1      32.838  22.447  24.041  1.00  0.00     0.004 A 
ATOM     12  C   UNL A   1      34.498  24.508  23.596  1.00  0.00     0.253 C 
ATOM     13  C   UNL A   1      32.099  21.256  23.940  1.00  0.00     0.008 A 
ATOM     14  C   UNL A   1      34.161  22.382  24.442  1.00  0.00     0.123 A 
ATOM     15  O   UNL A   1      34.881  23.528  24.587  1.00  0.00    -0.492 OA
ATOM     16  C   UNL A   1      32.691  20.028  24.227  1.00  0.00     0.001 A 
ATOM     17  C   UNL A   1      34.767  21.158  24.720  1.00  0.00     0.047 A 
ATOM     18  C   UNL A   1      34.031  19.976  24.601  1.00  0.00     0.004 A 
BRANCH   6  19
ATOM     19  C   UNL A   1      29.375  25.884  24.249  1.00  0.00     0.319 C 
BRANCH  19  20
ATOM     20  C   UNL A   1      29.251  27.118  23.436  1.00  0.00     0.090 A 
ATOM     21  C   UNL A   1      28.368  29.035  22.774  1.00  0.00     0.106 A 
ATOM     22  N   UNL A   1      29.602  29.051  22.318  1.00  0.00    -0.241 NA
ATOM     23  N   UNL A   1      28.074  27.809  23.309  1.00  0.00    -0.341 N 
ATOM     24  C   UNL A   1      30.157  27.860  22.713  1.00  0.00     0.140 A 
ATOM     25  H   UNL A   1      27.178  27.482  23.556  1.00  0.00     0.168 HD
BRANCH  21  26
ATOM     26  C   UNL A   1      27.392  30.160  22.818  1.00  0.00     0.075 C 
BRANCH  26  27
ATOM     27  C   UNL A   1      27.958  31.422  23.465  1.00  0.00     0.008 C 
BRANCH  27  28
ATOM     28  C   UNL A   1      28.492  32.481  22.494  1.00  0.00    -0.003 C 
ATOM     29  C   UNL A   1      28.100  32.242  21.043  1.00  0.00     0.004 C 
ENDBRANCH  27  28
ENDBRANCH  26  27
ENDBRANCH  21  26
ENDBRANCH  19  20
ENDBRANCH   6  19
ENDBRANCH   1   5
BRANCH   3  30
ATOM     30  C   UNL A   1      33.962  27.922  24.885  1.00  0.00     0.117 C 
BRANCH  30  31
ATOM     31  C   UNL A   1      33.115  29.176  24.872  1.00  0.00     0.042 C 
BRANCH  31  32
ATOM     32  C   UNL A   1      32.443  29.484  26.197  1.00  0.00     0.118 C 
BRANCH  32  33
ATOM     33  N   UNL A   1      32.336  30.912  26.486  1.00  0.00    -0.352 N 
ATOM     34  C   UNL A   1      33.148  31.766  27.197  1.00  0.00     0.251 C 
ATOM     35  H   UNL A   1      31.537  31.342  26.104  1.00  0.00     0.163 HD
ATOM     36  O   UNL A   1      32.770  32.914  27.424  1.00  0.00    -0.269 OA
BRANCH  34  37
ATOM     37  C   UNL A   1      34.445  31.304  27.738  1.00  0.00     0.039 A 
ATOM     38  C   UNL A   1      34.643  29.967  28.062  1.00  0.00     0.014 A 
ATOM     39  C   UNL A   1      35.481  32.223  27.941  1.00  0.00     0.014 A 
ATOM     40  C   UNL A   1      35.737  29.601  28.829  1.00  0.00     0.010 A 
ATOM     41  C   UNL A   1      36.657  31.817  28.582  1.00  0.00     0.010 A 
ATOM     42  C   UNL A   1      36.765  30.517  29.097  1.00  0.00    -0.014 A 
BRANCH  42  43
ATOM     43  C   UNL A   1      37.925  30.076  29.919  1.00  0.00     0.031 A 
ATOM     44  C   UNL A   1      38.992  29.187  29.337  1.00  0.00     0.074 A 
ATOM     45  C   UNL A   1      38.056  30.552  31.174  1.00  0.00     0.049 A 
ATOM     46  N   UNL A   1      40.073  28.714  29.907  1.00  0.00    -0.248 NA
ATOM     47  C   UNL A   1      38.829  28.766  27.936  1.00  0.00     0.031 C 
ATOM     48  C   UNL A   1      37.095  31.430  31.845  1.00  0.00     0.029 A 
ATOM     49  N   UNL A   1      39.062  30.402  32.096  1.00  0.00    -0.354 N 
ATOM     50  C   UNL A   1      40.693  27.918  28.954  1.00  0.00     0.074 A 
ATOM     51  C   UNL A   1      39.863  27.952  27.770  1.00  0.00     0.031 C 
ATOM     52  C   UNL A   1      37.591  31.803  33.033  1.00  0.00     0.029 A 
ATOM     53  C   UNL A   1      38.858  31.117  33.250  1.00  0.00     0.049 A 
ATOM     54  H   UNL A   1      39.854  29.837  31.944  1.00  0.00     0.167 HD
ATOM     55  C   UNL A   1      41.854  27.229  29.056  1.00  0.00     0.037 A 
ATOM     56  C   UNL A   1      39.593  31.196  34.375  1.00  0.00     0.037 A 
ATOM     57  C   UNL A   1      42.702  27.239  30.220  1.00  0.00     0.049 A 
ATOM     58  C   UNL A   1      40.865  30.405  34.468  1.00  0.00     0.074 A 
ATOM     59  C   UNL A   1      43.916  26.601  30.406  1.00  0.00     0.029 A 
ATOM     60  N   UNL A   1      42.429  27.930  31.391  1.00  0.00    -0.354 N 
ATOM     61  N   UNL A   1      41.431  29.648  33.560  1.00  0.00    -0.248 NA
ATOM     62  C   UNL A   1      41.590  30.462  35.743  1.00  0.00     0.031 C 
ATOM     63  C   UNL A   1      44.356  26.868  31.705  1.00  0.00     0.029 A 
ATOM     64  C   UNL A   1      43.441  27.713  32.313  1.00  0.00     0.049 A 
ATOM     65  H   UNL A   1      41.634  28.491  31.545  1.00  0.00     0.167 HD
ATOM     66  C   UNL A   1      42.577  29.138  34.152  1.00  0.00     0.074 A 
ATOM     67  C   UNL A   1      42.643  29.698  35.486  1.00  0.00     0.031 C 
ATOM     68  C   UNL A   1      43.486  28.274  33.638  1.00  0.00     0.037 A 
BRANCH  55  69
ATOM     69  C   UNL A   1      42.289  26.391  27.887  1.00  0.00     0.064 A 
ATOM     70  C   UNL A   1      41.777  25.104  27.668  1.00  0.00     0.173 A 
ATOM     71  C   UNL A   1      43.164  26.922  26.925  1.00  0.00     0.173 A 
ATOM     72  F   UNL A   1      40.948  24.547  28.562  1.00  0.00    -0.203 F 
ATOM     73  C   UNL A   1      42.132  24.377  26.534  1.00  0.00     0.198 A 
ATOM     74  C   UNL A   1      43.495  26.202  25.780  1.00  0.00     0.198 A 
ATOM     75  F   UNL A   1      43.676  28.152  27.083  1.00  0.00    -0.203 F 
ATOM     76  F   UNL A   1      41.651  23.138  26.359  1.00  0.00    -0.200 F 
ATOM     77  C   UNL A   1      42.981  24.930  25.587  1.00  0.00     0.200 A 
ATOM     78  F   UNL A   1      44.305  26.744  24.859  1.00  0.00    -0.200 F 
ATOM     79  F   UNL A   1      43.304  24.236  24.487  1.00  0.00    -0.200 F 
ENDBRANCH  55  69
BRANCH  56  80
ATOM     80  C   UNL A   1      39.119  32.038  35.505  1.00  0.00     0.064 A 
ATOM     81  C   UNL A   1      38.339  31.496  36.534  1.00  0.00     0.173 A 
ATOM     82  C   UNL A   1      39.471  33.394  35.598  1.00  0.00     0.173 A 
ATOM     83  F   UNL A   1      37.959  30.210  36.481  1.00  0.00    -0.203 F 
ATOM     84  C   UNL A   1      37.925  32.279  37.611  1.00  0.00     0.198 A 
ATOM     85  C   UNL A   1      39.086  34.166  36.690  1.00  0.00     0.198 A 
ATOM     86  F   UNL A   1      40.221  33.960  34.641  1.00  0.00    -0.203 F 
ATOM     87  F   UNL A   1      37.154  31.744  38.566  1.00  0.00    -0.200 F 
ATOM     88  C   UNL A   1      38.309  33.609  37.693  1.00  0.00     0.200 A 
ATOM     89  F   UNL A   1      39.477  35.444  36.776  1.00  0.00    -0.200 F 
ATOM     90  F   UNL A   1      37.928  34.355  38.739  1.00  0.00    -0.200 F 
ENDBRANCH  56  80
BRANCH  68  91
ATOM     91  C   UNL A   1      44.633  27.880  34.520  1.00  0.00     0.064 A 
ATOM     92  C   UNL A   1      45.801  28.653  34.584  1.00  0.00     0.173 A 
ATOM     93  C   UNL A   1      44.538  26.758  35.356  1.00  0.00     0.173 A 
ATOM     94  F   UNL A   1      45.943  29.728  33.793  1.00  0.00    -0.203 F 
ATOM     95  C   UNL A   1      46.841  28.307  35.442  1.00  0.00     0.198 A 
ATOM     96  C   UNL A   1      45.567  26.431  36.233  1.00  0.00     0.198 A 
ATOM     97  F   UNL A   1      43.437  25.991  35.336  1.00  0.00    -0.203 F 
ATOM     98  F   UNL A   1      47.963  29.039  35.460  1.00  0.00    -0.200 F 
ATOM     99  C   UNL A   1      46.719  27.203  36.271  1.00  0.00     0.200 A 
ATOM    100  F   UNL A   1      45.443  25.371  37.044  1.00  0.00    -0.200 F 
ATOM    101  F   UNL A   1      47.715  26.878  37.108  1.00  0.00    -0.200 F 
ENDBRANCH  68  91
ENDBRANCH  42  43
ENDBRANCH  34  37
ENDBRANCH  32  33
ENDBRANCH  31  32
ENDBRANCH  30  31
ENDBRANCH   3  30
TORSDOF 15
ENDMDL
MODEL 3
REMARK VINA RESULT:     -12.9      4.267     10.198
REMARK SMILES CCCCc1ncc(C[N@H+]2C[C@@H]3c4ccccc4OC[C@]3(C(=O)NCCCNC(=O)c3ccc(-c4c5nc(c(-c6c(F)c(F)c(F)c(F)c6F)c6ccc([nH]6)c(-c6c(F)c(F)c(F)c(F)c6F)c6nc(c(-c7c(F)c(F)c(F)c(F)c7F)c7ccc4[nH]7)C=C6)C=C5)cc3)C2)[nH]1
REMARK SMILES IDX 22 1 23 2 24 3 21 5 10 6 11 7 94 8 12 10 13 11 20 12 14 13
REMARK SMILES IDX 18 14 19 15 15 16 17 17 16 18 9 19 8 20 5 21 6 22 95 23 7 24
REMARK SMILES IDX 4 26 3 27 2 28 1 29 25 30 26 31 27 32 28 33 29 34 30 36
REMARK SMILES IDX 31 37 32 38 93 39 33 40 92 41 34 42 35 43 36 44 86 45 37 46
REMARK SMILES IDX 91 47 85 48 87 49 38 50 90 51 84 52 83 53 39 55 71 56 51 57
REMARK SMILES IDX 70 58 52 59 55 60 69 61 88 62 53 63 54 64 68 66 89 67 56 68
REMARK SMILES IDX 40 69 41 70 49 71 42 72 43 73 47 74 50 75 44 76 45 77 48 78
REMARK SMILES IDX 46 79 72 80 73 81 81 82 74 83 75 84 79 85 82 86 76 87 77 88
REMARK SMILES IDX 80 89 78 90 57 91 58 92 66 93 59 94 60 95 64 96 67 97 61 98
REMARK SMILES IDX 62 99 65 100 63 101
REMARK H PARENT 24 4 10 9 95 25 28 35 87 54 55 65
REMARK Flexibility Score: inf
ROOT
ATOM      1  C   UNL A   1      33.473  26.744  25.138  1.00  0.00     0.236 C 
ATOM      2  O   UNL A   1      34.114  27.057  24.131  1.00  0.00    -0.274 OA
ATOM      3  N   UNL A   1      33.494  27.619  26.218  1.00  0.00    -0.355 N 
ATOM      4  H   UNL A   1      34.311  28.156  26.330  1.00  0.00     0.163 HD
ENDROOT
BRANCH   1   5
ATOM      5  C   UNL A   1      32.658  25.394  25.305  1.00  0.00     0.144 C 
ATOM      6  N   UNL A   1      30.351  25.563  24.679  1.00  0.00    -0.328 N 
ATOM      7  C   UNL A   1      30.673  24.165  24.466  1.00  0.00     0.272 C 
ATOM      8  C   UNL A   1      31.619  26.252  24.452  1.00  0.00     0.284 C 
ATOM      9  H   UNL A   1      30.000  25.732  25.621  1.00  0.00     0.348 HD
ATOM     10  C   UNL A   1      32.217  24.155  24.386  1.00  0.00     0.103 C 
ATOM     11  C   UNL A   1      32.706  22.758  24.670  1.00  0.00     0.004 A 
ATOM     12  C   UNL A   1      34.098  24.826  25.663  1.00  0.00     0.253 C 
ATOM     13  C   UNL A   1      32.268  21.658  23.913  1.00  0.00     0.008 A 
ATOM     14  C   UNL A   1      33.655  22.556  25.657  1.00  0.00     0.123 A 
ATOM     15  O   UNL A   1      34.060  23.601  26.430  1.00  0.00    -0.492 OA
ATOM     16  C   UNL A   1      32.788  20.386  24.143  1.00  0.00     0.001 A 
ATOM     17  C   UNL A   1      34.191  21.290  25.888  1.00  0.00     0.047 A 
ATOM     18  C   UNL A   1      33.764  20.204  25.120  1.00  0.00     0.004 A 
BRANCH   6  19
ATOM     19  C   UNL A   1      29.196  26.073  23.939  1.00  0.00     0.319 C 
BRANCH  19  20
ATOM     20  C   UNL A   1      29.340  27.484  23.507  1.00  0.00     0.090 A 
ATOM     21  C   UNL A   1      28.669  29.490  22.862  1.00  0.00     0.106 A 
ATOM     22  N   UNL A   1      29.901  29.664  23.289  1.00  0.00    -0.241 NA
ATOM     23  N   UNL A   1      28.360  28.157  22.825  1.00  0.00    -0.341 N 
ATOM     24  C   UNL A   1      30.333  28.421  23.682  1.00  0.00     0.140 A 
ATOM     25  H   UNL A   1      27.576  27.754  22.386  1.00  0.00     0.168 HD
BRANCH  21  26
ATOM     26  C   UNL A   1      27.661  30.535  22.524  1.00  0.00     0.075 C 
BRANCH  26  27
ATOM     27  C   UNL A   1      27.848  31.828  23.314  1.00  0.00     0.008 C 
BRANCH  27  28
ATOM     28  C   UNL A   1      28.551  32.966  22.564  1.00  0.00    -0.003 C 
ATOM     29  C   UNL A   1      29.493  33.786  23.432  1.00  0.00     0.004 C 
ENDBRANCH  27  28
ENDBRANCH  26  27
ENDBRANCH  21  26
ENDBRANCH  19  20
ENDBRANCH   6  19
ENDBRANCH   1   5
BRANCH   3  30
ATOM     30  C   UNL A   1      32.435  27.829  27.206  1.00  0.00     0.117 C 
BRANCH  30  31
ATOM     31  C   UNL A   1      31.799  29.202  27.200  1.00  0.00     0.042 C 
BRANCH  31  32
ATOM     32  C   UNL A   1      32.450  30.182  26.243  1.00  0.00     0.118 C 
BRANCH  32  33
ATOM     33  N   UNL A   1      32.332  31.579  26.657  1.00  0.00    -0.352 N 
ATOM     34  C   UNL A   1      33.153  32.383  27.415  1.00  0.00     0.251 C 
ATOM     35  H   UNL A   1      31.515  32.026  26.336  1.00  0.00     0.163 HD
ATOM     36  O   UNL A   1      32.764  33.500  27.750  1.00  0.00    -0.269 OA
BRANCH  34  37
ATOM     37  C   UNL A   1      34.471  31.898  27.876  1.00  0.00     0.039 A 
ATOM     38  C   UNL A   1      34.661  30.561  28.203  1.00  0.00     0.014 A 
ATOM     39  C   UNL A   1      35.538  32.796  28.001  1.00  0.00     0.014 A 
ATOM     40  C   UNL A   1      35.795  30.179  28.903  1.00  0.00     0.010 A 
ATOM     41  C   UNL A   1      36.744  32.371  28.570  1.00  0.00     0.010 A 
ATOM     42  C   UNL A   1      36.857  31.075  29.093  1.00  0.00    -0.014 A 
BRANCH  42  43
ATOM     43  C   UNL A   1      38.059  30.617  29.844  1.00  0.00     0.031 A 
ATOM     44  C   UNL A   1      38.258  30.994  31.288  1.00  0.00     0.074 A 
ATOM     45  C   UNL A   1      38.931  29.786  29.238  1.00  0.00     0.049 A 
ATOM     46  N   UNL A   1      39.241  30.676  32.095  1.00  0.00    -0.248 NA
ATOM     47  C   UNL A   1      37.228  31.839  31.914  1.00  0.00     0.031 C 
ATOM     48  C   UNL A   1      38.838  29.339  27.846  1.00  0.00     0.029 A 
ATOM     49  N   UNL A   1      40.040  29.136  29.717  1.00  0.00    -0.354 N 
ATOM     50  C   UNL A   1      38.967  31.309  33.300  1.00  0.00     0.074 A 
ATOM     51  C   UNL A   1      37.736  32.046  33.121  1.00  0.00     0.031 C 
ATOM     52  C   UNL A   1      39.796  28.433  27.607  1.00  0.00     0.029 A 
ATOM     53  C   UNL A   1      40.629  28.304  28.796  1.00  0.00     0.049 A 
ATOM     54  H   UNL A   1      40.381  29.254  30.633  1.00  0.00     0.167 HD
ATOM     55  C   UNL A   1      39.676  31.269  34.453  1.00  0.00     0.037 A 
ATOM     56  C   UNL A   1      41.733  27.539  28.884  1.00  0.00     0.037 A 
ATOM     57  C   UNL A   1      40.875  30.493  34.640  1.00  0.00     0.049 A 
ATOM     58  C   UNL A   1      42.510  27.532  30.168  1.00  0.00     0.074 A 
ATOM     59  C   UNL A   1      41.645  30.360  35.783  1.00  0.00     0.029 A 
ATOM     60  N   UNL A   1      41.472  29.710  33.663  1.00  0.00    -0.354 N 
ATOM     61  N   UNL A   1      42.243  28.145  31.295  1.00  0.00    -0.248 NA
ATOM     62  C   UNL A   1      43.749  26.744  30.189  1.00  0.00     0.031 C 
ATOM     63  C   UNL A   1      42.732  29.534  35.485  1.00  0.00     0.029 A 
ATOM     64  C   UNL A   1      42.613  29.112  34.171  1.00  0.00     0.049 A 
ATOM     65  H   UNL A   1      41.133  29.597  32.745  1.00  0.00     0.167 HD
ATOM     66  C   UNL A   1      43.278  27.820  32.159  1.00  0.00     0.074 A 
ATOM     67  C   UNL A   1      44.161  26.928  31.435  1.00  0.00     0.031 C 
ATOM     68  C   UNL A   1      43.483  28.232  33.433  1.00  0.00     0.037 A 
BRANCH  55  69
ATOM     69  C   UNL A   1      39.192  32.091  35.613  1.00  0.00     0.064 A 
ATOM     70  C   UNL A   1      38.350  31.557  36.599  1.00  0.00     0.173 A 
ATOM     71  C   UNL A   1      39.651  33.407  35.786  1.00  0.00     0.173 A 
ATOM     72  F   UNL A   1      37.874  30.309  36.475  1.00  0.00    -0.203 F 
ATOM     73  C   UNL A   1      37.978  32.311  37.709  1.00  0.00     0.198 A 
ATOM     74  C   UNL A   1      39.299  34.150  36.910  1.00  0.00     0.198 A 
ATOM     75  F   UNL A   1      40.465  33.964  34.876  1.00  0.00    -0.203 F 
ATOM     76  F   UNL A   1      37.151  31.789  38.625  1.00  0.00    -0.200 F 
ATOM     77  C   UNL A   1      38.462  33.602  37.869  1.00  0.00     0.200 A 
ATOM     78  F   UNL A   1      39.779  35.391  37.070  1.00  0.00    -0.200 F 
ATOM     79  F   UNL A   1      38.119  34.318  38.949  1.00  0.00    -0.200 F 
ENDBRANCH  55  69
BRANCH  56  80
ATOM     80  C   UNL A   1      42.172  26.745  27.707  1.00  0.00     0.064 A 
ATOM     81  C   UNL A   1      43.138  27.237  26.821  1.00  0.00     0.173 A 
ATOM     82  C   UNL A   1      41.661  25.460  27.467  1.00  0.00     0.173 A 
ATOM     83  F   UNL A   1      43.643  28.468  26.996  1.00  0.00    -0.203 F 
ATOM     84  C   UNL A   1      43.574  26.476  25.738  1.00  0.00     0.198 A 
ATOM     85  C   UNL A   1      42.121  24.687  26.405  1.00  0.00     0.198 A 
ATOM     86  F   UNL A   1      40.736  24.940  28.289  1.00  0.00    -0.203 F 
ATOM     87  F   UNL A   1      44.477  26.982  24.888  1.00  0.00    -0.200 F 
ATOM     88  C   UNL A   1      43.074  25.198  25.538  1.00  0.00     0.200 A 
ATOM     89  F   UNL A   1      41.650  23.445  26.229  1.00  0.00    -0.200 F 
ATOM     90  F   UNL A   1      43.509  24.459  24.508  1.00  0.00    -0.200 F 
ENDBRANCH  56  80
BRANCH  68  91
ATOM     91  C   UNL A   1      44.710  27.724  34.130  1.00  0.00     0.064 A 
ATOM     92  C   UNL A   1      45.906  28.456  34.125  1.00  0.00     0.173 A 
ATOM     93  C   UNL A   1      44.670  26.528  34.862  1.00  0.00     0.173 A 
ATOM     94  F   UNL A   1      45.995  29.597  33.426  1.00  0.00    -0.203 F 
ATOM     95  C   UNL A   1      47.025  28.000  34.815  1.00  0.00     0.198 A 
ATOM     96  C   UNL A   1      45.782  26.090  35.575  1.00  0.00     0.198 A 
ATOM     97  F   UNL A   1      43.546  25.797  34.904  1.00  0.00    -0.203 F 
ATOM     98  F   UNL A   1      48.169  28.696  34.767  1.00  0.00    -0.200 F 
ATOM     99  C   UNL A   1      46.959  26.824  35.547  1.00  0.00     0.200 A 
ATOM    100  F   UNL A   1      45.714  24.960  36.293  1.00  0.00    -0.200 F 
ATOM    101  F   UNL A   1      48.033  26.393  36.224  1.00  0.00    -0.200 F 
ENDBRANCH  68  91
ENDBRANCH  42  43
ENDBRANCH  34  37
ENDBRANCH  32  33
ENDBRANCH  31  32
ENDBRANCH  30  31
ENDBRANCH   3  30
TORSDOF 15
ENDMDL
