MODEL 1
REMARK VINA RESULT:     -12.4      0.000      0.000
REMARK SMILES N#C/C(=C/c1cccn1-c1ccc(C(=O)NCCCNC(=O)c2ccc(-c3c4nc(c(-c5c(F)c(F)c(F)c(F)c5F)c5ccc([nH]5)c(-c5c(F)c(F)c(F)c(F)c5F)c5nc(c(-c6c(F)c(F)c(F)c(F)c6F)c6ccc3[nH]6)C=C5)C=C4)cc2)cc1)C(=O)Nc1ccc(O)cc1
REMARK SMILES IDX 14 1 15 2 16 3 13 5 10 6 11 7 87 8 12 9 86 10 9 11 5 12 6 13
REMARK SMILES IDX 7 14 8 15 4 16 3 17 2 18 1 19 88 20 89 21 90 22 91 24 92 25
REMARK SMILES IDX 97 26 93 27 96 28 94 29 95 30 17 32 18 33 19 34 20 35 21 36
REMARK SMILES IDX 22 38 23 39 24 40 85 41 25 42 84 43 26 44 27 45 28 46 78 47
REMARK SMILES IDX 29 48 83 49 77 50 79 51 30 52 82 53 76 54 75 55 31 57 63 58
REMARK SMILES IDX 43 59 62 60 44 61 47 62 61 63 80 64 45 65 46 66 60 68 81 69
REMARK SMILES IDX 48 70 32 71 33 72 41 73 34 74 35 75 39 76 42 77 36 78 37 79
REMARK SMILES IDX 40 80 38 81 64 82 65 83 73 84 66 85 67 86 71 87 74 88 68 89
REMARK SMILES IDX 69 90 72 91 70 92 49 93 50 94 58 95 51 96 52 97 56 98 59 99
REMARK SMILES IDX 53 100 54 101 57 102 55 103
REMARK H PARENT 16 4 90 23 95 31 20 37 79 56 47 67
REMARK Flexibility Score: inf
ROOT
ATOM      1  C   UNL A   1      45.315  41.882  28.403  1.00  0.00     0.251 C 
ATOM      2  O   UNL A   1      46.106  42.085  29.322  1.00  0.00    -0.269 OA
ATOM      3  N   UNL A   1      44.254  41.034  28.626  1.00  0.00    -0.352 N 
ATOM      4  H   UNL A   1      44.240  40.645  29.531  1.00  0.00     0.163 HD
ENDROOT
BRANCH   1   5
ATOM      5  C   UNL A   1      45.515  42.574  27.102  1.00  0.00     0.039 A 
ATOM      6  C   UNL A   1      45.957  43.868  24.665  1.00  0.00     0.046 A 
ATOM      7  C   UNL A   1      45.502  44.619  25.764  1.00  0.00     0.027 A 
ATOM      8  C   UNL A   1      46.046  42.479  24.752  1.00  0.00     0.027 A 
ATOM      9  C   UNL A   1      45.257  43.952  26.980  1.00  0.00     0.016 A 
ATOM     10  C   UNL A   1      45.982  41.885  25.991  1.00  0.00     0.016 A 
BRANCH   6  11
ATOM     11  N   UNL A   1      46.666  44.594  23.346  1.00  0.00    -0.317 N 
ATOM     12  C   UNL A   1      45.617  44.985  22.564  1.00  0.00     0.047 A 
ATOM     13  C   UNL A   1      46.616  45.850  22.720  1.00  0.00     0.028 A 
ATOM     14  C   UNL A   1      48.526  45.454  21.971  1.00  0.00     0.020 A 
ATOM     15  C   UNL A   1      48.436  44.409  22.467  1.00  0.00     0.092 A 
BRANCH  12  16
ATOM     16  C   UNL A   1      44.281  44.669  22.483  1.00  0.00     0.052 C 
ATOM     17  C   UNL A   1      43.943  43.660  21.649  1.00  0.00     0.119 C 
BRANCH  17  18
ATOM     18  C   UNL A   1      42.455  43.374  21.536  1.00  0.00     0.105 C 
ATOM     19  N   UNL A   1      41.220  43.136  21.443  1.00  0.00    -0.192 NA
ENDBRANCH  17  18
BRANCH  17  20
ATOM     20  C   UNL A   1      44.867  42.868  20.725  1.00  0.00     0.266 C 
ATOM     21  O   UNL A   1      45.386  41.837  21.166  1.00  0.00    -0.268 OA
ATOM     22  N   UNL A   1      45.128  43.180  19.403  1.00  0.00    -0.321 N 
ATOM     23  H   UNL A   1      45.741  42.574  18.929  1.00  0.00     0.170 HD
BRANCH  22  24
ATOM     24  C   UNL A   1      44.619  44.269  18.642  1.00  0.00     0.041 A 
ATOM     25  C   UNL A   1      42.860  43.889  17.803  1.00  0.00     0.030 A 
ATOM     26  C   UNL A   1      45.498  46.009  19.029  1.00  0.00     0.030 A 
ATOM     27  C   UNL A   1      41.831  45.515  17.200  1.00  0.00     0.048 A 
ATOM     28  C   UNL A   1      44.507  47.646  18.377  1.00  0.00     0.048 A 
ATOM     29  C   UNL A   1      42.746  47.232  17.565  1.00  0.00     0.115 A 
BRANCH  29  30
ATOM     30  O   UNL A   1      41.987  48.346  17.220  1.00  0.00    -0.508 OA
ATOM     31  H   UNL A   1      42.087  49.147  17.697  1.00  0.00     0.293 HD
ENDBRANCH  29  30
ENDBRANCH  22  24
ENDBRANCH  17  20
ENDBRANCH  12  16
ENDBRANCH   6  11
ENDBRANCH   1   5
BRANCH   3  32
ATOM     32  C   UNL A   1      43.144  40.598  27.784  1.00  0.00     0.118 C 
BRANCH  32  33
ATOM     33  C   UNL A   1      42.607  39.231  28.249  1.00  0.00     0.042 C 
BRANCH  33  34
ATOM     34  C   UNL A   1      42.618  38.255  27.089  1.00  0.00     0.118 C 
BRANCH  34  35
ATOM     35  N   UNL A   1      43.928  37.623  26.990  1.00  0.00    -0.352 N 
ATOM     36  C   UNL A   1      44.537  36.734  27.830  1.00  0.00     0.251 C 
ATOM     37  H   UNL A   1      44.453  37.877  26.198  1.00  0.00     0.163 HD
ATOM     38  O   UNL A   1      45.761  36.644  27.822  1.00  0.00    -0.269 OA
BRANCH  36  39
ATOM     39  C   UNL A   1      43.743  35.833  28.681  1.00  0.00     0.039 A 
ATOM     40  C   UNL A   1      43.559  36.171  30.027  1.00  0.00     0.014 A 
ATOM     41  C   UNL A   1      43.317  34.592  28.195  1.00  0.00     0.014 A 
ATOM     42  C   UNL A   1      42.969  35.249  30.883  1.00  0.00     0.010 A 
ATOM     43  C   UNL A   1      42.675  33.698  29.022  1.00  0.00     0.010 A 
ATOM     44  C   UNL A   1      42.537  34.014  30.369  1.00  0.00    -0.014 A 
BRANCH  44  45
ATOM     45  C   UNL A   1      41.660  33.153  31.174  1.00  0.00     0.031 A 
ATOM     46  C   UNL A   1      40.207  33.796  31.080  1.00  0.00     0.074 A 
ATOM     47  C   UNL A   1      42.287  32.063  31.764  1.00  0.00     0.049 A 
ATOM     48  N   UNL A   1      39.212  33.734  31.901  1.00  0.00    -0.248 NA
ATOM     49  C   UNL A   1      39.820  34.687  29.926  1.00  0.00     0.031 C 
ATOM     50  C   UNL A   1      43.689  31.608  31.505  1.00  0.00     0.029 A 
ATOM     51  N   UNL A   1      41.913  31.063  32.644  1.00  0.00    -0.354 N 
ATOM     52  C   UNL A   1      38.063  34.302  31.286  1.00  0.00     0.074 A 
ATOM     53  C   UNL A   1      38.534  34.997  30.135  1.00  0.00     0.031 C 
ATOM     54  C   UNL A   1      44.057  30.572  32.309  1.00  0.00     0.029 A 
ATOM     55  C   UNL A   1      42.954  30.212  33.174  1.00  0.00     0.049 A 
ATOM     56  H   UNL A   1      40.972  30.936  32.901  1.00  0.00     0.167 HD
ATOM     57  C   UNL A   1      36.796  33.978  31.700  1.00  0.00     0.037 A 
ATOM     58  C   UNL A   1      42.887  29.344  34.255  1.00  0.00     0.037 A 
ATOM     59  C   UNL A   1      36.911  33.102  32.816  1.00  0.00     0.049 A 
ATOM     60  C   UNL A   1      41.455  29.352  34.550  1.00  0.00     0.074 A 
ATOM     61  C   UNL A   1      37.341  33.358  34.092  1.00  0.00     0.029 A 
ATOM     62  N   UNL A   1      37.086  31.771  32.515  1.00  0.00    -0.354 N 
ATOM     63  N   UNL A   1      40.557  28.809  33.786  1.00  0.00    -0.248 NA
ATOM     64  C   UNL A   1      40.991  30.201  35.647  1.00  0.00     0.031 C 
ATOM     65  C   UNL A   1      38.310  32.353  34.248  1.00  0.00     0.029 A 
ATOM     66  C   UNL A   1      38.052  31.301  33.361  1.00  0.00     0.049 A 
ATOM     67  H   UNL A   1      36.607  31.258  31.825  1.00  0.00     0.167 HD
ATOM     68  C   UNL A   1      39.448  29.553  34.089  1.00  0.00     0.074 A 
ATOM     69  C   UNL A   1      39.689  30.162  35.391  1.00  0.00     0.031 C 
ATOM     70  C   UNL A   1      38.675  30.042  33.082  1.00  0.00     0.037 A 
BRANCH  57  71
ATOM     71  C   UNL A   1      35.407  34.087  31.130  1.00  0.00     0.064 A 
ATOM     72  C   UNL A   1      35.193  33.546  29.828  1.00  0.00     0.173 A 
ATOM     73  C   UNL A   1      34.467  35.021  31.569  1.00  0.00     0.173 A 
ATOM     74  F   UNL A   1      36.009  32.600  29.334  1.00  0.00    -0.203 F 
ATOM     75  C   UNL A   1      34.220  34.043  28.968  1.00  0.00     0.198 A 
ATOM     76  C   UNL A   1      33.448  35.473  30.718  1.00  0.00     0.198 A 
ATOM     77  F   UNL A   1      34.579  35.591  32.775  1.00  0.00    -0.203 F 
ATOM     78  F   UNL A   1      34.180  33.629  27.692  1.00  0.00    -0.200 F 
ATOM     79  C   UNL A   1      33.356  35.022  29.408  1.00  0.00     0.200 A 
ATOM     80  F   UNL A   1      32.599  36.418  31.145  1.00  0.00    -0.200 F 
ATOM     81  F   UNL A   1      32.458  35.553  28.567  1.00  0.00    -0.200 F 
ENDBRANCH  57  71
BRANCH  58  82
ATOM     82  C   UNL A   1      43.723  28.537  35.266  1.00  0.00     0.064 A 
ATOM     83  C   UNL A   1      44.690  29.030  36.148  1.00  0.00     0.173 A 
ATOM     84  C   UNL A   1      43.431  27.145  35.477  1.00  0.00     0.173 A 
ATOM     85  F   UNL A   1      45.192  30.259  35.980  1.00  0.00    -0.203 F 
ATOM     86  C   UNL A   1      45.179  28.256  37.235  1.00  0.00     0.198 A 
ATOM     87  C   UNL A   1      43.844  26.409  36.593  1.00  0.00     0.198 A 
ATOM     88  F   UNL A   1      42.711  26.434  34.598  1.00  0.00    -0.203 F 
ATOM     89  F   UNL A   1      46.104  28.766  38.060  1.00  0.00    -0.200 F 
ATOM     90  C   UNL A   1      44.704  26.975  37.494  1.00  0.00     0.200 A 
ATOM     91  F   UNL A   1      43.373  25.166  36.787  1.00  0.00    -0.200 F 
ATOM     92  F   UNL A   1      45.080  26.294  38.585  1.00  0.00    -0.200 F 
ENDBRANCH  58  82
BRANCH  70  93
ATOM     93  C   UNL A   1      38.818  29.361  31.723  1.00  0.00     0.064 A 
ATOM     94  C   UNL A   1      38.585  27.979  31.621  1.00  0.00     0.173 A 
ATOM     95  C   UNL A   1      39.256  29.988  30.539  1.00  0.00     0.173 A 
ATOM     96  F   UNL A   1      38.134  27.300  32.687  1.00  0.00    -0.203 F 
ATOM     97  C   UNL A   1      38.794  27.271  30.432  1.00  0.00     0.198 A 
ATOM     98  C   UNL A   1      39.468  29.281  29.344  1.00  0.00     0.198 A 
ATOM     99  F   UNL A   1      39.479  31.303  30.501  1.00  0.00    -0.203 F 
ATOM    100  F   UNL A   1      38.551  25.954  30.390  1.00  0.00    -0.200 F 
ATOM    101  C   UNL A   1      39.237  27.921  29.294  1.00  0.00     0.200 A 
ATOM    102  F   UNL A   1      39.888  29.925  28.244  1.00  0.00    -0.200 F 
ATOM    103  F   UNL A   1      39.419  27.243  28.151  1.00  0.00    -0.200 F 
ENDBRANCH  70  93
ENDBRANCH  44  45
ENDBRANCH  36  39
ENDBRANCH  34  35
ENDBRANCH  33  34
ENDBRANCH  32  33
ENDBRANCH   3  32
TORSDOF 16
ENDMDL
MODEL 2
REMARK VINA RESULT:     -12.4      8.278     15.337
REMARK SMILES N#C/C(=C/c1cccn1-c1ccc(C(=O)NCCCNC(=O)c2ccc(-c3c4nc(c(-c5c(F)c(F)c(F)c(F)c5F)c5ccc([nH]5)c(-c5c(F)c(F)c(F)c(F)c5F)c5nc(c(-c6c(F)c(F)c(F)c(F)c6F)c6ccc3[nH]6)C=C5)C=C4)cc2)cc1)C(=O)Nc1ccc(O)cc1
REMARK SMILES IDX 14 1 15 2 16 3 13 5 10 6 11 7 87 8 12 9 86 10 9 11 5 12 6 13
REMARK SMILES IDX 7 14 8 15 4 16 3 17 2 18 1 19 88 20 89 21 90 22 91 24 92 25
REMARK SMILES IDX 97 26 93 27 96 28 94 29 95 30 17 32 18 33 19 34 20 35 21 36
REMARK SMILES IDX 22 38 23 39 24 40 85 41 25 42 84 43 26 44 27 45 28 46 78 47
REMARK SMILES IDX 29 48 83 49 77 50 79 51 30 52 82 53 76 54 75 55 31 57 63 58
REMARK SMILES IDX 43 59 62 60 44 61 47 62 61 63 80 64 45 65 46 66 60 68 81 69
REMARK SMILES IDX 48 70 32 71 33 72 41 73 34 74 35 75 39 76 42 77 36 78 37 79
REMARK SMILES IDX 40 80 38 81 64 82 65 83 73 84 66 85 67 86 71 87 74 88 68 89
REMARK SMILES IDX 69 90 72 91 70 92 49 93 50 94 58 95 51 96 52 97 56 98 59 99
REMARK SMILES IDX 53 100 54 101 57 102 55 103
REMARK H PARENT 16 4 90 23 95 31 20 37 79 56 47 67
REMARK Flexibility Score: inf
ROOT
ATOM      1  C   UNL A   1      38.635  23.652  26.400  1.00  0.00     0.251 C 
ATOM      2  O   UNL A   1      38.771  24.812  26.784  1.00  0.00    -0.269 OA
ATOM      3  N   UNL A   1      39.669  22.767  26.607  1.00  0.00    -0.352 N 
ATOM      4  H   UNL A   1      40.454  23.170  27.045  1.00  0.00     0.163 HD
ENDROOT
BRANCH   1   5
ATOM      5  C   UNL A   1      37.358  23.241  25.756  1.00  0.00     0.039 A 
ATOM      6  C   UNL A   1      34.960  22.527  24.513  1.00  0.00     0.046 A 
ATOM      7  C   UNL A   1      34.952  22.837  25.886  1.00  0.00     0.027 A 
ATOM      8  C   UNL A   1      36.167  22.438  23.820  1.00  0.00     0.027 A 
ATOM      9  C   UNL A   1      36.171  23.169  26.507  1.00  0.00     0.016 A 
ATOM     10  C   UNL A   1      37.306  22.944  24.401  1.00  0.00     0.016 A 
BRANCH   6  11
ATOM     11  N   UNL A   1      33.563  22.539  23.609  1.00  0.00    -0.317 N 
ATOM     12  C   UNL A   1      33.123  23.831  23.674  1.00  0.00     0.047 A 
ATOM     13  C   UNL A   1      33.076  23.229  22.487  1.00  0.00     0.028 A 
ATOM     14  C   UNL A   1      31.815  21.600  22.142  1.00  0.00     0.020 A 
ATOM     15  C   UNL A   1      32.231  21.149  23.127  1.00  0.00     0.092 A 
BRANCH  12  16
ATOM     16  C   UNL A   1      33.376  24.916  24.480  1.00  0.00     0.052 C 
ATOM     17  C   UNL A   1      33.381  26.129  23.885  1.00  0.00     0.119 C 
BRANCH  17  18
ATOM     18  C   UNL A   1      33.723  27.301  24.790  1.00  0.00     0.105 C 
ATOM     19  N   UNL A   1      34.007  28.273  25.542  1.00  0.00    -0.192 NA
ENDBRANCH  17  18
BRANCH  17  20
ATOM     20  C   UNL A   1      33.208  26.437  22.399  1.00  0.00     0.266 C 
ATOM     21  O   UNL A   1      34.106  26.091  21.624  1.00  0.00    -0.268 OA
ATOM     22  N   UNL A   1      32.090  27.025  21.834  1.00  0.00    -0.321 N 
ATOM     23  H   UNL A   1      32.118  27.157  20.859  1.00  0.00     0.170 HD
BRANCH  22  24
ATOM     24  C   UNL A   1      30.904  27.462  22.486  1.00  0.00     0.041 A 
ATOM     25  C   UNL A   1      30.314  29.270  21.918  1.00  0.00     0.030 A 
ATOM     26  C   UNL A   1      29.881  26.004  23.368  1.00  0.00     0.030 A 
ATOM     27  C   UNL A   1      28.396  29.719  22.351  1.00  0.00     0.048 A 
ATOM     28  C   UNL A   1      27.973  26.459  23.862  1.00  0.00     0.048 A 
ATOM     29  C   UNL A   1      27.411  28.263  23.260  1.00  0.00     0.115 A 
BRANCH  29  30
ATOM     30  O   UNL A   1      26.067  28.556  23.476  1.00  0.00    -0.508 OA
ATOM     31  H   UNL A   1      25.642  28.260  24.257  1.00  0.00     0.293 HD
ENDBRANCH  29  30
ENDBRANCH  22  24
ENDBRANCH  17  20
ENDBRANCH  12  16
ENDBRANCH   6  11
ENDBRANCH   1   5
BRANCH   3  32
ATOM     32  C   UNL A   1      39.831  21.349  26.304  1.00  0.00     0.118 C 
BRANCH  32  33
ATOM     33  C   UNL A   1      41.320  20.989  26.141  1.00  0.00     0.042 C 
BRANCH  33  34
ATOM     34  C   UNL A   1      42.115  21.567  27.296  1.00  0.00     0.118 C 
BRANCH  34  35
ATOM     35  N   UNL A   1      43.420  22.010  26.820  1.00  0.00    -0.352 N 
ATOM     36  C   UNL A   1      43.900  23.275  26.629  1.00  0.00     0.251 C 
ATOM     37  H   UNL A   1      44.051  21.287  26.604  1.00  0.00     0.163 HD
ATOM     38  O   UNL A   1      44.827  23.452  25.845  1.00  0.00    -0.269 OA
BRANCH  36  39
ATOM     39  C   UNL A   1      43.373  24.408  27.408  1.00  0.00     0.039 A 
ATOM     40  C   UNL A   1      42.272  24.193  28.246  1.00  0.00     0.014 A 
ATOM     41  C   UNL A   1      43.861  25.702  27.194  1.00  0.00     0.014 A 
ATOM     42  C   UNL A   1      41.653  25.282  28.846  1.00  0.00     0.010 A 
ATOM     43  C   UNL A   1      43.292  26.780  27.834  1.00  0.00     0.010 A 
ATOM     44  C   UNL A   1      42.169  26.570  28.626  1.00  0.00    -0.014 A 
BRANCH  44  45
ATOM     45  C   UNL A   1      41.724  27.690  29.467  1.00  0.00     0.031 A 
ATOM     46  C   UNL A   1      42.544  27.574  30.825  1.00  0.00     0.074 A 
ATOM     47  C   UNL A   1      40.767  28.515  28.889  1.00  0.00     0.049 A 
ATOM     48  N   UNL A   1      42.252  27.981  32.016  1.00  0.00    -0.248 NA
ATOM     49  C   UNL A   1      43.865  26.847  30.881  1.00  0.00     0.031 C 
ATOM     50  C   UNL A   1      40.307  28.466  27.465  1.00  0.00     0.029 A 
ATOM     51  N   UNL A   1      40.010  29.596  29.305  1.00  0.00    -0.354 N 
ATOM     52  C   UNL A   1      43.387  27.824  32.856  1.00  0.00     0.074 A 
ATOM     53  C   UNL A   1      44.296  26.991  32.141  1.00  0.00     0.031 C 
ATOM     54  C   UNL A   1      39.284  29.330  27.219  1.00  0.00     0.029 A 
ATOM     55  C   UNL A   1      38.957  30.055  28.428  1.00  0.00     0.049 A 
ATOM     56  H   UNL A   1      40.183  30.038  30.167  1.00  0.00     0.167 HD
ATOM     57  C   UNL A   1      43.538  28.562  34.002  1.00  0.00     0.037 A 
ATOM     58  C   UNL A   1      37.907  30.912  28.723  1.00  0.00     0.037 A 
ATOM     59  C   UNL A   1      42.374  29.366  34.159  1.00  0.00     0.049 A 
ATOM     60  C   UNL A   1      38.282  31.392  30.051  1.00  0.00     0.074 A 
ATOM     61  C   UNL A   1      41.091  29.001  34.476  1.00  0.00     0.029 A 
ATOM     62  N   UNL A   1      42.371  30.555  33.468  1.00  0.00    -0.354 N 
ATOM     63  N   UNL A   1      39.279  32.194  30.275  1.00  0.00    -0.248 NA
ATOM     64  C   UNL A   1      37.641  30.767  31.207  1.00  0.00     0.031 C 
ATOM     65  C   UNL A   1      40.379  29.623  33.438  1.00  0.00     0.029 A 
ATOM     66  C   UNL A   1      41.126  30.686  32.916  1.00  0.00     0.049 A 
ATOM     67  H   UNL A   1      43.120  31.189  33.386  1.00  0.00     0.167 HD
ATOM     68  C   UNL A   1      39.610  31.873  31.563  1.00  0.00     0.074 A 
ATOM     69  C   UNL A   1      38.440  31.240  32.156  1.00  0.00     0.031 C 
ATOM     70  C   UNL A   1      40.915  31.656  31.885  1.00  0.00     0.037 A 
BRANCH  57  71
ATOM     71  C   UNL A   1      44.674  28.919  34.922  1.00  0.00     0.064 A 
ATOM     72  C   UNL A   1      45.782  29.610  34.350  1.00  0.00     0.173 A 
ATOM     73  C   UNL A   1      44.915  28.269  36.134  1.00  0.00     0.173 A 
ATOM     74  F   UNL A   1      45.643  30.313  33.214  1.00  0.00    -0.203 F 
ATOM     75  C   UNL A   1      47.071  29.501  34.862  1.00  0.00     0.198 A 
ATOM     76  C   UNL A   1      46.205  28.215  36.679  1.00  0.00     0.198 A 
ATOM     77  F   UNL A   1      43.941  27.588  36.752  1.00  0.00    -0.203 F 
ATOM     78  F   UNL A   1      48.106  30.018  34.184  1.00  0.00    -0.200 F 
ATOM     79  C   UNL A   1      47.286  28.786  36.021  1.00  0.00     0.200 A 
ATOM     80  F   UNL A   1      46.418  27.529  37.811  1.00  0.00    -0.200 F 
ATOM     81  F   UNL A   1      48.532  28.620  36.485  1.00  0.00    -0.200 F 
ENDBRANCH  57  71
BRANCH  58  82
ATOM     82  C   UNL A   1      36.525  31.406  28.254  1.00  0.00     0.064 A 
ATOM     83  C   UNL A   1      35.382  30.633  28.030  1.00  0.00     0.173 A 
ATOM     84  C   UNL A   1      36.274  32.819  28.151  1.00  0.00     0.173 A 
ATOM     85  F   UNL A   1      35.477  29.302  27.928  1.00  0.00    -0.203 F 
ATOM     86  C   UNL A   1      34.094  31.219  27.893  1.00  0.00     0.198 A 
ATOM     87  C   UNL A   1      35.001  33.396  28.102  1.00  0.00     0.198 A 
ATOM     88  F   UNL A   1      37.273  33.711  28.104  1.00  0.00    -0.203 F 
ATOM     89  F   UNL A   1      33.022  30.442  27.682  1.00  0.00    -0.200 F 
ATOM     90  C   UNL A   1      33.899  32.591  27.999  1.00  0.00     0.200 A 
ATOM     91  F   UNL A   1      34.866  34.730  28.186  1.00  0.00    -0.200 F 
ATOM     92  F   UNL A   1      32.671  33.129  27.986  1.00  0.00    -0.200 F 
ENDBRANCH  58  82
BRANCH  70  93
ATOM     93  C   UNL A   1      41.955  32.227  30.924  1.00  0.00     0.064 A 
ATOM     94  C   UNL A   1      41.959  33.607  30.660  1.00  0.00     0.173 A 
ATOM     95  C   UNL A   1      42.889  31.468  30.189  1.00  0.00     0.173 A 
ATOM     96  F   UNL A   1      41.130  34.416  31.334  1.00  0.00    -0.203 F 
ATOM     97  C   UNL A   1      42.817  34.185  29.716  1.00  0.00     0.198 A 
ATOM     98  C   UNL A   1      43.749  32.044  29.240  1.00  0.00     0.198 A 
ATOM     99  F   UNL A   1      43.002  30.152  30.375  1.00  0.00    -0.203 F 
ATOM    100  F   UNL A   1      42.783  35.508  29.507  1.00  0.00    -0.200 F 
ATOM    101  C   UNL A   1      43.710  33.404  29.004  1.00  0.00     0.200 A 
ATOM    102  F   UNL A   1      44.619  31.277  28.564  1.00  0.00    -0.200 F 
ATOM    103  F   UNL A   1      44.543  33.963  28.114  1.00  0.00    -0.200 F 
ENDBRANCH  70  93
ENDBRANCH  44  45
ENDBRANCH  36  39
ENDBRANCH  34  35
ENDBRANCH  33  34
ENDBRANCH  32  33
ENDBRANCH   3  32
TORSDOF 16
ENDMDL
MODEL 3
REMARK VINA RESULT:     -12.3      9.839     15.482
REMARK SMILES N#C/C(=C/c1cccn1-c1ccc(C(=O)NCCCNC(=O)c2ccc(-c3c4nc(c(-c5c(F)c(F)c(F)c(F)c5F)c5ccc([nH]5)c(-c5c(F)c(F)c(F)c(F)c5F)c5nc(c(-c6c(F)c(F)c(F)c(F)c6F)c6ccc3[nH]6)C=C5)C=C4)cc2)cc1)C(=O)Nc1ccc(O)cc1
REMARK SMILES IDX 14 1 15 2 16 3 13 5 10 6 11 7 87 8 12 9 86 10 9 11 5 12 6 13
REMARK SMILES IDX 7 14 8 15 4 16 3 17 2 18 1 19 88 20 89 21 90 22 91 24 92 25
REMARK SMILES IDX 97 26 93 27 96 28 94 29 95 30 17 32 18 33 19 34 20 35 21 36
REMARK SMILES IDX 22 38 23 39 24 40 85 41 25 42 84 43 26 44 27 45 28 46 78 47
REMARK SMILES IDX 29 48 83 49 77 50 79 51 30 52 82 53 76 54 75 55 31 57 63 58
REMARK SMILES IDX 43 59 62 60 44 61 47 62 61 63 80 64 45 65 46 66 60 68 81 69
REMARK SMILES IDX 48 70 32 71 33 72 41 73 34 74 35 75 39 76 42 77 36 78 37 79
REMARK SMILES IDX 40 80 38 81 64 82 65 83 73 84 66 85 67 86 71 87 74 88 68 89
REMARK SMILES IDX 69 90 72 91 70 92 49 93 50 94 58 95 51 96 52 97 56 98 59 99
REMARK SMILES IDX 53 100 54 101 57 102 55 103
REMARK H PARENT 16 4 90 23 95 31 20 37 79 56 47 67
REMARK Flexibility Score: inf
ROOT
ATOM      1  C   UNL A   1      35.235  20.794  25.002  1.00  0.00     0.251 C 
ATOM      2  O   UNL A   1      34.247  20.069  24.902  1.00  0.00    -0.269 OA
ATOM      3  N   UNL A   1      36.481  20.209  24.981  1.00  0.00    -0.352 N 
ATOM      4  H   UNL A   1      36.458  19.228  24.900  1.00  0.00     0.163 HD
ENDROOT
BRANCH   1   5
ATOM      5  C   UNL A   1      35.052  22.266  25.114  1.00  0.00     0.039 A 
ATOM      6  C   UNL A   1      34.646  25.021  25.339  1.00  0.00     0.046 A 
ATOM      7  C   UNL A   1      34.852  24.463  24.063  1.00  0.00     0.027 A 
ATOM      8  C   UNL A   1      34.788  24.233  26.481  1.00  0.00     0.027 A 
ATOM      9  C   UNL A   1      35.082  23.078  23.964  1.00  0.00     0.016 A 
ATOM     10  C   UNL A   1      34.827  22.866  26.345  1.00  0.00     0.016 A 
BRANCH   6  11
ATOM     11  N   UNL A   1      33.961  26.525  25.532  1.00  0.00    -0.317 N 
ATOM     12  C   UNL A   1      33.414  26.813  24.314  1.00  0.00     0.047 A 
ATOM     13  C   UNL A   1      32.685  27.094  25.391  1.00  0.00     0.028 A 
ATOM     14  C   UNL A   1      33.283  28.557  26.758  1.00  0.00     0.020 A 
ATOM     15  C   UNL A   1      34.328  28.052  26.746  1.00  0.00     0.092 A 
BRANCH  12  16
ATOM     16  C   UNL A   1      33.560  26.332  23.033  1.00  0.00     0.052 C 
ATOM     17  C   UNL A   1      32.500  26.470  22.206  1.00  0.00     0.119 C 
BRANCH  17  18
ATOM     18  C   UNL A   1      32.671  25.876  20.818  1.00  0.00     0.105 C 
ATOM     19  N   UNL A   1      32.813  25.383  19.666  1.00  0.00    -0.192 NA
ENDBRANCH  17  18
BRANCH  17  20
ATOM     20  C   UNL A   1      31.123  27.036  22.546  1.00  0.00     0.266 C 
ATOM     21  O   UNL A   1      30.820  28.144  22.089  1.00  0.00    -0.268 OA
ATOM     22  N   UNL A   1      30.152  26.381  23.283  1.00  0.00    -0.321 N 
ATOM     23  H   UNL A   1      29.308  26.870  23.417  1.00  0.00     0.170 HD
BRANCH  22  24
ATOM     24  C   UNL A   1      30.221  25.087  23.869  1.00  0.00     0.041 A 
ATOM     25  C   UNL A   1      30.976  23.711  22.654  1.00  0.00     0.030 A 
ATOM     26  C   UNL A   1      30.052  25.086  25.849  1.00  0.00     0.030 A 
ATOM     27  C   UNL A   1      31.621  22.029  23.561  1.00  0.00     0.048 A 
ATOM     28  C   UNL A   1      30.639  23.383  26.770  1.00  0.00     0.048 A 
ATOM     29  C   UNL A   1      31.408  22.040  25.529  1.00  0.00     0.115 A 
BRANCH  29  30
ATOM     30  O   UNL A   1      31.933  20.910  26.148  1.00  0.00    -0.508 OA
ATOM     31  H   UNL A   1      31.394  20.390  26.710  1.00  0.00     0.293 HD
ENDBRANCH  29  30
ENDBRANCH  22  24
ENDBRANCH  17  20
ENDBRANCH  12  16
ENDBRANCH   6  11
ENDBRANCH   1   5
BRANCH   3  32
ATOM     32  C   UNL A   1      37.831  20.759  25.054  1.00  0.00     0.118 C 
BRANCH  32  33
ATOM     33  C   UNL A   1      38.884  19.635  25.028  1.00  0.00     0.042 C 
BRANCH  33  34
ATOM     34  C   UNL A   1      39.588  19.562  26.369  1.00  0.00     0.118 C 
BRANCH  34  35
ATOM     35  N   UNL A   1      40.895  18.938  26.204  1.00  0.00    -0.352 N 
ATOM     36  C   UNL A   1      42.104  19.501  25.910  1.00  0.00     0.251 C 
ATOM     37  H   UNL A   1      40.907  17.961  26.323  1.00  0.00     0.163 HD
ATOM     38  O   UNL A   1      42.980  18.808  25.401  1.00  0.00    -0.269 OA
BRANCH  36  39
ATOM     39  C   UNL A   1      42.393  20.899  26.267  1.00  0.00     0.039 A 
ATOM     40  C   UNL A   1      42.685  21.807  25.242  1.00  0.00     0.014 A 
ATOM     41  C   UNL A   1      42.529  21.275  27.608  1.00  0.00     0.014 A 
ATOM     42  C   UNL A   1      43.134  23.080  25.570  1.00  0.00     0.010 A 
ATOM     43  C   UNL A   1      42.913  22.553  27.943  1.00  0.00     0.010 A 
ATOM     44  C   UNL A   1      43.250  23.438  26.925  1.00  0.00    -0.014 A 
BRANCH  44  45
ATOM     45  C   UNL A   1      43.437  24.847  27.296  1.00  0.00     0.031 A 
ATOM     46  C   UNL A   1      41.977  25.445  27.503  1.00  0.00     0.074 A 
ATOM     47  C   UNL A   1      44.760  25.264  27.373  1.00  0.00     0.049 A 
ATOM     48  N   UNL A   1      41.547  26.658  27.391  1.00  0.00    -0.248 NA
ATOM     49  C   UNL A   1      40.806  24.552  27.832  1.00  0.00     0.031 C 
ATOM     50  C   UNL A   1      45.966  24.382  27.295  1.00  0.00     0.029 A 
ATOM     51  N   UNL A   1      45.408  26.468  27.589  1.00  0.00    -0.354 N 
ATOM     52  C   UNL A   1      40.210  26.726  27.871  1.00  0.00     0.074 A 
ATOM     53  C   UNL A   1      39.764  25.378  27.991  1.00  0.00     0.031 C 
ATOM     54  C   UNL A   1      47.130  25.090  27.297  1.00  0.00     0.029 A 
ATOM     55  C   UNL A   1      46.838  26.504  27.390  1.00  0.00     0.049 A 
ATOM     56  H   UNL A   1      44.912  27.270  27.868  1.00  0.00     0.167 HD
ATOM     57  C   UNL A   1      39.664  27.909  28.300  1.00  0.00     0.037 A 
ATOM     58  C   UNL A   1      47.661  27.615  27.271  1.00  0.00     0.037 A 
ATOM     59  C   UNL A   1      40.626  28.936  28.092  1.00  0.00     0.049 A 
ATOM     60  C   UNL A   1      46.746  28.699  27.627  1.00  0.00     0.074 A 
ATOM     61  C   UNL A   1      41.083  29.488  26.923  1.00  0.00     0.029 A 
ATOM     62  N   UNL A   1      41.567  29.083  29.085  1.00  0.00    -0.354 N 
ATOM     63  N   UNL A   1      46.294  28.897  28.827  1.00  0.00    -0.248 NA
ATOM     64  C   UNL A   1      46.139  29.462  26.537  1.00  0.00     0.031 C 
ATOM     65  C   UNL A   1      42.471  29.357  27.097  1.00  0.00     0.029 A 
ATOM     66  C   UNL A   1      42.772  29.255  28.460  1.00  0.00     0.049 A 
ATOM     67  H   UNL A   1      41.405  29.066  30.055  1.00  0.00     0.167 HD
ATOM     68  C   UNL A   1      45.106  29.530  28.576  1.00  0.00     0.074 A 
ATOM     69  C   UNL A   1      45.201  30.091  27.235  1.00  0.00     0.031 C 
ATOM     70  C   UNL A   1      43.980  29.118  29.218  1.00  0.00     0.037 A 
BRANCH  57  71
ATOM     71  C   UNL A   1      38.484  28.317  29.141  1.00  0.00     0.064 A 
ATOM     72  C   UNL A   1      37.680  29.389  28.658  1.00  0.00     0.173 A 
ATOM     73  C   UNL A   1      38.380  28.036  30.505  1.00  0.00     0.173 A 
ATOM     74  F   UNL A   1      37.666  29.705  27.352  1.00  0.00    -0.203 F 
ATOM     75  C   UNL A   1      36.971  30.229  29.510  1.00  0.00     0.198 A 
ATOM     76  C   UNL A   1      37.612  28.849  31.352  1.00  0.00     0.198 A 
ATOM     77  F   UNL A   1      39.096  27.050  31.059  1.00  0.00    -0.203 F 
ATOM     78  F   UNL A   1      36.381  31.332  29.025  1.00  0.00    -0.200 F 
ATOM     79  C   UNL A   1      36.951  29.969  30.863  1.00  0.00     0.200 A 
ATOM     80  F   UNL A   1      37.582  28.594  32.667  1.00  0.00    -0.200 F 
ATOM     81  F   UNL A   1      36.326  30.808  31.700  1.00  0.00    -0.200 F 
ENDBRANCH  57  71
BRANCH  58  82
ATOM     82  C   UNL A   1      49.047  28.103  26.807  1.00  0.00     0.064 A 
ATOM     83  C   UNL A   1      50.037  28.702  27.591  1.00  0.00     0.173 A 
ATOM     84  C   UNL A   1      49.489  27.815  25.469  1.00  0.00     0.173 A 
ATOM     85  F   UNL A   1      49.740  29.180  28.805  1.00  0.00    -0.203 F 
ATOM     86  C   UNL A   1      51.377  28.836  27.134  1.00  0.00     0.198 A 
ATOM     87  C   UNL A   1      50.822  27.867  25.047  1.00  0.00     0.198 A 
ATOM     88  F   UNL A   1      48.630  27.456  24.504  1.00  0.00    -0.203 F 
ATOM     89  F   UNL A   1      52.299  29.414  27.918  1.00  0.00    -0.200 F 
ATOM     90  C   UNL A   1      51.779  28.355  25.893  1.00  0.00     0.200 A 
ATOM     91  F   UNL A   1      51.157  27.410  23.829  1.00  0.00    -0.200 F 
ATOM     92  F   UNL A   1      53.065  28.378  25.514  1.00  0.00    -0.200 F 
ENDBRANCH  58  82
BRANCH  70  93
ATOM     93  C   UNL A   1      44.184  28.306  30.495  1.00  0.00     0.064 A 
ATOM     94  C   UNL A   1      44.845  28.898  31.585  1.00  0.00     0.173 A 
ATOM     95  C   UNL A   1      43.836  26.950  30.663  1.00  0.00     0.173 A 
ATOM     96  F   UNL A   1      45.186  30.194  31.532  1.00  0.00    -0.203 F 
ATOM     97  C   UNL A   1      45.155  28.184  32.749  1.00  0.00     0.198 A 
ATOM     98  C   UNL A   1      44.148  26.230  31.828  1.00  0.00     0.198 A 
ATOM     99  F   UNL A   1      43.177  26.288  29.711  1.00  0.00    -0.203 F 
ATOM    100  F   UNL A   1      45.782  28.799  33.760  1.00  0.00    -0.200 F 
ATOM    101  C   UNL A   1      44.809  26.850  32.870  1.00  0.00     0.200 A 
ATOM    102  F   UNL A   1      43.796  24.939  31.938  1.00  0.00    -0.200 F 
ATOM    103  F   UNL A   1      45.092  26.173  33.993  1.00  0.00    -0.200 F 
ENDBRANCH  70  93
ENDBRANCH  44  45
ENDBRANCH  36  39
ENDBRANCH  34  35
ENDBRANCH  33  34
ENDBRANCH  32  33
ENDBRANCH   3  32
TORSDOF 16
ENDMDL
