MODEL 1
REMARK VINA RESULT:     -12.4      0.000      0.000
REMARK SMILES Cc1ccc(OCCn2ccnc2)c(/C=C/C(=O)NCCCNC(=O)c2ccc(-c3c4nc(c(-c5c(F)c(F)c(F)c(F)c5F)c5ccc([nH]5)c(-c5c(F)c(F)c(F)c(F)c5F)c5nc(c(-c6c(F)c(F)c(F)c(F)c6F)c6ccc3[nH]6)C=C5)C=C4)cc2)n1
REMARK SMILES IDX 17 1 18 2 19 3 16 5 15 6 14 7 1 8 2 9 3 10 89 11 4 12 5 13
REMARK SMILES IDX 6 14 7 15 8 16 9 17 10 18 13 19 11 20 12 21 20 22 21 23
REMARK SMILES IDX 22 24 23 25 24 26 25 28 26 29 27 30 88 31 28 32 87 33 29 34
REMARK SMILES IDX 30 35 31 36 81 37 32 38 86 39 80 40 82 41 33 42 85 43 79 44
REMARK SMILES IDX 78 45 34 47 66 48 46 49 65 50 47 51 50 52 64 53 83 54 48 55
REMARK SMILES IDX 49 56 63 58 84 59 51 60 35 61 36 62 44 63 37 64 38 65 42 66
REMARK SMILES IDX 45 67 39 68 40 69 43 70 41 71 67 72 68 73 76 74 69 75 70 76
REMARK SMILES IDX 74 77 77 78 71 79 72 80 75 81 73 82 52 83 53 84 61 85 54 86
REMARK SMILES IDX 55 87 59 88 62 89 56 90 57 91 60 92 58 93
REMARK H PARENT 19 4 23 27 82 46 50 57
REMARK Flexibility Score: inf
ROOT
ATOM      1  C   UNL A   1      37.085  23.067  24.954  1.00  0.00     0.244 C 
ATOM      2  O   UNL A   1      37.672  24.020  25.463  1.00  0.00    -0.270 OA
ATOM      3  N   UNL A   1      37.668  21.836  25.005  1.00  0.00    -0.352 N 
ATOM      4  H   UNL A   1      38.593  21.837  25.344  1.00  0.00     0.163 HD
ENDROOT
BRANCH   1   5
ATOM      5  C   UNL A   1      35.746  23.281  24.353  1.00  0.00     0.073 C 
ATOM      6  C   UNL A   1      34.750  23.964  24.930  1.00  0.00     0.038 C 
BRANCH   6   7
ATOM      7  C   UNL A   1      33.387  24.139  24.421  1.00  0.00     0.105 A 
ATOM      8  C   UNL A   1      31.609  26.812  22.649  1.00  0.00     0.067 C 
ATOM      9  C   UNL A   1      31.926  25.461  23.213  1.00  0.00     0.038 A 
ATOM     10  C   UNL A   1      31.018  24.415  23.111  1.00  0.00     0.027 A 
ATOM     11  N   UNL A   1      33.128  25.320  23.812  1.00  0.00    -0.250 NA
ATOM     12  C   UNL A   1      31.292  23.214  23.763  1.00  0.00     0.050 A 
ATOM     13  C   UNL A   1      32.455  23.091  24.512  1.00  0.00     0.145 A 
BRANCH  13  14
ATOM     14  O   UNL A   1      32.738  22.041  25.349  1.00  0.00    -0.489 OA
BRANCH  14  15
ATOM     15  C   UNL A   1      32.191  20.748  25.052  1.00  0.00     0.251 C 
BRANCH  15  16
ATOM     16  C   UNL A   1      33.093  19.562  25.430  1.00  0.00     0.164 C 
BRANCH  16  17
ATOM     17  N   UNL A   1      33.323  18.617  24.357  1.00  0.00    -0.334 N 
ATOM     18  C   UNL A   1      34.358  17.729  24.272  1.00  0.00     0.107 A 
ATOM     19  C   UNL A   1      32.527  18.431  23.262  1.00  0.00     0.199 A 
ATOM     20  C   UNL A   1      34.074  16.962  23.166  1.00  0.00     0.130 A 
ATOM     21  N   UNL A   1      32.937  17.411  22.543  1.00  0.00    -0.245 NA
ENDBRANCH  16  17
ENDBRANCH  15  16
ENDBRANCH  14  15
ENDBRANCH  13  14
ENDBRANCH   6   7
ENDBRANCH   1   5
BRANCH   3  22
ATOM     22  C   UNL A   1      37.160  20.520  24.641  1.00  0.00     0.118 C 
BRANCH  22  23
ATOM     23  C   UNL A   1      38.123  19.385  25.026  1.00  0.00     0.042 C 
BRANCH  23  24
ATOM     24  C   UNL A   1      39.311  19.879  25.820  1.00  0.00     0.118 C 
BRANCH  24  25
ATOM     25  N   UNL A   1      40.426  18.918  25.841  1.00  0.00    -0.352 N 
ATOM     26  C   UNL A   1      41.784  19.174  25.931  1.00  0.00     0.251 C 
ATOM     27  H   UNL A   1      40.174  17.968  25.781  1.00  0.00     0.163 HD
ATOM     28  O   UNL A   1      42.618  18.328  25.623  1.00  0.00    -0.269 OA
BRANCH  26  29
ATOM     29  C   UNL A   1      42.203  20.494  26.420  1.00  0.00     0.039 A 
ATOM     30  C   UNL A   1      42.810  21.469  25.620  1.00  0.00     0.014 A 
ATOM     31  C   UNL A   1      41.860  20.767  27.731  1.00  0.00     0.014 A 
ATOM     32  C   UNL A   1      42.990  22.746  26.153  1.00  0.00     0.010 A 
ATOM     33  C   UNL A   1      41.719  22.064  28.102  1.00  0.00     0.010 A 
ATOM     34  C   UNL A   1      42.428  23.029  27.402  1.00  0.00    -0.014 A 
BRANCH  34  35
ATOM     35  C   UNL A   1      42.514  24.319  28.070  1.00  0.00     0.031 A 
ATOM     36  C   UNL A   1      41.281  25.150  28.018  1.00  0.00     0.074 A 
ATOM     37  C   UNL A   1      43.517  24.531  28.958  1.00  0.00     0.049 A 
ATOM     38  N   UNL A   1      41.151  26.359  27.581  1.00  0.00    -0.248 NA
ATOM     39  C   UNL A   1      40.008  24.523  28.416  1.00  0.00     0.031 C 
ATOM     40  C   UNL A   1      44.611  23.618  29.343  1.00  0.00     0.029 A 
ATOM     41  N   UNL A   1      43.680  25.551  29.836  1.00  0.00    -0.354 N 
ATOM     42  C   UNL A   1      39.826  26.713  27.823  1.00  0.00     0.074 A 
ATOM     43  C   UNL A   1      39.134  25.498  28.162  1.00  0.00     0.031 C 
ATOM     44  C   UNL A   1      45.138  24.002  30.524  1.00  0.00     0.029 A 
ATOM     45  C   UNL A   1      44.565  25.283  30.876  1.00  0.00     0.049 A 
ATOM     46  H   UNL A   1      43.209  26.412  29.745  1.00  0.00     0.167 HD
ATOM     47  C   UNL A   1      39.454  28.015  27.972  1.00  0.00     0.037 A 
ATOM     48  C   UNL A   1      44.767  26.055  31.972  1.00  0.00     0.037 A 
ATOM     49  C   UNL A   1      40.466  28.911  27.475  1.00  0.00     0.049 A 
ATOM     50  C   UNL A   1      44.243  27.406  31.644  1.00  0.00     0.074 A 
ATOM     51  C   UNL A   1      41.054  29.117  26.243  1.00  0.00     0.029 A 
ATOM     52  N   UNL A   1      41.309  29.503  28.385  1.00  0.00    -0.354 N 
ATOM     53  N   UNL A   1      44.757  28.172  30.718  1.00  0.00    -0.248 NA
ATOM     54  C   UNL A   1      42.856  27.683  31.986  1.00  0.00     0.031 C 
ATOM     55  C   UNL A   1      42.434  29.349  26.529  1.00  0.00     0.029 A 
ATOM     56  C   UNL A   1      42.588  29.341  27.916  1.00  0.00     0.049 A 
ATOM     57  H   UNL A   1      41.044  29.956  29.218  1.00  0.00     0.167 HD
ATOM     58  C   UNL A   1      43.665  28.743  30.079  1.00  0.00     0.074 A 
ATOM     59  C   UNL A   1      42.523  28.452  30.945  1.00  0.00     0.031 C 
ATOM     60  C   UNL A   1      43.734  29.131  28.770  1.00  0.00     0.037 A 
BRANCH  47  61
ATOM     61  C   UNL A   1      38.353  28.482  28.890  1.00  0.00     0.064 A 
ATOM     62  C   UNL A   1      37.438  29.451  28.433  1.00  0.00     0.173 A 
ATOM     63  C   UNL A   1      38.341  28.241  30.281  1.00  0.00     0.173 A 
ATOM     64  F   UNL A   1      37.381  29.774  27.131  1.00  0.00    -0.203 F 
ATOM     65  C   UNL A   1      36.626  30.171  29.312  1.00  0.00     0.198 A 
ATOM     66  C   UNL A   1      37.489  28.921  31.150  1.00  0.00     0.198 A 
ATOM     67  F   UNL A   1      39.225  27.429  30.872  1.00  0.00    -0.203 F 
ATOM     68  F   UNL A   1      35.862  31.169  28.848  1.00  0.00    -0.200 F 
ATOM     69  C   UNL A   1      36.655  29.909  30.670  1.00  0.00     0.200 A 
ATOM     70  F   UNL A   1      37.546  28.665  32.464  1.00  0.00    -0.200 F 
ATOM     71  F   UNL A   1      35.923  30.639  31.522  1.00  0.00    -0.200 F 
ENDBRANCH  47  61
BRANCH  48  72
ATOM     72  C   UNL A   1      45.031  25.593  33.356  1.00  0.00     0.064 A 
ATOM     73  C   UNL A   1      45.916  26.282  34.198  1.00  0.00     0.173 A 
ATOM     74  C   UNL A   1      44.223  24.612  33.965  1.00  0.00     0.173 A 
ATOM     75  F   UNL A   1      46.685  27.264  33.706  1.00  0.00    -0.203 F 
ATOM     76  C   UNL A   1      45.977  26.018  35.572  1.00  0.00     0.198 A 
ATOM     77  C   UNL A   1      44.288  24.345  35.334  1.00  0.00     0.198 A 
ATOM     78  F   UNL A   1      43.287  23.959  33.262  1.00  0.00    -0.203 F 
ATOM     79  F   UNL A   1      46.795  26.734  36.355  1.00  0.00    -0.200 F 
ATOM     80  C   UNL A   1      45.157  25.055  36.139  1.00  0.00     0.200 A 
ATOM     81  F   UNL A   1      43.460  23.439  35.875  1.00  0.00    -0.200 F 
ATOM     82  F   UNL A   1      45.175  24.842  37.463  1.00  0.00    -0.200 F 
ENDBRANCH  48  72
BRANCH  60  83
ATOM     83  C   UNL A   1      45.083  29.103  28.098  1.00  0.00     0.064 A 
ATOM     84  C   UNL A   1      46.056  30.106  28.255  1.00  0.00     0.173 A 
ATOM     85  C   UNL A   1      45.467  27.949  27.408  1.00  0.00     0.173 A 
ATOM     86  F   UNL A   1      45.811  31.191  28.992  1.00  0.00    -0.203 F 
ATOM     87  C   UNL A   1      47.333  29.980  27.711  1.00  0.00     0.198 A 
ATOM     88  C   UNL A   1      46.755  27.808  26.893  1.00  0.00     0.198 A 
ATOM     89  F   UNL A   1      44.605  26.929  27.279  1.00  0.00    -0.203 F 
ATOM     90  F   UNL A   1      48.235  30.959  27.877  1.00  0.00    -0.200 F 
ATOM     91  C   UNL A   1      47.684  28.826  27.035  1.00  0.00     0.200 A 
ATOM     92  F   UNL A   1      47.105  26.667  26.285  1.00  0.00    -0.200 F 
ATOM     93  F   UNL A   1      48.924  28.682  26.549  1.00  0.00    -0.200 F 
ENDBRANCH  60  83
ENDBRANCH  34  35
ENDBRANCH  26  29
ENDBRANCH  24  25
ENDBRANCH  23  24
ENDBRANCH  22  23
ENDBRANCH   3  22
TORSDOF 15
ENDMDL
MODEL 2
REMARK VINA RESULT:     -12.3      3.032      7.322
REMARK SMILES Cc1ccc(OCCn2ccnc2)c(/C=C/C(=O)NCCCNC(=O)c2ccc(-c3c4nc(c(-c5c(F)c(F)c(F)c(F)c5F)c5ccc([nH]5)c(-c5c(F)c(F)c(F)c(F)c5F)c5nc(c(-c6c(F)c(F)c(F)c(F)c6F)c6ccc3[nH]6)C=C5)C=C4)cc2)n1
REMARK SMILES IDX 17 1 18 2 19 3 16 5 15 6 14 7 1 8 2 9 3 10 89 11 4 12 5 13
REMARK SMILES IDX 6 14 7 15 8 16 9 17 10 18 13 19 11 20 12 21 20 22 21 23
REMARK SMILES IDX 22 24 23 25 24 26 25 28 26 29 27 30 88 31 28 32 87 33 29 34
REMARK SMILES IDX 30 35 31 36 81 37 32 38 86 39 80 40 82 41 33 42 85 43 79 44
REMARK SMILES IDX 78 45 34 47 66 48 46 49 65 50 47 51 50 52 64 53 83 54 48 55
REMARK SMILES IDX 49 56 63 58 84 59 51 60 35 61 36 62 44 63 37 64 38 65 42 66
REMARK SMILES IDX 45 67 39 68 40 69 43 70 41 71 67 72 68 73 76 74 69 75 70 76
REMARK SMILES IDX 74 77 77 78 71 79 72 80 75 81 73 82 52 83 53 84 61 85 54 86
REMARK SMILES IDX 55 87 59 88 62 89 56 90 57 91 60 92 58 93
REMARK H PARENT 19 4 23 27 82 46 50 57
REMARK Flexibility Score: inf
ROOT
ATOM      1  C   UNL A   1      33.651  28.063  22.845  1.00  0.00     0.244 C 
ATOM      2  O   UNL A   1      34.117  28.204  21.716  1.00  0.00    -0.270 OA
ATOM      3  N   UNL A   1      33.626  29.138  23.683  1.00  0.00    -0.352 N 
ATOM      4  H   UNL A   1      34.111  29.928  23.346  1.00  0.00     0.163 HD
ENDROOT
BRANCH   1   5
ATOM      5  C   UNL A   1      33.088  26.747  23.235  1.00  0.00     0.073 C 
ATOM      6  C   UNL A   1      33.796  25.740  23.763  1.00  0.00     0.038 C 
BRANCH   6   7
ATOM      7  C   UNL A   1      33.311  24.397  24.091  1.00  0.00     0.105 A 
ATOM      8  C   UNL A   1      30.614  23.059  26.185  1.00  0.00     0.067 C 
ATOM      9  C   UNL A   1      31.700  23.127  25.156  1.00  0.00     0.038 A 
ATOM     10  C   UNL A   1      32.099  21.990  24.465  1.00  0.00     0.027 A 
ATOM     11  N   UNL A   1      32.257  24.338  24.939  1.00  0.00    -0.250 NA
ATOM     12  C   UNL A   1      33.200  22.066  23.614  1.00  0.00     0.050 A 
ATOM     13  C   UNL A   1      33.885  23.267  23.485  1.00  0.00     0.145 A 
BRANCH  13  14
ATOM     14  O   UNL A   1      35.087  23.416  22.839  1.00  0.00    -0.489 OA
BRANCH  14  15
ATOM     15  C   UNL A   1      36.275  22.897  23.454  1.00  0.00     0.251 C 
BRANCH  15  16
ATOM     16  C   UNL A   1      36.716  23.634  24.729  1.00  0.00     0.164 C 
BRANCH  16  17
ATOM     17  N   UNL A   1      37.766  22.969  25.473  1.00  0.00    -0.334 N 
ATOM     18  C   UNL A   1      38.159  21.668  25.328  1.00  0.00     0.107 A 
ATOM     19  C   UNL A   1      38.564  23.539  26.424  1.00  0.00     0.199 A 
ATOM     20  C   UNL A   1      39.265  21.542  26.136  1.00  0.00     0.130 A 
ATOM     21  N   UNL A   1      39.505  22.709  26.816  1.00  0.00    -0.245 NA
ENDBRANCH  16  17
ENDBRANCH  15  16
ENDBRANCH  14  15
ENDBRANCH  13  14
ENDBRANCH   6   7
ENDBRANCH   1   5
BRANCH   3  22
ATOM     22  C   UNL A   1      33.009  29.320  24.989  1.00  0.00     0.118 C 
BRANCH  22  23
ATOM     23  C   UNL A   1      33.794  28.633  26.118  1.00  0.00     0.042 C 
BRANCH  23  24
ATOM     24  C   UNL A   1      33.781  29.433  27.401  1.00  0.00     0.118 C 
BRANCH  24  25
ATOM     25  N   UNL A   1      34.123  30.850  27.197  1.00  0.00    -0.352 N 
ATOM     26  C   UNL A   1      35.232  31.544  27.651  1.00  0.00     0.251 C 
ATOM     27  H   UNL A   1      33.478  31.374  26.668  1.00  0.00     0.163 HD
ATOM     28  O   UNL A   1      35.250  32.771  27.689  1.00  0.00    -0.269 OA
BRANCH  26  29
ATOM     29  C   UNL A   1      36.401  30.765  28.081  1.00  0.00     0.039 A 
ATOM     30  C   UNL A   1      36.668  29.457  27.661  1.00  0.00     0.014 A 
ATOM     31  C   UNL A   1      37.306  31.455  28.866  1.00  0.00     0.014 A 
ATOM     32  C   UNL A   1      37.902  28.895  27.988  1.00  0.00     0.010 A 
ATOM     33  C   UNL A   1      38.598  31.043  28.872  1.00  0.00     0.010 A 
ATOM     34  C   UNL A   1      38.864  29.710  28.593  1.00  0.00    -0.014 A 
BRANCH  34  35
ATOM     35  C   UNL A   1      40.199  29.270  28.969  1.00  0.00     0.031 A 
ATOM     36  C   UNL A   1      40.422  29.072  30.426  1.00  0.00     0.074 A 
ATOM     37  C   UNL A   1      41.007  28.745  28.015  1.00  0.00     0.049 A 
ATOM     38  N   UNL A   1      41.328  29.607  31.175  1.00  0.00    -0.248 NA
ATOM     39  C   UNL A   1      39.452  28.246  31.168  1.00  0.00     0.031 C 
ATOM     40  C   UNL A   1      40.737  28.575  26.573  1.00  0.00     0.029 A 
ATOM     41  N   UNL A   1      42.186  28.091  28.159  1.00  0.00    -0.354 N 
ATOM     42  C   UNL A   1      41.165  29.042  32.437  1.00  0.00     0.074 A 
ATOM     43  C   UNL A   1      39.897  28.362  32.419  1.00  0.00     0.031 C 
ATOM     44  C   UNL A   1      41.577  27.657  26.052  1.00  0.00     0.029 A 
ATOM     45  C   UNL A   1      42.561  27.326  27.059  1.00  0.00     0.049 A 
ATOM     46  H   UNL A   1      42.734  28.154  28.976  1.00  0.00     0.167 HD
ATOM     47  C   UNL A   1      42.200  28.963  33.320  1.00  0.00     0.037 A 
ATOM     48  C   UNL A   1      43.590  26.445  27.012  1.00  0.00     0.037 A 
ATOM     49  C   UNL A   1      43.277  29.843  32.948  1.00  0.00     0.049 A 
ATOM     50  C   UNL A   1      44.490  26.781  28.146  1.00  0.00     0.074 A 
ATOM     51  C   UNL A   1      43.396  31.209  32.779  1.00  0.00     0.029 A 
ATOM     52  N   UNL A   1      44.361  29.300  32.300  1.00  0.00    -0.354 N 
ATOM     53  N   UNL A   1      45.148  27.907  28.233  1.00  0.00    -0.248 NA
ATOM     54  C   UNL A   1      44.259  26.092  29.407  1.00  0.00     0.031 C 
ATOM     55  C   UNL A   1      44.226  31.364  31.628  1.00  0.00     0.029 A 
ATOM     56  C   UNL A   1      44.620  30.093  31.210  1.00  0.00     0.049 A 
ATOM     57  H   UNL A   1      44.857  28.493  32.568  1.00  0.00     0.167 HD
ATOM     58  C   UNL A   1      45.054  28.273  29.568  1.00  0.00     0.074 A 
ATOM     59  C   UNL A   1      44.549  27.084  30.254  1.00  0.00     0.031 C 
ATOM     60  C   UNL A   1      45.106  29.585  29.948  1.00  0.00     0.037 A 
BRANCH  47  61
ATOM     61  C   UNL A   1      42.391  27.836  34.303  1.00  0.00     0.064 A 
ATOM     62  C   UNL A   1      42.960  26.625  33.863  1.00  0.00     0.173 A 
ATOM     63  C   UNL A   1      41.773  27.793  35.572  1.00  0.00     0.173 A 
ATOM     64  F   UNL A   1      43.554  26.548  32.661  1.00  0.00    -0.203 F 
ATOM     65  C   UNL A   1      42.854  25.447  34.606  1.00  0.00     0.198 A 
ATOM     66  C   UNL A   1      41.719  26.629  36.337  1.00  0.00     0.198 A 
ATOM     67  F   UNL A   1      41.099  28.835  36.072  1.00  0.00    -0.203 F 
ATOM     68  F   UNL A   1      43.301  24.292  34.092  1.00  0.00    -0.200 F 
ATOM     69  C   UNL A   1      42.230  25.449  35.840  1.00  0.00     0.200 A 
ATOM     70  F   UNL A   1      41.093  26.648  37.522  1.00  0.00    -0.200 F 
ATOM     71  F   UNL A   1      42.072  24.309  36.527  1.00  0.00    -0.200 F 
ENDBRANCH  47  61
BRANCH  48  72
ATOM     72  C   UNL A   1      43.627  25.148  26.294  1.00  0.00     0.064 A 
ATOM     73  C   UNL A   1      44.528  24.921  25.244  1.00  0.00     0.173 A 
ATOM     74  C   UNL A   1      42.954  24.015  26.797  1.00  0.00     0.173 A 
ATOM     75  F   UNL A   1      45.244  25.938  24.741  1.00  0.00    -0.203 F 
ATOM     76  C   UNL A   1      44.755  23.636  24.736  1.00  0.00     0.198 A 
ATOM     77  C   UNL A   1      43.177  22.735  26.288  1.00  0.00     0.198 A 
ATOM     78  F   UNL A   1      42.137  24.115  27.856  1.00  0.00    -0.203 F 
ATOM     79  F   UNL A   1      45.663  23.450  23.768  1.00  0.00    -0.200 F 
ATOM     80  C   UNL A   1      44.085  22.544  25.264  1.00  0.00     0.200 A 
ATOM     81  F   UNL A   1      42.551  21.683  26.835  1.00  0.00    -0.200 F 
ATOM     82  F   UNL A   1      44.344  21.307  24.817  1.00  0.00    -0.200 F 
ENDBRANCH  48  72
BRANCH  60  83
ATOM     83  C   UNL A   1      45.461  30.608  28.900  1.00  0.00     0.064 A 
ATOM     84  C   UNL A   1      44.510  31.299  28.128  1.00  0.00     0.173 A 
ATOM     85  C   UNL A   1      46.793  31.021  28.786  1.00  0.00     0.173 A 
ATOM     86  F   UNL A   1      43.206  31.045  28.255  1.00  0.00    -0.203 F 
ATOM     87  C   UNL A   1      44.878  32.322  27.255  1.00  0.00     0.198 A 
ATOM     88  C   UNL A   1      47.156  32.067  27.939  1.00  0.00     0.198 A 
ATOM     89  F   UNL A   1      47.738  30.445  29.543  1.00  0.00    -0.203 F 
ATOM     90  F   UNL A   1      43.944  32.958  26.532  1.00  0.00    -0.200 F 
ATOM     91  C   UNL A   1      46.202  32.710  27.167  1.00  0.00     0.200 A 
ATOM     92  F   UNL A   1      48.432  32.473  27.897  1.00  0.00    -0.200 F 
ATOM     93  F   UNL A   1      46.554  33.722  26.362  1.00  0.00    -0.200 F 
ENDBRANCH  60  83
ENDBRANCH  34  35
ENDBRANCH  26  29
ENDBRANCH  24  25
ENDBRANCH  23  24
ENDBRANCH  22  23
ENDBRANCH   3  22
TORSDOF 15
ENDMDL
MODEL 3
REMARK VINA RESULT:     -12.2      3.216      7.820
REMARK SMILES Cc1ccc(OCCn2ccnc2)c(/C=C/C(=O)NCCCNC(=O)c2ccc(-c3c4nc(c(-c5c(F)c(F)c(F)c(F)c5F)c5ccc([nH]5)c(-c5c(F)c(F)c(F)c(F)c5F)c5nc(c(-c6c(F)c(F)c(F)c(F)c6F)c6ccc3[nH]6)C=C5)C=C4)cc2)n1
REMARK SMILES IDX 17 1 18 2 19 3 16 5 15 6 14 7 1 8 2 9 3 10 89 11 4 12 5 13
REMARK SMILES IDX 6 14 7 15 8 16 9 17 10 18 13 19 11 20 12 21 20 22 21 23
REMARK SMILES IDX 22 24 23 25 24 26 25 28 26 29 27 30 88 31 28 32 87 33 29 34
REMARK SMILES IDX 30 35 31 36 81 37 32 38 86 39 80 40 82 41 33 42 85 43 79 44
REMARK SMILES IDX 78 45 34 47 66 48 46 49 65 50 47 51 50 52 64 53 83 54 48 55
REMARK SMILES IDX 49 56 63 58 84 59 51 60 35 61 36 62 44 63 37 64 38 65 42 66
REMARK SMILES IDX 45 67 39 68 40 69 43 70 41 71 67 72 68 73 76 74 69 75 70 76
REMARK SMILES IDX 74 77 77 78 71 79 72 80 75 81 73 82 52 83 53 84 61 85 54 86
REMARK SMILES IDX 55 87 59 88 62 89 56 90 57 91 60 92 58 93
REMARK H PARENT 19 4 23 27 82 46 50 57
REMARK Flexibility Score: inf
ROOT
ATOM      1  C   UNL A   1      32.753  27.685  26.791  1.00  0.00     0.244 C 
ATOM      2  O   UNL A   1      31.610  27.254  26.931  1.00  0.00    -0.270 OA
ATOM      3  N   UNL A   1      33.100  28.841  27.424  1.00  0.00    -0.352 N 
ATOM      4  H   UNL A   1      32.348  29.313  27.851  1.00  0.00     0.163 HD
ENDROOT
BRANCH   1   5
ATOM      5  C   UNL A   1      33.725  26.906  25.984  1.00  0.00     0.073 C 
ATOM      6  C   UNL A   1      33.692  25.577  25.824  1.00  0.00     0.038 C 
BRANCH   6   7
ATOM      7  C   UNL A   1      34.667  24.750  25.108  1.00  0.00     0.105 A 
ATOM      8  C   UNL A   1      37.990  23.408  25.885  1.00  0.00     0.067 C 
ATOM      9  C   UNL A   1      36.675  23.609  25.198  1.00  0.00     0.038 A 
ATOM     10  C   UNL A   1      36.370  22.922  24.029  1.00  0.00     0.027 A 
ATOM     11  N   UNL A   1      35.815  24.477  25.772  1.00  0.00    -0.250 NA
ATOM     12  C   UNL A   1      35.195  23.234  23.348  1.00  0.00     0.050 A 
ATOM     13  C   UNL A   1      34.362  24.230  23.839  1.00  0.00     0.145 A 
BRANCH  13  14
ATOM     14  O   UNL A   1      33.290  24.757  23.162  1.00  0.00    -0.489 OA
BRANCH  14  15
ATOM     15  C   UNL A   1      32.229  23.882  22.751  1.00  0.00     0.251 C 
BRANCH  15  16
ATOM     16  C   UNL A   1      30.888  24.114  23.467  1.00  0.00     0.164 C 
BRANCH  16  17
ATOM     17  N   UNL A   1      30.875  23.714  24.859  1.00  0.00    -0.334 N 
ATOM     18  C   UNL A   1      31.449  22.589  25.381  1.00  0.00     0.107 A 
ATOM     19  C   UNL A   1      30.312  24.409  25.892  1.00  0.00     0.199 A 
ATOM     20  C   UNL A   1      31.296  22.715  26.742  1.00  0.00     0.130 A 
ATOM     21  N   UNL A   1      30.584  23.847  27.048  1.00  0.00    -0.245 NA
ENDBRANCH  16  17
ENDBRANCH  15  16
ENDBRANCH  14  15
ENDBRANCH  13  14
ENDBRANCH   6   7
ENDBRANCH   1   5
BRANCH   3  22
ATOM     22  C   UNL A   1      34.390  29.500  27.575  1.00  0.00     0.118 C 
BRANCH  22  23
ATOM     23  C   UNL A   1      34.326  31.006  27.274  1.00  0.00     0.042 C 
BRANCH  23  24
ATOM     24  C   UNL A   1      35.429  31.780  27.961  1.00  0.00     0.118 C 
BRANCH  24  25
ATOM     25  N   UNL A   1      35.007  32.362  29.245  1.00  0.00    -0.352 N 
ATOM     26  C   UNL A   1      35.373  31.983  30.526  1.00  0.00     0.251 C 
ATOM     27  H   UNL A   1      34.380  33.119  29.186  1.00  0.00     0.163 HD
ATOM     28  O   UNL A   1      34.722  32.329  31.508  1.00  0.00    -0.269 OA
BRANCH  26  29
ATOM     29  C   UNL A   1      36.579  31.160  30.680  1.00  0.00     0.039 A 
ATOM     30  C   UNL A   1      36.581  29.761  30.645  1.00  0.00     0.014 A 
ATOM     31  C   UNL A   1      37.763  31.867  30.761  1.00  0.00     0.014 A 
ATOM     32  C   UNL A   1      37.810  29.100  30.615  1.00  0.00     0.010 A 
ATOM     33  C   UNL A   1      38.910  31.249  30.384  1.00  0.00     0.010 A 
ATOM     34  C   UNL A   1      38.972  29.866  30.478  1.00  0.00    -0.014 A 
BRANCH  34  35
ATOM     35  C   UNL A   1      40.317  29.316  30.409  1.00  0.00     0.031 A 
ATOM     36  C   UNL A   1      40.983  29.085  31.719  1.00  0.00     0.074 A 
ATOM     37  C   UNL A   1      40.729  28.739  29.252  1.00  0.00     0.049 A 
ATOM     38  N   UNL A   1      42.123  29.537  32.126  1.00  0.00    -0.248 NA
ATOM     39  C   UNL A   1      40.243  28.330  32.746  1.00  0.00     0.031 C 
ATOM     40  C   UNL A   1      39.995  28.607  27.978  1.00  0.00     0.029 A 
ATOM     41  N   UNL A   1      41.836  27.992  29.017  1.00  0.00    -0.354 N 
ATOM     42  C   UNL A   1      42.332  28.973  33.382  1.00  0.00     0.074 A 
ATOM     43  C   UNL A   1      41.077  28.396  33.785  1.00  0.00     0.031 C 
ATOM     44  C   UNL A   1      40.546  27.631  27.228  1.00  0.00     0.029 A 
ATOM     45  C   UNL A   1      41.773  27.211  27.868  1.00  0.00     0.049 A 
ATOM     46  H   UNL A   1      42.622  28.002  29.613  1.00  0.00     0.167 HD
ATOM     47  C   UNL A   1      43.587  28.802  33.883  1.00  0.00     0.037 A 
ATOM     48  C   UNL A   1      42.659  26.251  27.504  1.00  0.00     0.037 A 
ATOM     49  C   UNL A   1      44.552  29.597  33.170  1.00  0.00     0.049 A 
ATOM     50  C   UNL A   1      43.901  26.502  28.280  1.00  0.00     0.074 A 
ATOM     51  C   UNL A   1      44.717  30.951  32.950  1.00  0.00     0.029 A 
ATOM     52  N   UNL A   1      45.322  28.976  32.215  1.00  0.00    -0.354 N 
ATOM     53  N   UNL A   1      44.638  27.571  28.133  1.00  0.00    -0.248 NA
ATOM     54  C   UNL A   1      44.036  25.820  29.559  1.00  0.00     0.031 C 
ATOM     55  C   UNL A   1      45.141  31.052  31.591  1.00  0.00     0.029 A 
ATOM     56  C   UNL A   1      45.276  29.758  31.088  1.00  0.00     0.049 A 
ATOM     57  H   UNL A   1      45.812  28.130  32.320  1.00  0.00     0.167 HD
ATOM     58  C   UNL A   1      45.011  27.928  29.422  1.00  0.00     0.074 A 
ATOM     59  C   UNL A   1      44.662  26.776  30.252  1.00  0.00     0.031 C 
ATOM     60  C   UNL A   1      45.286  29.228  29.744  1.00  0.00     0.037 A 
BRANCH  47  61
ATOM     61  C   UNL A   1      43.996  27.651  34.769  1.00  0.00     0.064 A 
ATOM     62  C   UNL A   1      43.829  26.332  34.307  1.00  0.00     0.173 A 
ATOM     63  C   UNL A   1      44.264  27.785  36.149  1.00  0.00     0.173 A 
ATOM     64  F   UNL A   1      43.550  26.091  33.017  1.00  0.00    -0.203 F 
ATOM     65  C   UNL A   1      43.857  25.237  35.176  1.00  0.00     0.198 A 
ATOM     66  C   UNL A   1      44.348  26.687  37.003  1.00  0.00     0.198 A 
ATOM     67  F   UNL A   1      44.339  28.980  36.748  1.00  0.00    -0.203 F 
ATOM     68  F   UNL A   1      43.570  24.013  34.714  1.00  0.00    -0.200 F 
ATOM     69  C   UNL A   1      44.112  25.417  36.524  1.00  0.00     0.200 A 
ATOM     70  F   UNL A   1      44.577  26.885  38.309  1.00  0.00    -0.200 F 
ATOM     71  F   UNL A   1      44.079  24.378  37.369  1.00  0.00    -0.200 F 
ENDBRANCH  47  61
BRANCH  48  72
ATOM     72  C   UNL A   1      42.359  24.964  26.832  1.00  0.00     0.064 A 
ATOM     73  C   UNL A   1      43.042  24.570  25.673  1.00  0.00     0.173 A 
ATOM     74  C   UNL A   1      41.576  23.976  27.464  1.00  0.00     0.173 A 
ATOM     75  F   UNL A   1      43.847  25.436  25.040  1.00  0.00    -0.203 F 
ATOM     76  C   UNL A   1      42.960  23.260  25.182  1.00  0.00     0.198 A 
ATOM     77  C   UNL A   1      41.490  22.673  26.971  1.00  0.00     0.198 A 
ATOM     78  F   UNL A   1      40.953  24.230  28.624  1.00  0.00    -0.203 F 
ATOM     79  F   UNL A   1      43.669  22.906  24.102  1.00  0.00    -0.200 F 
ATOM     80  C   UNL A   1      42.190  22.312  25.836  1.00  0.00     0.200 A 
ATOM     81  F   UNL A   1      40.774  21.755  27.638  1.00  0.00    -0.200 F 
ATOM     82  F   UNL A   1      42.157  21.045  25.399  1.00  0.00    -0.200 F 
ENDBRANCH  48  72
BRANCH  60  83
ATOM     83  C   UNL A   1      45.363  30.230  28.622  1.00  0.00     0.064 A 
ATOM     84  C   UNL A   1      44.291  31.054  28.235  1.00  0.00     0.173 A 
ATOM     85  C   UNL A   1      46.604  30.483  28.029  1.00  0.00     0.173 A 
ATOM     86  F   UNL A   1      43.100  30.956  28.828  1.00  0.00    -0.203 F 
ATOM     87  C   UNL A   1      44.442  32.050  27.272  1.00  0.00     0.198 A 
ATOM     88  C   UNL A   1      46.764  31.502  27.090  1.00  0.00     0.198 A 
ATOM     89  F   UNL A   1      47.681  29.775  28.402  1.00  0.00    -0.203 F 
ATOM     90  F   UNL A   1      43.397  32.815  26.924  1.00  0.00    -0.200 F 
ATOM     91  C   UNL A   1      45.683  32.278  26.704  1.00  0.00     0.200 A 
ATOM     92  F   UNL A   1      47.979  31.752  26.584  1.00  0.00    -0.200 F 
ATOM     93  F   UNL A   1      45.844  33.263  25.811  1.00  0.00    -0.200 F 
ENDBRANCH  60  83
ENDBRANCH  34  35
ENDBRANCH  26  29
ENDBRANCH  24  25
ENDBRANCH  23  24
ENDBRANCH  22  23
ENDBRANCH   3  22
TORSDOF 15
ENDMDL
