MODEL 1
REMARK VINA RESULT:     -14.8      0.000      0.000
REMARK SMILES Cc1ccccc1C(=O)Nc1cc(C(=O)NCCCNC(=O)c2ccc(-c3c4nc(c(-c5c(F)c(F)c(F)c(F)c5F)c5ccc([nH]5)c(-c5c(F)c(F)c(F)c(F)c5F)c5nc(c(-c6c(F)c(F)c(F)c(F)c6F)c6ccc3[nH]6)C=C5)C=C4)cc2)ccc1N1CC[NH+](CC(=O)Nc2ccc(F)cc2)CC1
REMARK SMILES IDX 17 1 16 2 14 3 15 4 13 6 11 7 12 8 88 9 87 10 86 11 10 12
REMARK SMILES IDX 8 13 9 14 7 16 1 17 2 18 3 19 4 20 6 21 5 22 89 23 90 24
REMARK SMILES IDX 105 25 91 26 104 27 92 28 93 30 94 31 95 32 96 33 97 35
REMARK SMILES IDX 98 36 103 37 99 38 102 39 100 40 101 41 18 42 19 43 20 44
REMARK SMILES IDX 21 45 22 47 23 48 24 49 85 50 25 51 84 52 26 53 27 54 28 55
REMARK SMILES IDX 78 56 29 57 83 58 77 59 79 60 30 61 82 62 76 63 75 64 31 66
REMARK SMILES IDX 63 67 43 68 62 69 44 70 47 71 61 72 80 73 45 74 46 75 60 77
REMARK SMILES IDX 81 78 48 79 32 80 33 81 41 82 34 83 35 84 39 85 42 86 36 87
REMARK SMILES IDX 37 88 40 89 38 90 64 91 65 92 73 93 66 94 67 95 71 96 74 97
REMARK SMILES IDX 68 98 69 99 72 100 70 101 49 102 50 103 58 104 51 105 52 106
REMARK SMILES IDX 56 107 59 108 53 109 54 110 57 111 55 112
REMARK H PARENT 16 5 10 15 92 29 96 34 20 46 79 65 47 76
REMARK Flexibility Score: inf
ROOT
ATOM      1  C   UNL A   1      34.339  31.351  27.971  1.00  0.00     0.118 C 
ENDROOT
BRANCH   1   2
ATOM      2  N   UNL A   1      33.127  31.840  27.306  1.00  0.00    -0.352 N 
ATOM      3  C   UNL A   1      32.027  31.216  26.745  1.00  0.00     0.251 C 
ATOM      4  O   UNL A   1      31.083  31.933  26.411  1.00  0.00    -0.269 OA
ATOM      5  H   UNL A   1      33.088  32.823  27.245  1.00  0.00     0.163 HD
BRANCH   3   6
ATOM      6  C   UNL A   1      31.911  29.745  26.525  1.00  0.00     0.042 A 
ATOM      7  C   UNL A   1      31.859  27.834  25.036  1.00  0.00     0.065 A 
ATOM      8  C   UNL A   1      31.872  29.195  25.265  1.00  0.00     0.042 A 
ATOM      9  C   UNL A   1      31.739  26.904  26.094  1.00  0.00     0.061 A 
ATOM     10  C   UNL A   1      31.745  27.454  27.386  1.00  0.00     0.029 A 
ATOM     11  C   UNL A   1      31.861  28.849  27.601  1.00  0.00     0.016 A 
BRANCH   7  12
ATOM     12  N   UNL A   1      31.958  27.432  23.697  1.00  0.00    -0.320 N 
ATOM     13  C   UNL A   1      31.141  27.718  22.614  1.00  0.00     0.255 C 
ATOM     14  O   UNL A   1      31.556  27.363  21.505  1.00  0.00    -0.269 OA
ATOM     15  H   UNL A   1      32.727  26.854  23.493  1.00  0.00     0.170 HD
BRANCH  13  16
ATOM     16  C   UNL A   1      29.807  28.414  22.662  1.00  0.00     0.043 A 
ATOM     17  C   UNL A   1      28.356  26.688  23.963  1.00  0.00     0.045 C 
ATOM     18  C   UNL A   1      28.582  27.966  23.208  1.00  0.00    -0.038 A 
ATOM     19  C   UNL A   1      27.432  28.784  23.074  1.00  0.00     0.004 A 
ATOM     20  C   UNL A   1      27.501  30.058  22.518  1.00  0.00     0.000 A 
ATOM     21  C   UNL A   1      29.855  29.728  22.145  1.00  0.00     0.014 A 
ATOM     22  C   UNL A   1      28.722  30.544  22.080  1.00  0.00     0.001 A 
ENDBRANCH  13  16
ENDBRANCH   7  12
BRANCH   9  23
ATOM     23  N   UNL A   1      31.701  25.537  25.867  1.00  0.00    -0.359 N 
ATOM     24  C   UNL A   1      30.532  24.655  26.120  1.00  0.00     0.178 C 
ATOM     25  C   UNL A   1      32.951  24.789  25.923  1.00  0.00     0.178 C 
ATOM     26  C   UNL A   1      30.677  23.240  25.414  1.00  0.00     0.284 C 
ATOM     27  C   UNL A   1      32.906  23.775  24.778  1.00  0.00     0.284 C 
ATOM     28  N   UNL A   1      32.023  22.680  25.143  1.00  0.00    -0.324 N 
ATOM     29  H   UNL A   1      31.860  22.025  24.379  1.00  0.00     0.348 HD
BRANCH  28  30
ATOM     30  C   UNL A   1      32.650  21.730  26.094  1.00  0.00     0.364 C 
BRANCH  30  31
ATOM     31  C   UNL A   1      33.230  20.412  25.573  1.00  0.00     0.279 C 
ATOM     32  O   UNL A   1      32.486  19.419  25.514  1.00  0.00    -0.268 OA
ATOM     33  N   UNL A   1      34.497  20.211  25.088  1.00  0.00    -0.321 N 
ATOM     34  H   UNL A   1      34.505  19.413  24.510  1.00  0.00     0.170 HD
BRANCH  33  35
ATOM     35  C   UNL A   1      35.799  20.769  25.141  1.00  0.00     0.041 A 
ATOM     36  C   UNL A   1      36.857  19.874  24.889  1.00  0.00     0.029 A 
ATOM     37  C   UNL A   1      36.157  22.056  25.532  1.00  0.00     0.029 A 
ATOM     38  C   UNL A   1      38.201  20.240  25.057  1.00  0.00     0.041 A 
ATOM     39  C   UNL A   1      37.499  22.414  25.773  1.00  0.00     0.041 A 
ATOM     40  C   UNL A   1      38.512  21.504  25.525  1.00  0.00     0.123 A 
ATOM     41  F   UNL A   1      39.791  21.847  25.729  1.00  0.00    -0.207 F 
ENDBRANCH  33  35
ENDBRANCH  30  31
ENDBRANCH  28  30
ENDBRANCH   9  23
ENDBRANCH   3   6
ENDBRANCH   1   2
BRANCH   1  42
ATOM     42  C   UNL A   1      35.143  32.448  28.686  1.00  0.00     0.042 C 
BRANCH  42  43
ATOM     43  C   UNL A   1      35.151  32.316  30.189  1.00  0.00     0.118 C 
BRANCH  43  44
ATOM     44  N   UNL A   1      34.072  33.016  30.884  1.00  0.00    -0.352 N 
ATOM     45  C   UNL A   1      34.139  33.658  32.113  1.00  0.00     0.251 C 
ATOM     46  H   UNL A   1      33.199  33.033  30.429  1.00  0.00     0.163 HD
ATOM     47  O   UNL A   1      33.163  34.215  32.602  1.00  0.00    -0.269 OA
BRANCH  45  48
ATOM     48  C   UNL A   1      35.474  33.784  32.746  1.00  0.00     0.039 A 
ATOM     49  C   UNL A   1      36.371  34.640  32.102  1.00  0.00     0.014 A 
ATOM     50  C   UNL A   1      35.927  32.742  33.547  1.00  0.00     0.014 A 
ATOM     51  C   UNL A   1      37.694  34.242  31.973  1.00  0.00     0.010 A 
ATOM     52  C   UNL A   1      37.200  32.273  33.303  1.00  0.00     0.010 A 
ATOM     53  C   UNL A   1      38.053  32.982  32.446  1.00  0.00    -0.014 A 
BRANCH  53  54
ATOM     54  C   UNL A   1      39.310  32.334  32.109  1.00  0.00     0.031 A 
ATOM     55  C   UNL A   1      39.245  31.107  31.301  1.00  0.00     0.074 A 
ATOM     56  C   UNL A   1      40.504  32.838  32.492  1.00  0.00     0.049 A 
ATOM     57  N   UNL A   1      40.149  30.190  31.289  1.00  0.00    -0.248 NA
ATOM     58  C   UNL A   1      38.078  30.780  30.495  1.00  0.00     0.031 C 
ATOM     59  C   UNL A   1      41.826  32.417  32.032  1.00  0.00     0.029 A 
ATOM     60  N   UNL A   1      40.774  33.737  33.535  1.00  0.00    -0.354 N 
ATOM     61  C   UNL A   1      39.828  29.304  30.287  1.00  0.00     0.074 A 
ATOM     62  C   UNL A   1      38.482  29.653  29.909  1.00  0.00     0.031 C 
ATOM     63  C   UNL A   1      42.744  32.791  32.937  1.00  0.00     0.029 A 
ATOM     64  C   UNL A   1      42.032  33.347  34.070  1.00  0.00     0.049 A 
ATOM     65  H   UNL A   1      40.207  34.486  33.835  1.00  0.00     0.167 HD
ATOM     66  C   UNL A   1      40.803  28.476  29.814  1.00  0.00     0.037 A 
ATOM     67  C   UNL A   1      42.138  32.916  35.362  1.00  0.00     0.037 A 
ATOM     68  C   UNL A   1      42.013  28.574  30.646  1.00  0.00     0.049 A 
ATOM     69  C   UNL A   1      42.524  31.459  35.496  1.00  0.00     0.074 A 
ATOM     70  C   UNL A   1      43.227  29.232  30.516  1.00  0.00     0.029 A 
ATOM     71  N   UNL A   1      41.939  28.192  31.978  1.00  0.00    -0.354 N 
ATOM     72  N   UNL A   1      42.759  30.659  34.491  1.00  0.00    -0.248 NA
ATOM     73  C   UNL A   1      42.550  30.763  36.781  1.00  0.00     0.031 C 
ATOM     74  C   UNL A   1      43.866  29.249  31.792  1.00  0.00     0.029 A 
ATOM     75  C   UNL A   1      43.057  28.582  32.693  1.00  0.00     0.049 A 
ATOM     76  H   UNL A   1      41.180  27.701  32.366  1.00  0.00     0.167 HD
ATOM     77  C   UNL A   1      42.903  29.377  34.954  1.00  0.00     0.074 A 
ATOM     78  C   UNL A   1      42.737  29.492  36.392  1.00  0.00     0.031 C 
ATOM     79  C   UNL A   1      43.112  28.309  34.125  1.00  0.00     0.037 A 
BRANCH  66  80
ATOM     80  C   UNL A   1      40.764  27.794  28.455  1.00  0.00     0.064 A 
ATOM     81  C   UNL A   1      40.107  26.554  28.303  1.00  0.00     0.173 A 
ATOM     82  C   UNL A   1      41.412  28.242  27.284  1.00  0.00     0.173 A 
ATOM     83  F   UNL A   1      39.345  26.043  29.278  1.00  0.00    -0.203 F 
ATOM     84  C   UNL A   1      40.206  25.783  27.138  1.00  0.00     0.198 A 
ATOM     85  C   UNL A   1      41.553  27.455  26.138  1.00  0.00     0.198 A 
ATOM     86  F   UNL A   1      41.880  29.484  27.161  1.00  0.00    -0.203 F 
ATOM     87  F   UNL A   1      39.570  24.605  27.066  1.00  0.00    -0.200 F 
ATOM     88  C   UNL A   1      40.960  26.215  26.069  1.00  0.00     0.200 A 
ATOM     89  F   UNL A   1      42.263  27.919  25.099  1.00  0.00    -0.200 F 
ATOM     90  F   UNL A   1      41.088  25.463  24.968  1.00  0.00    -0.200 F 
ENDBRANCH  66  80
BRANCH  67  91
ATOM     91  C   UNL A   1      41.190  33.641  36.256  1.00  0.00     0.064 A 
ATOM     92  C   UNL A   1      39.998  32.966  36.585  1.00  0.00     0.173 A 
ATOM     93  C   UNL A   1      41.656  34.616  37.142  1.00  0.00     0.173 A 
ATOM     94  F   UNL A   1      39.482  32.059  35.740  1.00  0.00    -0.203 F 
ATOM     95  C   UNL A   1      39.461  33.066  37.863  1.00  0.00     0.198 A 
ATOM     96  C   UNL A   1      41.076  34.753  38.400  1.00  0.00     0.198 A 
ATOM     97  F   UNL A   1      42.759  35.324  36.862  1.00  0.00    -0.203 F 
ATOM     98  F   UNL A   1      38.470  32.243  38.234  1.00  0.00    -0.200 F 
ATOM     99  C   UNL A   1      40.034  33.923  38.786  1.00  0.00     0.200 A 
ATOM    100  F   UNL A   1      41.608  35.611  39.282  1.00  0.00    -0.200 F 
ATOM    101  F   UNL A   1      39.618  33.906  40.060  1.00  0.00    -0.200 F 
ENDBRANCH  67  91
BRANCH  79 102
ATOM    102  C   UNL A   1      43.359  26.905  34.626  1.00  0.00     0.064 A 
ATOM    103  C   UNL A   1      42.317  25.995  34.881  1.00  0.00     0.173 A 
ATOM    104  C   UNL A   1      44.653  26.447  34.958  1.00  0.00     0.173 A 
ATOM    105  F   UNL A   1      41.033  26.360  34.761  1.00  0.00    -0.203 F 
ATOM    106  C   UNL A   1      42.562  24.686  35.301  1.00  0.00     0.198 A 
ATOM    107  C   UNL A   1      44.890  25.160  35.441  1.00  0.00     0.198 A 
ATOM    108  F   UNL A   1      45.737  27.219  34.815  1.00  0.00    -0.203 F 
ATOM    109  F   UNL A   1      41.538  23.831  35.440  1.00  0.00    -0.200 F 
ATOM    110  C   UNL A   1      43.848  24.268  35.581  1.00  0.00     0.200 A 
ATOM    111  F   UNL A   1      46.139  24.791  35.757  1.00  0.00    -0.200 F 
ATOM    112  F   UNL A   1      44.082  23.016  35.994  1.00  0.00    -0.200 F 
ENDBRANCH  79 102
ENDBRANCH  53  54
ENDBRANCH  45  48
ENDBRANCH  43  44
ENDBRANCH  42  43
ENDBRANCH   1  42
TORSDOF 16
ENDMDL
MODEL 2
REMARK VINA RESULT:     -14.7      2.749      4.348
REMARK SMILES Cc1ccccc1C(=O)Nc1cc(C(=O)NCCCNC(=O)c2ccc(-c3c4nc(c(-c5c(F)c(F)c(F)c(F)c5F)c5ccc([nH]5)c(-c5c(F)c(F)c(F)c(F)c5F)c5nc(c(-c6c(F)c(F)c(F)c(F)c6F)c6ccc3[nH]6)C=C5)C=C4)cc2)ccc1N1CC[NH+](CC(=O)Nc2ccc(F)cc2)CC1
REMARK SMILES IDX 17 1 16 2 14 3 15 4 13 6 11 7 12 8 88 9 87 10 86 11 10 12
REMARK SMILES IDX 8 13 9 14 7 16 1 17 2 18 3 19 4 20 6 21 5 22 89 23 90 24
REMARK SMILES IDX 105 25 91 26 104 27 92 28 93 30 94 31 95 32 96 33 97 35
REMARK SMILES IDX 98 36 103 37 99 38 102 39 100 40 101 41 18 42 19 43 20 44
REMARK SMILES IDX 21 45 22 47 23 48 24 49 85 50 25 51 84 52 26 53 27 54 28 55
REMARK SMILES IDX 78 56 29 57 83 58 77 59 79 60 30 61 82 62 76 63 75 64 31 66
REMARK SMILES IDX 63 67 43 68 62 69 44 70 47 71 61 72 80 73 45 74 46 75 60 77
REMARK SMILES IDX 81 78 48 79 32 80 33 81 41 82 34 83 35 84 39 85 42 86 36 87
REMARK SMILES IDX 37 88 40 89 38 90 64 91 65 92 73 93 66 94 67 95 71 96 74 97
REMARK SMILES IDX 68 98 69 99 72 100 70 101 49 102 50 103 58 104 51 105 52 106
REMARK SMILES IDX 56 107 59 108 53 109 54 110 57 111 55 112
REMARK H PARENT 16 5 10 15 92 29 96 34 20 46 79 65 47 76
REMARK Flexibility Score: inf
ROOT
ATOM      1  C   UNL A   1      34.134  31.550  27.605  1.00  0.00     0.118 C 
ENDROOT
BRANCH   1   2
ATOM      2  N   UNL A   1      32.865  31.834  26.926  1.00  0.00    -0.352 N 
ATOM      3  C   UNL A   1      31.820  31.043  26.483  1.00  0.00     0.251 C 
ATOM      4  O   UNL A   1      30.803  31.619  26.096  1.00  0.00    -0.269 OA
ATOM      5  H   UNL A   1      32.728  32.793  26.746  1.00  0.00     0.163 HD
BRANCH   3   6
ATOM      6  C   UNL A   1      31.844  29.551  26.451  1.00  0.00     0.042 A 
ATOM      7  C   UNL A   1      31.916  27.472  25.210  1.00  0.00     0.065 A 
ATOM      8  C   UNL A   1      31.801  28.845  25.271  1.00  0.00     0.042 A 
ATOM      9  C   UNL A   1      31.942  26.675  26.379  1.00  0.00     0.061 A 
ATOM     10  C   UNL A   1      31.953  27.383  27.592  1.00  0.00     0.029 A 
ATOM     11  C   UNL A   1      31.936  28.798  27.629  1.00  0.00     0.016 A 
BRANCH   7  12
ATOM     12  N   UNL A   1      31.992  26.914  23.927  1.00  0.00    -0.320 N 
ATOM     13  C   UNL A   1      31.236  27.172  22.793  1.00  0.00     0.255 C 
ATOM     14  O   UNL A   1      31.627  26.650  21.743  1.00  0.00    -0.269 OA
ATOM     15  H   UNL A   1      32.690  26.230  23.812  1.00  0.00     0.170 HD
BRANCH  13  16
ATOM     16  C   UNL A   1      29.995  28.020  22.723  1.00  0.00     0.043 A 
ATOM     17  C   UNL A   1      28.278  26.556  24.021  1.00  0.00     0.045 C 
ATOM     18  C   UNL A   1      28.697  27.751  23.214  1.00  0.00    -0.038 A 
ATOM     19  C   UNL A   1      27.662  28.688  22.967  1.00  0.00     0.004 A 
ATOM     20  C   UNL A   1      27.915  29.910  22.351  1.00  0.00     0.000 A 
ATOM     21  C   UNL A   1      30.228  29.287  22.140  1.00  0.00     0.014 A 
ATOM     22  C   UNL A   1      29.207  30.224  21.963  1.00  0.00     0.001 A 
ENDBRANCH  13  16
ENDBRANCH   7  12
BRANCH   9  23
ATOM     23  N   UNL A   1      32.032  25.293  26.322  1.00  0.00    -0.359 N 
ATOM     24  C   UNL A   1      33.289  24.518  26.169  1.00  0.00     0.178 C 
ATOM     25  C   UNL A   1      30.883  24.543  25.829  1.00  0.00     0.178 C 
ATOM     26  C   UNL A   1      33.100  22.980  26.516  1.00  0.00     0.284 C 
ATOM     27  C   UNL A   1      30.752  23.306  26.721  1.00  0.00     0.284 C 
ATOM     28  N   UNL A   1      31.772  22.339  26.350  1.00  0.00    -0.324 N 
ATOM     29  H   UNL A   1      31.813  21.539  26.980  1.00  0.00     0.348 HD
BRANCH  28  30
ATOM     30  C   UNL A   1      31.440  21.602  25.107  1.00  0.00     0.364 C 
BRANCH  30  31
ATOM     31  C   UNL A   1      32.550  21.269  24.107  1.00  0.00     0.279 C 
ATOM     32  O   UNL A   1      32.867  22.124  23.265  1.00  0.00    -0.268 OA
ATOM     33  N   UNL A   1      33.304  20.124  24.074  1.00  0.00    -0.321 N 
ATOM     34  H   UNL A   1      34.146  20.298  23.595  1.00  0.00     0.170 HD
BRANCH  33  35
ATOM     35  C   UNL A   1      33.275  18.772  24.502  1.00  0.00     0.041 A 
ATOM     36  C   UNL A   1      33.762  17.829  23.575  1.00  0.00     0.029 A 
ATOM     37  C   UNL A   1      32.709  18.260  25.666  1.00  0.00     0.029 A 
ATOM     38  C   UNL A   1      33.656  16.446  23.791  1.00  0.00     0.041 A 
ATOM     39  C   UNL A   1      32.532  16.875  25.860  1.00  0.00     0.041 A 
ATOM     40  C   UNL A   1      33.015  15.979  24.924  1.00  0.00     0.123 A 
ATOM     41  F   UNL A   1      32.870  14.661  25.116  1.00  0.00    -0.207 F 
ENDBRANCH  33  35
ENDBRANCH  30  31
ENDBRANCH  28  30
ENDBRANCH   9  23
ENDBRANCH   3   6
ENDBRANCH   1   2
BRANCH   1  42
ATOM     42  C   UNL A   1      34.935  32.805  27.980  1.00  0.00     0.042 C 
BRANCH  42  43
ATOM     43  C   UNL A   1      36.336  32.515  28.458  1.00  0.00     0.118 C 
BRANCH  43  44
ATOM     44  N   UNL A   1      36.482  32.354  29.904  1.00  0.00    -0.352 N 
ATOM     45  C   UNL A   1      36.881  31.214  30.589  1.00  0.00     0.251 C 
ATOM     46  H   UNL A   1      36.273  33.144  30.454  1.00  0.00     0.163 HD
ATOM     47  O   UNL A   1      36.968  31.196  31.811  1.00  0.00    -0.269 OA
BRANCH  45  48
ATOM     48  C   UNL A   1      37.351  30.062  29.782  1.00  0.00     0.039 A 
ATOM     49  C   UNL A   1      37.506  28.860  30.477  1.00  0.00     0.014 A 
ATOM     50  C   UNL A   1      38.071  30.318  28.622  1.00  0.00     0.014 A 
ATOM     51  C   UNL A   1      38.624  28.080  30.215  1.00  0.00     0.010 A 
ATOM     52  C   UNL A   1      39.252  29.627  28.453  1.00  0.00     0.010 A 
ATOM     53  C   UNL A   1      39.565  28.561  29.308  1.00  0.00    -0.014 A 
BRANCH  53  54
ATOM     54  C   UNL A   1      40.899  27.998  29.172  1.00  0.00     0.031 A 
ATOM     55  C   UNL A   1      41.001  26.572  28.824  1.00  0.00     0.074 A 
ATOM     56  C   UNL A   1      42.014  28.745  29.327  1.00  0.00     0.049 A 
ATOM     57  N   UNL A   1      42.014  25.824  29.094  1.00  0.00    -0.248 NA
ATOM     58  C   UNL A   1      39.895  25.851  28.210  1.00  0.00     0.031 C 
ATOM     59  C   UNL A   1      43.385  28.361  28.995  1.00  0.00     0.029 A 
ATOM     60  N   UNL A   1      42.153  29.969  29.999  1.00  0.00    -0.354 N 
ATOM     61  C   UNL A   1      41.821  24.620  28.457  1.00  0.00     0.074 A 
ATOM     62  C   UNL A   1      40.447  24.652  28.025  1.00  0.00     0.031 C 
ATOM     63  C   UNL A   1      44.235  29.129  29.695  1.00  0.00     0.029 A 
ATOM     64  C   UNL A   1      43.444  29.941  30.596  1.00  0.00     0.049 A 
ATOM     65  H   UNL A   1      41.493  30.699  30.047  1.00  0.00     0.167 HD
ATOM     66  C   UNL A   1      42.900  23.809  28.261  1.00  0.00     0.037 A 
ATOM     67  C   UNL A   1      43.585  29.988  31.954  1.00  0.00     0.037 A 
ATOM     68  C   UNL A   1      44.076  24.331  28.975  1.00  0.00     0.049 A 
ATOM     69  C   UNL A   1      44.152  28.720  32.557  1.00  0.00     0.074 A 
ATOM     70  C   UNL A   1      45.198  25.051  28.596  1.00  0.00     0.029 A 
ATOM     71  N   UNL A   1      44.033  24.413  30.360  1.00  0.00    -0.354 N 
ATOM     72  N   UNL A   1      44.500  27.664  31.873  1.00  0.00    -0.248 NA
ATOM     73  C   UNL A   1      44.247  28.507  34.000  1.00  0.00     0.031 C 
ATOM     74  C   UNL A   1      45.813  25.576  29.772  1.00  0.00     0.029 A 
ATOM     75  C   UNL A   1      45.082  25.156  30.869  1.00  0.00     0.049 A 
ATOM     76  H   UNL A   1      43.337  23.992  30.913  1.00  0.00     0.167 HD
ATOM     77  C   UNL A   1      44.799  26.641  32.735  1.00  0.00     0.074 A 
ATOM     78  C   UNL A   1      44.599  27.212  34.055  1.00  0.00     0.031 C 
ATOM     79  C   UNL A   1      45.152  25.391  32.307  1.00  0.00     0.037 A 
BRANCH  66  80
ATOM     80  C   UNL A   1      42.966  22.710  27.212  1.00  0.00     0.064 A 
ATOM     81  C   UNL A   1      42.192  21.539  27.362  1.00  0.00     0.173 A 
ATOM     82  C   UNL A   1      43.818  22.688  26.087  1.00  0.00     0.173 A 
ATOM     83  F   UNL A   1      41.247  21.443  28.306  1.00  0.00    -0.203 F 
ATOM     84  C   UNL A   1      42.356  20.413  26.546  1.00  0.00     0.198 A 
ATOM     85  C   UNL A   1      44.019  21.551  25.300  1.00  0.00     0.198 A 
ATOM     86  F   UNL A   1      44.443  23.781  25.648  1.00  0.00    -0.203 F 
ATOM     87  F   UNL A   1      41.600  19.326  26.754  1.00  0.00    -0.200 F 
ATOM     88  C   UNL A   1      43.297  20.405  25.538  1.00  0.00     0.200 A 
ATOM     89  F   UNL A   1      44.915  21.585  24.303  1.00  0.00    -0.200 F 
ATOM     90  F   UNL A   1      43.483  19.316  24.781  1.00  0.00    -0.200 F 
ENDBRANCH  66  80
BRANCH  67  91
ATOM     91  C   UNL A   1      42.541  30.847  32.580  1.00  0.00     0.064 A 
ATOM     92  C   UNL A   1      41.452  30.179  33.176  1.00  0.00     0.173 A 
ATOM     93  C   UNL A   1      42.863  32.124  33.051  1.00  0.00     0.173 A 
ATOM     94  F   UNL A   1      41.072  28.974  32.722  1.00  0.00    -0.203 F 
ATOM     95  C   UNL A   1      40.900  30.649  34.361  1.00  0.00     0.198 A 
ATOM     96  C   UNL A   1      42.262  32.615  34.207  1.00  0.00     0.198 A 
ATOM     97  F   UNL A   1      43.858  32.827  32.494  1.00  0.00    -0.203 F 
ATOM     98  F   UNL A   1      40.031  29.885  35.038  1.00  0.00    -0.200 F 
ATOM     99  C   UNL A   1      41.344  31.843  34.903  1.00  0.00     0.200 A 
ATOM    100  F   UNL A   1      42.665  33.790  34.711  1.00  0.00    -0.200 F 
ATOM    101  F   UNL A   1      40.927  32.219  36.120  1.00  0.00    -0.200 F 
ENDBRANCH  67  91
BRANCH  79 102
ATOM    102  C   UNL A   1      45.568  24.279  33.242  1.00  0.00     0.064 A 
ATOM    103  C   UNL A   1      44.699  23.239  33.620  1.00  0.00     0.173 A 
ATOM    104  C   UNL A   1      46.832  24.266  33.872  1.00  0.00     0.173 A 
ATOM    105  F   UNL A   1      43.420  23.224  33.220  1.00  0.00    -0.203 F 
ATOM    106  C   UNL A   1      45.111  22.194  34.450  1.00  0.00     0.198 A 
ATOM    107  C   UNL A   1      47.219  23.257  34.753  1.00  0.00     0.198 A 
ATOM    108  F   UNL A   1      47.746  25.219  33.648  1.00  0.00    -0.203 F 
ATOM    109  F   UNL A   1      44.273  21.179  34.704  1.00  0.00    -0.200 F 
ATOM    110  C   UNL A   1      46.370  22.203  35.017  1.00  0.00     0.200 A 
ATOM    111  F   UNL A   1      48.425  23.311  35.334  1.00  0.00    -0.200 F 
ATOM    112  F   UNL A   1      46.761  21.206  35.821  1.00  0.00    -0.200 F 
ENDBRANCH  79 102
ENDBRANCH  53  54
ENDBRANCH  45  48
ENDBRANCH  43  44
ENDBRANCH  42  43
ENDBRANCH   1  42
TORSDOF 16
ENDMDL
MODEL 3
REMARK VINA RESULT:     -14.5      3.018      4.445
REMARK SMILES Cc1ccccc1C(=O)Nc1cc(C(=O)NCCCNC(=O)c2ccc(-c3c4nc(c(-c5c(F)c(F)c(F)c(F)c5F)c5ccc([nH]5)c(-c5c(F)c(F)c(F)c(F)c5F)c5nc(c(-c6c(F)c(F)c(F)c(F)c6F)c6ccc3[nH]6)C=C5)C=C4)cc2)ccc1N1CC[NH+](CC(=O)Nc2ccc(F)cc2)CC1
REMARK SMILES IDX 17 1 16 2 14 3 15 4 13 6 11 7 12 8 88 9 87 10 86 11 10 12
REMARK SMILES IDX 8 13 9 14 7 16 1 17 2 18 3 19 4 20 6 21 5 22 89 23 90 24
REMARK SMILES IDX 105 25 91 26 104 27 92 28 93 30 94 31 95 32 96 33 97 35
REMARK SMILES IDX 98 36 103 37 99 38 102 39 100 40 101 41 18 42 19 43 20 44
REMARK SMILES IDX 21 45 22 47 23 48 24 49 85 50 25 51 84 52 26 53 27 54 28 55
REMARK SMILES IDX 78 56 29 57 83 58 77 59 79 60 30 61 82 62 76 63 75 64 31 66
REMARK SMILES IDX 63 67 43 68 62 69 44 70 47 71 61 72 80 73 45 74 46 75 60 77
REMARK SMILES IDX 81 78 48 79 32 80 33 81 41 82 34 83 35 84 39 85 42 86 36 87
REMARK SMILES IDX 37 88 40 89 38 90 64 91 65 92 73 93 66 94 67 95 71 96 74 97
REMARK SMILES IDX 68 98 69 99 72 100 70 101 49 102 50 103 58 104 51 105 52 106
REMARK SMILES IDX 56 107 59 108 53 109 54 110 57 111 55 112
REMARK H PARENT 16 5 10 15 92 29 96 34 20 46 79 65 47 76
REMARK Flexibility Score: inf
ROOT
ATOM      1  C   UNL A   1      34.586  31.138  27.256  1.00  0.00     0.118 C 
ENDROOT
BRANCH   1   2
ATOM      2  N   UNL A   1      33.236  31.610  26.931  1.00  0.00    -0.352 N 
ATOM      3  C   UNL A   1      32.037  30.970  26.669  1.00  0.00     0.251 C 
ATOM      4  O   UNL A   1      31.029  31.674  26.596  1.00  0.00    -0.269 OA
ATOM      5  H   UNL A   1      33.168  32.592  26.889  1.00  0.00     0.163 HD
BRANCH   3   6
ATOM      6  C   UNL A   1      31.889  29.498  26.478  1.00  0.00     0.042 A 
ATOM      7  C   UNL A   1      31.755  27.566  25.023  1.00  0.00     0.065 A 
ATOM      8  C   UNL A   1      31.798  28.930  25.229  1.00  0.00     0.042 A 
ATOM      9  C   UNL A   1      31.655  26.654  26.099  1.00  0.00     0.061 A 
ATOM     10  C   UNL A   1      31.713  27.225  27.381  1.00  0.00     0.029 A 
ATOM     11  C   UNL A   1      31.860  28.620  27.569  1.00  0.00     0.016 A 
BRANCH   7  12
ATOM     12  N   UNL A   1      31.802  27.140  23.688  1.00  0.00    -0.320 N 
ATOM     13  C   UNL A   1      31.003  27.488  22.609  1.00  0.00     0.255 C 
ATOM     14  O   UNL A   1      31.373  27.084  21.501  1.00  0.00    -0.269 OA
ATOM     15  H   UNL A   1      32.514  26.492  23.484  1.00  0.00     0.170 HD
BRANCH  13  16
ATOM     16  C   UNL A   1      29.739  28.303  22.662  1.00  0.00     0.043 A 
ATOM     17  C   UNL A   1      28.123  26.694  23.919  1.00  0.00     0.045 C 
ATOM     18  C   UNL A   1      28.473  27.959  23.190  1.00  0.00    -0.038 A 
ATOM     19  C   UNL A   1      27.404  28.882  23.063  1.00  0.00     0.004 A 
ATOM     20  C   UNL A   1      27.596  30.155  22.534  1.00  0.00     0.000 A 
ATOM     21  C   UNL A   1      29.912  29.617  22.170  1.00  0.00     0.014 A 
ATOM     22  C   UNL A   1      28.860  30.534  22.114  1.00  0.00     0.001 A 
ENDBRANCH  13  16
ENDBRANCH   7  12
BRANCH   9  23
ATOM     23  N   UNL A   1      31.585  25.284  25.896  1.00  0.00    -0.359 N 
ATOM     24  C   UNL A   1      30.438  24.416  26.266  1.00  0.00     0.178 C 
ATOM     25  C   UNL A   1      32.830  24.527  25.849  1.00  0.00     0.178 C 
ATOM     26  C   UNL A   1      30.508  22.992  25.570  1.00  0.00     0.284 C 
ATOM     27  C   UNL A   1      32.674  23.498  24.727  1.00  0.00     0.284 C 
ATOM     28  N   UNL A   1      31.820  22.415  25.186  1.00  0.00    -0.324 N 
ATOM     29  H   UNL A   1      31.583  21.752  24.449  1.00  0.00     0.348 HD
BRANCH  28  30
ATOM     30  C   UNL A   1      32.524  21.473  26.089  1.00  0.00     0.364 C 
BRANCH  30  31
ATOM     31  C   UNL A   1      33.192  20.225  25.506  1.00  0.00     0.279 C 
ATOM     32  O   UNL A   1      32.521  19.185  25.405  1.00  0.00    -0.268 OA
ATOM     33  N   UNL A   1      34.466  20.138  25.006  1.00  0.00    -0.321 N 
ATOM     34  H   UNL A   1      34.526  19.370  24.393  1.00  0.00     0.170 HD
BRANCH  33  35
ATOM     35  C   UNL A   1      35.725  20.786  25.078  1.00  0.00     0.041 A 
ATOM     36  C   UNL A   1      36.850  19.947  24.948  1.00  0.00     0.029 A 
ATOM     37  C   UNL A   1      35.979  22.118  25.387  1.00  0.00     0.029 A 
ATOM     38  C   UNL A   1      38.158  20.415  25.151  1.00  0.00     0.041 A 
ATOM     39  C   UNL A   1      37.281  22.583  25.663  1.00  0.00     0.041 A 
ATOM     40  C   UNL A   1      38.362  21.728  25.535  1.00  0.00     0.123 A 
ATOM     41  F   UNL A   1      39.603  22.171  25.773  1.00  0.00    -0.207 F 
ENDBRANCH  33  35
ENDBRANCH  30  31
ENDBRANCH  28  30
ENDBRANCH   9  23
ENDBRANCH   3   6
ENDBRANCH   1   2
BRANCH   1  42
ATOM     42  C   UNL A   1      34.692  30.450  28.625  1.00  0.00     0.042 C 
BRANCH  42  43
ATOM     43  C   UNL A   1      35.096  31.377  29.744  1.00  0.00     0.118 C 
BRANCH  43  44
ATOM     44  N   UNL A   1      36.205  32.280  29.438  1.00  0.00    -0.352 N 
ATOM     45  C   UNL A   1      37.523  31.935  29.167  1.00  0.00     0.251 C 
ATOM     46  H   UNL A   1      35.993  33.242  29.423  1.00  0.00     0.163 HD
ATOM     47  O   UNL A   1      38.372  32.783  28.923  1.00  0.00    -0.269 OA
BRANCH  45  48
ATOM     48  C   UNL A   1      37.836  30.492  29.030  1.00  0.00     0.039 A 
ATOM     49  C   UNL A   1      38.204  29.838  30.208  1.00  0.00     0.014 A 
ATOM     50  C   UNL A   1      38.246  30.020  27.789  1.00  0.00     0.014 A 
ATOM     51  C   UNL A   1      39.260  28.937  30.166  1.00  0.00     0.010 A 
ATOM     52  C   UNL A   1      39.381  29.239  27.760  1.00  0.00     0.010 A 
ATOM     53  C   UNL A   1      39.936  28.770  28.960  1.00  0.00    -0.014 A 
BRANCH  53  54
ATOM     54  C   UNL A   1      41.222  28.099  28.854  1.00  0.00     0.031 A 
ATOM     55  C   UNL A   1      41.211  26.646  28.623  1.00  0.00     0.074 A 
ATOM     56  C   UNL A   1      42.391  28.770  28.934  1.00  0.00     0.049 A 
ATOM     57  N   UNL A   1      42.170  25.848  28.941  1.00  0.00    -0.248 NA
ATOM     58  C   UNL A   1      40.044  25.963  28.083  1.00  0.00     0.031 C 
ATOM     59  C   UNL A   1      43.724  28.258  28.619  1.00  0.00     0.029 A 
ATOM     60  N   UNL A   1      42.633  30.030  29.503  1.00  0.00    -0.354 N 
ATOM     61  C   UNL A   1      41.878  24.615  28.408  1.00  0.00     0.074 A 
ATOM     62  C   UNL A   1      40.502  24.715  27.990  1.00  0.00     0.031 C 
ATOM     63  C   UNL A   1      44.641  29.014  29.243  1.00  0.00     0.029 A 
ATOM     64  C   UNL A   1      43.928  29.953  30.084  1.00  0.00     0.049 A 
ATOM     65  H   UNL A   1      42.029  30.809  29.498  1.00  0.00     0.167 HD
ATOM     66  C   UNL A   1      42.889  23.711  28.266  1.00  0.00     0.037 A 
ATOM     67  C   UNL A   1      44.097  30.098  31.432  1.00  0.00     0.037 A 
ATOM     68  C   UNL A   1      44.114  24.199  28.921  1.00  0.00     0.049 A 
ATOM     69  C   UNL A   1      44.579  28.844  32.131  1.00  0.00     0.074 A 
ATOM     70  C   UNL A   1      45.279  24.799  28.471  1.00  0.00     0.029 A 
ATOM     71  N   UNL A   1      44.101  24.395  30.294  1.00  0.00    -0.354 N 
ATOM     72  N   UNL A   1      44.835  27.713  31.531  1.00  0.00    -0.248 NA
ATOM     73  C   UNL A   1      44.684  28.742  33.585  1.00  0.00     0.031 C 
ATOM     74  C   UNL A   1      45.952  25.370  29.592  1.00  0.00     0.029 A 
ATOM     75  C   UNL A   1      45.212  25.096  30.729  1.00  0.00     0.049 A 
ATOM     76  H   UNL A   1      43.386  24.073  30.889  1.00  0.00     0.167 HD
ATOM     77  C   UNL A   1      45.073  26.744  32.470  1.00  0.00     0.074 A 
ATOM     78  C   UNL A   1      44.940  27.433  33.742  1.00  0.00     0.031 C 
ATOM     79  C   UNL A   1      45.324  25.440  32.141  1.00  0.00     0.037 A 
BRANCH  66  80
ATOM     80  C   UNL A   1      42.855  22.529  27.309  1.00  0.00     0.064 A 
ATOM     81  C   UNL A   1      41.991  21.441  27.557  1.00  0.00     0.173 A 
ATOM     82  C   UNL A   1      43.690  22.347  26.186  1.00  0.00     0.173 A 
ATOM     83  F   UNL A   1      41.051  21.499  28.511  1.00  0.00    -0.203 F 
ATOM     84  C   UNL A   1      42.054  20.243  26.835  1.00  0.00     0.198 A 
ATOM     85  C   UNL A   1      43.790  21.137  25.494  1.00  0.00     0.198 A 
ATOM     86  F   UNL A   1      44.397  23.346  25.657  1.00  0.00    -0.203 F 
ATOM     87  F   UNL A   1      41.215  19.242  27.134  1.00  0.00    -0.200 F 
ATOM     88  C   UNL A   1      42.980  20.077  25.827  1.00  0.00     0.200 A 
ATOM     89  F   UNL A   1      44.675  21.018  24.494  1.00  0.00    -0.200 F 
ATOM     90  F   UNL A   1      43.070  18.919  25.160  1.00  0.00    -0.200 F 
ENDBRANCH  66  80
BRANCH  67  91
ATOM     91  C   UNL A   1      43.131  31.082  31.999  1.00  0.00     0.064 A 
ATOM     92  C   UNL A   1      43.308  32.426  31.617  1.00  0.00     0.173 A 
ATOM     93  C   UNL A   1      41.851  30.674  32.386  1.00  0.00     0.173 A 
ATOM     94  F   UNL A   1      44.529  32.878  31.288  1.00  0.00    -0.203 F 
ATOM     95  C   UNL A   1      42.208  33.240  31.371  1.00  0.00     0.198 A 
ATOM     96  C   UNL A   1      40.759  31.516  32.192  1.00  0.00     0.198 A 
ATOM     97  F   UNL A   1      41.629  29.420  32.803  1.00  0.00    -0.203 F 
ATOM     98  F   UNL A   1      42.382  34.433  30.787  1.00  0.00    -0.200 F 
ATOM     99  C   UNL A   1      40.931  32.764  31.610  1.00  0.00     0.200 A 
ATOM    100  F   UNL A   1      39.525  31.069  32.460  1.00  0.00    -0.200 F 
ATOM    101  F   UNL A   1      39.868  33.485  31.228  1.00  0.00    -0.200 F 
ENDBRANCH  67  91
BRANCH  79 102
ATOM    102  C   UNL A   1      45.673  24.379  33.160  1.00  0.00     0.064 A 
ATOM    103  C   UNL A   1      44.756  23.400  33.582  1.00  0.00     0.173 A 
ATOM    104  C   UNL A   1      46.921  24.361  33.823  1.00  0.00     0.173 A 
ATOM    105  F   UNL A   1      43.487  23.407  33.150  1.00  0.00    -0.203 F 
ATOM    106  C   UNL A   1      45.106  22.399  34.491  1.00  0.00     0.198 A 
ATOM    107  C   UNL A   1      47.246  23.400  34.779  1.00  0.00     0.198 A 
ATOM    108  F   UNL A   1      47.876  25.262  33.560  1.00  0.00    -0.203 F 
ATOM    109  F   UNL A   1      44.222  21.436  34.789  1.00  0.00    -0.200 F 
ATOM    110  C   UNL A   1      46.350  22.399  35.090  1.00  0.00     0.200 A 
ATOM    111  F   UNL A   1      48.439  23.448  35.388  1.00  0.00    -0.200 F 
ATOM    112  F   UNL A   1      46.682  21.444  35.969  1.00  0.00    -0.200 F 
ENDBRANCH  79 102
ENDBRANCH  53  54
ENDBRANCH  45  48
ENDBRANCH  43  44
ENDBRANCH  42  43
ENDBRANCH   1  42
TORSDOF 16
ENDMDL
