MODEL 1
REMARK VINA RESULT:     -13.6      0.000      0.000
REMARK SMILES O=C(CNC(=O)N1CC(NCCCNC(=O)c2ccc(-c3c4nc(c(-c5c(F)c(F)c(F)c(F)c5F)c5ccc([nH]5)c(-c5c(F)c(F)c(F)c(F)c5F)c5nc(c(-c6c(F)c(F)c(F)c(F)c6F)c6ccc3[nH]6)C=C5)C=C4)cc2)=[NH+]c2ccccc21)N[C@H](C(=O)[O-])c1ccccc1
REMARK SMILES IDX 11 1 10 2 7 3 8 4 86 5 9 6 81 7 85 8 80 9 82 10 84 11 83 14
REMARK SMILES IDX 5 15 4 16 6 18 3 19 2 20 1 21 87 22 88 24 92 25 93 26 97 27
REMARK SMILES IDX 94 28 96 29 95 30 89 31 90 32 91 33 12 34 13 35 14 36 15 37
REMARK SMILES IDX 16 39 17 40 18 41 79 42 19 43 78 44 20 45 21 46 22 47 72 48
REMARK SMILES IDX 23 49 77 50 71 51 73 52 24 53 76 54 70 55 69 56 25 58 57 59
REMARK SMILES IDX 37 60 56 61 38 62 41 63 55 64 74 65 39 66 40 67 54 69 75 70
REMARK SMILES IDX 42 71 26 72 27 73 35 74 28 75 29 76 33 77 36 78 30 79 31 80
REMARK SMILES IDX 34 81 32 82 58 83 59 84 67 85 60 86 61 87 65 88 68 89 62 90
REMARK SMILES IDX 63 91 66 92 64 93 43 94 44 95 52 96 45 97 46 98 50 99 53 100
REMARK SMILES IDX 47 101 48 102 51 103 49 104
REMARK H PARENT 10 12 80 13 4 17 87 23 14 38 73 57 41 68
REMARK Flexibility Score: inf
ROOT
ATOM      1  C   UNL A   1      34.372  22.200  24.807  1.00  0.00     0.235 C 
ENDROOT
BRANCH   1   2
ATOM      2  N   UNL A   1      34.585  23.627  24.866  1.00  0.00    -0.277 N 
ATOM      3  N   UNL A   1      31.616  25.323  26.184  1.00  0.00    -0.278 N 
ATOM      4  C   UNL A   1      32.552  24.209  26.267  1.00  0.00     0.255 C 
ATOM      5  C   UNL A   1      32.186  26.580  26.514  1.00  0.00     0.093 A 
ATOM      6  C   UNL A   1      33.840  24.575  25.520  1.00  0.00     0.268 C 
ATOM      7  C   UNL A   1      33.537  26.785  26.169  1.00  0.00     0.148 A 
ATOM      8  C   UNL A   1      31.455  27.597  27.141  1.00  0.00     0.031 A 
ATOM      9  N   UNL A   1      34.298  25.799  25.505  1.00  0.00    -0.241 N 
ATOM     10  C   UNL A   1      34.114  28.034  26.403  1.00  0.00     0.054 A 
ATOM     11  C   UNL A   1      32.052  28.833  27.385  1.00  0.00     0.002 A 
ATOM     12  H   UNL A   1      35.367  23.962  24.372  1.00  0.00     0.304 HD
ATOM     13  H   UNL A   1      35.141  26.024  25.049  1.00  0.00     0.312 HD
ATOM     14  C   UNL A   1      33.375  29.056  27.005  1.00  0.00     0.005 A 
BRANCH   3  15
ATOM     15  C   UNL A   1      30.298  25.058  25.924  1.00  0.00     0.323 C 
ATOM     16  N   UNL A   1      29.904  24.816  24.646  1.00  0.00    -0.329 N 
ATOM     17  H   UNL A   1      28.949  24.974  24.460  1.00  0.00     0.165 HD
ATOM     18  O   UNL A   1      29.460  24.924  26.817  1.00  0.00    -0.248 OA
BRANCH  16  19
ATOM     19  C   UNL A   1      30.696  24.355  23.514  1.00  0.00     0.218 C 
BRANCH  19  20
ATOM     20  C   UNL A   1      31.191  25.552  22.707  1.00  0.00     0.240 C 
ATOM     21  O   UNL A   1      31.956  25.426  21.757  1.00  0.00    -0.273 OA
ATOM     22  N   UNL A   1      30.740  26.767  23.179  1.00  0.00    -0.342 N 
ATOM     23  H   UNL A   1      30.212  26.791  24.009  1.00  0.00     0.164 HD
BRANCH  22  24
ATOM     24  C   UNL A   1      31.022  28.023  22.477  1.00  0.00     0.158 C 
BRANCH  24  25
ATOM     25  C   UNL A   1      29.822  28.969  22.422  1.00  0.00    -0.020 A 
ATOM     26  C   UNL A   1      29.824  30.168  21.691  1.00  0.00     0.006 A 
ATOM     27  C   UNL A   1      28.620  28.609  23.066  1.00  0.00     0.006 A 
ATOM     28  C   UNL A   1      28.691  30.989  21.639  1.00  0.00     0.000 A 
ATOM     29  C   UNL A   1      27.491  29.432  23.020  1.00  0.00     0.000 A 
ATOM     30  C   UNL A   1      27.529  30.625  22.308  1.00  0.00     0.000 A 
ENDBRANCH  24  25
BRANCH  24  31
ATOM     31  C   UNL A   1      32.387  28.602  22.931  1.00  0.00     0.068 C 
ATOM     32  O   UNL A   1      33.505  28.262  22.559  1.00  0.00    -0.548 OA
ATOM     33  O   UNL A   1      32.302  29.476  23.965  1.00  0.00    -0.548 OA
ENDBRANCH  24  31
ENDBRANCH  22  24
ENDBRANCH  19  20
ENDBRANCH  16  19
ENDBRANCH   3  15
ENDBRANCH   1   2
BRANCH   1  34
ATOM     34  C   UNL A   1      35.379  21.457  25.679  1.00  0.00     0.067 C 
BRANCH  34  35
ATOM     35  C   UNL A   1      36.791  22.039  25.648  1.00  0.00     0.120 C 
BRANCH  35  36
ATOM     36  N   UNL A   1      37.829  21.029  25.811  1.00  0.00    -0.352 N 
ATOM     37  C   UNL A   1      39.150  21.148  26.163  1.00  0.00     0.251 C 
ATOM     38  H   UNL A   1      37.534  20.105  25.639  1.00  0.00     0.163 HD
ATOM     39  O   UNL A   1      39.889  20.168  26.077  1.00  0.00    -0.269 OA
BRANCH  37  40
ATOM     40  C   UNL A   1      39.705  22.439  26.621  1.00  0.00     0.039 A 
ATOM     41  C   UNL A   1      40.699  22.431  27.606  1.00  0.00     0.014 A 
ATOM     42  C   UNL A   1      39.236  23.654  26.114  1.00  0.00     0.014 A 
ATOM     43  C   UNL A   1      41.279  23.632  28.021  1.00  0.00     0.010 A 
ATOM     44  C   UNL A   1      39.862  24.845  26.477  1.00  0.00     0.010 A 
ATOM     45  C   UNL A   1      40.897  24.845  27.425  1.00  0.00    -0.014 A 
BRANCH  45  46
ATOM     46  C   UNL A   1      41.591  26.117  27.749  1.00  0.00     0.031 A 
ATOM     47  C   UNL A   1      40.880  27.210  28.491  1.00  0.00     0.074 A 
ATOM     48  C   UNL A   1      42.845  26.316  27.297  1.00  0.00     0.049 A 
ATOM     49  N   UNL A   1      41.292  28.418  28.784  1.00  0.00    -0.248 NA
ATOM     50  C   UNL A   1      39.514  26.914  28.945  1.00  0.00     0.031 C 
ATOM     51  C   UNL A   1      43.632  25.345  26.538  1.00  0.00     0.029 A 
ATOM     52  N   UNL A   1      43.671  27.407  27.402  1.00  0.00    -0.354 N 
ATOM     53  C   UNL A   1      40.235  29.030  29.441  1.00  0.00     0.074 A 
ATOM     54  C   UNL A   1      39.145  28.077  29.464  1.00  0.00     0.031 C 
ATOM     55  C   UNL A   1      44.836  25.872  26.267  1.00  0.00     0.029 A 
ATOM     56  C   UNL A   1      44.889  27.232  26.794  1.00  0.00     0.049 A 
ATOM     57  H   UNL A   1      43.414  28.235  27.868  1.00  0.00     0.167 HD
ATOM     58  C   UNL A   1      40.183  30.268  29.991  1.00  0.00     0.037 A 
ATOM     59  C   UNL A   1      45.930  28.078  26.665  1.00  0.00     0.037 A 
ATOM     60  C   UNL A   1      41.273  31.208  29.979  1.00  0.00     0.049 A 
ATOM     61  C   UNL A   1      45.830  29.461  27.243  1.00  0.00     0.074 A 
ATOM     62  C   UNL A   1      41.342  32.459  30.569  1.00  0.00     0.029 A 
ATOM     63  N   UNL A   1      42.484  31.005  29.333  1.00  0.00    -0.354 N 
ATOM     64  N   UNL A   1      44.851  30.008  27.919  1.00  0.00    -0.248 NA
ATOM     65  C   UNL A   1      46.983  30.348  27.033  1.00  0.00     0.031 C 
ATOM     66  C   UNL A   1      42.576  33.032  30.238  1.00  0.00     0.029 A 
ATOM     67  C   UNL A   1      43.295  32.120  29.481  1.00  0.00     0.049 A 
ATOM     68  H   UNL A   1      42.732  30.188  28.841  1.00  0.00     0.167 HD
ATOM     69  C   UNL A   1      45.275  31.290  28.238  1.00  0.00     0.074 A 
ATOM     70  C   UNL A   1      46.607  31.438  27.688  1.00  0.00     0.031 C 
ATOM     71  C   UNL A   1      44.619  32.256  28.927  1.00  0.00     0.037 A 
BRANCH  58  72
ATOM     72  C   UNL A   1      38.894  30.676  30.644  1.00  0.00     0.064 A 
ATOM     73  C   UNL A   1      37.825  31.201  29.900  1.00  0.00     0.173 A 
ATOM     74  C   UNL A   1      38.720  30.534  32.029  1.00  0.00     0.173 A 
ATOM     75  F   UNL A   1      37.943  31.367  28.574  1.00  0.00    -0.203 F 
ATOM     76  C   UNL A   1      36.647  31.608  30.524  1.00  0.00     0.198 A 
ATOM     77  C   UNL A   1      37.529  30.913  32.645  1.00  0.00     0.198 A 
ATOM     78  F   UNL A   1      39.705  30.030  32.786  1.00  0.00    -0.203 F 
ATOM     79  F   UNL A   1      35.665  32.162  29.800  1.00  0.00    -0.200 F 
ATOM     80  C   UNL A   1      36.499  31.459  31.894  1.00  0.00     0.200 A 
ATOM     81  F   UNL A   1      37.382  30.757  33.968  1.00  0.00    -0.200 F 
ATOM     82  F   UNL A   1      35.368  31.854  32.494  1.00  0.00    -0.200 F 
ENDBRANCH  58  72
BRANCH  59  83
ATOM     83  C   UNL A   1      47.169  27.621  25.988  1.00  0.00     0.064 A 
ATOM     84  C   UNL A   1      47.293  27.716  24.595  1.00  0.00     0.173 A 
ATOM     85  C   UNL A   1      48.255  27.106  26.709  1.00  0.00     0.173 A 
ATOM     86  F   UNL A   1      46.271  28.183  23.863  1.00  0.00    -0.203 F 
ATOM     87  C   UNL A   1      48.456  27.308  23.948  1.00  0.00     0.198 A 
ATOM     88  C   UNL A   1      49.427  26.720  26.062  1.00  0.00     0.198 A 
ATOM     89  F   UNL A   1      48.185  26.996  28.043  1.00  0.00    -0.203 F 
ATOM     90  F   UNL A   1      48.538  27.382  22.612  1.00  0.00    -0.200 F 
ATOM     91  C   UNL A   1      49.525  26.817  24.681  1.00  0.00     0.200 A 
ATOM     92  F   UNL A   1      50.463  26.258  26.776  1.00  0.00    -0.200 F 
ATOM     93  F   UNL A   1      50.648  26.435  24.059  1.00  0.00    -0.200 F 
ENDBRANCH  59  83
BRANCH  71  94
ATOM     94  C   UNL A   1      45.342  33.552  29.148  1.00  0.00     0.064 A 
ATOM     95  C   UNL A   1      45.208  34.629  28.262  1.00  0.00     0.173 A 
ATOM     96  C   UNL A   1      46.151  33.729  30.281  1.00  0.00     0.173 A 
ATOM     97  F   UNL A   1      44.461  34.503  27.154  1.00  0.00    -0.203 F 
ATOM     98  C   UNL A   1      45.871  35.832  28.490  1.00  0.00     0.198 A 
ATOM     99  C   UNL A   1      46.791  34.942  30.522  1.00  0.00     0.198 A 
ATOM    100  F   UNL A   1      46.311  32.730  31.162  1.00  0.00    -0.203 F 
ATOM    101  F   UNL A   1      45.761  36.835  27.608  1.00  0.00    -0.200 F 
ATOM    102  C   UNL A   1      46.655  35.990  29.624  1.00  0.00     0.200 A 
ATOM    103  F   UNL A   1      47.540  35.096  31.622  1.00  0.00    -0.200 F 
ATOM    104  F   UNL A   1      47.287  37.151  29.847  1.00  0.00    -0.200 F 
ENDBRANCH  71  94
ENDBRANCH  45  46
ENDBRANCH  37  40
ENDBRANCH  35  36
ENDBRANCH  34  35
ENDBRANCH   1  34
TORSDOF 15
ENDMDL
MODEL 2
REMARK VINA RESULT:     -13.4      1.924      2.781
REMARK SMILES O=C(CNC(=O)N1CC(NCCCNC(=O)c2ccc(-c3c4nc(c(-c5c(F)c(F)c(F)c(F)c5F)c5ccc([nH]5)c(-c5c(F)c(F)c(F)c(F)c5F)c5nc(c(-c6c(F)c(F)c(F)c(F)c6F)c6ccc3[nH]6)C=C5)C=C4)cc2)=[NH+]c2ccccc21)N[C@H](C(=O)[O-])c1ccccc1
REMARK SMILES IDX 11 1 10 2 7 3 8 4 86 5 9 6 81 7 85 8 80 9 82 10 84 11 83 14
REMARK SMILES IDX 5 15 4 16 6 18 3 19 2 20 1 21 87 22 88 24 92 25 93 26 97 27
REMARK SMILES IDX 94 28 96 29 95 30 89 31 90 32 91 33 12 34 13 35 14 36 15 37
REMARK SMILES IDX 16 39 17 40 18 41 79 42 19 43 78 44 20 45 21 46 22 47 72 48
REMARK SMILES IDX 23 49 77 50 71 51 73 52 24 53 76 54 70 55 69 56 25 58 57 59
REMARK SMILES IDX 37 60 56 61 38 62 41 63 55 64 74 65 39 66 40 67 54 69 75 70
REMARK SMILES IDX 42 71 26 72 27 73 35 74 28 75 29 76 33 77 36 78 30 79 31 80
REMARK SMILES IDX 34 81 32 82 58 83 59 84 67 85 60 86 61 87 65 88 68 89 62 90
REMARK SMILES IDX 63 91 66 92 64 93 43 94 44 95 52 96 45 97 46 98 50 99 53 100
REMARK SMILES IDX 47 101 48 102 51 103 49 104
REMARK H PARENT 10 12 80 13 4 17 87 23 14 38 73 57 41 68
REMARK Flexibility Score: inf
ROOT
ATOM      1  C   UNL A   1      36.088  21.171  25.776  1.00  0.00     0.235 C 
ENDROOT
BRANCH   1   2
ATOM      2  N   UNL A   1      35.804  22.505  25.302  1.00  0.00    -0.277 N 
ATOM      3  N   UNL A   1      32.544  23.646  26.525  1.00  0.00    -0.278 N 
ATOM      4  C   UNL A   1      33.807  22.972  26.795  1.00  0.00     0.255 C 
ATOM      5  C   UNL A   1      32.672  25.038  26.285  1.00  0.00     0.093 A 
ATOM      6  C   UNL A   1      34.832  23.374  25.727  1.00  0.00     0.268 C 
ATOM      7  C   UNL A   1      33.841  25.473  25.630  1.00  0.00     0.148 A 
ATOM      8  C   UNL A   1      31.687  25.960  26.660  1.00  0.00     0.031 A 
ATOM      9  N   UNL A   1      34.841  24.571  25.205  1.00  0.00    -0.241 N 
ATOM     10  C   UNL A   1      33.972  26.824  25.303  1.00  0.00     0.054 A 
ATOM     11  C   UNL A   1      31.842  27.310  26.343  1.00  0.00     0.002 A 
ATOM     12  H   UNL A   1      36.385  22.833  24.578  1.00  0.00     0.304 HD
ATOM     13  H   UNL A   1      35.519  24.835  24.541  1.00  0.00     0.312 HD
ATOM     14  C   UNL A   1      32.976  27.739  25.654  1.00  0.00     0.005 A 
BRANCH   3  15
ATOM     15  C   UNL A   1      31.380  22.933  26.638  1.00  0.00     0.323 C 
ATOM     16  N   UNL A   1      31.034  22.055  25.660  1.00  0.00    -0.329 N 
ATOM     17  H   UNL A   1      30.074  21.838  25.605  1.00  0.00     0.165 HD
ATOM     18  O   UNL A   1      30.674  22.971  27.648  1.00  0.00    -0.248 OA
BRANCH  16  19
ATOM     19  C   UNL A   1      31.885  21.390  24.682  1.00  0.00     0.218 C 
BRANCH  19  20
ATOM     20  C   UNL A   1      31.905  22.191  23.385  1.00  0.00     0.240 C 
ATOM     21  O   UNL A   1      31.958  21.650  22.284  1.00  0.00    -0.273 OA
ATOM     22  N   UNL A   1      31.908  23.558  23.572  1.00  0.00    -0.342 N 
ATOM     23  H   UNL A   1      31.969  23.914  24.488  1.00  0.00     0.164 HD
BRANCH  22  24
ATOM     24  C   UNL A   1      31.823  24.494  22.448  1.00  0.00     0.158 C 
BRANCH  24  25
ATOM     25  C   UNL A   1      31.018  25.755  22.770  1.00  0.00    -0.020 A 
ATOM     26  C   UNL A   1      31.350  27.024  22.270  1.00  0.00     0.006 A 
ATOM     27  C   UNL A   1      29.842  25.653  23.541  1.00  0.00     0.006 A 
ATOM     28  C   UNL A   1      30.567  28.147  22.561  1.00  0.00     0.000 A 
ATOM     29  C   UNL A   1      29.063  26.775  23.838  1.00  0.00     0.000 A 
ATOM     30  C   UNL A   1      29.429  28.024  23.349  1.00  0.00     0.000 A 
ENDBRANCH  24  25
BRANCH  24  31
ATOM     31  C   UNL A   1      33.210  24.666  21.779  1.00  0.00     0.068 C 
ATOM     32  O   UNL A   1      34.300  24.772  22.331  1.00  0.00    -0.548 OA
ATOM     33  O   UNL A   1      33.157  24.868  20.438  1.00  0.00    -0.548 OA
ENDBRANCH  24  31
ENDBRANCH  22  24
ENDBRANCH  19  20
ENDBRANCH  16  19
ENDBRANCH   3  15
ENDBRANCH   1   2
BRANCH   1  34
ATOM     34  C   UNL A   1      37.241  20.545  24.999  1.00  0.00     0.067 C 
BRANCH  34  35
ATOM     35  C   UNL A   1      38.628  21.013  25.440  1.00  0.00     0.120 C 
BRANCH  35  36
ATOM     36  N   UNL A   1      39.566  19.915  25.637  1.00  0.00    -0.352 N 
ATOM     37  C   UNL A   1      40.876  19.917  26.044  1.00  0.00     0.251 C 
ATOM     38  H   UNL A   1      39.199  19.022  25.445  1.00  0.00     0.163 HD
ATOM     39  O   UNL A   1      41.529  18.876  25.981  1.00  0.00    -0.269 OA
BRANCH  37  40
ATOM     40  C   UNL A   1      41.522  21.152  26.536  1.00  0.00     0.039 A 
ATOM     41  C   UNL A   1      42.063  22.045  25.604  1.00  0.00     0.014 A 
ATOM     42  C   UNL A   1      41.627  21.424  27.903  1.00  0.00     0.014 A 
ATOM     43  C   UNL A   1      42.632  23.245  26.036  1.00  0.00     0.010 A 
ATOM     44  C   UNL A   1      42.132  22.651  28.329  1.00  0.00     0.010 A 
ATOM     45  C   UNL A   1      42.629  23.577  27.400  1.00  0.00    -0.014 A 
BRANCH  45  46
ATOM     46  C   UNL A   1      43.104  24.903  27.872  1.00  0.00     0.031 A 
ATOM     47  C   UNL A   1      42.126  25.980  28.240  1.00  0.00     0.074 A 
ATOM     48  C   UNL A   1      44.426  25.160  27.890  1.00  0.00     0.049 A 
ATOM     49  N   UNL A   1      42.352  27.223  28.585  1.00  0.00    -0.248 NA
ATOM     50  C   UNL A   1      40.701  25.620  28.189  1.00  0.00     0.031 C 
ATOM     51  C   UNL A   1      45.476  24.209  27.527  1.00  0.00     0.029 A 
ATOM     52  N   UNL A   1      45.111  26.304  28.217  1.00  0.00    -0.354 N 
ATOM     53  C   UNL A   1      41.103  27.796  28.778  1.00  0.00     0.074 A 
ATOM     54  C   UNL A   1      40.120  26.778  28.467  1.00  0.00     0.031 C 
ATOM     55  C   UNL A   1      46.673  24.797  27.675  1.00  0.00     0.029 A 
ATOM     56  C   UNL A   1      46.472  26.180  28.100  1.00  0.00     0.049 A 
ATOM     57  H   UNL A   1      44.667  27.134  28.507  1.00  0.00     0.167 HD
ATOM     58  C   UNL A   1      40.802  29.050  29.194  1.00  0.00     0.037 A 
ATOM     59  C   UNL A   1      47.452  27.082  28.302  1.00  0.00     0.037 A 
ATOM     60  C   UNL A   1      41.781  30.055  29.517  1.00  0.00     0.049 A 
ATOM     61  C   UNL A   1      47.090  28.480  28.718  1.00  0.00     0.074 A 
ATOM     62  C   UNL A   1      41.578  31.331  30.013  1.00  0.00     0.029 A 
ATOM     63  N   UNL A   1      43.152  29.900  29.363  1.00  0.00    -0.354 N 
ATOM     64  N   UNL A   1      45.910  28.993  28.961  1.00  0.00    -0.248 NA
ATOM     65  C   UNL A   1      48.202  29.428  28.882  1.00  0.00     0.031 C 
ATOM     66  C   UNL A   1      42.822  31.966  30.113  1.00  0.00     0.029 A 
ATOM     67  C   UNL A   1      43.805  31.069  29.724  1.00  0.00     0.049 A 
ATOM     68  H   UNL A   1      43.595  29.080  29.046  1.00  0.00     0.167 HD
ATOM     69  C   UNL A   1      46.135  30.312  29.331  1.00  0.00     0.074 A 
ATOM     70  C   UNL A   1      47.568  30.519  29.288  1.00  0.00     0.031 C 
ATOM     71  C   UNL A   1      45.233  31.263  29.676  1.00  0.00     0.037 A 
BRANCH  58  72
ATOM     72  C   UNL A   1      39.348  29.404  29.313  1.00  0.00     0.064 A 
ATOM     73  C   UNL A   1      38.701  29.457  30.558  1.00  0.00     0.173 A 
ATOM     74  C   UNL A   1      38.591  29.703  28.169  1.00  0.00     0.173 A 
ATOM     75  F   UNL A   1      39.376  29.170  31.682  1.00  0.00    -0.203 F 
ATOM     76  C   UNL A   1      37.343  29.754  30.650  1.00  0.00     0.198 A 
ATOM     77  C   UNL A   1      37.241  30.030  28.268  1.00  0.00     0.198 A 
ATOM     78  F   UNL A   1      39.161  29.676  26.956  1.00  0.00    -0.203 F 
ATOM     79  F   UNL A   1      36.735  29.737  31.844  1.00  0.00    -0.200 F 
ATOM     80  C   UNL A   1      36.616  30.044  29.506  1.00  0.00     0.200 A 
ATOM     81  F   UNL A   1      36.541  30.322  27.163  1.00  0.00    -0.200 F 
ATOM     82  F   UNL A   1      35.309  30.325  29.595  1.00  0.00    -0.200 F 
ENDBRANCH  58  72
BRANCH  59  83
ATOM     83  C   UNL A   1      48.871  26.675  28.145  1.00  0.00     0.064 A 
ATOM     84  C   UNL A   1      49.465  26.645  26.876  1.00  0.00     0.173 A 
ATOM     85  C   UNL A   1      49.665  26.334  29.249  1.00  0.00     0.173 A 
ATOM     86  F   UNL A   1      48.737  26.944  25.790  1.00  0.00    -0.203 F 
ATOM     87  C   UNL A   1      50.799  26.282  26.716  1.00  0.00     0.198 A 
ATOM     88  C   UNL A   1      51.006  25.994  29.090  1.00  0.00     0.198 A 
ATOM     89  F   UNL A   1      49.142  26.349  30.484  1.00  0.00    -0.203 F 
ATOM     90  F   UNL A   1      51.335  26.233  25.489  1.00  0.00    -0.200 F 
ATOM     91  C   UNL A   1      51.571  25.964  27.823  1.00  0.00     0.200 A 
ATOM     92  F   UNL A   1      51.753  25.699  30.163  1.00  0.00    -0.200 F 
ATOM     93  F   UNL A   1      52.858  25.626  27.670  1.00  0.00    -0.200 F 
ENDBRANCH  59  83
BRANCH  71  94
ATOM     94  C   UNL A   1      45.771  32.610  30.061  1.00  0.00     0.064 A 
ATOM     95  C   UNL A   1      45.920  33.639  29.120  1.00  0.00     0.173 A 
ATOM     96  C   UNL A   1      46.106  32.885  31.396  1.00  0.00     0.173 A 
ATOM     97  F   UNL A   1      45.631  33.419  27.828  1.00  0.00    -0.203 F 
ATOM     98  C   UNL A   1      46.403  34.889  29.497  1.00  0.00     0.198 A 
ATOM     99  C   UNL A   1      46.562  34.145  31.774  1.00  0.00     0.198 A 
ATOM    100  F   UNL A   1      45.979  31.937  32.336  1.00  0.00    -0.203 F 
ATOM    101  F   UNL A   1      46.577  35.844  28.574  1.00  0.00    -0.200 F 
ATOM    102  C   UNL A   1      46.716  35.143  30.824  1.00  0.00     0.200 A 
ATOM    103  F   UNL A   1      46.854  34.392  33.059  1.00  0.00    -0.200 F 
ATOM    104  F   UNL A   1      47.174  36.350  31.187  1.00  0.00    -0.200 F 
ENDBRANCH  71  94
ENDBRANCH  45  46
ENDBRANCH  37  40
ENDBRANCH  35  36
ENDBRANCH  34  35
ENDBRANCH   1  34
TORSDOF 15
ENDMDL
MODEL 3
REMARK VINA RESULT:     -13.4      2.110      3.448
REMARK SMILES O=C(CNC(=O)N1CC(NCCCNC(=O)c2ccc(-c3c4nc(c(-c5c(F)c(F)c(F)c(F)c5F)c5ccc([nH]5)c(-c5c(F)c(F)c(F)c(F)c5F)c5nc(c(-c6c(F)c(F)c(F)c(F)c6F)c6ccc3[nH]6)C=C5)C=C4)cc2)=[NH+]c2ccccc21)N[C@H](C(=O)[O-])c1ccccc1
REMARK SMILES IDX 11 1 10 2 7 3 8 4 86 5 9 6 81 7 85 8 80 9 82 10 84 11 83 14
REMARK SMILES IDX 5 15 4 16 6 18 3 19 2 20 1 21 87 22 88 24 92 25 93 26 97 27
REMARK SMILES IDX 94 28 96 29 95 30 89 31 90 32 91 33 12 34 13 35 14 36 15 37
REMARK SMILES IDX 16 39 17 40 18 41 79 42 19 43 78 44 20 45 21 46 22 47 72 48
REMARK SMILES IDX 23 49 77 50 71 51 73 52 24 53 76 54 70 55 69 56 25 58 57 59
REMARK SMILES IDX 37 60 56 61 38 62 41 63 55 64 74 65 39 66 40 67 54 69 75 70
REMARK SMILES IDX 42 71 26 72 27 73 35 74 28 75 29 76 33 77 36 78 30 79 31 80
REMARK SMILES IDX 34 81 32 82 58 83 59 84 67 85 60 86 61 87 65 88 68 89 62 90
REMARK SMILES IDX 63 91 66 92 64 93 43 94 44 95 52 96 45 97 46 98 50 99 53 100
REMARK SMILES IDX 47 101 48 102 51 103 49 104
REMARK H PARENT 10 12 80 13 4 17 87 23 14 38 73 57 41 68
REMARK Flexibility Score: inf
ROOT
ATOM      1  C   UNL A   1      36.622  19.849  25.002  1.00  0.00     0.235 C 
ENDROOT
BRANCH   1   2
ATOM      2  N   UNL A   1      36.051  21.042  25.581  1.00  0.00    -0.277 N 
ATOM      3  N   UNL A   1      32.794  21.780  24.073  1.00  0.00    -0.278 N 
ATOM      4  C   UNL A   1      33.716  20.794  24.621  1.00  0.00     0.255 C 
ATOM      5  C   UNL A   1      32.287  22.693  25.034  1.00  0.00     0.093 A 
ATOM      6  C   UNL A   1      34.764  21.507  25.483  1.00  0.00     0.268 C 
ATOM      7  C   UNL A   1      33.146  23.061  26.088  1.00  0.00     0.148 A 
ATOM      8  C   UNL A   1      30.996  23.230  24.953  1.00  0.00     0.031 A 
ATOM      9  N   UNL A   1      34.465  22.568  26.186  1.00  0.00    -0.241 N 
ATOM     10  C   UNL A   1      32.716  24.016  27.010  1.00  0.00     0.054 A 
ATOM     11  C   UNL A   1      30.575  24.170  25.895  1.00  0.00     0.002 A 
ATOM     12  H   UNL A   1      36.666  21.593  26.116  1.00  0.00     0.304 HD
ATOM     13  H   UNL A   1      35.134  23.006  26.761  1.00  0.00     0.312 HD
ATOM     14  C   UNL A   1      31.438  24.572  26.913  1.00  0.00     0.005 A 
BRANCH   3  15
ATOM     15  C   UNL A   1      32.420  21.674  22.760  1.00  0.00     0.323 C 
ATOM     16  N   UNL A   1      32.600  22.730  21.924  1.00  0.00    -0.329 N 
ATOM     17  H   UNL A   1      32.026  22.740  21.124  1.00  0.00     0.165 HD
ATOM     18  O   UNL A   1      32.019  20.617  22.268  1.00  0.00    -0.248 OA
BRANCH  16  19
ATOM     19  C   UNL A   1      33.525  23.849  22.047  1.00  0.00     0.218 C 
BRANCH  19  20
ATOM     20  C   UNL A   1      32.744  25.154  22.168  1.00  0.00     0.240 C 
ATOM     21  O   UNL A   1      31.776  25.403  21.457  1.00  0.00    -0.273 OA
ATOM     22  N   UNL A   1      33.259  26.027  23.103  1.00  0.00    -0.342 N 
ATOM     23  H   UNL A   1      34.100  25.797  23.560  1.00  0.00     0.164 HD
BRANCH  22  24
ATOM     24  C   UNL A   1      32.589  27.288  23.436  1.00  0.00     0.158 C 
BRANCH  24  25
ATOM     25  C   UNL A   1      32.647  27.629  24.926  1.00  0.00    -0.020 A 
ATOM     26  C   UNL A   1      33.853  27.785  25.630  1.00  0.00     0.006 A 
ATOM     27  C   UNL A   1      31.452  27.877  25.632  1.00  0.00     0.006 A 
ATOM     28  C   UNL A   1      33.862  28.131  26.986  1.00  0.00     0.000 A 
ATOM     29  C   UNL A   1      31.461  28.216  26.988  1.00  0.00     0.000 A 
ATOM     30  C   UNL A   1      32.668  28.340  27.666  1.00  0.00     0.000 A 
ENDBRANCH  24  25
BRANCH  24  31
ATOM     31  C   UNL A   1      32.975  28.393  22.419  1.00  0.00     0.068 C 
ATOM     32  O   UNL A   1      32.288  29.335  22.041  1.00  0.00    -0.548 OA
ATOM     33  O   UNL A   1      34.156  28.175  21.787  1.00  0.00    -0.548 OA
ENDBRANCH  24  31
ENDBRANCH  22  24
ENDBRANCH  19  20
ENDBRANCH  16  19
ENDBRANCH   3  15
ENDBRANCH   1   2
BRANCH   1  34
ATOM     34  C   UNL A   1      38.093  20.054  24.659  1.00  0.00     0.067 C 
BRANCH  34  35
ATOM     35  C   UNL A   1      39.010  20.205  25.872  1.00  0.00     0.120 C 
BRANCH  35  36
ATOM     36  N   UNL A   1      40.055  19.191  25.928  1.00  0.00    -0.352 N 
ATOM     37  C   UNL A   1      41.412  19.311  26.093  1.00  0.00     0.251 C 
ATOM     38  H   UNL A   1      39.736  18.265  25.829  1.00  0.00     0.163 HD
ATOM     39  O   UNL A   1      42.128  18.321  25.942  1.00  0.00    -0.269 OA
BRANCH  37  40
ATOM     40  C   UNL A   1      42.030  20.611  26.427  1.00  0.00     0.039 A 
ATOM     41  C   UNL A   1      42.444  21.446  25.383  1.00  0.00     0.014 A 
ATOM     42  C   UNL A   1      42.234  21.001  27.753  1.00  0.00     0.014 A 
ATOM     43  C   UNL A   1      42.982  22.703  25.667  1.00  0.00     0.010 A 
ATOM     44  C   UNL A   1      42.707  22.281  28.036  1.00  0.00     0.010 A 
ATOM     45  C   UNL A   1      43.075  23.149  26.996  1.00  0.00    -0.014 A 
BRANCH  45  46
ATOM     46  C   UNL A   1      43.516  24.529  27.318  1.00  0.00     0.031 A 
ATOM     47  C   UNL A   1      42.539  25.545  27.835  1.00  0.00     0.074 A 
ATOM     48  C   UNL A   1      44.789  24.890  27.063  1.00  0.00     0.049 A 
ATOM     49  N   UNL A   1      42.720  26.817  28.086  1.00  0.00    -0.248 NA
ATOM     50  C   UNL A   1      41.169  25.071  28.082  1.00  0.00     0.031 C 
ATOM     51  C   UNL A   1      45.826  24.007  26.531  1.00  0.00     0.029 A 
ATOM     52  N   UNL A   1      45.422  26.099  27.207  1.00  0.00    -0.354 N 
ATOM     53  C   UNL A   1      41.488  27.299  28.504  1.00  0.00     0.074 A 
ATOM     54  C   UNL A   1      40.556  26.194  28.430  1.00  0.00     0.031 C 
ATOM     55  C   UNL A   1      46.973  24.694  26.417  1.00  0.00     0.029 A 
ATOM     56  C   UNL A   1      46.740  26.076  26.825  1.00  0.00     0.049 A 
ATOM     57  H   UNL A   1      44.974  26.906  27.551  1.00  0.00     0.167 HD
ATOM     58  C   UNL A   1      41.167  28.546  28.928  1.00  0.00     0.037 A 
ATOM     59  C   UNL A   1      47.658  27.061  26.796  1.00  0.00     0.037 A 
ATOM     60  C   UNL A   1      42.099  29.639  29.014  1.00  0.00     0.049 A 
ATOM     61  C   UNL A   1      47.266  28.446  27.228  1.00  0.00     0.074 A 
ATOM     62  C   UNL A   1      41.888  30.920  29.496  1.00  0.00     0.029 A 
ATOM     63  N   UNL A   1      43.421  29.585  28.596  1.00  0.00    -0.354 N 
ATOM     64  N   UNL A   1      46.116  28.877  27.684  1.00  0.00    -0.248 NA
ATOM     65  C   UNL A   1      48.301  29.485  27.134  1.00  0.00     0.031 C 
ATOM     66  C   UNL A   1      43.067  31.654  29.324  1.00  0.00     0.029 A 
ATOM     67  C   UNL A   1      44.029  30.818  28.778  1.00  0.00     0.049 A 
ATOM     68  H   UNL A   1      43.864  28.787  28.225  1.00  0.00     0.167 HD
ATOM     69  C   UNL A   1      46.293  30.226  27.955  1.00  0.00     0.074 A 
ATOM     70  C   UNL A   1      47.667  30.542  27.621  1.00  0.00     0.031 C 
ATOM     71  C   UNL A   1      45.397  31.121  28.440  1.00  0.00     0.037 A 
BRANCH  58  72
ATOM     72  C   UNL A   1      39.739  28.791  29.322  1.00  0.00     0.064 A 
ATOM     73  C   UNL A   1      39.286  28.563  30.631  1.00  0.00     0.173 A 
ATOM     74  C   UNL A   1      38.811  29.267  28.382  1.00  0.00     0.173 A 
ATOM     75  F   UNL A   1      40.129  28.099  31.565  1.00  0.00    -0.203 F 
ATOM     76  C   UNL A   1      37.950  28.763  30.973  1.00  0.00     0.198 A 
ATOM     77  C   UNL A   1      37.484  29.495  28.736  1.00  0.00     0.198 A 
ATOM     78  F   UNL A   1      39.193  29.510  27.119  1.00  0.00    -0.203 F 
ATOM     79  F   UNL A   1      37.529  28.480  32.214  1.00  0.00    -0.200 F 
ATOM     80  C   UNL A   1      37.052  29.232  30.027  1.00  0.00     0.200 A 
ATOM     81  F   UNL A   1      36.619  29.960  27.824  1.00  0.00    -0.200 F 
ATOM     82  F   UNL A   1      35.767  29.420  30.357  1.00  0.00    -0.200 F 
ENDBRANCH  58  72
BRANCH  59  83
ATOM     83  C   UNL A   1      49.049  26.759  26.375  1.00  0.00     0.064 A 
ATOM     84  C   UNL A   1      49.984  26.281  27.303  1.00  0.00     0.173 A 
ATOM     85  C   UNL A   1      49.466  26.915  25.046  1.00  0.00     0.173 A 
ATOM     86  F   UNL A   1      49.634  26.135  28.590  1.00  0.00    -0.203 F 
ATOM     87  C   UNL A   1      51.287  25.976  26.919  1.00  0.00     0.198 A 
ATOM     88  C   UNL A   1      50.763  26.588  24.658  1.00  0.00     0.198 A 
ATOM     89  F   UNL A   1      48.608  27.369  24.120  1.00  0.00    -0.203 F 
ATOM     90  F   UNL A   1      52.169  25.548  27.832  1.00  0.00    -0.200 F 
ATOM     91  C   UNL A   1      51.674  26.122  25.596  1.00  0.00     0.200 A 
ATOM     92  F   UNL A   1      51.131  26.719  23.375  1.00  0.00    -0.200 F 
ATOM     93  F   UNL A   1      52.925  25.818  25.223  1.00  0.00    -0.200 F 
ENDBRANCH  59  83
BRANCH  71  94
ATOM     94  C   UNL A   1      45.881  32.523  28.664  1.00  0.00     0.064 A 
ATOM     95  C   UNL A   1      45.754  33.511  27.677  1.00  0.00     0.173 A 
ATOM     96  C   UNL A   1      46.446  32.892  29.895  1.00  0.00     0.173 A 
ATOM     97  F   UNL A   1      45.238  33.203  26.477  1.00  0.00    -0.203 F 
ATOM     98  C   UNL A   1      46.191  34.813  27.906  1.00  0.00     0.198 A 
ATOM     99  C   UNL A   1      46.856  34.201  30.131  1.00  0.00     0.198 A 
ATOM    100  F   UNL A   1      46.588  31.986  30.873  1.00  0.00    -0.203 F 
ATOM    101  F   UNL A   1      46.097  35.731  26.935  1.00  0.00    -0.200 F 
ATOM    102  C   UNL A   1      46.734  35.158  29.135  1.00  0.00     0.200 A 
ATOM    103  F   UNL A   1      47.372  34.535  31.322  1.00  0.00    -0.200 F 
ATOM    104  F   UNL A   1      47.148  36.414  29.357  1.00  0.00    -0.200 F 
ENDBRANCH  71  94
ENDBRANCH  45  46
ENDBRANCH  37  40
ENDBRANCH  35  36
ENDBRANCH  34  35
ENDBRANCH   1  34
TORSDOF 15
ENDMDL
