MODEL 1
REMARK VINA RESULT:     -12.5      0.000      0.000
REMARK SMILES O=C(NCCCNC(=O)[C@@H]1C=C[C@@H]([NH+]2CC3(CCOCC3)C2)C1)c1ccc(-c2c3nc(c(-c4c(F)c(F)c(F)c(F)c4F)c4ccc([nH]4)c(-c4c(F)c(F)c(F)c(F)c4F)c4nc(c(-c5c(F)c(F)c(F)c(F)c5F)c5ccc2[nH]5)C=C4)C=C3)cc1
REMARK SMILES IDX 4 1 3 2 1 3 2 4 24 6 25 7 86 8 26 9 85 10 27 11 28 12 29 13
REMARK SMILES IDX 79 14 30 15 84 16 78 17 80 18 31 19 83 20 77 21 76 22 32 24
REMARK SMILES IDX 64 25 44 26 63 27 45 28 48 29 62 30 81 31 46 32 47 33 61 35
REMARK SMILES IDX 82 36 49 37 33 38 34 39 42 40 35 41 36 42 40 43 43 44 37 45
REMARK SMILES IDX 38 46 41 47 39 48 65 49 66 50 74 51 67 52 68 53 72 54 75 55
REMARK SMILES IDX 69 56 70 57 73 58 71 59 50 60 51 61 59 62 52 63 53 64 57 65
REMARK SMILES IDX 60 66 54 67 55 68 58 69 56 70 5 71 6 72 7 73 8 74 9 76 10 77
REMARK SMILES IDX 11 78 23 79 12 80 13 81 14 82 15 83 22 84 16 86 17 87 21 88
REMARK SMILES IDX 18 89 20 90 19 91
REMARK H PARENT 3 5 80 23 48 34 7 75 14 85
REMARK Flexibility Score: inf
ROOT
ATOM      1  C   UNL A   1      32.707  32.863  27.085  1.00  0.00     0.118 C 
ENDROOT
BRANCH   1   2
ATOM      2  N   UNL A   1      32.529  34.204  27.626  1.00  0.00    -0.352 N 
ATOM      3  O   UNL A   1      32.676  35.842  29.171  1.00  0.00    -0.269 OA
ATOM      4  C   UNL A   1      33.111  34.784  28.723  1.00  0.00     0.251 C 
ATOM      5  H   UNL A   1      31.900  34.777  27.132  1.00  0.00     0.163 HD
BRANCH   4   6
ATOM      6  C   UNL A   1      34.257  34.120  29.369  1.00  0.00     0.039 A 
ATOM      7  C   UNL A   1      35.562  34.474  29.016  1.00  0.00     0.014 A 
ATOM      8  C   UNL A   1      34.027  33.143  30.340  1.00  0.00     0.014 A 
ATOM      9  C   UNL A   1      36.630  33.750  29.522  1.00  0.00     0.010 A 
ATOM     10  C   UNL A   1      35.111  32.483  30.924  1.00  0.00     0.010 A 
ATOM     11  C   UNL A   1      36.419  32.764  30.499  1.00  0.00    -0.014 A 
BRANCH  11  12
ATOM     12  C   UNL A   1      37.593  32.101  31.114  1.00  0.00     0.031 A 
ATOM     13  C   UNL A   1      38.043  32.446  32.504  1.00  0.00     0.074 A 
ATOM     14  C   UNL A   1      38.236  31.155  30.403  1.00  0.00     0.049 A 
ATOM     15  N   UNL A   1      39.043  31.951  33.192  1.00  0.00    -0.248 NA
ATOM     16  C   UNL A   1      37.284  33.486  33.214  1.00  0.00     0.031 C 
ATOM     17  C   UNL A   1      37.890  30.752  29.037  1.00  0.00     0.029 A 
ATOM     18  N   UNL A   1      39.297  30.352  30.727  1.00  0.00    -0.354 N 
ATOM     19  C   UNL A   1      39.043  32.629  34.404  1.00  0.00     0.074 A 
ATOM     20  C   UNL A   1      37.962  33.591  34.349  1.00  0.00     0.031 C 
ATOM     21  C   UNL A   1      38.689  29.747  28.659  1.00  0.00     0.029 A 
ATOM     22  C   UNL A   1      39.649  29.482  29.724  1.00  0.00     0.049 A 
ATOM     23  H   UNL A   1      39.761  30.392  31.594  1.00  0.00     0.167 HD
ATOM     24  C   UNL A   1      39.870  32.456  35.462  1.00  0.00     0.037 A 
ATOM     25  C   UNL A   1      40.648  28.584  29.659  1.00  0.00     0.037 A 
ATOM     26  C   UNL A   1      40.934  31.485  35.508  1.00  0.00     0.049 A 
ATOM     27  C   UNL A   1      41.560  28.431  30.840  1.00  0.00     0.074 A 
ATOM     28  C   UNL A   1      41.804  31.206  36.548  1.00  0.00     0.029 A 
ATOM     29  N   UNL A   1      41.280  30.639  34.463  1.00  0.00    -0.354 N 
ATOM     30  N   UNL A   1      41.529  29.053  31.995  1.00  0.00    -0.248 NA
ATOM     31  C   UNL A   1      42.647  27.453  30.712  1.00  0.00     0.031 C 
ATOM     32  C   UNL A   1      42.707  30.229  36.114  1.00  0.00     0.029 A 
ATOM     33  C   UNL A   1      42.365  29.856  34.825  1.00  0.00     0.049 A 
ATOM     34  H   UNL A   1      40.821  30.600  33.593  1.00  0.00     0.167 HD
ATOM     35  C   UNL A   1      42.578  28.532  32.736  1.00  0.00     0.074 A 
ATOM     36  C   UNL A   1      43.212  27.525  31.908  1.00  0.00     0.031 C 
ATOM     37  C   UNL A   1      42.983  28.859  33.987  1.00  0.00     0.037 A 
BRANCH  24  38
ATOM     38  C   UNL A   1      39.674  33.345  36.658  1.00  0.00     0.064 A 
ATOM     39  C   UNL A   1      40.326  34.582  36.775  1.00  0.00     0.173 A 
ATOM     40  C   UNL A   1      38.779  32.979  37.675  1.00  0.00     0.173 A 
ATOM     41  F   UNL A   1      41.201  34.977  35.838  1.00  0.00    -0.203 F 
ATOM     42  C   UNL A   1      40.106  35.407  37.876  1.00  0.00     0.198 A 
ATOM     43  C   UNL A   1      38.539  33.819  38.759  1.00  0.00     0.198 A 
ATOM     44  F   UNL A   1      38.124  31.810  37.610  1.00  0.00    -0.203 F 
ATOM     45  F   UNL A   1      40.772  36.565  37.987  1.00  0.00    -0.200 F 
ATOM     46  C   UNL A   1      39.207  35.029  38.862  1.00  0.00     0.200 A 
ATOM     47  F   UNL A   1      37.659  33.458  39.703  1.00  0.00    -0.200 F 
ATOM     48  F   UNL A   1      38.988  35.830  39.915  1.00  0.00    -0.200 F 
ENDBRANCH  24  38
BRANCH  25  49
ATOM     49  C   UNL A   1      40.833  27.777  28.427  1.00  0.00     0.064 A 
ATOM     50  C   UNL A   1      41.642  28.233  27.378  1.00  0.00     0.173 A 
ATOM     51  C   UNL A   1      40.221  26.523  28.281  1.00  0.00     0.173 A 
ATOM     52  F   UNL A   1      42.236  29.432  27.464  1.00  0.00    -0.203 F 
ATOM     53  C   UNL A   1      41.817  27.474  26.223  1.00  0.00     0.198 A 
ATOM     54  C   UNL A   1      40.423  25.750  27.140  1.00  0.00     0.198 A 
ATOM     55  F   UNL A   1      39.443  26.037  29.260  1.00  0.00    -0.203 F 
ATOM     56  F   UNL A   1      42.561  27.953  25.216  1.00  0.00    -0.200 F 
ATOM     57  C   UNL A   1      41.214  26.230  26.108  1.00  0.00     0.200 A 
ATOM     58  F   UNL A   1      39.854  24.540  27.044  1.00  0.00    -0.200 F 
ATOM     59  F   UNL A   1      41.391  25.496  25.001  1.00  0.00    -0.200 F 
ENDBRANCH  25  49
BRANCH  37  60
ATOM     60  C   UNL A   1      44.151  28.098  34.545  1.00  0.00     0.064 A 
ATOM     61  C   UNL A   1      45.465  28.572  34.419  1.00  0.00     0.173 A 
ATOM     62  C   UNL A   1      43.948  26.892  35.232  1.00  0.00     0.173 A 
ATOM     63  F   UNL A   1      45.713  29.710  33.756  1.00  0.00    -0.203 F 
ATOM     64  C   UNL A   1      46.538  27.848  34.935  1.00  0.00     0.198 A 
ATOM     65  C   UNL A   1      45.019  26.188  35.774  1.00  0.00     0.198 A 
ATOM     66  F   UNL A   1      42.709  26.400  35.383  1.00  0.00    -0.203 F 
ATOM     67  F   UNL A   1      47.790  28.289  34.755  1.00  0.00    -0.200 F 
ATOM     68  C   UNL A   1      46.312  26.661  35.618  1.00  0.00     0.200 A 
ATOM     69  F   UNL A   1      44.799  25.049  36.444  1.00  0.00    -0.200 F 
ATOM     70  F   UNL A   1      47.345  25.968  36.116  1.00  0.00    -0.200 F 
ENDBRANCH  37  60
ENDBRANCH  11  12
ENDBRANCH   4   6
ENDBRANCH   1   2
BRANCH   1  71
ATOM     71  C   UNL A   1      31.405  32.281  26.538  1.00  0.00     0.042 C 
BRANCH  71  72
ATOM     72  C   UNL A   1      31.389  30.754  26.534  1.00  0.00     0.117 C 
BRANCH  72  73
ATOM     73  N   UNL A   1      31.737  30.271  25.220  1.00  0.00    -0.356 N 
ATOM     74  C   UNL A   1      32.586  29.252  24.923  1.00  0.00     0.227 C 
ATOM     75  H   UNL A   1      31.314  30.728  24.457  1.00  0.00     0.163 HD
ATOM     76  O   UNL A   1      33.177  29.327  23.844  1.00  0.00    -0.274 OA
BRANCH  74  77
ATOM     77  C   UNL A   1      32.623  28.019  25.837  1.00  0.00     0.107 C 
ATOM     78  C   UNL A   1      33.846  27.187  26.062  1.00  0.00    -0.012 C 
ATOM     79  C   UNL A   1      31.624  26.989  25.309  1.00  0.00     0.087 C 
ATOM     80  C   UNL A   1      33.658  25.897  25.750  1.00  0.00     0.033 C 
ATOM     81  C   UNL A   1      32.347  25.661  25.064  1.00  0.00     0.208 C 
BRANCH  81  82
ATOM     82  N   UNL A   1      31.665  24.404  25.397  1.00  0.00    -0.328 N 
ATOM     83  C   UNL A   1      32.566  23.442  26.071  1.00  0.00     0.275 C 
ATOM     84  C   UNL A   1      31.456  23.469  24.283  1.00  0.00     0.275 C 
ATOM     85  H   UNL A   1      30.842  24.784  25.865  1.00  0.00     0.348 HD
ATOM     86  C   UNL A   1      32.627  22.559  24.790  1.00  0.00     0.073 C 
ATOM     87  C   UNL A   1      32.153  21.100  24.914  1.00  0.00     0.047 C 
ATOM     88  C   UNL A   1      33.966  22.585  24.032  1.00  0.00     0.047 C 
ATOM     89  C   UNL A   1      33.268  20.224  25.471  1.00  0.00     0.161 C 
ATOM     90  C   UNL A   1      34.963  21.603  24.627  1.00  0.00     0.161 C 
ATOM     91  O   UNL A   1      34.419  20.290  24.631  1.00  0.00    -0.381 OA
ENDBRANCH  81  82
ENDBRANCH  74  77
ENDBRANCH  72  73
ENDBRANCH  71  72
ENDBRANCH   1  71
TORSDOF 11
ENDMDL
MODEL 2
REMARK VINA RESULT:     -12.4      0.054      1.621
REMARK SMILES O=C(NCCCNC(=O)[C@@H]1C=C[C@@H]([NH+]2CC3(CCOCC3)C2)C1)c1ccc(-c2c3nc(c(-c4c(F)c(F)c(F)c(F)c4F)c4ccc([nH]4)c(-c4c(F)c(F)c(F)c(F)c4F)c4nc(c(-c5c(F)c(F)c(F)c(F)c5F)c5ccc2[nH]5)C=C4)C=C3)cc1
REMARK SMILES IDX 4 1 3 2 1 3 2 4 24 6 25 7 86 8 26 9 85 10 27 11 28 12 29 13
REMARK SMILES IDX 79 14 30 15 84 16 78 17 80 18 31 19 83 20 77 21 76 22 32 24
REMARK SMILES IDX 64 25 44 26 63 27 45 28 48 29 62 30 81 31 46 32 47 33 61 35
REMARK SMILES IDX 82 36 49 37 33 38 34 39 42 40 35 41 36 42 40 43 43 44 37 45
REMARK SMILES IDX 38 46 41 47 39 48 65 49 66 50 74 51 67 52 68 53 72 54 75 55
REMARK SMILES IDX 69 56 70 57 73 58 71 59 50 60 51 61 59 62 52 63 53 64 57 65
REMARK SMILES IDX 60 66 54 67 55 68 58 69 56 70 5 71 6 72 7 73 8 74 9 76 10 77
REMARK SMILES IDX 11 78 23 79 12 80 13 81 14 82 15 83 22 84 16 86 17 87 21 88
REMARK SMILES IDX 18 89 20 90 19 91
REMARK H PARENT 3 5 80 23 48 34 7 75 14 85
REMARK Flexibility Score: inf
ROOT
ATOM      1  C   UNL A   1      32.700  32.861  27.113  1.00  0.00     0.118 C 
ENDROOT
BRANCH   1   2
ATOM      2  N   UNL A   1      32.536  34.212  27.635  1.00  0.00    -0.352 N 
ATOM      3  O   UNL A   1      32.703  35.869  29.155  1.00  0.00    -0.269 OA
ATOM      4  C   UNL A   1      33.127  34.802  28.721  1.00  0.00     0.251 C 
ATOM      5  H   UNL A   1      31.911  34.783  27.134  1.00  0.00     0.163 HD
BRANCH   4   6
ATOM      6  C   UNL A   1      34.269  34.137  29.374  1.00  0.00     0.039 A 
ATOM      7  C   UNL A   1      35.575  34.538  29.080  1.00  0.00     0.014 A 
ATOM      8  C   UNL A   1      34.034  33.109  30.290  1.00  0.00     0.014 A 
ATOM      9  C   UNL A   1      36.645  33.818  29.586  1.00  0.00     0.010 A 
ATOM     10  C   UNL A   1      35.116  32.450  30.878  1.00  0.00     0.010 A 
ATOM     11  C   UNL A   1      36.429  32.782  30.510  1.00  0.00    -0.014 A 
BRANCH  11  12
ATOM     12  C   UNL A   1      37.600  32.121  31.132  1.00  0.00     0.031 A 
ATOM     13  C   UNL A   1      38.043  32.468  32.523  1.00  0.00     0.074 A 
ATOM     14  C   UNL A   1      38.246  31.174  30.425  1.00  0.00     0.049 A 
ATOM     15  N   UNL A   1      39.039  31.974  33.217  1.00  0.00    -0.248 NA
ATOM     16  C   UNL A   1      37.280  33.509  33.227  1.00  0.00     0.031 C 
ATOM     17  C   UNL A   1      37.908  30.768  29.058  1.00  0.00     0.029 A 
ATOM     18  N   UNL A   1      39.306  30.370  30.756  1.00  0.00    -0.354 N 
ATOM     19  C   UNL A   1      39.033  32.654  34.428  1.00  0.00     0.074 A 
ATOM     20  C   UNL A   1      37.953  33.616  34.366  1.00  0.00     0.031 C 
ATOM     21  C   UNL A   1      38.708  29.762  28.686  1.00  0.00     0.029 A 
ATOM     22  C   UNL A   1      39.662  29.499  29.756  1.00  0.00     0.049 A 
ATOM     23  H   UNL A   1      39.765  30.412  31.625  1.00  0.00     0.167 HD
ATOM     24  C   UNL A   1      39.855  32.483  35.491  1.00  0.00     0.037 A 
ATOM     25  C   UNL A   1      40.662  28.601  29.698  1.00  0.00     0.037 A 
ATOM     26  C   UNL A   1      40.919  31.512  35.543  1.00  0.00     0.049 A 
ATOM     27  C   UNL A   1      41.568  28.450  30.884  1.00  0.00     0.074 A 
ATOM     28  C   UNL A   1      41.783  31.234  36.588  1.00  0.00     0.029 A 
ATOM     29  N   UNL A   1      41.270  30.664  34.501  1.00  0.00    -0.354 N 
ATOM     30  N   UNL A   1      41.531  29.074  32.037  1.00  0.00    -0.248 NA
ATOM     31  C   UNL A   1      42.656  27.472  30.762  1.00  0.00     0.031 C 
ATOM     32  C   UNL A   1      42.689  30.257  36.160  1.00  0.00     0.029 A 
ATOM     33  C   UNL A   1      42.353  29.882  34.870  1.00  0.00     0.049 A 
ATOM     34  H   UNL A   1      40.815  30.624  33.629  1.00  0.00     0.167 HD
ATOM     35  C   UNL A   1      42.577  28.554  32.784  1.00  0.00     0.074 A 
ATOM     36  C   UNL A   1      43.215  27.546  31.961  1.00  0.00     0.031 C 
ATOM     37  C   UNL A   1      42.975  28.883  34.036  1.00  0.00     0.037 A 
BRANCH  24  38
ATOM     38  C   UNL A   1      39.654  33.374  36.683  1.00  0.00     0.064 A 
ATOM     39  C   UNL A   1      40.295  34.617  36.796  1.00  0.00     0.173 A 
ATOM     40  C   UNL A   1      38.763  33.003  37.703  1.00  0.00     0.173 A 
ATOM     41  F   UNL A   1      41.164  35.016  35.856  1.00  0.00    -0.203 F 
ATOM     42  C   UNL A   1      40.069  35.443  37.895  1.00  0.00     0.198 A 
ATOM     43  C   UNL A   1      38.518  33.844  38.786  1.00  0.00     0.198 A 
ATOM     44  F   UNL A   1      38.119  31.828  37.643  1.00  0.00    -0.203 F 
ATOM     45  F   UNL A   1      40.725  36.608  38.001  1.00  0.00    -0.200 F 
ATOM     46  C   UNL A   1      39.175  35.061  38.883  1.00  0.00     0.200 A 
ATOM     47  F   UNL A   1      37.643  33.478  39.733  1.00  0.00    -0.200 F 
ATOM     48  F   UNL A   1      38.951  35.862  39.935  1.00  0.00    -0.200 F 
ENDBRANCH  24  38
BRANCH  25  49
ATOM     49  C   UNL A   1      40.853  27.792  28.468  1.00  0.00     0.064 A 
ATOM     50  C   UNL A   1      40.226  26.549  28.314  1.00  0.00     0.173 A 
ATOM     51  C   UNL A   1      41.653  28.255  27.411  1.00  0.00     0.173 A 
ATOM     52  F   UNL A   1      39.465  26.056  29.302  1.00  0.00    -0.203 F 
ATOM     53  C   UNL A   1      40.406  25.791  27.158  1.00  0.00     0.198 A 
ATOM     54  C   UNL A   1      41.805  27.513  26.243  1.00  0.00     0.198 A 
ATOM     55  F   UNL A   1      42.268  29.443  27.505  1.00  0.00    -0.203 F 
ATOM     56  F   UNL A   1      39.830  24.586  27.055  1.00  0.00    -0.200 F 
ATOM     57  C   UNL A   1      41.188  26.278  26.121  1.00  0.00     0.200 A 
ATOM     58  F   UNL A   1      42.545  27.997  25.236  1.00  0.00    -0.200 F 
ATOM     59  F   UNL A   1      41.352  25.553  25.006  1.00  0.00    -0.200 F 
ENDBRANCH  25  49
BRANCH  37  60
ATOM     60  C   UNL A   1      44.141  28.123  34.602  1.00  0.00     0.064 A 
ATOM     61  C   UNL A   1      43.967  26.908  35.281  1.00  0.00     0.173 A 
ATOM     62  C   UNL A   1      45.447  28.609  34.444  1.00  0.00     0.173 A 
ATOM     63  F   UNL A   1      42.736  26.412  35.474  1.00  0.00    -0.203 F 
ATOM     64  C   UNL A   1      45.059  26.222  35.807  1.00  0.00     0.198 A 
ATOM     65  C   UNL A   1      46.539  27.904  34.943  1.00  0.00     0.198 A 
ATOM     66  F   UNL A   1      45.666  29.764  33.798  1.00  0.00    -0.203 F 
ATOM     67  F   UNL A   1      44.865  25.092  36.501  1.00  0.00    -0.200 F 
ATOM     68  C   UNL A   1      46.343  26.717  35.632  1.00  0.00     0.200 A 
ATOM     69  F   UNL A   1      47.778  28.376  34.762  1.00  0.00    -0.200 F 
ATOM     70  F   UNL A   1      47.391  26.053  36.136  1.00  0.00    -0.200 F 
ENDBRANCH  37  60
ENDBRANCH  11  12
ENDBRANCH   4   6
ENDBRANCH   1   2
BRANCH   1  71
ATOM     71  C   UNL A   1      31.406  32.308  26.517  1.00  0.00     0.042 C 
BRANCH  71  72
ATOM     72  C   UNL A   1      31.357  30.782  26.509  1.00  0.00     0.117 C 
BRANCH  72  73
ATOM     73  N   UNL A   1      31.697  30.294  25.195  1.00  0.00    -0.356 N 
ATOM     74  C   UNL A   1      32.530  29.263  24.897  1.00  0.00     0.227 C 
ATOM     75  H   UNL A   1      31.281  30.759  24.433  1.00  0.00     0.163 HD
ATOM     76  O   UNL A   1      33.121  29.328  23.819  1.00  0.00    -0.274 OA
BRANCH  74  77
ATOM     77  C   UNL A   1      32.547  28.028  25.811  1.00  0.00     0.107 C 
ATOM     78  C   UNL A   1      33.770  27.207  26.075  1.00  0.00    -0.012 C 
ATOM     79  C   UNL A   1      31.575  26.991  25.249  1.00  0.00     0.087 C 
ATOM     80  C   UNL A   1      33.603  25.916  25.756  1.00  0.00     0.033 C 
ATOM     81  C   UNL A   1      32.317  25.669  25.027  1.00  0.00     0.208 C 
BRANCH  81  82
ATOM     82  N   UNL A   1      31.636  24.407  25.336  1.00  0.00    -0.328 N 
ATOM     83  C   UNL A   1      32.525  23.448  26.030  1.00  0.00     0.275 C 
ATOM     84  C   UNL A   1      31.462  23.475  24.213  1.00  0.00     0.275 C 
ATOM     85  H   UNL A   1      30.797  24.779  25.784  1.00  0.00     0.348 HD
ATOM     86  C   UNL A   1      32.626  22.570  24.748  1.00  0.00     0.073 C 
ATOM     87  C   UNL A   1      32.160  21.108  24.853  1.00  0.00     0.047 C 
ATOM     88  C   UNL A   1      33.985  22.609  24.025  1.00  0.00     0.047 C 
ATOM     89  C   UNL A   1      33.265  20.237  25.436  1.00  0.00     0.161 C 
ATOM     90  C   UNL A   1      34.972  21.632  24.643  1.00  0.00     0.161 C 
ATOM     91  O   UNL A   1      34.439  20.316  24.627  1.00  0.00    -0.381 OA
ENDBRANCH  81  82
ENDBRANCH  74  77
ENDBRANCH  72  73
ENDBRANCH  71  72
ENDBRANCH   1  71
TORSDOF 11
ENDMDL
MODEL 3
REMARK VINA RESULT:     -12.4      1.814      3.176
REMARK SMILES O=C(NCCCNC(=O)[C@@H]1C=C[C@@H]([NH+]2CC3(CCOCC3)C2)C1)c1ccc(-c2c3nc(c(-c4c(F)c(F)c(F)c(F)c4F)c4ccc([nH]4)c(-c4c(F)c(F)c(F)c(F)c4F)c4nc(c(-c5c(F)c(F)c(F)c(F)c5F)c5ccc2[nH]5)C=C4)C=C3)cc1
REMARK SMILES IDX 4 1 3 2 1 3 2 4 24 6 25 7 86 8 26 9 85 10 27 11 28 12 29 13
REMARK SMILES IDX 79 14 30 15 84 16 78 17 80 18 31 19 83 20 77 21 76 22 32 24
REMARK SMILES IDX 64 25 44 26 63 27 45 28 48 29 62 30 81 31 46 32 47 33 61 35
REMARK SMILES IDX 82 36 49 37 33 38 34 39 42 40 35 41 36 42 40 43 43 44 37 45
REMARK SMILES IDX 38 46 41 47 39 48 65 49 66 50 74 51 67 52 68 53 72 54 75 55
REMARK SMILES IDX 69 56 70 57 73 58 71 59 50 60 51 61 59 62 52 63 53 64 57 65
REMARK SMILES IDX 60 66 54 67 55 68 58 69 56 70 5 71 6 72 7 73 8 74 9 76 10 77
REMARK SMILES IDX 11 78 23 79 12 80 13 81 14 82 15 83 22 84 16 86 17 87 21 88
REMARK SMILES IDX 18 89 20 90 19 91
REMARK H PARENT 3 5 80 23 48 34 7 75 14 85
REMARK Flexibility Score: inf
ROOT
ATOM      1  C   UNL A   1      33.549  29.248  25.301  1.00  0.00     0.118 C 
ENDROOT
BRANCH   1   2
ATOM      2  N   UNL A   1      32.995  30.510  25.773  1.00  0.00    -0.352 N 
ATOM      3  O   UNL A   1      32.615  32.171  27.252  1.00  0.00    -0.269 OA
ATOM      4  C   UNL A   1      33.336  31.252  26.874  1.00  0.00     0.251 C 
ATOM      5  H   UNL A   1      32.272  30.885  25.221  1.00  0.00     0.163 HD
BRANCH   4   6
ATOM      6  C   UNL A   1      34.572  30.929  27.609  1.00  0.00     0.039 A 
ATOM      7  C   UNL A   1      34.734  29.668  28.188  1.00  0.00     0.014 A 
ATOM      8  C   UNL A   1      35.580  31.891  27.715  1.00  0.00     0.014 A 
ATOM      9  C   UNL A   1      35.833  29.419  28.996  1.00  0.00     0.010 A 
ATOM     10  C   UNL A   1      36.734  31.602  28.446  1.00  0.00     0.010 A 
ATOM     11  C   UNL A   1      36.856  30.373  29.114  1.00  0.00    -0.014 A 
BRANCH  11  12
ATOM     12  C   UNL A   1      38.077  30.023  29.877  1.00  0.00     0.031 A 
ATOM     13  C   UNL A   1      38.292  30.523  31.276  1.00  0.00     0.074 A 
ATOM     14  C   UNL A   1      38.984  29.216  29.293  1.00  0.00     0.049 A 
ATOM     15  N   UNL A   1      39.299  30.300  32.084  1.00  0.00    -0.248 NA
ATOM     16  C   UNL A   1      37.252  31.395  31.841  1.00  0.00     0.031 C 
ATOM     17  C   UNL A   1      38.881  28.684  27.932  1.00  0.00     0.029 A 
ATOM     18  N   UNL A   1      40.157  28.690  29.767  1.00  0.00    -0.354 N 
ATOM     19  C   UNL A   1      39.023  31.015  33.242  1.00  0.00     0.074 A 
ATOM     20  C   UNL A   1      37.768  31.703  33.024  1.00  0.00     0.031 C 
ATOM     21  C   UNL A   1      39.917  27.870  27.698  1.00  0.00     0.029 A 
ATOM     22  C   UNL A   1      40.795  27.878  28.861  1.00  0.00     0.049 A 
ATOM     23  H   UNL A   1      40.507  28.874  30.668  1.00  0.00     0.167 HD
ATOM     24  C   UNL A   1      39.753  31.082  34.382  1.00  0.00     0.037 A 
ATOM     25  C   UNL A   1      41.969  27.228  28.949  1.00  0.00     0.037 A 
ATOM     26  C   UNL A   1      40.995  30.380  34.590  1.00  0.00     0.049 A 
ATOM     27  C   UNL A   1      42.764  27.340  30.216  1.00  0.00     0.074 A 
ATOM     28  C   UNL A   1      41.791  30.353  35.722  1.00  0.00     0.029 A 
ATOM     29  N   UNL A   1      41.626  29.589  33.640  1.00  0.00    -0.354 N 
ATOM     30  N   UNL A   1      42.476  27.990  31.318  1.00  0.00    -0.248 NA
ATOM     31  C   UNL A   1      44.048  26.629  30.254  1.00  0.00     0.031 C 
ATOM     32  C   UNL A   1      42.929  29.588  35.440  1.00  0.00     0.029 A 
ATOM     33  C   UNL A   1      42.813  29.090  34.152  1.00  0.00     0.049 A 
ATOM     34  H   UNL A   1      41.280  29.407  32.737  1.00  0.00     0.167 HD
ATOM     35  C   UNL A   1      43.532  27.755  32.186  1.00  0.00     0.074 A 
ATOM     36  C   UNL A   1      44.456  26.882  31.489  1.00  0.00     0.031 C 
ATOM     37  C   UNL A   1      43.721  28.222  33.443  1.00  0.00     0.037 A 
BRANCH  24  38
ATOM     38  C   UNL A   1      39.242  31.957  35.491  1.00  0.00     0.064 A 
ATOM     39  C   UNL A   1      38.403  31.459  36.499  1.00  0.00     0.173 A 
ATOM     40  C   UNL A   1      39.641  33.300  35.576  1.00  0.00     0.173 A 
ATOM     41  F   UNL A   1      37.981  30.186  36.461  1.00  0.00    -0.203 F 
ATOM     42  C   UNL A   1      37.966  32.279  37.538  1.00  0.00     0.198 A 
ATOM     43  C   UNL A   1      39.225  34.108  36.631  1.00  0.00     0.198 A 
ATOM     44  F   UNL A   1      40.447  33.826  34.642  1.00  0.00    -0.203 F 
ATOM     45  F   UNL A   1      37.131  31.792  38.468  1.00  0.00    -0.200 F 
ATOM     46  C   UNL A   1      38.384  33.599  37.608  1.00  0.00     0.200 A 
ATOM     47  F   UNL A   1      39.642  35.380  36.704  1.00  0.00    -0.200 F 
ATOM     48  F   UNL A   1      37.970  34.383  38.614  1.00  0.00    -0.200 F 
ENDBRANCH  24  38
BRANCH  25  49
ATOM     49  C   UNL A   1      42.456  26.429  27.796  1.00  0.00     0.064 A 
ATOM     50  C   UNL A   1      42.040  25.105  27.606  1.00  0.00     0.173 A 
ATOM     51  C   UNL A   1      43.333  26.981  26.849  1.00  0.00     0.173 A 
ATOM     52  F   UNL A   1      41.215  24.529  28.492  1.00  0.00    -0.203 F 
ATOM     53  C   UNL A   1      42.497  24.357  26.522  1.00  0.00     0.198 A 
ATOM     54  C   UNL A   1      43.763  26.243  25.749  1.00  0.00     0.198 A 
ATOM     55  F   UNL A   1      43.755  28.248  26.982  1.00  0.00    -0.203 F 
ATOM     56  F   UNL A   1      42.118  23.079  26.387  1.00  0.00    -0.200 F 
ATOM     57  C   UNL A   1      43.351  24.930  25.591  1.00  0.00     0.200 A 
ATOM     58  F   UNL A   1      44.572  26.808  24.842  1.00  0.00    -0.200 F 
ATOM     59  F   UNL A   1      43.782  24.212  24.544  1.00  0.00    -0.200 F 
ENDBRANCH  25  49
BRANCH  37  60
ATOM     60  C   UNL A   1      44.963  27.772  34.157  1.00  0.00     0.064 A 
ATOM     61  C   UNL A   1      46.153  28.513  34.101  1.00  0.00     0.173 A 
ATOM     62  C   UNL A   1      44.956  26.595  34.920  1.00  0.00     0.173 A 
ATOM     63  F   UNL A   1      46.216  29.635  33.369  1.00  0.00    -0.203 F 
ATOM     64  C   UNL A   1      47.299  28.076  34.761  1.00  0.00     0.198 A 
ATOM     65  C   UNL A   1      46.093  26.178  35.605  1.00  0.00     0.198 A 
ATOM     66  F   UNL A   1      43.841  25.853  35.009  1.00  0.00    -0.203 F 
ATOM     67  F   UNL A   1      48.440  28.769  34.649  1.00  0.00    -0.200 F 
ATOM     68  C   UNL A   1      47.265  26.913  35.517  1.00  0.00     0.200 A 
ATOM     69  F   UNL A   1      46.056  25.063  36.345  1.00  0.00    -0.200 F 
ATOM     70  F   UNL A   1      48.368  26.496  36.154  1.00  0.00    -0.200 F 
ENDBRANCH  37  60
ENDBRANCH  11  12
ENDBRANCH   4   6
ENDBRANCH   1   2
BRANCH   1  71
ATOM     71  C   UNL A   1      32.531  28.110  25.359  1.00  0.00     0.042 C 
BRANCH  71  72
ATOM     72  C   UNL A   1      32.789  27.137  26.506  1.00  0.00     0.117 C 
BRANCH  72  73
ATOM     73  N   UNL A   1      31.552  26.504  26.890  1.00  0.00    -0.356 N 
ATOM     74  C   UNL A   1      30.891  25.526  26.217  1.00  0.00     0.227 C 
ATOM     75  H   UNL A   1      31.142  26.813  27.731  1.00  0.00     0.163 HD
ATOM     76  O   UNL A   1      29.667  25.496  26.353  1.00  0.00    -0.274 OA
BRANCH  74  77
ATOM     77  C   UNL A   1      31.700  24.440  25.492  1.00  0.00     0.107 C 
ATOM     78  C   UNL A   1      31.084  23.367  24.650  1.00  0.00    -0.012 C 
ATOM     79  C   UNL A   1      32.475  23.631  26.532  1.00  0.00     0.087 C 
ATOM     80  C   UNL A   1      31.409  22.134  25.066  1.00  0.00     0.033 C 
ATOM     81  C   UNL A   1      32.128  22.146  26.381  1.00  0.00     0.208 C 
BRANCH  81  82
ATOM     82  N   UNL A   1      33.189  21.145  26.541  1.00  0.00    -0.328 N 
ATOM     83  C   UNL A   1      34.531  21.763  26.626  1.00  0.00     0.275 C 
ATOM     84  C   UNL A   1      33.573  20.412  25.327  1.00  0.00     0.275 C 
ATOM     85  H   UNL A   1      32.795  20.613  27.318  1.00  0.00     0.348 HD
ATOM     86  C   UNL A   1      34.882  21.264  25.194  1.00  0.00     0.073 C 
ATOM     87  C   UNL A   1      36.106  20.343  25.046  1.00  0.00     0.047 C 
ATOM     88  C   UNL A   1      34.947  22.356  24.110  1.00  0.00     0.047 C 
ATOM     89  C   UNL A   1      37.387  21.165  24.985  1.00  0.00     0.161 C 
ATOM     90  C   UNL A   1      36.305  23.040  24.089  1.00  0.00     0.161 C 
ATOM     91  O   UNL A   1      37.336  22.084  23.893  1.00  0.00    -0.381 OA
ENDBRANCH  81  82
ENDBRANCH  74  77
ENDBRANCH  72  73
ENDBRANCH  71  72
ENDBRANCH   1  71
TORSDOF 11
ENDMDL
