MODEL 1
REMARK VINA RESULT:     -13.8      0.000      0.000
REMARK SMILES CCc1sc(NC(=O)[C@H]2CC(C)=C(C)C[C@H]2C(=O)NCCCNC(=O)c2ccc(-c3c4nc(c(-c5c(F)c(F)c(F)c(F)c5F)c5ccc([nH]5)c(-c5c(F)c(F)c(F)c(F)c5F)c5nc(c(-c6c(F)c(F)c(F)c(F)c6F)c6ccc3[nH]6)C=C5)C=C4)cc2)nc1-c1ccccc1
REMARK SMILES IDX 20 1 19 2 17 3 18 4 16 6 9 7 10 8 11 9 15 10 12 11 13 12
REMARK SMILES IDX 14 13 7 14 6 15 8 17 5 18 3 19 4 20 90 21 89 22 2 23 1 24
REMARK SMILES IDX 91 25 92 26 96 27 93 28 95 29 94 30 21 31 22 32 23 33 24 34
REMARK SMILES IDX 25 36 26 37 27 38 88 39 28 40 87 41 29 42 30 43 31 44 81 45
REMARK SMILES IDX 32 46 86 47 80 48 82 49 33 50 85 51 79 52 78 53 34 55 66 56
REMARK SMILES IDX 46 57 65 58 47 59 50 60 64 61 83 62 48 63 49 64 63 66 84 67
REMARK SMILES IDX 51 68 35 69 36 70 44 71 37 72 38 73 42 74 45 75 39 76 40 77
REMARK SMILES IDX 43 78 41 79 67 80 68 81 76 82 69 83 70 84 74 85 77 86 71 87
REMARK SMILES IDX 72 88 75 89 73 90 52 91 53 92 61 93 54 94 55 95 59 96 62 97
REMARK SMILES IDX 56 98 57 99 60 100 58 101
REMARK H PARENT 19 5 6 16 23 35 82 54 50 65
REMARK Flexibility Score: inf
ROOT
ATOM      1  C   UNL A   1      31.219  30.461  25.495  1.00  0.00     0.117 C 
ENDROOT
BRANCH   1   2
ATOM      2  N   UNL A   1      32.468  29.770  25.709  1.00  0.00    -0.356 N 
ATOM      3  C   UNL A   1      33.028  28.697  25.101  1.00  0.00     0.224 C 
ATOM      4  O   UNL A   1      34.227  28.503  25.342  1.00  0.00    -0.275 OA
ATOM      5  H   UNL A   1      33.017  30.151  26.432  1.00  0.00     0.163 HD
BRANCH   3   6
ATOM      6  C   UNL A   1      32.298  27.791  24.100  1.00  0.00     0.095 C 
ATOM      7  C   UNL A   1      31.215  26.798  24.609  1.00  0.00     0.095 C 
ATOM      8  C   UNL A   1      29.778  27.282  24.339  1.00  0.00     0.045 C 
ATOM      9  C   UNL A   1      29.514  28.354  23.321  1.00  0.00    -0.074 C 
ATOM     10  C   UNL A   1      31.947  28.584  22.829  1.00  0.00     0.045 C 
ATOM     11  C   UNL A   1      28.045  28.671  23.171  1.00  0.00     0.039 C 
ATOM     12  C   UNL A   1      30.500  28.954  22.631  1.00  0.00    -0.074 C 
ATOM     13  C   UNL A   1      30.240  30.070  21.654  1.00  0.00     0.039 C 
BRANCH   7  14
ATOM     14  C   UNL A   1      31.479  26.333  26.069  1.00  0.00     0.230 C 
ATOM     15  N   UNL A   1      32.115  25.188  26.430  1.00  0.00    -0.302 N 
ATOM     16  H   UNL A   1      31.976  24.943  27.374  1.00  0.00     0.172 HD
ATOM     17  O   UNL A   1      31.086  27.014  27.024  1.00  0.00    -0.274 OA
BRANCH  15  18
ATOM     18  C   UNL A   1      32.905  24.310  25.755  1.00  0.00     0.190 A 
ATOM     19  C   UNL A   1      34.489  23.309  24.250  1.00  0.00     0.034 A 
ATOM     20  S   UNL A   1      34.477  24.716  25.262  1.00  0.00    -0.101 S 
ATOM     21  C   UNL A   1      33.502  22.456  24.728  1.00  0.00     0.087 A 
ATOM     22  N   UNL A   1      32.578  23.054  25.578  1.00  0.00    -0.220 NA
BRANCH  19  23
ATOM     23  C   UNL A   1      35.504  23.265  23.145  1.00  0.00     0.046 C 
ATOM     24  C   UNL A   1      36.816  22.569  23.454  1.00  0.00     0.010 C 
ENDBRANCH  19  23
BRANCH  21  25
ATOM     25  C   UNL A   1      33.359  21.057  24.362  1.00  0.00     0.001 A 
ATOM     26  C   UNL A   1      32.368  20.675  23.449  1.00  0.00     0.010 A 
ATOM     27  C   UNL A   1      34.209  20.085  24.901  1.00  0.00     0.010 A 
ATOM     28  C   UNL A   1      32.191  19.329  23.122  1.00  0.00     0.001 A 
ATOM     29  C   UNL A   1      34.033  18.738  24.568  1.00  0.00     0.001 A 
ATOM     30  C   UNL A   1      33.018  18.361  23.689  1.00  0.00     0.000 A 
ENDBRANCH  21  25
ENDBRANCH  15  18
ENDBRANCH   7  14
ENDBRANCH   3   6
ENDBRANCH   1   2
BRANCH   1  31
ATOM     31  C   UNL A   1      31.077  31.715  26.341  1.00  0.00     0.042 C 
BRANCH  31  32
ATOM     32  C   UNL A   1      32.395  32.201  26.923  1.00  0.00     0.118 C 
BRANCH  32  33
ATOM     33  N   UNL A   1      32.349  33.614  27.264  1.00  0.00    -0.352 N 
ATOM     34  C   UNL A   1      33.014  34.320  28.232  1.00  0.00     0.251 C 
ATOM     35  H   UNL A   1      31.740  34.152  26.708  1.00  0.00     0.163 HD
ATOM     36  O   UNL A   1      32.633  35.452  28.518  1.00  0.00    -0.269 OA
BRANCH  34  37
ATOM     37  C   UNL A   1      34.184  33.744  28.931  1.00  0.00     0.039 A 
ATOM     38  C   UNL A   1      35.458  34.218  28.602  1.00  0.00     0.014 A 
ATOM     39  C   UNL A   1      34.048  32.690  29.838  1.00  0.00     0.014 A 
ATOM     40  C   UNL A   1      36.587  33.649  29.194  1.00  0.00     0.010 A 
ATOM     41  C   UNL A   1      35.165  32.187  30.498  1.00  0.00     0.010 A 
ATOM     42  C   UNL A   1      36.447  32.635  30.154  1.00  0.00    -0.014 A 
BRANCH  42  43
ATOM     43  C   UNL A   1      37.636  31.986  30.754  1.00  0.00     0.031 A 
ATOM     44  C   UNL A   1      38.071  32.355  32.147  1.00  0.00     0.074 A 
ATOM     45  C   UNL A   1      38.342  31.092  30.039  1.00  0.00     0.049 A 
ATOM     46  N   UNL A   1      39.080  31.903  32.849  1.00  0.00    -0.248 NA
ATOM     47  C   UNL A   1      37.286  33.394  32.831  1.00  0.00     0.031 C 
ATOM     48  C   UNL A   1      38.049  30.694  28.662  1.00  0.00     0.029 A 
ATOM     49  N   UNL A   1      39.447  30.353  30.374  1.00  0.00    -0.354 N 
ATOM     50  C   UNL A   1      39.062  32.618  34.039  1.00  0.00     0.074 A 
ATOM     51  C   UNL A   1      37.980  33.572  33.945  1.00  0.00     0.031 C 
ATOM     52  C   UNL A   1      38.926  29.751  28.283  1.00  0.00     0.029 A 
ATOM     53  C   UNL A   1      39.856  29.499  29.381  1.00  0.00     0.049 A 
ATOM     54  H   UNL A   1      39.903  30.428  31.243  1.00  0.00     0.167 HD
ATOM     55  C   UNL A   1      39.859  32.474  35.125  1.00  0.00     0.037 A 
ATOM     56  C   UNL A   1      40.857  28.600  29.369  1.00  0.00     0.037 A 
ATOM     57  C   UNL A   1      40.909  31.497  35.230  1.00  0.00     0.049 A 
ATOM     58  C   UNL A   1      41.703  28.430  30.601  1.00  0.00     0.074 A 
ATOM     59  C   UNL A   1      41.731  31.221  36.309  1.00  0.00     0.029 A 
ATOM     60  N   UNL A   1      41.277  30.629  34.213  1.00  0.00    -0.354 N 
ATOM     61  N   UNL A   1      41.633  29.058  31.749  1.00  0.00    -0.248 NA
ATOM     62  C   UNL A   1      42.761  27.412  30.536  1.00  0.00     0.031 C 
ATOM     63  C   UNL A   1      42.620  30.207  35.931  1.00  0.00     0.029 A 
ATOM     64  C   UNL A   1      42.324  29.824  34.632  1.00  0.00     0.049 A 
ATOM     65  H   UNL A   1      40.856  30.591  33.324  1.00  0.00     0.167 HD
ATOM     66  C   UNL A   1      42.611  28.493  32.554  1.00  0.00     0.074 A 
ATOM     67  C   UNL A   1      43.256  27.463  31.766  1.00  0.00     0.031 C 
ATOM     68  C   UNL A   1      42.944  28.797  33.834  1.00  0.00     0.037 A 
BRANCH  55  69
ATOM     69  C   UNL A   1      39.616  33.401  36.281  1.00  0.00     0.064 A 
ATOM     70  C   UNL A   1      38.782  33.042  37.353  1.00  0.00     0.173 A 
ATOM     71  C   UNL A   1      40.215  34.669  36.316  1.00  0.00     0.173 A 
ATOM     72  F   UNL A   1      38.173  31.847  37.361  1.00  0.00    -0.203 F 
ATOM     73  C   UNL A   1      38.524  33.932  38.392  1.00  0.00     0.198 A 
ATOM     74  C   UNL A   1      39.980  35.545  37.373  1.00  0.00     0.198 A 
ATOM     75  F   UNL A   1      41.024  35.063  35.321  1.00  0.00    -0.203 F 
ATOM     76  F   UNL A   1      37.674  33.590  39.369  1.00  0.00    -0.200 F 
ATOM     77  C   UNL A   1      39.126  35.181  38.403  1.00  0.00     0.200 A 
ATOM     78  F   UNL A   1      40.570  36.748  37.388  1.00  0.00    -0.200 F 
ATOM     79  F   UNL A   1      38.873  36.038  39.402  1.00  0.00    -0.200 F 
ENDBRANCH  55  69
BRANCH  56  80
ATOM     80  C   UNL A   1      41.057  27.742  28.175  1.00  0.00     0.064 A 
ATOM     81  C   UNL A   1      41.866  28.176  27.115  1.00  0.00     0.173 A 
ATOM     82  C   UNL A   1      40.479  26.469  28.078  1.00  0.00     0.173 A 
ATOM     83  F   UNL A   1      42.431  29.391  27.159  1.00  0.00    -0.203 F 
ATOM     84  C   UNL A   1      42.078  27.374  25.996  1.00  0.00     0.198 A 
ATOM     85  C   UNL A   1      40.710  25.659  26.968  1.00  0.00     0.198 A 
ATOM     86  F   UNL A   1      39.708  26.003  29.071  1.00  0.00    -0.203 F 
ATOM     87  F   UNL A   1      42.832  27.825  24.984  1.00  0.00    -0.200 F 
ATOM     88  C   UNL A   1      41.504  26.113  25.926  1.00  0.00     0.200 A 
ATOM     89  F   UNL A   1      40.168  24.433  26.914  1.00  0.00    -0.200 F 
ATOM     90  F   UNL A   1      41.716  25.337  24.856  1.00  0.00    -0.200 F 
ENDBRANCH  56  80
BRANCH  68  91
ATOM     91  C   UNL A   1      44.028  27.979  34.469  1.00  0.00     0.064 A 
ATOM     92  C   UNL A   1      45.373  28.374  34.423  1.00  0.00     0.173 A 
ATOM     93  C   UNL A   1      43.713  26.793  35.149  1.00  0.00     0.173 A 
ATOM     94  F   UNL A   1      45.726  29.491  33.770  1.00  0.00    -0.203 F 
ATOM     95  C   UNL A   1      46.366  27.596  35.011  1.00  0.00     0.198 A 
ATOM     96  C   UNL A   1      44.706  26.033  35.760  1.00  0.00     0.198 A 
ATOM     97  F   UNL A   1      42.439  26.376  35.226  1.00  0.00    -0.203 F 
ATOM     98  F   UNL A   1      47.650  27.965  34.911  1.00  0.00    -0.200 F 
ATOM     99  C   UNL A   1      46.031  26.429  35.683  1.00  0.00     0.200 A 
ATOM    100  F   UNL A   1      44.378  24.911  36.418  1.00  0.00    -0.200 F 
ATOM    101  F   UNL A   1      46.989  25.682  36.248  1.00  0.00    -0.200 F 
ENDBRANCH  68  91
ENDBRANCH  42  43
ENDBRANCH  34  37
ENDBRANCH  32  33
ENDBRANCH  31  32
ENDBRANCH   1  31
TORSDOF 14
ENDMDL
MODEL 2
REMARK VINA RESULT:     -13.6      4.835     10.760
REMARK SMILES CCc1sc(NC(=O)[C@H]2CC(C)=C(C)C[C@H]2C(=O)NCCCNC(=O)c2ccc(-c3c4nc(c(-c5c(F)c(F)c(F)c(F)c5F)c5ccc([nH]5)c(-c5c(F)c(F)c(F)c(F)c5F)c5nc(c(-c6c(F)c(F)c(F)c(F)c6F)c6ccc3[nH]6)C=C5)C=C4)cc2)nc1-c1ccccc1
REMARK SMILES IDX 20 1 19 2 17 3 18 4 16 6 9 7 10 8 11 9 15 10 12 11 13 12
REMARK SMILES IDX 14 13 7 14 6 15 8 17 5 18 3 19 4 20 90 21 89 22 2 23 1 24
REMARK SMILES IDX 91 25 92 26 96 27 93 28 95 29 94 30 21 31 22 32 23 33 24 34
REMARK SMILES IDX 25 36 26 37 27 38 88 39 28 40 87 41 29 42 30 43 31 44 81 45
REMARK SMILES IDX 32 46 86 47 80 48 82 49 33 50 85 51 79 52 78 53 34 55 66 56
REMARK SMILES IDX 46 57 65 58 47 59 50 60 64 61 83 62 48 63 49 64 63 66 84 67
REMARK SMILES IDX 51 68 35 69 36 70 44 71 37 72 38 73 42 74 45 75 39 76 40 77
REMARK SMILES IDX 43 78 41 79 67 80 68 81 76 82 69 83 70 84 74 85 77 86 71 87
REMARK SMILES IDX 72 88 75 89 73 90 52 91 53 92 61 93 54 94 55 95 59 96 62 97
REMARK SMILES IDX 56 98 57 99 60 100 58 101
REMARK H PARENT 19 5 6 16 23 35 82 54 50 65
REMARK Flexibility Score: inf
ROOT
ATOM      1  C   UNL A   1      36.267  20.263  24.962  1.00  0.00     0.117 C 
ENDROOT
BRANCH   1   2
ATOM      2  N   UNL A   1      36.410  21.605  25.475  1.00  0.00    -0.356 N 
ATOM      3  C   UNL A   1      35.499  22.539  25.842  1.00  0.00     0.224 C 
ATOM      4  O   UNL A   1      35.939  23.500  26.486  1.00  0.00    -0.275 OA
ATOM      5  H   UNL A   1      37.345  21.896  25.579  1.00  0.00     0.163 HD
BRANCH   3   6
ATOM      6  C   UNL A   1      33.991  22.426  25.580  1.00  0.00     0.095 C 
ATOM      7  C   UNL A   1      33.436  22.690  24.151  1.00  0.00     0.095 C 
ATOM      8  C   UNL A   1      33.081  21.397  23.394  1.00  0.00     0.045 C 
ATOM      9  C   UNL A   1      32.888  20.107  24.138  1.00  0.00    -0.074 C 
ATOM     10  C   UNL A   1      33.418  21.201  26.314  1.00  0.00     0.045 C 
ATOM     11  C   UNL A   1      32.511  18.958  23.233  1.00  0.00     0.039 C 
ATOM     12  C   UNL A   1      33.044  20.010  25.471  1.00  0.00    -0.074 C 
ATOM     13  C   UNL A   1      32.909  18.705  26.208  1.00  0.00     0.039 C 
BRANCH   7  14
ATOM     14  C   UNL A   1      34.319  23.689  23.350  1.00  0.00     0.230 C 
ATOM     15  N   UNL A   1      34.075  25.018  23.207  1.00  0.00    -0.302 N 
ATOM     16  H   UNL A   1      34.593  25.435  22.480  1.00  0.00     0.172 HD
ATOM     17  O   UNL A   1      35.332  23.295  22.759  1.00  0.00    -0.274 OA
BRANCH  15  18
ATOM     18  C   UNL A   1      33.265  25.891  23.863  1.00  0.00     0.190 A 
ATOM     19  C   UNL A   1      31.973  27.040  25.532  1.00  0.00     0.034 A 
ATOM     20  S   UNL A   1      33.569  26.368  25.462  1.00  0.00    -0.101 S 
ATOM     21  C   UNL A   1      31.555  27.232  24.221  1.00  0.00     0.087 A 
ATOM     22  N   UNL A   1      32.295  26.541  23.268  1.00  0.00    -0.220 NA
BRANCH  19  23
ATOM     23  C   UNL A   1      31.394  27.298  26.892  1.00  0.00     0.046 C 
ATOM     24  C   UNL A   1      31.724  28.633  27.532  1.00  0.00     0.010 C 
ENDBRANCH  19  23
BRANCH  21  25
ATOM     25  C   UNL A   1      30.410  28.030  23.818  1.00  0.00     0.001 A 
ATOM     26  C   UNL A   1      29.209  27.398  23.471  1.00  0.00     0.010 A 
ATOM     27  C   UNL A   1      30.486  29.427  23.785  1.00  0.00     0.010 A 
ATOM     28  C   UNL A   1      28.114  28.150  23.040  1.00  0.00     0.001 A 
ATOM     29  C   UNL A   1      29.387  30.179  23.358  1.00  0.00     0.001 A 
ATOM     30  C   UNL A   1      28.207  29.539  22.975  1.00  0.00     0.000 A 
ENDBRANCH  21  25
ENDBRANCH  15  18
ENDBRANCH   7  14
ENDBRANCH   3   6
ENDBRANCH   1   2
BRANCH   1  31
ATOM     31  C   UNL A   1      37.593  19.535  24.818  1.00  0.00     0.042 C 
BRANCH  31  32
ATOM     32  C   UNL A   1      38.718  20.167  25.623  1.00  0.00     0.118 C 
BRANCH  32  33
ATOM     33  N   UNL A   1      39.800  19.228  25.871  1.00  0.00    -0.352 N 
ATOM     34  C   UNL A   1      41.138  19.444  26.081  1.00  0.00     0.251 C 
ATOM     35  H   UNL A   1      39.529  18.282  25.891  1.00  0.00     0.163 HD
ATOM     36  O   UNL A   1      41.916  18.497  26.010  1.00  0.00    -0.269 OA
BRANCH  34  37
ATOM     37  C   UNL A   1      41.653  20.793  26.400  1.00  0.00     0.039 A 
ATOM     38  C   UNL A   1      41.869  21.127  27.741  1.00  0.00     0.014 A 
ATOM     39  C   UNL A   1      41.845  21.756  25.405  1.00  0.00     0.014 A 
ATOM     40  C   UNL A   1      42.290  22.414  28.078  1.00  0.00     0.010 A 
ATOM     41  C   UNL A   1      42.355  23.008  25.732  1.00  0.00     0.010 A 
ATOM     42  C   UNL A   1      42.547  23.361  27.075  1.00  0.00    -0.014 A 
BRANCH  42  43
ATOM     43  C   UNL A   1      42.947  24.746  27.420  1.00  0.00     0.031 A 
ATOM     44  C   UNL A   1      44.345  25.218  27.131  1.00  0.00     0.074 A 
ATOM     45  C   UNL A   1      42.065  25.565  28.020  1.00  0.00     0.049 A 
ATOM     46  N   UNL A   1      44.890  26.388  27.355  1.00  0.00    -0.248 NA
ATOM     47  C   UNL A   1      45.266  24.234  26.541  1.00  0.00     0.031 C 
ATOM     48  C   UNL A   1      40.699  25.204  28.397  1.00  0.00     0.029 A 
ATOM     49  N   UNL A   1      42.186  26.874  28.411  1.00  0.00    -0.354 N 
ATOM     50  C   UNL A   1      46.215  26.269  26.957  1.00  0.00     0.074 A 
ATOM     51  C   UNL A   1      46.410  24.902  26.530  1.00  0.00     0.031 C 
ATOM     52  C   UNL A   1      40.093  26.279  28.928  1.00  0.00     0.029 A 
ATOM     53  C   UNL A   1      41.036  27.394  28.950  1.00  0.00     0.049 A 
ATOM     54  H   UNL A   1      43.019  27.391  28.314  1.00  0.00     0.167 HD
ATOM     55  C   UNL A   1      47.177  27.222  26.922  1.00  0.00     0.037 A 
ATOM     56  C   UNL A   1      40.771  28.636  29.392  1.00  0.00     0.037 A 
ATOM     57  C   UNL A   1      46.969  28.592  27.310  1.00  0.00     0.049 A 
ATOM     58  C   UNL A   1      41.842  29.688  29.308  1.00  0.00     0.074 A 
ATOM     59  C   UNL A   1      47.854  29.654  27.253  1.00  0.00     0.029 A 
ATOM     60  N   UNL A   1      45.781  29.089  27.826  1.00  0.00    -0.354 N 
ATOM     61  N   UNL A   1      43.070  29.588  28.860  1.00  0.00    -0.248 NA
ATOM     62  C   UNL A   1      41.482  31.033  29.778  1.00  0.00     0.031 C 
ATOM     63  C   UNL A   1      47.212  30.786  27.766  1.00  0.00     0.029 A 
ATOM     64  C   UNL A   1      45.913  30.440  28.104  1.00  0.00     0.049 A 
ATOM     65  H   UNL A   1      44.964  28.559  27.973  1.00  0.00     0.167 HD
ATOM     66  C   UNL A   1      43.620  30.857  28.964  1.00  0.00     0.074 A 
ATOM     67  C   UNL A   1      42.587  31.715  29.508  1.00  0.00     0.031 C 
ATOM     68  C   UNL A   1      44.868  31.277  28.636  1.00  0.00     0.037 A 
BRANCH  55  69
ATOM     69  C   UNL A   1      48.539  26.805  26.448  1.00  0.00     0.064 A 
ATOM     70  C   UNL A   1      48.947  26.991  25.118  1.00  0.00     0.173 A 
ATOM     71  C   UNL A   1      49.448  26.202  27.331  1.00  0.00     0.173 A 
ATOM     72  F   UNL A   1      48.111  27.550  24.229  1.00  0.00    -0.203 F 
ATOM     73  C   UNL A   1      50.193  26.551  24.679  1.00  0.00     0.198 A 
ATOM     74  C   UNL A   1      50.706  25.792  26.897  1.00  0.00     0.198 A 
ATOM     75  F   UNL A   1      49.113  26.004  28.615  1.00  0.00    -0.203 F 
ATOM     76  F   UNL A   1      50.532  26.682  23.389  1.00  0.00    -0.200 F 
ATOM     77  C   UNL A   1      51.073  25.956  25.570  1.00  0.00     0.200 A 
ATOM     78  F   UNL A   1      51.560  25.226  27.761  1.00  0.00    -0.200 F 
ATOM     79  F   UNL A   1      52.270  25.529  25.145  1.00  0.00    -0.200 F 
ENDBRANCH  55  69
BRANCH  56  80
ATOM     80  C   UNL A   1      39.408  28.965  29.879  1.00  0.00     0.064 A 
ATOM     81  C   UNL A   1      39.071  28.778  31.227  1.00  0.00     0.173 A 
ATOM     82  C   UNL A   1      38.430  29.498  29.028  1.00  0.00     0.173 A 
ATOM     83  F   UNL A   1      39.970  28.261  32.076  1.00  0.00    -0.203 F 
ATOM     84  C   UNL A   1      37.802  29.099  31.702  1.00  0.00     0.198 A 
ATOM     85  C   UNL A   1      37.169  29.840  29.509  1.00  0.00     0.198 A 
ATOM     86  F   UNL A   1      38.708  29.708  27.733  1.00  0.00    -0.203 F 
ATOM     87  F   UNL A   1      37.496  28.884  32.989  1.00  0.00    -0.200 F 
ATOM     88  C   UNL A   1      36.853  29.635  30.844  1.00  0.00     0.200 A 
ATOM     89  F   UNL A   1      36.261  30.375  28.680  1.00  0.00    -0.200 F 
ATOM     90  F   UNL A   1      35.636  29.955  31.303  1.00  0.00    -0.200 F 
ENDBRANCH  56  80
BRANCH  68  91
ATOM     91  C   UNL A   1      45.167  32.734  28.820  1.00  0.00     0.064 A 
ATOM     92  C   UNL A   1      45.783  33.219  29.983  1.00  0.00     0.173 A 
ATOM     93  C   UNL A   1      44.850  33.655  27.810  1.00  0.00     0.173 A 
ATOM     94  F   UNL A   1      46.090  32.380  30.983  1.00  0.00    -0.203 F 
ATOM     95  C   UNL A   1      46.045  34.577  30.139  1.00  0.00     0.198 A 
ATOM     96  C   UNL A   1      45.140  35.008  27.958  1.00  0.00     0.198 A 
ATOM     97  F   UNL A   1      44.266  33.240  26.675  1.00  0.00    -0.203 F 
ATOM     98  F   UNL A   1      46.587  35.025  31.280  1.00  0.00    -0.200 F 
ATOM     99  C   UNL A   1      45.728  35.469  29.125  1.00  0.00     0.200 A 
ATOM    100  F   UNL A   1      44.842  35.867  26.973  1.00  0.00    -0.200 F 
ATOM    101  F   UNL A   1      45.981  36.776  29.279  1.00  0.00    -0.200 F 
ENDBRANCH  68  91
ENDBRANCH  42  43
ENDBRANCH  34  37
ENDBRANCH  32  33
ENDBRANCH  31  32
ENDBRANCH   1  31
TORSDOF 14
ENDMDL
MODEL 3
REMARK VINA RESULT:     -13.3      1.492      2.695
REMARK SMILES CCc1sc(NC(=O)[C@H]2CC(C)=C(C)C[C@H]2C(=O)NCCCNC(=O)c2ccc(-c3c4nc(c(-c5c(F)c(F)c(F)c(F)c5F)c5ccc([nH]5)c(-c5c(F)c(F)c(F)c(F)c5F)c5nc(c(-c6c(F)c(F)c(F)c(F)c6F)c6ccc3[nH]6)C=C5)C=C4)cc2)nc1-c1ccccc1
REMARK SMILES IDX 20 1 19 2 17 3 18 4 16 6 9 7 10 8 11 9 15 10 12 11 13 12
REMARK SMILES IDX 14 13 7 14 6 15 8 17 5 18 3 19 4 20 90 21 89 22 2 23 1 24
REMARK SMILES IDX 91 25 92 26 96 27 93 28 95 29 94 30 21 31 22 32 23 33 24 34
REMARK SMILES IDX 25 36 26 37 27 38 88 39 28 40 87 41 29 42 30 43 31 44 81 45
REMARK SMILES IDX 32 46 86 47 80 48 82 49 33 50 85 51 79 52 78 53 34 55 66 56
REMARK SMILES IDX 46 57 65 58 47 59 50 60 64 61 83 62 48 63 49 64 63 66 84 67
REMARK SMILES IDX 51 68 35 69 36 70 44 71 37 72 38 73 42 74 45 75 39 76 40 77
REMARK SMILES IDX 43 78 41 79 67 80 68 81 76 82 69 83 70 84 74 85 77 86 71 87
REMARK SMILES IDX 72 88 75 89 73 90 52 91 53 92 61 93 54 94 55 95 59 96 62 97
REMARK SMILES IDX 56 98 57 99 60 100 58 101
REMARK H PARENT 19 5 6 16 23 35 82 54 50 65
REMARK Flexibility Score: inf
ROOT
ATOM      1  C   UNL A   1      31.280  28.096  26.536  1.00  0.00     0.117 C 
ENDROOT
BRANCH   1   2
ATOM      2  N   UNL A   1      32.477  27.297  26.647  1.00  0.00    -0.356 N 
ATOM      3  C   UNL A   1      33.036  26.378  25.823  1.00  0.00     0.224 C 
ATOM      4  O   UNL A   1      34.202  26.055  26.084  1.00  0.00    -0.275 OA
ATOM      5  H   UNL A   1      32.983  27.448  27.479  1.00  0.00     0.163 HD
BRANCH   3   6
ATOM      6  C   UNL A   1      32.348  25.801  24.578  1.00  0.00     0.095 C 
ATOM      7  C   UNL A   1      30.975  25.085  24.720  1.00  0.00     0.095 C 
ATOM      8  C   UNL A   1      29.790  25.956  24.263  1.00  0.00     0.045 C 
ATOM      9  C   UNL A   1      30.019  27.155  23.388  1.00  0.00    -0.074 C 
ATOM     10  C   UNL A   1      32.484  26.780  23.399  1.00  0.00     0.045 C 
ATOM     11  C   UNL A   1      28.738  27.863  23.015  1.00  0.00     0.039 C 
ATOM     12  C   UNL A   1      31.247  27.538  22.992  1.00  0.00    -0.074 C 
ATOM     13  C   UNL A   1      31.481  28.773  22.164  1.00  0.00     0.039 C 
BRANCH   7  14
ATOM     14  C   UNL A   1      30.794  24.426  26.117  1.00  0.00     0.230 C 
ATOM     15  N   UNL A   1      31.334  23.241  26.506  1.00  0.00    -0.302 N 
ATOM     16  H   UNL A   1      30.921  22.871  27.320  1.00  0.00     0.172 HD
ATOM     17  O   UNL A   1      30.096  24.971  26.982  1.00  0.00    -0.274 OA
BRANCH  15  18
ATOM     18  C   UNL A   1      32.331  22.464  26.004  1.00  0.00     0.190 A 
ATOM     19  C   UNL A   1      34.384  21.674  25.038  1.00  0.00     0.034 A 
ATOM     20  S   UNL A   1      33.967  22.824  26.266  1.00  0.00    -0.101 S 
ATOM     21  C   UNL A   1      33.292  20.830  24.884  1.00  0.00     0.087 A 
ATOM     22  N   UNL A   1      32.105  21.311  25.425  1.00  0.00    -0.220 NA
BRANCH  19  23
ATOM     23  C   UNL A   1      35.755  21.779  24.434  1.00  0.00     0.046 C 
ATOM     24  C   UNL A   1      35.949  22.841  23.368  1.00  0.00     0.010 C 
ENDBRANCH  19  23
BRANCH  21  25
ATOM     25  C   UNL A   1      33.311  19.562  24.174  1.00  0.00     0.001 A 
ATOM     26  C   UNL A   1      34.249  18.582  24.524  1.00  0.00     0.010 A 
ATOM     27  C   UNL A   1      32.392  19.300  23.151  1.00  0.00     0.010 A 
ATOM     28  C   UNL A   1      34.307  17.377  23.821  1.00  0.00     0.001 A 
ATOM     29  C   UNL A   1      32.449  18.090  22.452  1.00  0.00     0.001 A 
ATOM     30  C   UNL A   1      33.413  17.136  22.780  1.00  0.00     0.000 A 
ENDBRANCH  21  25
ENDBRANCH  15  18
ENDBRANCH   7  14
ENDBRANCH   3   6
ENDBRANCH   1   2
BRANCH   1  31
ATOM     31  C   UNL A   1      31.525  29.450  25.891  1.00  0.00     0.042 C 
BRANCH  31  32
ATOM     32  C   UNL A   1      32.891  30.034  26.215  1.00  0.00     0.118 C 
BRANCH  32  33
ATOM     33  N   UNL A   1      32.817  31.455  26.514  1.00  0.00    -0.352 N 
ATOM     34  C   UNL A   1      33.534  32.219  27.397  1.00  0.00     0.251 C 
ATOM     35  H   UNL A   1      32.140  31.949  25.999  1.00  0.00     0.163 HD
ATOM     36  O   UNL A   1      33.134  33.344  27.681  1.00  0.00    -0.269 OA
BRANCH  34  37
ATOM     37  C   UNL A   1      34.784  31.713  28.006  1.00  0.00     0.039 A 
ATOM     38  C   UNL A   1      34.804  30.406  28.505  1.00  0.00     0.014 A 
ATOM     39  C   UNL A   1      35.903  32.534  28.167  1.00  0.00     0.014 A 
ATOM     40  C   UNL A   1      35.946  29.923  29.145  1.00  0.00     0.010 A 
ATOM     41  C   UNL A   1      37.073  32.023  28.721  1.00  0.00     0.010 A 
ATOM     42  C   UNL A   1      37.092  30.725  29.248  1.00  0.00    -0.014 A 
BRANCH  42  43
ATOM     43  C   UNL A   1      38.295  30.244  29.969  1.00  0.00     0.031 A 
ATOM     44  C   UNL A   1      38.540  30.673  31.390  1.00  0.00     0.074 A 
ATOM     45  C   UNL A   1      39.179  29.451  29.338  1.00  0.00     0.049 A 
ATOM     46  N   UNL A   1      39.529  30.364  32.192  1.00  0.00    -0.248 NA
ATOM     47  C   UNL A   1      37.561  31.599  31.979  1.00  0.00     0.031 C 
ATOM     48  C   UNL A   1      39.076  29.012  27.947  1.00  0.00     0.029 A 
ATOM     49  N   UNL A   1      40.336  28.868  29.789  1.00  0.00    -0.354 N 
ATOM     50  C   UNL A   1      39.301  31.074  33.363  1.00  0.00     0.074 A 
ATOM     51  C   UNL A   1      38.115  31.873  33.151  1.00  0.00     0.031 C 
ATOM     52  C   UNL A   1      40.104  28.195  27.669  1.00  0.00     0.029 A 
ATOM     53  C   UNL A   1      40.949  28.074  28.853  1.00  0.00     0.049 A 
ATOM     54  H   UNL A   1      40.692  29.008  30.696  1.00  0.00     0.167 HD
ATOM     55  C   UNL A   1      40.001  31.043  34.522  1.00  0.00     0.037 A 
ATOM     56  C   UNL A   1      42.058  27.319  28.951  1.00  0.00     0.037 A 
ATOM     57  C   UNL A   1      41.158  30.216  34.742  1.00  0.00     0.049 A 
ATOM     58  C   UNL A   1      42.797  27.268  30.260  1.00  0.00     0.074 A 
ATOM     59  C   UNL A   1      41.902  30.058  35.898  1.00  0.00     0.029 A 
ATOM     60  N   UNL A   1      41.735  29.402  33.779  1.00  0.00    -0.354 N 
ATOM     61  N   UNL A   1      42.533  27.885  31.386  1.00  0.00    -0.248 NA
ATOM     62  C   UNL A   1      43.983  26.402  30.313  1.00  0.00     0.031 C 
ATOM     63  C   UNL A   1      42.951  29.172  35.623  1.00  0.00     0.029 A 
ATOM     64  C   UNL A   1      42.835  28.747  34.309  1.00  0.00     0.049 A 
ATOM     65  H   UNL A   1      41.411  29.305  32.855  1.00  0.00     0.167 HD
ATOM     66  C   UNL A   1      43.496  27.460  32.290  1.00  0.00     0.074 A 
ATOM     67  C   UNL A   1      44.346  26.524  31.583  1.00  0.00     0.031 C 
ATOM     68  C   UNL A   1      43.661  27.811  33.590  1.00  0.00     0.037 A 
BRANCH  55  69
ATOM     69  C   UNL A   1      39.526  31.933  35.635  1.00  0.00     0.064 A 
ATOM     70  C   UNL A   1      40.039  33.227  35.815  1.00  0.00     0.173 A 
ATOM     71  C   UNL A   1      38.553  31.484  36.540  1.00  0.00     0.173 A 
ATOM     72  F   UNL A   1      40.983  33.700  34.986  1.00  0.00    -0.203 F 
ATOM     73  C   UNL A   1      39.628  34.021  36.882  1.00  0.00     0.198 A 
ATOM     74  C   UNL A   1      38.121  32.292  37.588  1.00  0.00     0.198 A 
ATOM     75  F   UNL A   1      38.025  30.257  36.413  1.00  0.00    -0.203 F 
ATOM     76  F   UNL A   1      40.181  35.227  37.069  1.00  0.00    -0.200 F 
ATOM     77  C   UNL A   1      38.666  33.555  37.765  1.00  0.00     0.200 A 
ATOM     78  F   UNL A   1      37.184  31.845  38.435  1.00  0.00    -0.200 F 
ATOM     79  F   UNL A   1      38.275  34.318  38.795  1.00  0.00    -0.200 F 
ENDBRANCH  55  69
BRANCH  56  80
ATOM     80  C   UNL A   1      42.485  26.491  27.795  1.00  0.00     0.064 A 
ATOM     81  C   UNL A   1      41.921  25.226  27.580  1.00  0.00     0.173 A 
ATOM     82  C   UNL A   1      43.433  26.951  26.871  1.00  0.00     0.173 A 
ATOM     83  F   UNL A   1      41.019  24.740  28.444  1.00  0.00    -0.203 F 
ATOM     84  C   UNL A   1      42.299  24.446  26.490  1.00  0.00     0.198 A 
ATOM     85  C   UNL A   1      43.793  26.179  25.769  1.00  0.00     0.198 A 
ATOM     86  F   UNL A   1      43.992  28.160  27.026  1.00  0.00    -0.203 F 
ATOM     87  F   UNL A   1      41.765  23.228  26.323  1.00  0.00    -0.200 F 
ATOM     88  C   UNL A   1      43.231  24.926  25.581  1.00  0.00     0.200 A 
ATOM     89  F   UNL A   1      44.681  26.656  24.883  1.00  0.00    -0.200 F 
ATOM     90  F   UNL A   1      43.586  24.181  24.527  1.00  0.00    -0.200 F 
ENDBRANCH  56  80
BRANCH  68  91
ATOM     91  C   UNL A   1      44.779  27.148  34.338  1.00  0.00     0.064 A 
ATOM     92  C   UNL A   1      44.598  25.927  35.003  1.00  0.00     0.173 A 
ATOM     93  C   UNL A   1      46.053  27.734  34.373  1.00  0.00     0.173 A 
ATOM     94  F   UNL A   1      43.394  25.335  35.011  1.00  0.00    -0.203 F 
ATOM     95  C   UNL A   1      45.645  25.330  35.699  1.00  0.00     0.198 A 
ATOM     96  C   UNL A   1      47.105  27.121  35.047  1.00  0.00     0.198 A 
ATOM     97  F   UNL A   1      46.278  28.900  33.747  1.00  0.00    -0.203 F 
ATOM     98  F   UNL A   1      45.436  24.190  36.371  1.00  0.00    -0.200 F 
ATOM     99  C   UNL A   1      46.898  25.925  35.716  1.00  0.00     0.200 A 
ATOM    100  F   UNL A   1      48.318  27.693  35.053  1.00  0.00    -0.200 F 
ATOM    101  F   UNL A   1      47.904  25.350  36.389  1.00  0.00    -0.200 F 
ENDBRANCH  68  91
ENDBRANCH  42  43
ENDBRANCH  34  37
ENDBRANCH  32  33
ENDBRANCH  31  32
ENDBRANCH   1  31
TORSDOF 14
ENDMDL
