MODEL 1
REMARK VINA RESULT:     -11.4      0.000      0.000
REMARK SMILES Cc1oc(CSc2ccncc2N)cc1C(=O)NCCCNC(=O)c1ccc(-c2c3nc(c(-c4c(F)c(F)c(F)c(F)c4F)c4ccc([nH]4)c(-c4c(F)c(F)c(F)c(F)c4F)c4nc(c(-c5c(F)c(F)c(F)c(F)c5F)c5ccc2[nH]5)C=C4)C=C3)cc1
REMARK SMILES IDX 19 1 18 2 16 3 17 4 15 6 1 7 2 8 3 9 4 10 14 11 5 12 6 13
REMARK SMILES IDX 7 14 8 15 12 16 9 17 11 18 10 19 13 20 20 23 21 24 22 25
REMARK SMILES IDX 23 26 24 28 25 29 26 30 87 31 27 32 86 33 28 34 29 35 30 36
REMARK SMILES IDX 80 37 31 38 85 39 79 40 81 41 32 42 84 43 78 44 77 45 33 47
REMARK SMILES IDX 65 48 45 49 64 50 46 51 49 52 63 53 82 54 47 55 48 56 62 58
REMARK SMILES IDX 83 59 50 60 34 61 35 62 43 63 36 64 37 65 41 66 44 67 38 68
REMARK SMILES IDX 39 69 42 70 40 71 66 72 67 73 75 74 68 75 69 76 73 77 76 78
REMARK SMILES IDX 70 79 71 80 74 81 72 82 51 83 52 84 60 85 53 86 54 87 58 88
REMARK SMILES IDX 61 89 55 90 56 91 59 92 57 93
REMARK H PARENT 18 5 13 21 13 22 22 27 81 46 49 57
REMARK Flexibility Score: inf
ROOT
ATOM      1  C   UNL A   1      31.201  30.780  25.312  1.00  0.00     0.118 C 
ENDROOT
BRANCH   1   2
ATOM      2  N   UNL A   1      30.251  30.824  24.230  1.00  0.00    -0.352 N 
ATOM      3  C   UNL A   1      29.763  29.885  23.372  1.00  0.00     0.254 C 
ATOM      4  O   UNL A   1      28.888  30.304  22.604  1.00  0.00    -0.269 OA
ATOM      5  H   UNL A   1      29.875  31.721  24.080  1.00  0.00     0.163 HD
BRANCH   3   6
ATOM      6  C   UNL A   1      30.146  28.477  23.325  1.00  0.00     0.081 A 
ATOM      7  C   UNL A   1      28.183  26.729  23.881  1.00  0.00     0.088 C 
ATOM      8  C   UNL A   1      29.523  27.249  23.543  1.00  0.00     0.113 A 
ATOM      9  O   UNL A   1      30.434  26.228  23.443  1.00  0.00    -0.465 OA
ATOM     10  C   UNL A   1      31.649  26.770  23.198  1.00  0.00     0.115 A 
ATOM     11  C   UNL A   1      31.512  28.125  23.050  1.00  0.00     0.060 A 
BRANCH  10  12
ATOM     12  C   UNL A   1      32.809  25.863  23.079  1.00  0.00     0.150 C 
BRANCH  12  13
ATOM     13  S   UNL A   1      33.711  25.454  24.610  1.00  0.00    -0.116 SA
BRANCH  13  14
ATOM     14  C   UNL A   1      33.278  26.688  25.845  1.00  0.00     0.034 A 
ATOM     15  C   UNL A   1      34.192  27.752  25.933  1.00  0.00     0.037 A 
ATOM     16  C   UNL A   1      32.119  26.731  26.636  1.00  0.00     0.064 A 
ATOM     17  C   UNL A   1      33.952  28.790  26.818  1.00  0.00     0.112 A 
ATOM     18  C   UNL A   1      32.002  27.818  27.512  1.00  0.00     0.137 A 
ATOM     19  N   UNL A   1      32.883  28.839  27.629  1.00  0.00    -0.262 NA
BRANCH  16  20
ATOM     20  N   UNL A   1      31.058  25.845  26.508  1.00  0.00    -0.397 N 
ATOM     21  H   UNL A   1      30.881  25.183  27.214  1.00  0.00     0.156 HD
ATOM     22  H   UNL A   1      30.482  25.879  25.709  1.00  0.00     0.156 HD
ENDBRANCH  16  20
ENDBRANCH  13  14
ENDBRANCH  12  13
ENDBRANCH  10  12
ENDBRANCH   3   6
ENDBRANCH   1   2
BRANCH   1  23
ATOM     23  C   UNL A   1      31.022  31.984  26.235  1.00  0.00     0.042 C 
BRANCH  23  24
ATOM     24  C   UNL A   1      32.302  32.415  26.942  1.00  0.00     0.118 C 
BRANCH  24  25
ATOM     25  N   UNL A   1      32.265  33.821  27.316  1.00  0.00    -0.352 N 
ATOM     26  C   UNL A   1      32.954  34.496  28.289  1.00  0.00     0.251 C 
ATOM     27  H   UNL A   1      31.647  34.375  26.786  1.00  0.00     0.163 HD
ATOM     28  O   UNL A   1      32.583  35.624  28.616  1.00  0.00    -0.269 OA
BRANCH  26  29
ATOM     29  C   UNL A   1      34.130  33.892  28.952  1.00  0.00     0.039 A 
ATOM     30  C   UNL A   1      35.401  34.393  28.654  1.00  0.00     0.014 A 
ATOM     31  C   UNL A   1      33.997  32.799  29.813  1.00  0.00     0.014 A 
ATOM     32  C   UNL A   1      36.531  33.828  29.250  1.00  0.00     0.010 A 
ATOM     33  C   UNL A   1      35.114  32.287  30.467  1.00  0.00     0.010 A 
ATOM     34  C   UNL A   1      36.394  32.787  30.182  1.00  0.00    -0.014 A 
BRANCH  34  35
ATOM     35  C   UNL A   1      37.577  32.200  30.858  1.00  0.00     0.031 A 
ATOM     36  C   UNL A   1      38.366  31.109  30.188  1.00  0.00     0.074 A 
ATOM     37  C   UNL A   1      37.902  32.607  32.099  1.00  0.00     0.049 A 
ATOM     38  N   UNL A   1      39.384  30.422  30.644  1.00  0.00    -0.248 NA
ATOM     39  C   UNL A   1      37.937  30.716  28.837  1.00  0.00     0.031 C 
ATOM     40  C   UNL A   1      37.184  33.624  32.868  1.00  0.00     0.029 A 
ATOM     41  N   UNL A   1      38.912  32.210  32.937  1.00  0.00    -0.354 N 
ATOM     42  C   UNL A   1      39.702  29.510  29.646  1.00  0.00     0.074 A 
ATOM     43  C   UNL A   1      38.739  29.693  28.583  1.00  0.00     0.031 C 
ATOM     44  C   UNL A   1      37.786  33.784  34.056  1.00  0.00     0.029 A 
ATOM     45  C   UNL A   1      38.910  32.857  34.148  1.00  0.00     0.049 A 
ATOM     46  H   UNL A   1      39.576  31.524  32.694  1.00  0.00     0.167 HD
ATOM     47  C   UNL A   1      40.720  28.617  29.611  1.00  0.00     0.037 A 
ATOM     48  C   UNL A   1      39.718  32.713  35.215  1.00  0.00     0.037 A 
ATOM     49  C   UNL A   1      41.691  28.459  30.662  1.00  0.00     0.049 A 
ATOM     50  C   UNL A   1      40.843  31.716  35.149  1.00  0.00     0.074 A 
ATOM     51  C   UNL A   1      42.796  27.627  30.700  1.00  0.00     0.029 A 
ATOM     52  N   UNL A   1      41.670  29.151  31.866  1.00  0.00    -0.354 N 
ATOM     53  N   UNL A   1      41.176  30.906  34.174  1.00  0.00    -0.248 NA
ATOM     54  C   UNL A   1      41.710  31.618  36.332  1.00  0.00     0.031 C 
ATOM     55  C   UNL A   1      43.418  27.782  31.943  1.00  0.00     0.029 A 
ATOM     56  C   UNL A   1      42.732  28.749  32.660  1.00  0.00     0.049 A 
ATOM     57  H   UNL A   1      41.000  29.826  32.117  1.00  0.00     0.167 HD
ATOM     58  C   UNL A   1      42.303  30.225  34.610  1.00  0.00     0.074 A 
ATOM     59  C   UNL A   1      42.607  30.729  35.934  1.00  0.00     0.031 C 
ATOM     60  C   UNL A   1      43.022  29.267  33.973  1.00  0.00     0.037 A 
BRANCH  47  61
ATOM     61  C   UNL A   1      40.838  27.742  28.396  1.00  0.00     0.064 A 
ATOM     62  C   UNL A   1      40.206  26.491  28.324  1.00  0.00     0.173 A 
ATOM     63  C   UNL A   1      41.565  28.172  27.275  1.00  0.00     0.173 A 
ATOM     64  F   UNL A   1      39.508  26.027  29.371  1.00  0.00    -0.203 F 
ATOM     65  C   UNL A   1      40.323  25.692  27.189  1.00  0.00     0.198 A 
ATOM     66  C   UNL A   1      41.653  27.384  26.131  1.00  0.00     0.198 A 
ATOM     67  F   UNL A   1      42.184  29.362  27.287  1.00  0.00    -0.203 F 
ATOM     68  F   UNL A   1      39.752  24.479  27.165  1.00  0.00    -0.200 F 
ATOM     69  C   UNL A   1      41.039  26.142  26.092  1.00  0.00     0.200 A 
ATOM     70  F   UNL A   1      42.335  27.826  25.065  1.00  0.00    -0.200 F 
ATOM     71  F   UNL A   1      41.145  25.373  24.998  1.00  0.00    -0.200 F 
ENDBRANCH  47  61
BRANCH  48  72
ATOM     72  C   UNL A   1      39.509  33.550  36.423  1.00  0.00     0.064 A 
ATOM     73  C   UNL A   1      38.739  33.083  37.498  1.00  0.00     0.173 A 
ATOM     74  C   UNL A   1      40.073  34.830  36.534  1.00  0.00     0.173 A 
ATOM     75  F   UNL A   1      38.164  31.873  37.432  1.00  0.00    -0.203 F 
ATOM     76  C   UNL A   1      38.523  33.870  38.626  1.00  0.00     0.198 A 
ATOM     77  C   UNL A   1      39.880  35.606  37.676  1.00  0.00     0.198 A 
ATOM     78  F   UNL A   1      40.824  35.321  35.538  1.00  0.00    -0.203 F 
ATOM     79  F   UNL A   1      37.746  33.416  39.619  1.00  0.00    -0.200 F 
ATOM     80  C   UNL A   1      39.099  35.129  38.717  1.00  0.00     0.200 A 
ATOM     81  F   UNL A   1      40.451  36.814  37.766  1.00  0.00    -0.200 F 
ATOM     82  F   UNL A   1      38.895  35.884  39.805  1.00  0.00    -0.200 F 
ENDBRANCH  48  72
BRANCH  60  83
ATOM     83  C   UNL A   1      44.228  28.728  34.684  1.00  0.00     0.064 A 
ATOM     84  C   UNL A   1      44.156  27.585  35.495  1.00  0.00     0.173 A 
ATOM     85  C   UNL A   1      45.480  29.343  34.524  1.00  0.00     0.173 A 
ATOM     86  F   UNL A   1      42.980  26.971  35.692  1.00  0.00    -0.203 F 
ATOM     87  C   UNL A   1      45.288  27.094  36.140  1.00  0.00     0.198 A 
ATOM     88  C   UNL A   1      46.615  28.831  35.145  1.00  0.00     0.198 A 
ATOM     89  F   UNL A   1      45.602  30.435  33.754  1.00  0.00    -0.203 F 
ATOM     90  F   UNL A   1      45.188  26.030  36.948  1.00  0.00    -0.200 F 
ATOM     91  C   UNL A   1      46.517  27.711  35.958  1.00  0.00     0.200 A 
ATOM     92  F   UNL A   1      47.803  29.420  34.956  1.00  0.00    -0.200 F 
ATOM     93  F   UNL A   1      47.607  27.232  36.573  1.00  0.00    -0.200 F 
ENDBRANCH  60  83
ENDBRANCH  34  35
ENDBRANCH  26  29
ENDBRANCH  24  25
ENDBRANCH  23  24
ENDBRANCH   1  23
TORSDOF 14
ENDMDL
MODEL 2
REMARK VINA RESULT:     -11.3      0.374      7.513
REMARK SMILES Cc1oc(CSc2ccncc2N)cc1C(=O)NCCCNC(=O)c1ccc(-c2c3nc(c(-c4c(F)c(F)c(F)c(F)c4F)c4ccc([nH]4)c(-c4c(F)c(F)c(F)c(F)c4F)c4nc(c(-c5c(F)c(F)c(F)c(F)c5F)c5ccc2[nH]5)C=C4)C=C3)cc1
REMARK SMILES IDX 19 1 18 2 16 3 17 4 15 6 1 7 2 8 3 9 4 10 14 11 5 12 6 13
REMARK SMILES IDX 7 14 8 15 12 16 9 17 11 18 10 19 13 20 20 23 21 24 22 25
REMARK SMILES IDX 23 26 24 28 25 29 26 30 87 31 27 32 86 33 28 34 29 35 30 36
REMARK SMILES IDX 80 37 31 38 85 39 79 40 81 41 32 42 84 43 78 44 77 45 33 47
REMARK SMILES IDX 65 48 45 49 64 50 46 51 49 52 63 53 82 54 47 55 48 56 62 58
REMARK SMILES IDX 83 59 50 60 34 61 35 62 43 63 36 64 37 65 41 66 44 67 38 68
REMARK SMILES IDX 39 69 42 70 40 71 66 72 67 73 75 74 68 75 69 76 73 77 76 78
REMARK SMILES IDX 70 79 71 80 74 81 72 82 51 83 52 84 60 85 53 86 54 87 58 88
REMARK SMILES IDX 61 89 55 90 56 91 59 92 57 93
REMARK H PARENT 18 5 13 21 13 22 22 27 81 46 49 57
REMARK Flexibility Score: inf
ROOT
ATOM      1  C   UNL A   1      31.118  30.736  25.428  1.00  0.00     0.118 C 
ENDROOT
BRANCH   1   2
ATOM      2  N   UNL A   1      30.266  30.847  24.272  1.00  0.00    -0.352 N 
ATOM      3  C   UNL A   1      29.816  29.952  23.348  1.00  0.00     0.254 C 
ATOM      4  O   UNL A   1      29.027  30.427  22.522  1.00  0.00    -0.269 OA
ATOM      5  H   UNL A   1      29.939  31.763  24.116  1.00  0.00     0.163 HD
BRANCH   3   6
ATOM      6  C   UNL A   1      30.147  28.530  23.293  1.00  0.00     0.081 A 
ATOM      7  C   UNL A   1      28.116  26.853  23.817  1.00  0.00     0.088 C 
ATOM      8  C   UNL A   1      29.476  27.325  23.494  1.00  0.00     0.113 A 
ATOM      9  O   UNL A   1      30.350  26.272  23.393  1.00  0.00    -0.465 OA
ATOM     10  C   UNL A   1      31.586  26.769  23.162  1.00  0.00     0.115 A 
ATOM     11  C   UNL A   1      31.501  28.130  23.025  1.00  0.00     0.060 A 
BRANCH  10  12
ATOM     12  C   UNL A   1      32.712  25.821  23.045  1.00  0.00     0.150 C 
BRANCH  12  13
ATOM     13  S   UNL A   1      33.576  25.354  24.582  1.00  0.00    -0.116 SA
BRANCH  13  14
ATOM     14  C   UNL A   1      33.168  26.582  25.831  1.00  0.00     0.034 A 
ATOM     15  C   UNL A   1      34.113  27.615  25.947  1.00  0.00     0.037 A 
ATOM     16  C   UNL A   1      32.002  26.648  26.610  1.00  0.00     0.064 A 
ATOM     17  C   UNL A   1      33.895  28.646  26.846  1.00  0.00     0.112 A 
ATOM     18  C   UNL A   1      31.908  27.724  27.503  1.00  0.00     0.137 A 
ATOM     19  N   UNL A   1      32.819  28.715  27.647  1.00  0.00    -0.262 NA
BRANCH  16  20
ATOM     20  N   UNL A   1      30.915  25.797  26.456  1.00  0.00    -0.397 N 
ATOM     21  H   UNL A   1      30.850  25.219  25.663  1.00  0.00     0.156 HD
ATOM     22  H   UNL A   1      30.209  25.773  27.142  1.00  0.00     0.156 HD
ENDBRANCH  16  20
ENDBRANCH  13  14
ENDBRANCH  12  13
ENDBRANCH  10  12
ENDBRANCH   3   6
ENDBRANCH   1   2
BRANCH   1  23
ATOM     23  C   UNL A   1      31.019  31.991  26.292  1.00  0.00     0.042 C 
BRANCH  23  24
ATOM     24  C   UNL A   1      32.339  32.403  26.934  1.00  0.00     0.118 C 
BRANCH  24  25
ATOM     25  N   UNL A   1      32.329  33.801  27.339  1.00  0.00    -0.352 N 
ATOM     26  C   UNL A   1      33.044  34.444  28.316  1.00  0.00     0.251 C 
ATOM     27  H   UNL A   1      31.712  34.376  26.831  1.00  0.00     0.163 HD
ATOM     28  O   UNL A   1      32.696  35.570  28.673  1.00  0.00    -0.269 OA
BRANCH  26  29
ATOM     29  C   UNL A   1      34.220  33.808  28.947  1.00  0.00     0.039 A 
ATOM     30  C   UNL A   1      34.015  32.755  29.843  1.00  0.00     0.014 A 
ATOM     31  C   UNL A   1      35.514  34.281  28.713  1.00  0.00     0.014 A 
ATOM     32  C   UNL A   1      35.108  32.150  30.470  1.00  0.00     0.010 A 
ATOM     33  C   UNL A   1      36.607  33.629  29.276  1.00  0.00     0.010 A 
ATOM     34  C   UNL A   1      36.415  32.565  30.171  1.00  0.00    -0.014 A 
BRANCH  34  35
ATOM     35  C   UNL A   1      37.591  31.909  30.793  1.00  0.00     0.031 A 
ATOM     36  C   UNL A   1      38.052  32.326  32.163  1.00  0.00     0.074 A 
ATOM     37  C   UNL A   1      38.279  30.983  30.100  1.00  0.00     0.049 A 
ATOM     38  N   UNL A   1      39.097  31.924  32.844  1.00  0.00    -0.248 NA
ATOM     39  C   UNL A   1      37.250  33.352  32.848  1.00  0.00     0.031 C 
ATOM     40  C   UNL A   1      37.955  30.531  28.746  1.00  0.00     0.029 A 
ATOM     41  N   UNL A   1      39.398  30.262  30.431  1.00  0.00    -0.354 N 
ATOM     42  C   UNL A   1      39.084  32.659  34.023  1.00  0.00     0.074 A 
ATOM     43  C   UNL A   1      37.961  33.568  33.944  1.00  0.00     0.031 C 
ATOM     44  C   UNL A   1      38.843  29.597  28.369  1.00  0.00     0.029 A 
ATOM     45  C   UNL A   1      39.818  29.411  29.439  1.00  0.00     0.049 A 
ATOM     46  H   UNL A   1      39.856  30.348  31.298  1.00  0.00     0.167 HD
ATOM     47  C   UNL A   1      39.920  32.567  35.085  1.00  0.00     0.037 A 
ATOM     48  C   UNL A   1      40.877  28.580  29.395  1.00  0.00     0.037 A 
ATOM     49  C   UNL A   1      41.019  31.640  35.168  1.00  0.00     0.049 A 
ATOM     50  C   UNL A   1      41.788  28.494  30.588  1.00  0.00     0.074 A 
ATOM     51  C   UNL A   1      41.889  31.424  36.222  1.00  0.00     0.029 A 
ATOM     52  N   UNL A   1      41.401  30.776  34.151  1.00  0.00    -0.354 N 
ATOM     53  N   UNL A   1      41.728  29.144  31.725  1.00  0.00    -0.248 NA
ATOM     54  C   UNL A   1      42.912  27.552  30.496  1.00  0.00     0.031 C 
ATOM     55  C   UNL A   1      42.824  30.461  35.827  1.00  0.00     0.029 A 
ATOM     56  C   UNL A   1      42.505  30.039  34.546  1.00  0.00     0.049 A 
ATOM     57  H   UNL A   1      40.952  30.698  33.278  1.00  0.00     0.167 HD
ATOM     58  C   UNL A   1      42.783  28.673  32.492  1.00  0.00     0.074 A 
ATOM     59  C   UNL A   1      43.459  27.669  31.696  1.00  0.00     0.031 C 
ATOM     60  C   UNL A   1      43.160  29.038  33.743  1.00  0.00     0.037 A 
BRANCH  47  61
ATOM     61  C   UNL A   1      39.677  33.489  36.245  1.00  0.00     0.064 A 
ATOM     62  C   UNL A   1      40.252  34.768  36.302  1.00  0.00     0.173 A 
ATOM     63  C   UNL A   1      38.833  33.103  37.299  1.00  0.00     0.173 A 
ATOM     64  F   UNL A   1      41.075  35.182  35.328  1.00  0.00    -0.203 F 
ATOM     65  C   UNL A   1      40.016  35.613  37.384  1.00  0.00     0.198 A 
ATOM     66  C   UNL A   1      38.575  33.963  38.362  1.00  0.00     0.198 A 
ATOM     67  F   UNL A   1      38.253  31.894  37.292  1.00  0.00    -0.203 F 
ATOM     68  F   UNL A   1      40.617  36.809  37.441  1.00  0.00    -0.200 F 
ATOM     69  C   UNL A   1      39.172  35.213  38.409  1.00  0.00     0.200 A 
ATOM     70  F   UNL A   1      37.748  33.581  39.346  1.00  0.00    -0.200 F 
ATOM     71  F   UNL A   1      38.941  36.031  39.446  1.00  0.00    -0.200 F 
ENDBRANCH  47  61
BRANCH  48  72
ATOM     72  C   UNL A   1      41.115  27.746  28.189  1.00  0.00     0.064 A 
ATOM     73  C   UNL A   1      40.581  26.453  28.092  1.00  0.00     0.173 A 
ATOM     74  C   UNL A   1      41.875  28.219  27.109  1.00  0.00     0.173 A 
ATOM     75  F   UNL A   1      39.862  25.949  29.106  1.00  0.00    -0.203 F 
ATOM     76  C   UNL A   1      40.816  25.658  26.973  1.00  0.00     0.198 A 
ATOM     77  C   UNL A   1      42.085  27.434  25.977  1.00  0.00     0.198 A 
ATOM     78  F   UNL A   1      42.401  29.452  27.148  1.00  0.00    -0.203 F 
ATOM     79  F   UNL A   1      40.331  24.410  26.927  1.00  0.00    -0.200 F 
ATOM     80  C   UNL A   1      41.563  26.151  25.913  1.00  0.00     0.200 A 
ATOM     81  F   UNL A   1      42.794  27.920  24.950  1.00  0.00    -0.200 F 
ATOM     82  F   UNL A   1      41.784  25.389  24.835  1.00  0.00    -0.200 F 
ENDBRANCH  48  72
BRANCH  60  83
ATOM     83  C   UNL A   1      44.336  28.323  34.341  1.00  0.00     0.064 A 
ATOM     84  C   UNL A   1      45.640  28.828  34.230  1.00  0.00     0.173 A 
ATOM     85  C   UNL A   1      44.149  27.135  35.066  1.00  0.00     0.173 A 
ATOM     86  F   UNL A   1      45.872  29.951  33.534  1.00  0.00    -0.203 F 
ATOM     87  C   UNL A   1      46.718  28.155  34.800  1.00  0.00     0.198 A 
ATOM     88  C   UNL A   1      45.225  26.483  35.661  1.00  0.00     0.198 A 
ATOM     89  F   UNL A   1      42.921  26.616  35.206  1.00  0.00    -0.203 F 
ATOM     90  F   UNL A   1      47.961  28.628  34.640  1.00  0.00    -0.200 F 
ATOM     91  C   UNL A   1      46.509  26.988  35.521  1.00  0.00     0.200 A 
ATOM     92  F   UNL A   1      45.019  25.364  36.369  1.00  0.00    -0.200 F 
ATOM     93  F   UNL A   1      47.546  26.347  36.076  1.00  0.00    -0.200 F 
ENDBRANCH  60  83
ENDBRANCH  34  35
ENDBRANCH  26  29
ENDBRANCH  24  25
ENDBRANCH  23  24
ENDBRANCH   1  23
TORSDOF 14
ENDMDL
MODEL 3
REMARK VINA RESULT:     -11.3      6.807     11.373
REMARK SMILES Cc1oc(CSc2ccncc2N)cc1C(=O)NCCCNC(=O)c1ccc(-c2c3nc(c(-c4c(F)c(F)c(F)c(F)c4F)c4ccc([nH]4)c(-c4c(F)c(F)c(F)c(F)c4F)c4nc(c(-c5c(F)c(F)c(F)c(F)c5F)c5ccc2[nH]5)C=C4)C=C3)cc1
REMARK SMILES IDX 19 1 18 2 16 3 17 4 15 6 1 7 2 8 3 9 4 10 14 11 5 12 6 13
REMARK SMILES IDX 7 14 8 15 12 16 9 17 11 18 10 19 13 20 20 23 21 24 22 25
REMARK SMILES IDX 23 26 24 28 25 29 26 30 87 31 27 32 86 33 28 34 29 35 30 36
REMARK SMILES IDX 80 37 31 38 85 39 79 40 81 41 32 42 84 43 78 44 77 45 33 47
REMARK SMILES IDX 65 48 45 49 64 50 46 51 49 52 63 53 82 54 47 55 48 56 62 58
REMARK SMILES IDX 83 59 50 60 34 61 35 62 43 63 36 64 37 65 41 66 44 67 38 68
REMARK SMILES IDX 39 69 42 70 40 71 66 72 67 73 75 74 68 75 69 76 73 77 76 78
REMARK SMILES IDX 70 79 71 80 74 81 72 82 51 83 52 84 60 85 53 86 54 87 58 88
REMARK SMILES IDX 61 89 55 90 56 91 59 92 57 93
REMARK H PARENT 18 5 13 21 13 22 22 27 81 46 49 57
REMARK Flexibility Score: inf
ROOT
ATOM      1  C   UNL A   1      41.422  19.634  27.436  1.00  0.00     0.118 C 
ENDROOT
BRANCH   1   2
ATOM      2  N   UNL A   1      41.839  20.864  28.060  1.00  0.00    -0.352 N 
ATOM      3  C   UNL A   1      41.356  22.138  28.039  1.00  0.00     0.254 C 
ATOM      4  O   UNL A   1      41.963  22.925  28.775  1.00  0.00    -0.269 OA
ATOM      5  H   UNL A   1      42.641  20.762  28.622  1.00  0.00     0.163 HD
BRANCH   3   6
ATOM      6  C   UNL A   1      40.201  22.610  27.279  1.00  0.00     0.081 A 
ATOM      7  C   UNL A   1      39.221  24.994  28.034  1.00  0.00     0.088 C 
ATOM      8  C   UNL A   1      39.362  23.723  27.297  1.00  0.00     0.113 A 
ATOM      9  O   UNL A   1      38.354  23.574  26.379  1.00  0.00    -0.465 OA
ATOM     10  C   UNL A   1      38.499  22.368  25.785  1.00  0.00     0.115 A 
ATOM     11  C   UNL A   1      39.645  21.776  26.249  1.00  0.00     0.060 A 
BRANCH  10  12
ATOM     12  C   UNL A   1      37.505  21.962  24.771  1.00  0.00     0.150 C 
BRANCH  12  13
ATOM     13  S   UNL A   1      36.121  20.914  25.328  1.00  0.00    -0.116 SA
BRANCH  13  14
ATOM     14  C   UNL A   1      34.807  22.003  25.896  1.00  0.00     0.034 A 
ATOM     15  C   UNL A   1      34.963  23.342  25.501  1.00  0.00     0.037 A 
ATOM     16  C   UNL A   1      33.645  21.641  26.597  1.00  0.00     0.064 A 
ATOM     17  C   UNL A   1      33.997  24.275  25.840  1.00  0.00     0.112 A 
ATOM     18  C   UNL A   1      32.755  22.678  26.906  1.00  0.00     0.137 A 
ATOM     19  N   UNL A   1      32.900  23.977  26.555  1.00  0.00    -0.262 NA
BRANCH  16  20
ATOM     20  N   UNL A   1      33.285  20.330  26.880  1.00  0.00    -0.397 N 
ATOM     21  H   UNL A   1      33.323  19.998  27.806  1.00  0.00     0.156 HD
ATOM     22  H   UNL A   1      32.992  19.733  26.154  1.00  0.00     0.156 HD
ENDBRANCH  16  20
ENDBRANCH  13  14
ENDBRANCH  12  13
ENDBRANCH  10  12
ENDBRANCH   3   6
ENDBRANCH   1   2
BRANCH   1  23
ATOM     23  C   UNL A   1      42.602  18.952  26.749  1.00  0.00     0.042 C 
BRANCH  23  24
ATOM     24  C   UNL A   1      42.687  19.226  25.252  1.00  0.00     0.118 C 
BRANCH  24  25
ATOM     25  N   UNL A   1      43.972  18.820  24.701  1.00  0.00    -0.352 N 
ATOM     26  C   UNL A   1      45.056  19.574  24.338  1.00  0.00     0.251 C 
ATOM     27  H   UNL A   1      44.079  17.850  24.569  1.00  0.00     0.163 HD
ATOM     28  O   UNL A   1      45.940  19.065  23.649  1.00  0.00    -0.269 OA
BRANCH  26  29
ATOM     29  C   UNL A   1      45.180  20.987  24.757  1.00  0.00     0.039 A 
ATOM     30  C   UNL A   1      45.536  21.268  26.080  1.00  0.00     0.014 A 
ATOM     31  C   UNL A   1      44.886  22.034  23.879  1.00  0.00     0.014 A 
ATOM     32  C   UNL A   1      45.640  22.593  26.508  1.00  0.00     0.010 A 
ATOM     33  C   UNL A   1      45.066  23.354  24.282  1.00  0.00     0.010 A 
ATOM     34  C   UNL A   1      45.431  23.647  25.605  1.00  0.00    -0.014 A 
BRANCH  34  35
ATOM     35  C   UNL A   1      45.576  25.062  26.028  1.00  0.00     0.031 A 
ATOM     36  C   UNL A   1      46.920  25.735  25.966  1.00  0.00     0.074 A 
ATOM     37  C   UNL A   1      44.512  25.719  26.525  1.00  0.00     0.049 A 
ATOM     38  N   UNL A   1      47.264  26.938  26.356  1.00  0.00    -0.248 NA
ATOM     39  C   UNL A   1      48.033  24.943  25.420  1.00  0.00     0.031 C 
ATOM     40  C   UNL A   1      43.169  25.156  26.677  1.00  0.00     0.029 A 
ATOM     41  N   UNL A   1      44.391  26.999  27.003  1.00  0.00    -0.354 N 
ATOM     42  C   UNL A   1      48.629  27.036  26.119  1.00  0.00     0.074 A 
ATOM     43  C   UNL A   1      49.062  25.756  25.601  1.00  0.00     0.031 C 
ATOM     44  C   UNL A   1      42.356  26.091  27.194  1.00  0.00     0.029 A 
ATOM     45  C   UNL A   1      43.126  27.305  27.443  1.00  0.00     0.049 A 
ATOM     46  H   UNL A   1      45.140  27.637  27.029  1.00  0.00     0.167 HD
ATOM     47  C   UNL A   1      49.442  28.105  26.295  1.00  0.00     0.037 A 
ATOM     48  C   UNL A   1      42.646  28.436  27.993  1.00  0.00     0.037 A 
ATOM     49  C   UNL A   1      48.999  29.384  26.785  1.00  0.00     0.049 A 
ATOM     50  C   UNL A   1      43.569  29.609  28.176  1.00  0.00     0.074 A 
ATOM     51  C   UNL A   1      49.728  30.549  26.944  1.00  0.00     0.029 A 
ATOM     52  N   UNL A   1      47.703  29.663  27.200  1.00  0.00    -0.354 N 
ATOM     53  N   UNL A   1      44.843  29.714  27.885  1.00  0.00    -0.248 NA
ATOM     54  C   UNL A   1      42.985  30.826  28.757  1.00  0.00     0.031 C 
ATOM     55  C   UNL A   1      48.886  31.520  27.496  1.00  0.00     0.029 A 
ATOM     56  C   UNL A   1      47.619  30.977  27.632  1.00  0.00     0.049 A 
ATOM     57  H   UNL A   1      46.956  29.023  27.188  1.00  0.00     0.167 HD
ATOM     58  C   UNL A   1      45.206  31.010  28.219  1.00  0.00     0.074 A 
ATOM     59  C   UNL A   1      44.013  31.661  28.721  1.00  0.00     0.031 C 
ATOM     60  C   UNL A   1      46.420  31.609  28.121  1.00  0.00     0.037 A 
BRANCH  47  61
ATOM     61  C   UNL A   1      50.895  27.939  25.953  1.00  0.00     0.064 A 
ATOM     62  C   UNL A   1      51.850  27.620  26.930  1.00  0.00     0.173 A 
ATOM     63  C   UNL A   1      51.335  28.068  24.626  1.00  0.00     0.173 A 
ATOM     64  F   UNL A   1      51.486  27.497  28.216  1.00  0.00    -0.203 F 
ATOM     65  C   UNL A   1      53.194  27.467  26.598  1.00  0.00     0.198 A 
ATOM     66  C   UNL A   1      52.674  27.882  24.293  1.00  0.00     0.198 A 
ATOM     67  F   UNL A   1      50.464  28.365  23.651  1.00  0.00    -0.203 F 
ATOM     68  F   UNL A   1      54.095  27.214  27.557  1.00  0.00    -0.200 F 
ATOM     69  C   UNL A   1      53.603  27.591  25.280  1.00  0.00     0.200 A 
ATOM     70  F   UNL A   1      53.066  27.990  23.016  1.00  0.00    -0.200 F 
ATOM     71  F   UNL A   1      54.896  27.437  24.961  1.00  0.00    -0.200 F 
ENDBRANCH  47  61
BRANCH  48  72
ATOM     72  C   UNL A   1      41.216  28.520  28.386  1.00  0.00     0.064 A 
ATOM     73  C   UNL A   1      40.801  28.151  29.673  1.00  0.00     0.173 A 
ATOM     74  C   UNL A   1      40.236  28.972  27.490  1.00  0.00     0.173 A 
ATOM     75  F   UNL A   1      41.697  27.696  30.561  1.00  0.00    -0.203 F 
ATOM     76  C   UNL A   1      39.459  28.210  30.042  1.00  0.00     0.198 A 
ATOM     77  C   UNL A   1      38.897  29.058  27.869  1.00  0.00     0.198 A 
ATOM     78  F   UNL A   1      40.581  29.344  26.249  1.00  0.00    -0.203 F 
ATOM     79  F   UNL A   1      39.084  27.809  31.264  1.00  0.00    -0.200 F 
ATOM     80  C   UNL A   1      38.509  28.670  29.142  1.00  0.00     0.200 A 
ATOM     81  F   UNL A   1      37.986  29.517  27.002  1.00  0.00    -0.200 F 
ATOM     82  F   UNL A   1      37.219  28.731  29.499  1.00  0.00    -0.200 F 
ENDBRANCH  48  72
BRANCH  60  83
ATOM     83  C   UNL A   1      46.508  33.050  28.531  1.00  0.00     0.064 A 
ATOM     84  C   UNL A   1      46.283  34.091  27.618  1.00  0.00     0.173 A 
ATOM     85  C   UNL A   1      46.786  33.392  29.864  1.00  0.00     0.173 A 
ATOM     86  F   UNL A   1      46.029  33.815  26.330  1.00  0.00    -0.203 F 
ATOM     87  C   UNL A   1      46.359  35.422  28.018  1.00  0.00     0.198 A 
ATOM     88  C   UNL A   1      46.831  34.724  30.267  1.00  0.00     0.198 A 
ATOM     89  F   UNL A   1      47.002  32.434  30.776  1.00  0.00    -0.203 F 
ATOM     90  F   UNL A   1      46.190  36.401  27.119  1.00  0.00    -0.200 F 
ATOM     91  C   UNL A   1      46.625  35.737  29.343  1.00  0.00     0.200 A 
ATOM     92  F   UNL A   1      47.073  35.025  31.550  1.00  0.00    -0.200 F 
ATOM     93  F   UNL A   1      46.691  37.019  29.728  1.00  0.00    -0.200 F 
ENDBRANCH  60  83
ENDBRANCH  34  35
ENDBRANCH  26  29
ENDBRANCH  24  25
ENDBRANCH  23  24
ENDBRANCH   1  23
TORSDOF 14
ENDMDL
