MODEL 1
REMARK VINA RESULT:     -12.7      0.000      0.000
REMARK SMILES COc1cccc(C(=O)N2[C@@H](C(=O)NCCCNC(=O)c3ccc(-c4c5nc(c(-c6c(F)c(F)c(F)c(F)c6F)c6ccc([nH]6)c(-c6c(F)c(F)c(F)c(F)c6F)c6nc(c(-c7c(F)c(F)c(F)c(F)c7F)c7ccc4[nH]7)C=C6)C=C5)cc3)CS[C@@H]2c2ccccc2Cl)c1
REMARK SMILES IDX 15 1 14 2 12 3 13 4 11 6 10 7 86 8 84 9 85 10 8 11 9 12 7 13
REMARK SMILES IDX 3 14 4 15 94 16 5 17 6 18 2 19 1 20 87 21 88 22 92 23 89 24
REMARK SMILES IDX 91 25 93 26 90 27 16 28 17 29 18 30 19 31 20 33 21 34 22 35
REMARK SMILES IDX 83 36 23 37 82 38 24 39 25 40 26 41 76 42 27 43 81 44 75 45
REMARK SMILES IDX 77 46 28 47 80 48 74 49 73 50 29 52 61 53 41 54 60 55 42 56
REMARK SMILES IDX 45 57 59 58 78 59 43 60 44 61 58 63 79 64 46 65 30 66 31 67
REMARK SMILES IDX 39 68 32 69 33 70 37 71 40 72 34 73 35 74 38 75 36 76 62 77
REMARK SMILES IDX 63 78 71 79 64 80 65 81 69 82 72 83 66 84 67 85 70 86 68 87
REMARK SMILES IDX 47 88 48 89 56 90 49 91 50 92 54 93 57 94 51 95 52 96 55 97
REMARK SMILES IDX 53 98
REMARK H PARENT 14 5 18 32 77 51 45 62
REMARK Flexibility Score: inf
ROOT
ATOM      1  C   UNL A   1      31.990  27.494  26.771  1.00  0.00     0.117 C 
ENDROOT
BRANCH   1   2
ATOM      2  N   UNL A   1      30.878  26.568  26.725  1.00  0.00    -0.354 N 
ATOM      3  C   UNL A   1      30.903  25.210  26.544  1.00  0.00     0.243 C 
ATOM      4  O   UNL A   1      29.898  24.580  26.877  1.00  0.00    -0.273 OA
ATOM      5  H   UNL A   1      29.984  26.966  26.837  1.00  0.00     0.163 HD
BRANCH   3   6
ATOM      6  C   UNL A   1      32.190  24.552  25.987  1.00  0.00     0.186 C 
ATOM      7  N   UNL A   1      31.991  23.848  24.707  1.00  0.00    -0.310 N 
ATOM      8  C   UNL A   1      32.605  22.531  24.612  1.00  0.00     0.176 C 
ATOM      9  C   UNL A   1      32.666  23.522  27.027  1.00  0.00     0.107 C 
ATOM     10  S   UNL A   1      32.274  21.907  26.321  1.00  0.00    -0.129 SA
BRANCH   7  11
ATOM     11  C   UNL A   1      31.235  24.458  23.715  1.00  0.00     0.255 C 
ATOM     12  O   UNL A   1      30.360  23.860  23.094  1.00  0.00    -0.269 OA
BRANCH  11  13
ATOM     13  C   UNL A   1      31.666  25.810  23.234  1.00  0.00     0.043 A 
ATOM     14  C   UNL A   1      31.089  28.057  22.486  1.00  0.00     0.119 A 
ATOM     15  C   UNL A   1      32.424  28.434  22.628  1.00  0.00     0.046 A 
ATOM     16  C   UNL A   1      30.716  26.750  22.799  1.00  0.00     0.060 A 
ATOM     17  C   UNL A   1      33.372  27.522  23.102  1.00  0.00     0.005 A 
ATOM     18  C   UNL A   1      32.995  26.211  23.405  1.00  0.00     0.014 A 
BRANCH  14  19
ATOM     19  O   UNL A   1      30.245  29.038  22.042  1.00  0.00    -0.497 OA
ATOM     20  C   UNL A   1      29.642  29.857  23.040  1.00  0.00     0.278 C 
ENDBRANCH  14  19
ENDBRANCH  11  13
ENDBRANCH   7  11
BRANCH   8  21
ATOM     21  C   UNL A   1      34.122  22.451  24.344  1.00  0.00     0.003 A 
ATOM     22  C   UNL A   1      34.913  21.841  25.358  1.00  0.00     0.008 A 
ATOM     23  C   UNL A   1      34.825  22.911  23.215  1.00  0.00     0.047 A 
ATOM     24  C   UNL A   1      36.309  21.800  25.309  1.00  0.00     0.001 A 
ATOM     25  C   UNL A   1      36.233  22.866  23.170  1.00  0.00     0.021 A 
ATOM     26  Cl  UNL A   1      34.097  23.539  21.785  1.00  0.00    -0.084 Cl
ATOM     27  C   UNL A   1      36.974  22.332  24.218  1.00  0.00     0.002 A 
ENDBRANCH   8  21
ENDBRANCH   3   6
ENDBRANCH   1   2
BRANCH   1  28
ATOM     28  C   UNL A   1      31.646  28.900  26.316  1.00  0.00     0.042 C 
BRANCH  28  29
ATOM     29  C   UNL A   1      32.837  29.793  26.006  1.00  0.00     0.118 C 
BRANCH  29  30
ATOM     30  N   UNL A   1      32.653  31.177  26.417  1.00  0.00    -0.352 N 
ATOM     31  C   UNL A   1      33.391  31.954  27.274  1.00  0.00     0.251 C 
ATOM     32  H   UNL A   1      31.875  31.628  26.016  1.00  0.00     0.163 HD
ATOM     33  O   UNL A   1      32.986  33.078  27.567  1.00  0.00    -0.269 OA
BRANCH  31  34
ATOM     34  C   UNL A   1      34.643  31.447  27.881  1.00  0.00     0.039 A 
ATOM     35  C   UNL A   1      35.717  32.329  28.027  1.00  0.00     0.014 A 
ATOM     36  C   UNL A   1      34.779  30.118  28.293  1.00  0.00     0.014 A 
ATOM     37  C   UNL A   1      36.895  31.898  28.640  1.00  0.00     0.010 A 
ATOM     38  C   UNL A   1      35.916  29.717  28.993  1.00  0.00     0.010 A 
ATOM     39  C   UNL A   1      36.992  30.599  29.165  1.00  0.00    -0.014 A 
BRANCH  39  40
ATOM     40  C   UNL A   1      38.214  30.161  29.889  1.00  0.00     0.031 A 
ATOM     41  C   UNL A   1      38.485  30.630  31.292  1.00  0.00     0.074 A 
ATOM     42  C   UNL A   1      39.099  29.358  29.265  1.00  0.00     0.049 A 
ATOM     43  N   UNL A   1      39.485  30.332  32.085  1.00  0.00    -0.248 NA
ATOM     44  C   UNL A   1      37.523  31.578  31.873  1.00  0.00     0.031 C 
ATOM     45  C   UNL A   1      38.984  28.885  27.885  1.00  0.00     0.029 A 
ATOM     46  N   UNL A   1      40.268  28.794  29.712  1.00  0.00    -0.354 N 
ATOM     47  C   UNL A   1      39.273  31.058  33.250  1.00  0.00     0.074 A 
ATOM     48  C   UNL A   1      38.090  31.862  33.037  1.00  0.00     0.031 C 
ATOM     49  C   UNL A   1      40.014  28.069  27.613  1.00  0.00     0.029 A 
ATOM     50  C   UNL A   1      40.881  27.989  28.784  1.00  0.00     0.049 A 
ATOM     51  H   UNL A   1      40.633  28.952  30.613  1.00  0.00     0.167 HD
ATOM     52  C   UNL A   1      39.982  31.035  34.404  1.00  0.00     0.037 A 
ATOM     53  C   UNL A   1      42.011  27.262  28.869  1.00  0.00     0.037 A 
ATOM     54  C   UNL A   1      41.153  30.224  34.618  1.00  0.00     0.049 A 
ATOM     55  C   UNL A   1      42.782  27.252  30.161  1.00  0.00     0.074 A 
ATOM     56  C   UNL A   1      41.911  30.088  35.767  1.00  0.00     0.029 A 
ATOM     57  N   UNL A   1      41.739  29.414  33.655  1.00  0.00    -0.354 N 
ATOM     58  N   UNL A   1      42.525  27.877  31.284  1.00  0.00    -0.248 NA
ATOM     59  C   UNL A   1      43.994  26.422  30.201  1.00  0.00     0.031 C 
ATOM     60  C   UNL A   1      42.987  29.240  35.484  1.00  0.00     0.029 A 
ATOM     61  C   UNL A   1      42.862  28.794  34.179  1.00  0.00     0.049 A 
ATOM     62  H   UNL A   1      41.405  29.296  32.736  1.00  0.00     0.167 HD
ATOM     63  C   UNL A   1      43.519  27.491  32.173  1.00  0.00     0.074 A 
ATOM     64  C   UNL A   1      44.377  26.566  31.462  1.00  0.00     0.031 C 
ATOM     65  C   UNL A   1      43.703  27.867  33.463  1.00  0.00     0.037 A 
BRANCH  52  66
ATOM     66  C   UNL A   1      39.508  31.915  35.527  1.00  0.00     0.064 A 
ATOM     67  C   UNL A   1      38.581  31.459  36.479  1.00  0.00     0.173 A 
ATOM     68  C   UNL A   1      40.006  33.218  35.673  1.00  0.00     0.173 A 
ATOM     69  F   UNL A   1      38.065  30.225  36.383  1.00  0.00    -0.203 F 
ATOM     70  C   UNL A   1      38.144  32.288  37.510  1.00  0.00     0.198 A 
ATOM     71  C   UNL A   1      39.594  34.031  36.726  1.00  0.00     0.198 A 
ATOM     72  F   UNL A   1      40.900  33.703  34.798  1.00  0.00    -0.203 F 
ATOM     73  F   UNL A   1      37.216  31.850  38.372  1.00  0.00    -0.200 F 
ATOM     74  C   UNL A   1      38.657  33.570  37.637  1.00  0.00     0.200 A 
ATOM     75  F   UNL A   1      40.102  35.264  36.857  1.00  0.00    -0.200 F 
ATOM     76  F   UNL A   1      38.241  34.363  38.634  1.00  0.00    -0.200 F 
ENDBRANCH  52  66
BRANCH  53  77
ATOM     77  C   UNL A   1      42.456  26.445  27.709  1.00  0.00     0.064 A 
ATOM     78  C   UNL A   1      43.416  26.931  26.810  1.00  0.00     0.173 A 
ATOM     79  C   UNL A   1      41.935  25.163  27.475  1.00  0.00     0.173 A 
ATOM     80  F   UNL A   1      43.930  28.159  26.980  1.00  0.00    -0.203 F 
ATOM     81  C   UNL A   1      43.822  26.177  25.711  1.00  0.00     0.198 A 
ATOM     82  C   UNL A   1      42.364  24.398  26.394  1.00  0.00     0.198 A 
ATOM     83  F   UNL A   1      41.020  24.648  28.309  1.00  0.00    -0.203 F 
ATOM     84  F   UNL A   1      44.706  26.686  24.843  1.00  0.00    -0.200 F 
ATOM     85  C   UNL A   1      43.301  24.908  25.507  1.00  0.00     0.200 A 
ATOM     86  F   UNL A   1      41.872  23.165  26.211  1.00  0.00    -0.200 F 
ATOM     87  F   UNL A   1      43.697  24.180  24.456  1.00  0.00    -0.200 F 
ENDBRANCH  53  77
BRANCH  65  88
ATOM     88  C   UNL A   1      44.849  27.241  34.207  1.00  0.00     0.064 A 
ATOM     89  C   UNL A   1      46.116  27.839  34.258  1.00  0.00     0.173 A 
ATOM     90  C   UNL A   1      44.664  26.034  34.901  1.00  0.00     0.173 A 
ATOM     91  F   UNL A   1      46.350  28.985  33.601  1.00  0.00    -0.203 F 
ATOM     92  C   UNL A   1      47.165  27.236  34.949  1.00  0.00     0.198 A 
ATOM     93  C   UNL A   1      45.706  25.453  35.619  1.00  0.00     0.198 A 
ATOM     94  F   UNL A   1      43.470  25.424  34.892  1.00  0.00    -0.203 F 
ATOM     95  F   UNL A   1      48.383  27.796  34.935  1.00  0.00    -0.200 F 
ATOM     96  C   UNL A   1      46.957  26.048  35.634  1.00  0.00     0.200 A 
ATOM     97  F   UNL A   1      45.497  24.314  36.294  1.00  0.00    -0.200 F 
ATOM     98  F   UNL A   1      47.967  25.472  36.300  1.00  0.00    -0.200 F 
ENDBRANCH  65  88
ENDBRANCH  39  40
ENDBRANCH  31  34
ENDBRANCH  29  30
ENDBRANCH  28  29
ENDBRANCH   1  28
TORSDOF 14
ENDMDL
MODEL 2
REMARK VINA RESULT:     -12.4      2.030      3.040
REMARK SMILES COc1cccc(C(=O)N2[C@@H](C(=O)NCCCNC(=O)c3ccc(-c4c5nc(c(-c6c(F)c(F)c(F)c(F)c6F)c6ccc([nH]6)c(-c6c(F)c(F)c(F)c(F)c6F)c6nc(c(-c7c(F)c(F)c(F)c(F)c7F)c7ccc4[nH]7)C=C6)C=C5)cc3)CS[C@@H]2c2ccccc2Cl)c1
REMARK SMILES IDX 15 1 14 2 12 3 13 4 11 6 10 7 86 8 84 9 85 10 8 11 9 12 7 13
REMARK SMILES IDX 3 14 4 15 94 16 5 17 6 18 2 19 1 20 87 21 88 22 92 23 89 24
REMARK SMILES IDX 91 25 93 26 90 27 16 28 17 29 18 30 19 31 20 33 21 34 22 35
REMARK SMILES IDX 83 36 23 37 82 38 24 39 25 40 26 41 76 42 27 43 81 44 75 45
REMARK SMILES IDX 77 46 28 47 80 48 74 49 73 50 29 52 61 53 41 54 60 55 42 56
REMARK SMILES IDX 45 57 59 58 78 59 43 60 44 61 58 63 79 64 46 65 30 66 31 67
REMARK SMILES IDX 39 68 32 69 33 70 37 71 40 72 34 73 35 74 38 75 36 76 62 77
REMARK SMILES IDX 63 78 71 79 64 80 65 81 69 82 72 83 66 84 67 85 70 86 68 87
REMARK SMILES IDX 47 88 48 89 56 90 49 91 50 92 54 93 57 94 51 95 52 96 55 97
REMARK SMILES IDX 53 98
REMARK H PARENT 14 5 18 32 77 51 45 62
REMARK Flexibility Score: inf
ROOT
ATOM      1  C   UNL A   1      31.733  30.007  25.796  1.00  0.00     0.117 C 
ENDROOT
BRANCH   1   2
ATOM      2  N   UNL A   1      32.764  30.007  24.778  1.00  0.00    -0.354 N 
ATOM      3  C   UNL A   1      33.229  28.956  24.033  1.00  0.00     0.243 C 
ATOM      4  O   UNL A   1      33.849  29.228  23.004  1.00  0.00    -0.273 OA
ATOM      5  H   UNL A   1      33.189  30.878  24.599  1.00  0.00     0.163 HD
BRANCH   3   6
ATOM      6  C   UNL A   1      32.910  27.512  24.493  1.00  0.00     0.186 C 
ATOM      7  N   UNL A   1      31.514  27.105  24.248  1.00  0.00    -0.310 N 
ATOM      8  C   UNL A   1      30.857  26.419  25.352  1.00  0.00     0.176 C 
ATOM      9  C   UNL A   1      33.166  27.446  26.010  1.00  0.00     0.107 C 
ATOM     10  S   UNL A   1      31.530  27.392  26.772  1.00  0.00    -0.129 SA
BRANCH   7  11
ATOM     11  C   UNL A   1      30.927  27.415  23.029  1.00  0.00     0.255 C 
ATOM     12  O   UNL A   1      31.421  27.076  21.956  1.00  0.00    -0.269 OA
BRANCH  11  13
ATOM     13  C   UNL A   1      29.791  28.391  23.024  1.00  0.00     0.043 A 
ATOM     14  C   UNL A   1      28.905  30.583  22.428  1.00  0.00     0.119 A 
ATOM     15  C   UNL A   1      27.619  30.129  22.719  1.00  0.00     0.046 A 
ATOM     16  C   UNL A   1      29.982  29.709  22.573  1.00  0.00     0.060 A 
ATOM     17  C   UNL A   1      27.409  28.808  23.126  1.00  0.00     0.005 A 
ATOM     18  C   UNL A   1      28.491  27.939  23.278  1.00  0.00     0.014 A 
BRANCH  14  19
ATOM     19  O   UNL A   1      28.989  31.883  22.012  1.00  0.00    -0.497 OA
ATOM     20  C   UNL A   1      28.028  32.306  21.048  1.00  0.00     0.278 C 
ENDBRANCH  14  19
ENDBRANCH  11  13
ENDBRANCH   7  11
BRANCH   8  21
ATOM     21  C   UNL A   1      31.181  24.927  25.579  1.00  0.00     0.003 A 
ATOM     22  C   UNL A   1      31.701  24.580  26.858  1.00  0.00     0.008 A 
ATOM     23  C   UNL A   1      31.028  23.862  24.672  1.00  0.00     0.047 A 
ATOM     24  C   UNL A   1      32.148  23.294  27.172  1.00  0.00     0.001 A 
ATOM     25  C   UNL A   1      31.479  22.566  24.994  1.00  0.00     0.021 A 
ATOM     26  Cl  UNL A   1      30.278  23.980  23.126  1.00  0.00    -0.084 Cl
ATOM     27  C   UNL A   1      32.053  22.285  26.228  1.00  0.00     0.002 A 
ENDBRANCH   8  21
ENDBRANCH   3   6
ENDBRANCH   1   2
BRANCH   1  28
ATOM     28  C   UNL A   1      31.480  31.366  26.421  1.00  0.00     0.042 C 
BRANCH  28  29
ATOM     29  C   UNL A   1      32.723  32.114  26.876  1.00  0.00     0.118 C 
BRANCH  29  30
ATOM     30  N   UNL A   1      32.453  33.464  27.350  1.00  0.00    -0.352 N 
ATOM     31  C   UNL A   1      33.077  34.204  28.322  1.00  0.00     0.251 C 
ATOM     32  H   UNL A   1      31.704  33.918  26.900  1.00  0.00     0.163 HD
ATOM     33  O   UNL A   1      32.607  35.296  28.641  1.00  0.00    -0.269 OA
BRANCH  31  34
ATOM     34  C   UNL A   1      34.279  33.693  29.020  1.00  0.00     0.039 A 
ATOM     35  C   UNL A   1      34.113  32.703  29.992  1.00  0.00     0.014 A 
ATOM     36  C   UNL A   1      35.558  34.185  28.745  1.00  0.00     0.014 A 
ATOM     37  C   UNL A   1      35.229  32.164  30.635  1.00  0.00     0.010 A 
ATOM     38  C   UNL A   1      36.677  33.578  29.313  1.00  0.00     0.010 A 
ATOM     39  C   UNL A   1      36.525  32.568  30.274  1.00  0.00    -0.014 A 
BRANCH  39  40
ATOM     40  C   UNL A   1      37.719  31.940  30.899  1.00  0.00     0.031 A 
ATOM     41  C   UNL A   1      38.156  32.333  32.283  1.00  0.00     0.074 A 
ATOM     42  C   UNL A   1      38.429  31.032  30.202  1.00  0.00     0.049 A 
ATOM     43  N   UNL A   1      39.156  31.876  32.996  1.00  0.00    -0.248 NA
ATOM     44  C   UNL A   1      37.388  33.397  32.946  1.00  0.00     0.031 C 
ATOM     45  C   UNL A   1      38.147  30.611  28.829  1.00  0.00     0.029 A 
ATOM     46  N   UNL A   1      39.532  30.294  30.554  1.00  0.00    -0.354 N 
ATOM     47  C   UNL A   1      39.138  32.598  34.182  1.00  0.00     0.074 A 
ATOM     48  C   UNL A   1      38.073  33.570  34.068  1.00  0.00     0.031 C 
ATOM     49  C   UNL A   1      39.023  29.661  28.470  1.00  0.00     0.029 A 
ATOM     50  C   UNL A   1      39.951  29.429  29.573  1.00  0.00     0.049 A 
ATOM     51  H   UNL A   1      39.981  30.377  31.426  1.00  0.00     0.167 HD
ATOM     52  C   UNL A   1      39.918  32.446  35.280  1.00  0.00     0.037 A 
ATOM     53  C   UNL A   1      40.966  28.544  29.564  1.00  0.00     0.037 A 
ATOM     54  C   UNL A   1      40.969  31.468  35.396  1.00  0.00     0.049 A 
ATOM     55  C   UNL A   1      41.818  28.392  30.795  1.00  0.00     0.074 A 
ATOM     56  C   UNL A   1      41.780  31.198  36.483  1.00  0.00     0.029 A 
ATOM     57  N   UNL A   1      41.358  30.604  34.383  1.00  0.00    -0.354 N 
ATOM     58  N   UNL A   1      41.738  29.024  31.941  1.00  0.00    -0.248 NA
ATOM     59  C   UNL A   1      42.895  27.395  30.734  1.00  0.00     0.031 C 
ATOM     60  C   UNL A   1      42.697  30.209  36.111  1.00  0.00     0.029 A 
ATOM     61  C   UNL A   1      42.413  29.816  34.813  1.00  0.00     0.049 A 
ATOM     62  H   UNL A   1      40.945  30.557  33.490  1.00  0.00     0.167 HD
ATOM     63  C   UNL A   1      42.726  28.477  32.748  1.00  0.00     0.074 A 
ATOM     64  C   UNL A   1      43.385  27.453  31.964  1.00  0.00     0.031 C 
ATOM     65  C   UNL A   1      43.056  28.793  34.025  1.00  0.00     0.037 A 
BRANCH  52  66
ATOM     66  C   UNL A   1      39.660  33.359  36.446  1.00  0.00     0.064 A 
ATOM     67  C   UNL A   1      40.271  34.620  36.543  1.00  0.00     0.173 A 
ATOM     68  C   UNL A   1      38.771  32.984  37.463  1.00  0.00     0.173 A 
ATOM     69  F   UNL A   1      41.137  35.026  35.603  1.00  0.00    -0.203 F 
ATOM     70  C   UNL A   1      40.029  35.453  37.634  1.00  0.00     0.198 A 
ATOM     71  C   UNL A   1      38.503  33.835  38.534  1.00  0.00     0.198 A 
ATOM     72  F   UNL A   1      38.153  31.794  37.418  1.00  0.00    -0.203 F 
ATOM     73  F   UNL A   1      40.668  36.627  37.733  1.00  0.00    -0.200 F 
ATOM     74  C   UNL A   1      39.140  35.063  38.624  1.00  0.00     0.200 A 
ATOM     75  F   UNL A   1      37.632  33.463  39.482  1.00  0.00    -0.200 F 
ATOM     76  F   UNL A   1      38.903  35.868  39.668  1.00  0.00    -0.200 F 
ENDBRANCH  52  66
BRANCH  53  77
ATOM     77  C   UNL A   1      41.200  27.697  28.364  1.00  0.00     0.064 A 
ATOM     78  C   UNL A   1      42.095  28.099  27.362  1.00  0.00     0.173 A 
ATOM     79  C   UNL A   1      40.540  26.471  28.195  1.00  0.00     0.173 A 
ATOM     80  F   UNL A   1      42.737  29.273  27.470  1.00  0.00    -0.203 F 
ATOM     81  C   UNL A   1      42.305  27.318  26.228  1.00  0.00     0.198 A 
ATOM     82  C   UNL A   1      40.774  25.677  27.075  1.00  0.00     0.198 A 
ATOM     83  F   UNL A   1      39.680  26.037  29.127  1.00  0.00    -0.203 F 
ATOM     84  F   UNL A   1      43.131  27.749  25.264  1.00  0.00    -0.200 F 
ATOM     85  C   UNL A   1      41.649  26.105  26.087  1.00  0.00     0.200 A 
ATOM     86  F   UNL A   1      40.153  24.496  26.952  1.00  0.00    -0.200 F 
ATOM     87  F   UNL A   1      41.857  25.351  25.001  1.00  0.00    -0.200 F 
ENDBRANCH  53  77
BRANCH  65  88
ATOM     88  C   UNL A   1      44.148  27.990  34.674  1.00  0.00     0.064 A 
ATOM     89  C   UNL A   1      45.487  28.405  34.652  1.00  0.00     0.173 A 
ATOM     90  C   UNL A   1      43.841  26.799  35.351  1.00  0.00     0.173 A 
ATOM     91  F   UNL A   1      45.837  29.527  34.007  1.00  0.00    -0.203 F 
ATOM     92  C   UNL A   1      46.484  27.640  35.254  1.00  0.00     0.198 A 
ATOM     93  C   UNL A   1      44.835  26.056  35.982  1.00  0.00     0.198 A 
ATOM     94  F   UNL A   1      42.574  26.360  35.410  1.00  0.00    -0.203 F 
ATOM     95  F   UNL A   1      47.765  28.026  35.170  1.00  0.00    -0.200 F 
ATOM     96  C   UNL A   1      46.156  26.471  35.925  1.00  0.00     0.200 A 
ATOM     97  F   UNL A   1      44.513  24.935  36.644  1.00  0.00    -0.200 F 
ATOM     98  F   UNL A   1      47.116  25.739  36.507  1.00  0.00    -0.200 F 
ENDBRANCH  65  88
ENDBRANCH  39  40
ENDBRANCH  31  34
ENDBRANCH  29  30
ENDBRANCH  28  29
ENDBRANCH   1  28
TORSDOF 14
ENDMDL
MODEL 3
REMARK VINA RESULT:     -12.4      4.280      9.659
REMARK SMILES COc1cccc(C(=O)N2[C@@H](C(=O)NCCCNC(=O)c3ccc(-c4c5nc(c(-c6c(F)c(F)c(F)c(F)c6F)c6ccc([nH]6)c(-c6c(F)c(F)c(F)c(F)c6F)c6nc(c(-c7c(F)c(F)c(F)c(F)c7F)c7ccc4[nH]7)C=C6)C=C5)cc3)CS[C@@H]2c2ccccc2Cl)c1
REMARK SMILES IDX 15 1 14 2 12 3 13 4 11 6 10 7 86 8 84 9 85 10 8 11 9 12 7 13
REMARK SMILES IDX 3 14 4 15 94 16 5 17 6 18 2 19 1 20 87 21 88 22 92 23 89 24
REMARK SMILES IDX 91 25 93 26 90 27 16 28 17 29 18 30 19 31 20 33 21 34 22 35
REMARK SMILES IDX 83 36 23 37 82 38 24 39 25 40 26 41 76 42 27 43 81 44 75 45
REMARK SMILES IDX 77 46 28 47 80 48 74 49 73 50 29 52 61 53 41 54 60 55 42 56
REMARK SMILES IDX 45 57 59 58 78 59 43 60 44 61 58 63 79 64 46 65 30 66 31 67
REMARK SMILES IDX 39 68 32 69 33 70 37 71 40 72 34 73 35 74 38 75 36 76 62 77
REMARK SMILES IDX 63 78 71 79 64 80 65 81 69 82 72 83 66 84 67 85 70 86 68 87
REMARK SMILES IDX 47 88 48 89 56 90 49 91 50 92 54 93 57 94 51 95 52 96 55 97
REMARK SMILES IDX 53 98
REMARK H PARENT 14 5 18 32 77 51 45 62
REMARK Flexibility Score: inf
ROOT
ATOM      1  C   UNL A   1      35.643  23.331  23.893  1.00  0.00     0.117 C 
ENDROOT
BRANCH   1   2
ATOM      2  N   UNL A   1      34.740  23.282  22.761  1.00  0.00    -0.354 N 
ATOM      3  C   UNL A   1      33.804  24.204  22.375  1.00  0.00     0.243 C 
ATOM      4  O   UNL A   1      33.393  24.135  21.216  1.00  0.00    -0.273 OA
ATOM      5  H   UNL A   1      34.809  22.480  22.194  1.00  0.00     0.163 HD
BRANCH   3   6
ATOM      6  C   UNL A   1      33.360  25.290  23.386  1.00  0.00     0.186 C 
ATOM      7  N   UNL A   1      31.931  25.219  23.744  1.00  0.00    -0.310 N 
ATOM      8  C   UNL A   1      31.222  26.491  23.757  1.00  0.00     0.176 C 
ATOM      9  C   UNL A   1      33.618  26.660  22.732  1.00  0.00     0.107 C 
ATOM     10  S   UNL A   1      31.988  27.292  22.277  1.00  0.00    -0.129 SA
BRANCH   7  11
ATOM     11  C   UNL A   1      31.366  23.979  24.015  1.00  0.00     0.255 C 
ATOM     12  O   UNL A   1      30.278  23.639  23.558  1.00  0.00    -0.269 OA
BRANCH  11  13
ATOM     13  C   UNL A   1      31.997  23.138  25.081  1.00  0.00     0.043 A 
ATOM     14  C   UNL A   1      32.853  20.980  25.824  1.00  0.00     0.119 A 
ATOM     15  C   UNL A   1      33.445  21.605  26.920  1.00  0.00     0.046 A 
ATOM     16  C   UNL A   1      32.141  21.751  24.906  1.00  0.00     0.060 A 
ATOM     17  C   UNL A   1      33.348  22.990  27.084  1.00  0.00     0.005 A 
ATOM     18  C   UNL A   1      32.626  23.757  26.167  1.00  0.00     0.014 A 
BRANCH  14  19
ATOM     19  O   UNL A   1      33.036  19.626  25.750  1.00  0.00    -0.497 OA
ATOM     20  C   UNL A   1      33.747  19.141  24.615  1.00  0.00     0.278 C 
ENDBRANCH  14  19
ENDBRANCH  11  13
ENDBRANCH   7  11
BRANCH   8  21
ATOM     21  C   UNL A   1      31.413  27.420  24.974  1.00  0.00     0.003 A 
ATOM     22  C   UNL A   1      32.022  28.680  24.719  1.00  0.00     0.008 A 
ATOM     23  C   UNL A   1      31.058  27.172  26.314  1.00  0.00     0.047 A 
ATOM     24  C   UNL A   1      32.364  29.577  25.735  1.00  0.00     0.001 A 
ATOM     25  C   UNL A   1      31.403  28.081  27.334  1.00  0.00     0.021 A 
ATOM     26  Cl  UNL A   1      30.169  25.803  26.864  1.00  0.00    -0.084 Cl
ATOM     27  C   UNL A   1      32.070  29.267  27.052  1.00  0.00     0.002 A 
ENDBRANCH   8  21
ENDBRANCH   3   6
ENDBRANCH   1   2
BRANCH   1  28
ATOM     28  C   UNL A   1      36.155  21.974  24.337  1.00  0.00     0.042 C 
BRANCH  28  29
ATOM     29  C   UNL A   1      36.783  21.937  25.721  1.00  0.00     0.118 C 
BRANCH  29  30
ATOM     30  N   UNL A   1      37.868  20.975  25.846  1.00  0.00    -0.352 N 
ATOM     31  C   UNL A   1      39.183  21.159  26.191  1.00  0.00     0.251 C 
ATOM     32  H   UNL A   1      37.618  20.042  25.652  1.00  0.00     0.163 HD
ATOM     33  O   UNL A   1      39.962  20.208  26.125  1.00  0.00    -0.269 OA
BRANCH  31  34
ATOM     34  C   UNL A   1      39.687  22.489  26.603  1.00  0.00     0.039 A 
ATOM     35  C   UNL A   1      40.642  22.553  27.621  1.00  0.00     0.014 A 
ATOM     36  C   UNL A   1      39.224  23.670  26.014  1.00  0.00     0.014 A 
ATOM     37  C   UNL A   1      41.174  23.786  28.001  1.00  0.00     0.010 A 
ATOM     38  C   UNL A   1      39.828  24.887  26.322  1.00  0.00     0.010 A 
ATOM     39  C   UNL A   1      40.802  24.962  27.328  1.00  0.00    -0.014 A 
BRANCH  39  40
ATOM     40  C   UNL A   1      41.426  26.266  27.674  1.00  0.00     0.031 A 
ATOM     41  C   UNL A   1      42.831  26.585  27.241  1.00  0.00     0.074 A 
ATOM     42  C   UNL A   1      40.731  27.156  28.410  1.00  0.00     0.049 A 
ATOM     43  N   UNL A   1      43.527  27.678  27.431  1.00  0.00    -0.248 NA
ATOM     44  C   UNL A   1      43.560  25.529  26.523  1.00  0.00     0.031 C 
ATOM     45  C   UNL A   1      39.385  26.943  28.944  1.00  0.00     0.029 A 
ATOM     46  N   UNL A   1      41.057  28.422  28.830  1.00  0.00    -0.354 N 
ATOM     47  C   UNL A   1      44.771  27.438  26.863  1.00  0.00     0.074 A 
ATOM     48  C   UNL A   1      44.760  26.074  26.382  1.00  0.00     0.031 C 
ATOM     49  C   UNL A   1      38.985  28.053  29.583  1.00  0.00     0.029 A 
ATOM     50  C   UNL A   1      40.056  29.043  29.535  1.00  0.00     0.049 A 
ATOM     51  H   UNL A   1      41.927  28.844  28.644  1.00  0.00     0.167 HD
ATOM     52  C   UNL A   1      45.819  28.287  26.727  1.00  0.00     0.037 A 
ATOM     53  C   UNL A   1      40.003  30.275  30.076  1.00  0.00     0.037 A 
ATOM     54  C   UNL A   1      45.823  29.648  27.195  1.00  0.00     0.049 A 
ATOM     55  C   UNL A   1      41.179  31.200  29.911  1.00  0.00     0.074 A 
ATOM     56  C   UNL A   1      46.813  30.605  27.059  1.00  0.00     0.029 A 
ATOM     57  N   UNL A   1      44.785  30.245  27.897  1.00  0.00    -0.354 N 
ATOM     58  N   UNL A   1      42.319  30.989  29.298  1.00  0.00    -0.248 NA
ATOM     59  C   UNL A   1      41.054  32.539  30.503  1.00  0.00     0.031 C 
ATOM     60  C   UNL A   1      46.398  31.763  27.727  1.00  0.00     0.029 A 
ATOM     61  C   UNL A   1      45.122  31.549  28.221  1.00  0.00     0.049 A 
ATOM     62  H   UNL A   1      43.935  29.806  28.131  1.00  0.00     0.167 HD
ATOM     63  C   UNL A   1      43.031  32.177  29.399  1.00  0.00     0.074 A 
ATOM     64  C   UNL A   1      42.188  33.108  30.121  1.00  0.00     0.031 C 
ATOM     65  C   UNL A   1      44.270  32.470  28.933  1.00  0.00     0.037 A 
BRANCH  52  66
ATOM     66  C   UNL A   1      47.050  27.764  26.040  1.00  0.00     0.064 A 
ATOM     67  C   UNL A   1      47.169  27.764  24.640  1.00  0.00     0.173 A 
ATOM     68  C   UNL A   1      48.135  27.284  26.787  1.00  0.00     0.173 A 
ATOM     69  F   UNL A   1      46.159  28.203  23.876  1.00  0.00    -0.203 F 
ATOM     70  C   UNL A   1      48.313  27.269  24.017  1.00  0.00     0.198 A 
ATOM     71  C   UNL A   1      49.291  26.823  26.162  1.00  0.00     0.198 A 
ATOM     72  F   UNL A   1      48.079  27.268  28.128  1.00  0.00    -0.203 F 
ATOM     73  F   UNL A   1      48.379  27.227  22.679  1.00  0.00    -0.200 F 
ATOM     74  C   UNL A   1      49.376  26.807  24.778  1.00  0.00     0.200 A 
ATOM     75  F   UNL A   1      50.324  26.391  26.899  1.00  0.00    -0.200 F 
ATOM     76  F   UNL A   1      50.477  26.338  24.177  1.00  0.00    -0.200 F 
ENDBRANCH  52  66
BRANCH  53  77
ATOM     77  C   UNL A   1      38.774  30.722  30.783  1.00  0.00     0.064 A 
ATOM     78  C   UNL A   1      38.659  30.604  32.175  1.00  0.00     0.173 A 
ATOM     79  C   UNL A   1      37.691  31.278  30.085  1.00  0.00     0.173 A 
ATOM     80  F   UNL A   1      39.661  30.061  32.885  1.00  0.00    -0.203 F 
ATOM     81  C   UNL A   1      37.503  31.004  32.840  1.00  0.00     0.198 A 
ATOM     82  C   UNL A   1      36.547  31.707  30.755  1.00  0.00     0.198 A 
ATOM     83  F   UNL A   1      37.752  31.420  28.753  1.00  0.00    -0.203 F 
ATOM     84  F   UNL A   1      37.403  30.836  34.166  1.00  0.00    -0.200 F 
ATOM     85  C   UNL A   1      36.450  31.561  32.131  1.00  0.00     0.200 A 
ATOM     86  F   UNL A   1      35.540  32.261  30.068  1.00  0.00    -0.200 F 
ATOM     87  F   UNL A   1      35.341  31.953  32.771  1.00  0.00    -0.200 F 
ENDBRANCH  53  77
BRANCH  65  88
ATOM     88  C   UNL A   1      44.773  33.870  29.145  1.00  0.00     0.064 A 
ATOM     89  C   UNL A   1      45.534  34.223  30.269  1.00  0.00     0.173 A 
ATOM     90  C   UNL A   1      44.509  34.867  28.192  1.00  0.00     0.173 A 
ATOM     91  F   UNL A   1      45.803  33.312  31.216  1.00  0.00    -0.203 F 
ATOM     92  C   UNL A   1      45.984  35.529  30.448  1.00  0.00     0.198 A 
ATOM     93  C   UNL A   1      44.990  36.163  28.358  1.00  0.00     0.198 A 
ATOM     94  F   UNL A   1      43.793  34.582  27.094  1.00  0.00    -0.203 F 
ATOM     95  F   UNL A   1      46.659  35.857  31.559  1.00  0.00    -0.200 F 
ATOM     96  C   UNL A   1      45.718  36.496  29.489  1.00  0.00     0.200 A 
ATOM     97  F   UNL A   1      44.746  37.091  27.421  1.00  0.00    -0.200 F 
ATOM     98  F   UNL A   1      46.155  37.751  29.662  1.00  0.00    -0.200 F 
ENDBRANCH  65  88
ENDBRANCH  39  40
ENDBRANCH  31  34
ENDBRANCH  29  30
ENDBRANCH  28  29
ENDBRANCH   1  28
TORSDOF 14
ENDMDL
