MODEL 1
REMARK VINA RESULT:     -14.8      0.000      0.000
REMARK SMILES O=C(Cc1c(C(=O)c2cc3c(cn2)CCCC3)[nH]c2cc(Cl)ccc12)NCCCNC(=O)c1ccc(-c2c3nc(c(-c4c(F)c(F)c(F)c(F)c4F)c4ccc([nH]4)c(-c4c(F)c(F)c(F)c(F)c4F)c4nc(c(-c5c(F)c(F)c(F)c(F)c5F)c5ccc2[nH]5)C=C4)C=C3)cc1
REMARK SMILES IDX 27 1 26 2 1 3 2 4 3 6 4 7 5 8 25 9 18 10 19 11 24 12 20 14
REMARK SMILES IDX 23 15 21 16 22 17 6 18 7 19 8 20 9 21 13 22 10 23 12 24
REMARK SMILES IDX 11 25 17 26 14 27 16 28 15 29 28 30 29 31 30 32 31 33 32 35
REMARK SMILES IDX 33 36 34 37 95 38 35 39 94 40 36 41 37 42 38 43 88 44 39 45
REMARK SMILES IDX 93 46 87 47 89 48 40 49 92 50 86 51 85 52 41 54 73 55 53 56
REMARK SMILES IDX 72 57 54 58 57 59 71 60 90 61 55 62 56 63 70 65 91 66 58 67
REMARK SMILES IDX 42 68 43 69 51 70 44 71 45 72 49 73 52 74 46 75 47 76 50 77
REMARK SMILES IDX 48 78 74 79 75 80 83 81 76 82 77 83 81 84 84 85 78 86 79 87
REMARK SMILES IDX 82 88 80 89 59 90 60 91 68 92 61 93 62 94 66 95 69 96 63 97
REMARK SMILES IDX 64 98 67 99 65 100
REMARK H PARENT 26 5 18 13 30 34 89 53 57 64
REMARK Flexibility Score: inf
ROOT
ATOM      1  C   UNL A   1      31.318  27.629  26.541  1.00  0.00     0.117 C 
ENDROOT
BRANCH   1   2
ATOM      2  N   UNL A   1      32.408  26.755  26.169  1.00  0.00    -0.356 N 
ATOM      3  O   UNL A   1      31.425  24.807  26.887  1.00  0.00    -0.275 OA
ATOM      4  C   UNL A   1      32.341  25.384  26.308  1.00  0.00     0.224 C 
ATOM      5  H   UNL A   1      33.229  27.154  25.802  1.00  0.00     0.163 HD
BRANCH   4   6
ATOM      6  C   UNL A   1      33.482  24.639  25.624  1.00  0.00     0.138 C 
BRANCH   6   7
ATOM      7  C   UNL A   1      32.994  23.907  24.403  1.00  0.00    -0.002 A 
ATOM      8  C   UNL A   1      32.562  24.470  23.198  1.00  0.00     0.093 A 
ATOM      9  C   UNL A   1      32.895  22.484  24.273  1.00  0.00     0.004 A 
ATOM     10  N   UNL A   1      32.198  23.423  22.379  1.00  0.00    -0.351 N 
ATOM     11  C   UNL A   1      32.385  22.215  23.006  1.00  0.00     0.048 A 
ATOM     12  C   UNL A   1      33.198  21.396  25.120  1.00  0.00     0.012 A 
ATOM     13  H   UNL A   1      31.850  23.527  21.465  1.00  0.00     0.167 HD
ATOM     14  C   UNL A   1      32.151  20.914  22.540  1.00  0.00     0.047 A 
ATOM     15  C   UNL A   1      32.987  20.087  24.668  1.00  0.00     0.021 A 
ATOM     16  C   UNL A   1      32.469  19.857  23.398  1.00  0.00     0.043 A 
ATOM     17  Cl  UNL A   1      32.215  18.239  22.865  1.00  0.00    -0.084 Cl
BRANCH   8  18
ATOM     18  C   UNL A   1      32.526  25.880  22.821  1.00  0.00     0.227 C 
ATOM     19  O   UNL A   1      33.533  26.491  22.458  1.00  0.00    -0.285 OA
BRANCH  18  20
ATOM     20  C   UNL A   1      31.246  26.639  22.921  1.00  0.00     0.113 A 
ATOM     21  C   UNL A   1      31.127  27.912  22.371  1.00  0.00     0.036 A 
ATOM     22  N   UNL A   1      30.230  25.991  23.541  1.00  0.00    -0.252 NA
ATOM     23  C   UNL A   1      29.902  28.578  22.483  1.00  0.00    -0.041 A 
ATOM     24  C   UNL A   1      29.055  26.649  23.627  1.00  0.00     0.115 A 
ATOM     25  C   UNL A   1      28.844  27.939  23.149  1.00  0.00    -0.026 A 
ATOM     26  C   UNL A   1      29.757  29.979  21.940  1.00  0.00     0.036 C 
ATOM     27  C   UNL A   1      27.491  28.580  23.295  1.00  0.00     0.037 C 
ATOM     28  C   UNL A   1      28.306  30.456  21.854  1.00  0.00     0.005 C 
ATOM     29  C   UNL A   1      27.541  30.096  23.122  1.00  0.00     0.005 C 
ENDBRANCH  18  20
ENDBRANCH   8  18
ENDBRANCH   6   7
ENDBRANCH   4   6
ENDBRANCH   1   2
BRANCH   1  30
ATOM     30  C   UNL A   1      31.781  28.890  27.258  1.00  0.00     0.042 C 
BRANCH  30  31
ATOM     31  C   UNL A   1      32.573  29.878  26.406  1.00  0.00     0.118 C 
BRANCH  31  32
ATOM     32  N   UNL A   1      32.354  31.279  26.739  1.00  0.00    -0.352 N 
ATOM     33  C   UNL A   1      33.212  32.159  27.366  1.00  0.00     0.251 C 
ATOM     34  H   UNL A   1      31.477  31.647  26.482  1.00  0.00     0.163 HD
ATOM     35  O   UNL A   1      32.857  33.303  27.620  1.00  0.00    -0.269 OA
BRANCH  33  36
ATOM     36  C   UNL A   1      34.552  31.687  27.793  1.00  0.00     0.039 A 
ATOM     37  C   UNL A   1      34.776  30.344  28.095  1.00  0.00     0.014 A 
ATOM     38  C   UNL A   1      35.585  32.618  27.944  1.00  0.00     0.014 A 
ATOM     39  C   UNL A   1      35.961  29.967  28.722  1.00  0.00     0.010 A 
ATOM     40  C   UNL A   1      36.807  32.221  28.500  1.00  0.00     0.010 A 
ATOM     41  C   UNL A   1      36.983  30.903  28.952  1.00  0.00    -0.014 A 
BRANCH  41  42
ATOM     42  C   UNL A   1      38.205  30.481  29.693  1.00  0.00     0.031 A 
ATOM     43  C   UNL A   1      38.423  30.896  31.125  1.00  0.00     0.074 A 
ATOM     44  C   UNL A   1      39.084  29.651  29.100  1.00  0.00     0.049 A 
ATOM     45  N   UNL A   1      39.386  30.553  31.947  1.00  0.00    -0.248 NA
ATOM     46  C   UNL A   1      37.439  31.816  31.716  1.00  0.00     0.031 C 
ATOM     47  C   UNL A   1      38.988  29.172  27.721  1.00  0.00     0.029 A 
ATOM     48  N   UNL A   1      40.208  29.031  29.589  1.00  0.00    -0.354 N 
ATOM     49  C   UNL A   1      39.129  31.220  33.138  1.00  0.00     0.074 A 
ATOM     50  C   UNL A   1      37.941  32.017  32.926  1.00  0.00     0.031 C 
ATOM     51  C   UNL A   1      39.968  28.287  27.494  1.00  0.00     0.029 A 
ATOM     52  C   UNL A   1      40.794  28.171  28.693  1.00  0.00     0.049 A 
ATOM     53  H   UNL A   1      40.560  29.190  30.495  1.00  0.00     0.167 HD
ATOM     54  C   UNL A   1      39.810  31.158  34.307  1.00  0.00     0.037 A 
ATOM     55  C   UNL A   1      41.871  27.374  28.820  1.00  0.00     0.037 A 
ATOM     56  C   UNL A   1      40.975  30.343  34.535  1.00  0.00     0.049 A 
ATOM     57  C   UNL A   1      42.626  27.349  30.119  1.00  0.00     0.074 A 
ATOM     58  C   UNL A   1      41.707  30.192  35.701  1.00  0.00     0.029 A 
ATOM     59  N   UNL A   1      41.575  29.538  33.579  1.00  0.00    -0.354 N 
ATOM     60  N   UNL A   1      42.359  27.971  31.241  1.00  0.00    -0.248 NA
ATOM     61  C   UNL A   1      43.838  26.519  30.166  1.00  0.00     0.031 C 
ATOM     62  C   UNL A   1      42.773  29.326  35.440  1.00  0.00     0.029 A 
ATOM     63  C   UNL A   1      42.681  28.906  34.123  1.00  0.00     0.049 A 
ATOM     64  H   UNL A   1      41.261  29.430  32.653  1.00  0.00     0.167 HD
ATOM     65  C   UNL A   1      43.361  27.604  32.127  1.00  0.00     0.074 A 
ATOM     66  C   UNL A   1      44.232  26.687  31.422  1.00  0.00     0.031 C 
ATOM     67  C   UNL A   1      43.545  27.999  33.410  1.00  0.00     0.037 A 
BRANCH  54  68
ATOM     68  C   UNL A   1      39.315  31.994  35.452  1.00  0.00     0.064 A 
ATOM     69  C   UNL A   1      38.437  31.473  36.413  1.00  0.00     0.173 A 
ATOM     70  C   UNL A   1      39.787  33.303  35.634  1.00  0.00     0.173 A 
ATOM     71  F   UNL A   1      37.951  30.230  36.280  1.00  0.00    -0.203 F 
ATOM     72  C   UNL A   1      38.039  32.237  37.507  1.00  0.00     0.198 A 
ATOM     73  C   UNL A   1      39.406  34.055  36.742  1.00  0.00     0.198 A 
ATOM     74  F   UNL A   1      40.636  33.845  34.748  1.00  0.00    -0.203 F 
ATOM     75  F   UNL A   1      37.178  31.728  38.400  1.00  0.00    -0.200 F 
ATOM     76  C   UNL A   1      38.531  33.523  37.676  1.00  0.00     0.200 A 
ATOM     77  F   UNL A   1      39.892  35.293  36.911  1.00  0.00    -0.200 F 
ATOM     78  F   UNL A   1      38.159  34.250  38.739  1.00  0.00    -0.200 F 
ENDBRANCH  54  68
BRANCH  55  79
ATOM     79  C   UNL A   1      42.284  26.517  27.680  1.00  0.00     0.064 A 
ATOM     80  C   UNL A   1      43.268  26.946  26.780  1.00  0.00     0.173 A 
ATOM     81  C   UNL A   1      41.728  25.244  27.486  1.00  0.00     0.173 A 
ATOM     82  F   UNL A   1      43.813  28.164  26.913  1.00  0.00    -0.203 F 
ATOM     83  C   UNL A   1      43.681  26.133  25.727  1.00  0.00     0.198 A 
ATOM     84  C   UNL A   1      42.159  24.423  26.448  1.00  0.00     0.198 A 
ATOM     85  F   UNL A   1      40.782  24.791  28.322  1.00  0.00    -0.203 F 
ATOM     86  F   UNL A   1      44.606  26.575  24.864  1.00  0.00    -0.200 F 
ATOM     87  C   UNL A   1      43.134  24.868  25.568  1.00  0.00     0.200 A 
ATOM     88  F   UNL A   1      41.637  23.197  26.307  1.00  0.00    -0.200 F 
ATOM     89  F   UNL A   1      43.542  24.081  24.564  1.00  0.00    -0.200 F 
ENDBRANCH  55  79
BRANCH  67  90
ATOM     90  C   UNL A   1      44.731  27.451  34.143  1.00  0.00     0.064 A 
ATOM     91  C   UNL A   1      45.949  28.145  34.176  1.00  0.00     0.173 A 
ATOM     92  C   UNL A   1      44.630  26.259  34.876  1.00  0.00     0.173 A 
ATOM     93  F   UNL A   1      46.097  29.281  33.479  1.00  0.00    -0.203 F 
ATOM     94  C   UNL A   1      47.027  27.660  34.912  1.00  0.00     0.198 A 
ATOM     95  C   UNL A   1      45.703  25.790  35.630  1.00  0.00     0.198 A 
ATOM     96  F   UNL A   1      43.485  25.562  34.880  1.00  0.00    -0.203 F 
ATOM     97  F   UNL A   1      48.191  28.325  34.909  1.00  0.00    -0.200 F 
ATOM     98  C   UNL A   1      46.901  26.490  35.644  1.00  0.00     0.200 A 
ATOM     99  F   UNL A   1      45.577  24.665  36.347  1.00  0.00    -0.200 F 
ATOM    100  F   UNL A   1      47.936  26.033  36.364  1.00  0.00    -0.200 F 
ENDBRANCH  67  90
ENDBRANCH  41  42
ENDBRANCH  33  36
ENDBRANCH  31  32
ENDBRANCH  30  31
ENDBRANCH   1  30
TORSDOF 13
ENDMDL
MODEL 2
REMARK VINA RESULT:     -14.7      4.214      9.792
REMARK SMILES O=C(Cc1c(C(=O)c2cc3c(cn2)CCCC3)[nH]c2cc(Cl)ccc12)NCCCNC(=O)c1ccc(-c2c3nc(c(-c4c(F)c(F)c(F)c(F)c4F)c4ccc([nH]4)c(-c4c(F)c(F)c(F)c(F)c4F)c4nc(c(-c5c(F)c(F)c(F)c(F)c5F)c5ccc2[nH]5)C=C4)C=C3)cc1
REMARK SMILES IDX 27 1 26 2 1 3 2 4 3 6 4 7 5 8 25 9 18 10 19 11 24 12 20 14
REMARK SMILES IDX 23 15 21 16 22 17 6 18 7 19 8 20 9 21 13 22 10 23 12 24
REMARK SMILES IDX 11 25 17 26 14 27 16 28 15 29 28 30 29 31 30 32 31 33 32 35
REMARK SMILES IDX 33 36 34 37 95 38 35 39 94 40 36 41 37 42 38 43 88 44 39 45
REMARK SMILES IDX 93 46 87 47 89 48 40 49 92 50 86 51 85 52 41 54 73 55 53 56
REMARK SMILES IDX 72 57 54 58 57 59 71 60 90 61 55 62 56 63 70 65 91 66 58 67
REMARK SMILES IDX 42 68 43 69 51 70 44 71 45 72 49 73 52 74 46 75 47 76 50 77
REMARK SMILES IDX 48 78 74 79 75 80 83 81 76 82 77 83 81 84 84 85 78 86 79 87
REMARK SMILES IDX 82 88 80 89 59 90 60 91 68 92 61 93 62 94 66 95 69 96 63 97
REMARK SMILES IDX 64 98 67 99 65 100
REMARK H PARENT 26 5 18 13 30 34 89 53 57 64
REMARK Flexibility Score: inf
ROOT
ATOM      1  C   UNL A   1      35.533  22.998  23.452  1.00  0.00     0.117 C 
ENDROOT
BRANCH   1   2
ATOM      2  N   UNL A   1      34.971  24.114  24.179  1.00  0.00    -0.356 N 
ATOM      3  O   UNL A   1      33.950  25.103  22.374  1.00  0.00    -0.275 OA
ATOM      4  C   UNL A   1      34.151  25.051  23.584  1.00  0.00     0.224 C 
ATOM      5  H   UNL A   1      35.181  24.208  25.136  1.00  0.00     0.163 HD
BRANCH   4   6
ATOM      6  C   UNL A   1      33.466  25.986  24.573  1.00  0.00     0.138 C 
BRANCH   6   7
ATOM      7  C   UNL A   1      31.981  25.743  24.608  1.00  0.00    -0.002 A 
ATOM      8  C   UNL A   1      31.323  24.613  25.103  1.00  0.00     0.093 A 
ATOM      9  C   UNL A   1      30.979  26.650  24.133  1.00  0.00     0.004 A 
ATOM     10  N   UNL A   1      29.974  24.825  24.915  1.00  0.00    -0.351 N 
ATOM     11  C   UNL A   1      29.741  26.044  24.327  1.00  0.00     0.048 A 
ATOM     12  C   UNL A   1      31.014  27.939  23.557  1.00  0.00     0.012 A 
ATOM     13  H   UNL A   1      29.270  24.186  25.169  1.00  0.00     0.167 HD
ATOM     14  C   UNL A   1      28.532  26.654  23.967  1.00  0.00     0.047 A 
ATOM     15  C   UNL A   1      29.815  28.572  23.205  1.00  0.00     0.021 A 
ATOM     16  C   UNL A   1      28.597  27.933  23.406  1.00  0.00     0.043 A 
ATOM     17  Cl  UNL A   1      27.136  28.730  22.962  1.00  0.00    -0.084 Cl
BRANCH   8  18
ATOM     18  C   UNL A   1      31.904  23.436  25.741  1.00  0.00     0.227 C 
ATOM     19  O   UNL A   1      32.306  23.448  26.906  1.00  0.00    -0.285 OA
BRANCH  18  20
ATOM     20  C   UNL A   1      32.074  22.178  24.956  1.00  0.00     0.113 A 
ATOM     21  C   UNL A   1      32.351  20.972  25.593  1.00  0.00     0.036 A 
ATOM     22  N   UNL A   1      31.906  22.299  23.617  1.00  0.00    -0.252 NA
ATOM     23  C   UNL A   1      32.491  19.819  24.812  1.00  0.00    -0.041 A 
ATOM     24  C   UNL A   1      32.035  21.172  22.887  1.00  0.00     0.115 A 
ATOM     25  C   UNL A   1      32.352  19.926  23.420  1.00  0.00    -0.026 A 
ATOM     26  C   UNL A   1      32.840  18.506  25.470  1.00  0.00     0.036 C 
ATOM     27  C   UNL A   1      32.469  18.731  22.513  1.00  0.00     0.037 C 
ATOM     28  C   UNL A   1      32.658  17.295  24.554  1.00  0.00     0.005 C 
ATOM     29  C   UNL A   1      33.222  17.574  23.166  1.00  0.00     0.005 C 
ENDBRANCH  18  20
ENDBRANCH   8  18
ENDBRANCH   6   7
ENDBRANCH   4   6
ENDBRANCH   1   2
BRANCH   1  30
ATOM     30  C   UNL A   1      35.788  21.780  24.330  1.00  0.00     0.042 C 
BRANCH  30  31
ATOM     31  C   UNL A   1      36.827  21.969  25.431  1.00  0.00     0.118 C 
BRANCH  31  32
ATOM     32  N   UNL A   1      37.873  20.956  25.459  1.00  0.00    -0.352 N 
ATOM     33  C   UNL A   1      39.150  21.052  25.976  1.00  0.00     0.251 C 
ATOM     34  H   UNL A   1      37.639  20.088  25.056  1.00  0.00     0.163 HD
ATOM     35  O   UNL A   1      39.934  20.117  25.877  1.00  0.00    -0.269 OA
BRANCH  33  36
ATOM     36  C   UNL A   1      39.588  22.326  26.597  1.00  0.00     0.039 A 
ATOM     37  C   UNL A   1      39.098  23.550  26.143  1.00  0.00     0.014 A 
ATOM     38  C   UNL A   1      40.547  22.291  27.615  1.00  0.00     0.014 A 
ATOM     39  C   UNL A   1      39.699  24.733  26.568  1.00  0.00     0.010 A 
ATOM     40  C   UNL A   1      41.093  23.486  28.100  1.00  0.00     0.010 A 
ATOM     41  C   UNL A   1      40.718  24.715  27.536  1.00  0.00    -0.014 A 
BRANCH  41  42
ATOM     42  C   UNL A   1      41.389  25.992  27.910  1.00  0.00     0.031 A 
ATOM     43  C   UNL A   1      42.781  26.305  27.426  1.00  0.00     0.074 A 
ATOM     44  C   UNL A   1      40.710  26.912  28.621  1.00  0.00     0.049 A 
ATOM     45  N   UNL A   1      43.485  27.399  27.585  1.00  0.00    -0.248 NA
ATOM     46  C   UNL A   1      43.480  25.256  26.665  1.00  0.00     0.031 C 
ATOM     47  C   UNL A   1      39.357  26.735  29.148  1.00  0.00     0.029 A 
ATOM     48  N   UNL A   1      41.047  28.190  28.993  1.00  0.00    -0.354 N 
ATOM     49  C   UNL A   1      44.703  27.167  26.959  1.00  0.00     0.074 A 
ATOM     50  C   UNL A   1      44.661  25.816  26.446  1.00  0.00     0.031 C 
ATOM     51  C   UNL A   1      38.954  27.880  29.715  1.00  0.00     0.029 A 
ATOM     52  C   UNL A   1      40.036  28.858  29.640  1.00  0.00     0.049 A 
ATOM     53  H   UNL A   1      41.929  28.589  28.814  1.00  0.00     0.167 HD
ATOM     54  C   UNL A   1      45.753  28.011  26.809  1.00  0.00     0.037 A 
ATOM     55  C   UNL A   1      39.981  30.116  30.116  1.00  0.00     0.037 A 
ATOM     56  C   UNL A   1      45.789  29.368  27.289  1.00  0.00     0.049 A 
ATOM     57  C   UNL A   1      41.171  31.020  29.962  1.00  0.00     0.074 A 
ATOM     58  C   UNL A   1      46.798  30.305  27.149  1.00  0.00     0.029 A 
ATOM     59  N   UNL A   1      44.768  29.982  27.998  1.00  0.00    -0.354 N 
ATOM     60  N   UNL A   1      42.308  30.791  29.351  1.00  0.00    -0.248 NA
ATOM     61  C   UNL A   1      41.076  32.353  30.573  1.00  0.00     0.031 C 
ATOM     62  C   UNL A   1      46.406  31.474  27.807  1.00  0.00     0.029 A 
ATOM     63  C   UNL A   1      45.134  31.279  28.322  1.00  0.00     0.049 A 
ATOM     64  H   UNL A   1      43.911  29.561  28.235  1.00  0.00     0.167 HD
ATOM     65  C   UNL A   1      43.058  31.949  29.497  1.00  0.00     0.074 A 
ATOM     66  C   UNL A   1      42.242  32.889  30.236  1.00  0.00     0.031 C 
ATOM     67  C   UNL A   1      44.316  32.204  29.063  1.00  0.00     0.037 A 
BRANCH  54  68
ATOM     68  C   UNL A   1      46.965  27.499  26.085  1.00  0.00     0.064 A 
ATOM     69  C   UNL A   1      47.105  27.647  24.698  1.00  0.00     0.173 A 
ATOM     70  C   UNL A   1      48.031  26.929  26.798  1.00  0.00     0.173 A 
ATOM     71  F   UNL A   1      46.112  28.179  23.971  1.00  0.00    -0.203 F 
ATOM     72  C   UNL A   1      48.265  27.231  24.049  1.00  0.00     0.198 A 
ATOM     73  C   UNL A   1      49.198  26.536  26.148  1.00  0.00     0.198 A 
ATOM     74  F   UNL A   1      47.949  26.774  28.127  1.00  0.00    -0.203 F 
ATOM     75  F   UNL A   1      48.368  27.357  22.718  1.00  0.00    -0.200 F 
ATOM     76  C   UNL A   1      49.313  26.683  24.774  1.00  0.00     0.200 A 
ATOM     77  F   UNL A   1      50.215  26.020  26.852  1.00  0.00    -0.200 F 
ATOM     78  F   UNL A   1      50.434  26.298  24.148  1.00  0.00    -0.200 F 
ENDBRANCH  54  68
BRANCH  55  79
ATOM     79  C   UNL A   1      38.736  30.596  30.767  1.00  0.00     0.064 A 
ATOM     80  C   UNL A   1      38.602  30.575  32.161  1.00  0.00     0.173 A 
ATOM     81  C   UNL A   1      37.673  31.114  30.014  1.00  0.00     0.173 A 
ATOM     82  F   UNL A   1      39.584  30.069  32.922  1.00  0.00    -0.203 F 
ATOM     83  C   UNL A   1      37.448  31.054  32.779  1.00  0.00     0.198 A 
ATOM     84  C   UNL A   1      36.531  31.615  30.633  1.00  0.00     0.198 A 
ATOM     85  F   UNL A   1      37.755  31.155  28.676  1.00  0.00    -0.203 F 
ATOM     86  F   UNL A   1      37.333  30.999  34.112  1.00  0.00    -0.200 F 
ATOM     87  C   UNL A   1      36.418  31.582  32.015  1.00  0.00     0.200 A 
ATOM     88  F   UNL A   1      35.544  32.137  29.892  1.00  0.00    -0.200 F 
ATOM     89  F   UNL A   1      35.316  32.055  32.610  1.00  0.00    -0.200 F 
ENDBRANCH  55  79
BRANCH  67  90
ATOM     90  C   UNL A   1      44.897  33.551  29.371  1.00  0.00     0.064 A 
ATOM     91  C   UNL A   1      45.674  33.760  30.520  1.00  0.00     0.173 A 
ATOM     92  C   UNL A   1      44.736  34.620  28.478  1.00  0.00     0.173 A 
ATOM     93  F   UNL A   1      45.843  32.772  31.409  1.00  0.00    -0.203 F 
ATOM     94  C   UNL A   1      46.263  34.998  30.766  1.00  0.00     0.198 A 
ATOM     95  C   UNL A   1      45.347  35.849  28.717  1.00  0.00     0.198 A 
ATOM     96  F   UNL A   1      44.007  34.467  27.363  1.00  0.00    -0.203 F 
ATOM     97  F   UNL A   1      46.980  35.185  31.883  1.00  0.00    -0.200 F 
ATOM     98  C   UNL A   1      46.107  36.036  29.861  1.00  0.00     0.200 A 
ATOM     99  F   UNL A   1      45.206  36.849  27.835  1.00  0.00    -0.200 F 
ATOM    100  F   UNL A   1      46.689  37.222  30.094  1.00  0.00    -0.200 F 
ENDBRANCH  67  90
ENDBRANCH  41  42
ENDBRANCH  33  36
ENDBRANCH  31  32
ENDBRANCH  30  31
ENDBRANCH   1  30
TORSDOF 13
ENDMDL
MODEL 3
REMARK VINA RESULT:     -14.4      0.283      7.151
REMARK SMILES O=C(Cc1c(C(=O)c2cc3c(cn2)CCCC3)[nH]c2cc(Cl)ccc12)NCCCNC(=O)c1ccc(-c2c3nc(c(-c4c(F)c(F)c(F)c(F)c4F)c4ccc([nH]4)c(-c4c(F)c(F)c(F)c(F)c4F)c4nc(c(-c5c(F)c(F)c(F)c(F)c5F)c5ccc2[nH]5)C=C4)C=C3)cc1
REMARK SMILES IDX 27 1 26 2 1 3 2 4 3 6 4 7 5 8 25 9 18 10 19 11 24 12 20 14
REMARK SMILES IDX 23 15 21 16 22 17 6 18 7 19 8 20 9 21 13 22 10 23 12 24
REMARK SMILES IDX 11 25 17 26 14 27 16 28 15 29 28 30 29 31 30 32 31 33 32 35
REMARK SMILES IDX 33 36 34 37 95 38 35 39 94 40 36 41 37 42 38 43 88 44 39 45
REMARK SMILES IDX 93 46 87 47 89 48 40 49 92 50 86 51 85 52 41 54 73 55 53 56
REMARK SMILES IDX 72 57 54 58 57 59 71 60 90 61 55 62 56 63 70 65 91 66 58 67
REMARK SMILES IDX 42 68 43 69 51 70 44 71 45 72 49 73 52 74 46 75 47 76 50 77
REMARK SMILES IDX 48 78 74 79 75 80 83 81 76 82 77 83 81 84 84 85 78 86 79 87
REMARK SMILES IDX 82 88 80 89 59 90 60 91 68 92 61 93 62 94 66 95 69 96 63 97
REMARK SMILES IDX 64 98 67 99 65 100
REMARK H PARENT 26 5 18 13 30 34 89 53 57 64
REMARK Flexibility Score: inf
ROOT
ATOM      1  C   UNL A   1      31.312  27.597  26.643  1.00  0.00     0.117 C 
ENDROOT
BRANCH   1   2
ATOM      2  N   UNL A   1      32.396  26.729  26.242  1.00  0.00    -0.356 N 
ATOM      3  O   UNL A   1      31.397  24.763  26.884  1.00  0.00    -0.275 OA
ATOM      4  C   UNL A   1      32.319  25.354  26.330  1.00  0.00     0.224 C 
ATOM      5  H   UNL A   1      33.222  27.135  25.892  1.00  0.00     0.163 HD
BRANCH   4   6
ATOM      6  C   UNL A   1      33.456  24.626  25.622  1.00  0.00     0.138 C 
BRANCH   6   7
ATOM      7  C   UNL A   1      32.960  23.915  24.392  1.00  0.00    -0.002 A 
ATOM      8  C   UNL A   1      32.531  24.498  23.196  1.00  0.00     0.093 A 
ATOM      9  C   UNL A   1      32.847  22.495  24.242  1.00  0.00     0.004 A 
ATOM     10  N   UNL A   1      32.156  23.466  22.363  1.00  0.00    -0.351 N 
ATOM     11  C   UNL A   1      32.333  22.248  22.973  1.00  0.00     0.048 A 
ATOM     12  C   UNL A   1      33.143  21.393  25.074  1.00  0.00     0.012 A 
ATOM     13  H   UNL A   1      31.807  23.586  21.451  1.00  0.00     0.167 HD
ATOM     14  C   UNL A   1      32.087  20.955  22.490  1.00  0.00     0.047 A 
ATOM     15  C   UNL A   1      32.919  20.092  24.605  1.00  0.00     0.021 A 
ATOM     16  C   UNL A   1      32.396  19.884  23.333  1.00  0.00     0.043 A 
ATOM     17  Cl  UNL A   1      32.127  18.276  22.779  1.00  0.00    -0.084 Cl
BRANCH   8  18
ATOM     18  C   UNL A   1      32.507  25.913  22.838  1.00  0.00     0.227 C 
ATOM     19  O   UNL A   1      33.521  26.524  22.497  1.00  0.00    -0.285 OA
BRANCH  18  20
ATOM     20  C   UNL A   1      31.228  26.677  22.931  1.00  0.00     0.113 A 
ATOM     21  C   UNL A   1      31.113  27.945  22.366  1.00  0.00     0.036 A 
ATOM     22  N   UNL A   1      30.212  26.040  23.559  1.00  0.00    -0.252 NA
ATOM     23  C   UNL A   1      29.890  28.616  22.472  1.00  0.00    -0.041 A 
ATOM     24  C   UNL A   1      29.039  26.702  23.639  1.00  0.00     0.115 A 
ATOM     25  C   UNL A   1      28.831  27.987  23.146  1.00  0.00    -0.026 A 
ATOM     26  C   UNL A   1      29.749  30.010  21.913  1.00  0.00     0.036 C 
ATOM     27  C   UNL A   1      27.480  28.633  23.286  1.00  0.00     0.037 C 
ATOM     28  C   UNL A   1      28.299  30.491  21.823  1.00  0.00     0.005 C 
ATOM     29  C   UNL A   1      27.534  30.147  23.095  1.00  0.00     0.005 C 
ENDBRANCH  18  20
ENDBRANCH   8  18
ENDBRANCH   6   7
ENDBRANCH   4   6
ENDBRANCH   1   2
BRANCH   1  30
ATOM     30  C   UNL A   1      31.790  28.908  27.252  1.00  0.00     0.042 C 
BRANCH  30  31
ATOM     31  C   UNL A   1      32.508  29.855  26.296  1.00  0.00     0.118 C 
BRANCH  31  32
ATOM     32  N   UNL A   1      32.362  31.268  26.616  1.00  0.00    -0.352 N 
ATOM     33  C   UNL A   1      33.236  32.090  27.300  1.00  0.00     0.251 C 
ATOM     34  H   UNL A   1      31.531  31.694  26.303  1.00  0.00     0.163 HD
ATOM     35  O   UNL A   1      32.942  33.256  27.532  1.00  0.00    -0.269 OA
BRANCH  33  36
ATOM     36  C   UNL A   1      34.510  31.530  27.812  1.00  0.00     0.039 A 
ATOM     37  C   UNL A   1      34.632  30.170  28.097  1.00  0.00     0.014 A 
ATOM     38  C   UNL A   1      35.582  32.394  28.060  1.00  0.00     0.014 A 
ATOM     39  C   UNL A   1      35.743  29.710  28.800  1.00  0.00     0.010 A 
ATOM     40  C   UNL A   1      36.733  31.913  28.694  1.00  0.00     0.010 A 
ATOM     41  C   UNL A   1      36.799  30.579  29.126  1.00  0.00    -0.014 A 
BRANCH  41  42
ATOM     42  C   UNL A   1      37.935  30.069  29.944  1.00  0.00     0.031 A 
ATOM     43  C   UNL A   1      38.967  29.149  29.345  1.00  0.00     0.074 A 
ATOM     44  C   UNL A   1      38.085  30.502  31.210  1.00  0.00     0.049 A 
ATOM     45  N   UNL A   1      40.064  28.675  29.885  1.00  0.00    -0.248 NA
ATOM     46  C   UNL A   1      38.743  28.697  27.963  1.00  0.00     0.031 C 
ATOM     47  C   UNL A   1      37.159  31.395  31.907  1.00  0.00     0.029 A 
ATOM     48  N   UNL A   1      39.086  30.282  32.124  1.00  0.00    -0.354 N 
ATOM     49  C   UNL A   1      40.650  27.867  28.919  1.00  0.00     0.074 A 
ATOM     50  C   UNL A   1      39.772  27.883  27.770  1.00  0.00     0.031 C 
ATOM     51  C   UNL A   1      37.665  31.700  33.110  1.00  0.00     0.029 A 
ATOM     52  C   UNL A   1      38.926  30.985  33.293  1.00  0.00     0.049 A 
ATOM     53  H   UNL A   1      39.845  29.678  31.956  1.00  0.00     0.167 HD
ATOM     54  C   UNL A   1      41.822  27.190  28.977  1.00  0.00     0.037 A 
ATOM     55  C   UNL A   1      39.705  31.053  34.388  1.00  0.00     0.037 A 
ATOM     56  C   UNL A   1      42.716  27.196  30.106  1.00  0.00     0.049 A 
ATOM     57  C   UNL A   1      40.985  30.267  34.438  1.00  0.00     0.074 A 
ATOM     58  C   UNL A   1      43.942  26.566  30.237  1.00  0.00     0.029 A 
ATOM     59  N   UNL A   1      42.482  27.867  31.296  1.00  0.00    -0.354 N 
ATOM     60  N   UNL A   1      41.532  29.523  33.509  1.00  0.00    -0.248 NA
ATOM     61  C   UNL A   1      41.749  30.320  35.693  1.00  0.00     0.031 C 
ATOM     62  C   UNL A   1      44.432  26.824  31.521  1.00  0.00     0.029 A 
ATOM     63  C   UNL A   1      43.530  27.648  32.174  1.00  0.00     0.049 A 
ATOM     64  H   UNL A   1      41.689  28.418  31.488  1.00  0.00     0.167 HD
ATOM     65  C   UNL A   1      42.705  29.027  34.060  1.00  0.00     0.074 A 
ATOM     66  C   UNL A   1      42.803  29.571  35.399  1.00  0.00     0.031 C 
ATOM     67  C   UNL A   1      43.615  28.190  33.507  1.00  0.00     0.037 A 
BRANCH  54  68
ATOM     68  C   UNL A   1      42.223  26.379  27.779  1.00  0.00     0.064 A 
ATOM     69  C   UNL A   1      43.133  26.873  26.833  1.00  0.00     0.173 A 
ATOM     70  C   UNL A   1      41.756  25.065  27.620  1.00  0.00     0.173 A 
ATOM     71  F   UNL A   1      43.602  28.125  26.937  1.00  0.00    -0.203 F 
ATOM     72  C   UNL A   1      43.550  26.084  25.763  1.00  0.00     0.198 A 
ATOM     73  C   UNL A   1      42.194  24.272  26.563  1.00  0.00     0.198 A 
ATOM     74  F   UNL A   1      40.892  24.543  28.503  1.00  0.00    -0.203 F 
ATOM     75  F   UNL A   1      44.399  26.585  24.856  1.00  0.00    -0.200 F 
ATOM     76  C   UNL A   1      43.087  24.783  25.634  1.00  0.00     0.200 A 
ATOM     77  F   UNL A   1      41.757  23.010  26.446  1.00  0.00    -0.200 F 
ATOM     78  F   UNL A   1      43.503  24.021  24.612  1.00  0.00    -0.200 F 
ENDBRANCH  54  68
BRANCH  55  79
ATOM     79  C   UNL A   1      39.296  31.919  35.522  1.00  0.00     0.064 A 
ATOM     80  C   UNL A   1      39.728  33.250  35.601  1.00  0.00     0.173 A 
ATOM     81  C   UNL A   1      38.443  31.447  36.530  1.00  0.00     0.173 A 
ATOM     82  F   UNL A   1      40.562  33.739  34.671  1.00  0.00    -0.203 F 
ATOM     83  C   UNL A   1      39.322  34.076  36.646  1.00  0.00     0.198 A 
ATOM     84  C   UNL A   1      38.018  32.280  37.561  1.00  0.00     0.198 A 
ATOM     85  F   UNL A   1      38.004  30.180  36.498  1.00  0.00    -0.203 F 
ATOM     86  F   UNL A   1      39.769  35.337  36.713  1.00  0.00    -0.200 F 
ATOM     87  C   UNL A   1      38.460  33.594  37.620  1.00  0.00     0.200 A 
ATOM     88  F   UNL A   1      37.175  31.814  38.491  1.00  0.00    -0.200 F 
ATOM     89  F   UNL A   1      38.059  34.393  38.617  1.00  0.00    -0.200 F 
ENDBRANCH  55  79
BRANCH  67  90
ATOM     90  C   UNL A   1      44.799  27.801  34.340  1.00  0.00     0.064 A 
ATOM     91  C   UNL A   1      44.785  26.638  35.123  1.00  0.00     0.173 A 
ATOM     92  C   UNL A   1      45.979  28.557  34.301  1.00  0.00     0.173 A 
ATOM     93  F   UNL A   1      43.674  25.891  35.202  1.00  0.00    -0.203 F 
ATOM     94  C   UNL A   1      45.911  26.250  35.843  1.00  0.00     0.198 A 
ATOM     95  C   UNL A   1      47.111  28.153  35.004  1.00  0.00     0.198 A 
ATOM     96  F   UNL A   1      46.043  29.675  33.562  1.00  0.00    -0.203 F 
ATOM     97  F   UNL A   1      45.870  25.148  36.606  1.00  0.00    -0.200 F 
ATOM     98  C   UNL A   1      47.074  27.001  35.776  1.00  0.00     0.200 A 
ATOM     99  F   UNL A   1      48.239  28.873  34.929  1.00  0.00    -0.200 F 
ATOM    100  F   UNL A   1      48.163  26.617  36.460  1.00  0.00    -0.200 F 
ENDBRANCH  67  90
ENDBRANCH  41  42
ENDBRANCH  33  36
ENDBRANCH  31  32
ENDBRANCH  30  31
ENDBRANCH   1  30
TORSDOF 13
ENDMDL
