MODEL 1
REMARK VINA RESULT:     -13.9      0.000      0.000
REMARK SMILES O=C(NCCCNC(=O)[C@H]1Cc2c([nH]c3ccccc23)[C@@H](c2ccc(OC(F)(F)F)cc2)[NH2+]1)c1ccc(-c2c3nc(c(-c4c(F)c(F)c(F)c(F)c4F)c4ccc([nH]4)c(-c4c(F)c(F)c(F)c(F)c4F)c4nc(c(-c5c(F)c(F)c(F)c(F)c5F)c5ccc2[nH]5)C=C4)C=C3)cc1
REMARK SMILES IDX 5 1 4 2 3 3 1 4 2 5 34 7 35 8 96 9 36 10 95 11 37 12 38 13
REMARK SMILES IDX 39 14 89 15 40 16 94 17 88 18 90 19 41 20 93 21 87 22 86 23
REMARK SMILES IDX 42 25 74 26 54 27 73 28 55 29 58 30 72 31 91 32 56 33 57 34
REMARK SMILES IDX 71 36 92 37 59 38 43 39 44 40 52 41 45 42 46 43 50 44 53 45
REMARK SMILES IDX 47 46 48 47 51 48 49 49 75 50 76 51 84 52 77 53 78 54 82 55
REMARK SMILES IDX 85 56 79 57 80 58 83 59 81 60 60 61 61 62 69 63 62 64 63 65
REMARK SMILES IDX 67 66 70 67 64 68 65 69 68 70 66 71 6 72 7 73 8 74 9 76
REMARK SMILES IDX 10 77 11 78 33 79 12 80 21 81 13 84 20 85 14 86 15 87 19 88
REMARK SMILES IDX 16 90 18 91 17 92 22 93 23 94 32 95 24 96 31 97 25 98 26 99
REMARK SMILES IDX 27 100 28 101 29 102 30 103
REMARK H PARENT 3 6 90 24 58 35 7 75 33 82 33 83 14 89
REMARK Flexibility Score: inf
ROOT
ATOM      1  C   UNL A   1      35.394  21.640  26.124  1.00  0.00     0.042 C 
ENDROOT
BRANCH   1   2
ATOM      2  C   UNL A   1      36.755  22.254  25.839  1.00  0.00     0.118 C 
BRANCH   2   3
ATOM      3  N   UNL A   1      37.819  21.270  26.012  1.00  0.00    -0.352 N 
ATOM      4  O   UNL A   1      39.948  20.541  26.027  1.00  0.00    -0.269 OA
ATOM      5  C   UNL A   1      39.160  21.458  26.223  1.00  0.00     0.251 C 
ATOM      6  H   UNL A   1      37.531  20.329  25.970  1.00  0.00     0.163 HD
BRANCH   5   7
ATOM      7  C   UNL A   1      39.644  22.762  26.714  1.00  0.00     0.039 A 
ATOM      8  C   UNL A   1      40.634  22.812  27.699  1.00  0.00     0.014 A 
ATOM      9  C   UNL A   1      39.167  23.938  26.130  1.00  0.00     0.014 A 
ATOM     10  C   UNL A   1      41.069  24.034  28.181  1.00  0.00     0.010 A 
ATOM     11  C   UNL A   1      39.685  25.167  26.540  1.00  0.00     0.010 A 
ATOM     12  C   UNL A   1      40.642  25.219  27.565  1.00  0.00    -0.014 A 
BRANCH  12  13
ATOM     13  C   UNL A   1      41.339  26.478  27.903  1.00  0.00     0.031 A 
ATOM     14  C   UNL A   1      40.649  27.569  28.658  1.00  0.00     0.074 A 
ATOM     15  C   UNL A   1      42.620  26.605  27.503  1.00  0.00     0.049 A 
ATOM     16  N   UNL A   1      41.114  28.742  29.004  1.00  0.00    -0.248 NA
ATOM     17  C   UNL A   1      39.260  27.325  29.074  1.00  0.00     0.031 C 
ATOM     18  C   UNL A   1      43.368  25.596  26.743  1.00  0.00     0.029 A 
ATOM     19  N   UNL A   1      43.523  27.620  27.679  1.00  0.00    -0.354 N 
ATOM     20  C   UNL A   1      40.071  29.385  29.655  1.00  0.00     0.074 A 
ATOM     21  C   UNL A   1      38.943  28.478  29.650  1.00  0.00     0.031 C 
ATOM     22  C   UNL A   1      44.619  26.029  26.545  1.00  0.00     0.029 A 
ATOM     23  C   UNL A   1      44.740  27.373  27.092  1.00  0.00     0.049 A 
ATOM     24  H   UNL A   1      43.321  28.444  28.176  1.00  0.00     0.167 HD
ATOM     25  C   UNL A   1      40.071  30.623  30.201  1.00  0.00     0.037 A 
ATOM     26  C   UNL A   1      45.822  28.161  26.968  1.00  0.00     0.037 A 
ATOM     27  C   UNL A   1      41.217  31.496  30.217  1.00  0.00     0.049 A 
ATOM     28  C   UNL A   1      45.772  29.539  27.561  1.00  0.00     0.074 A 
ATOM     29  C   UNL A   1      41.347  32.733  30.823  1.00  0.00     0.029 A 
ATOM     30  N   UNL A   1      42.424  31.228  29.588  1.00  0.00    -0.354 N 
ATOM     31  N   UNL A   1      44.804  30.111  28.235  1.00  0.00    -0.248 NA
ATOM     32  C   UNL A   1      46.954  30.387  27.365  1.00  0.00     0.031 C 
ATOM     33  C   UNL A   1      42.612  33.241  30.508  1.00  0.00     0.029 A 
ATOM     34  C   UNL A   1      43.288  32.299  29.749  1.00  0.00     0.049 A 
ATOM     35  H   UNL A   1      42.636  30.399  29.099  1.00  0.00     0.167 HD
ATOM     36  C   UNL A   1      45.259  31.381  28.546  1.00  0.00     0.074 A 
ATOM     37  C   UNL A   1      46.604  31.485  28.017  1.00  0.00     0.031 C 
ATOM     38  C   UNL A   1      44.618  32.379  29.202  1.00  0.00     0.037 A 
BRANCH  25  39
ATOM     39  C   UNL A   1      38.799  31.133  30.809  1.00  0.00     0.064 A 
ATOM     40  C   UNL A   1      38.490  30.928  32.161  1.00  0.00     0.173 A 
ATOM     41  C   UNL A   1      37.924  31.924  30.048  1.00  0.00     0.173 A 
ATOM     42  F   UNL A   1      39.288  30.172  32.929  1.00  0.00    -0.203 F 
ATOM     43  C   UNL A   1      37.349  31.493  32.727  1.00  0.00     0.198 A 
ATOM     44  C   UNL A   1      36.797  32.505  30.622  1.00  0.00     0.198 A 
ATOM     45  F   UNL A   1      38.177  32.152  28.750  1.00  0.00    -0.203 F 
ATOM     46  F   UNL A   1      37.062  31.270  34.017  1.00  0.00    -0.200 F 
ATOM     47  C   UNL A   1      36.511  32.291  31.961  1.00  0.00     0.200 A 
ATOM     48  F   UNL A   1      35.996  33.285  29.883  1.00  0.00    -0.200 F 
ATOM     49  F   UNL A   1      35.427  32.851  32.514  1.00  0.00    -0.200 F 
ENDBRANCH  25  39
BRANCH  26  50
ATOM     50  C   UNL A   1      47.007  27.685  26.208  1.00  0.00     0.064 A 
ATOM     51  C   UNL A   1      47.053  27.763  24.810  1.00  0.00     0.173 A 
ATOM     52  C   UNL A   1      48.118  27.136  26.868  1.00  0.00     0.173 A 
ATOM     53  F   UNL A   1      46.009  28.265  24.133  1.00  0.00    -0.203 F 
ATOM     54  C   UNL A   1      48.154  27.288  24.101  1.00  0.00     0.198 A 
ATOM     55  C   UNL A   1      49.232  26.695  26.160  1.00  0.00     0.198 A 
ATOM     56  F   UNL A   1      48.128  27.044  28.206  1.00  0.00    -0.203 F 
ATOM     57  F   UNL A   1      48.150  27.328  22.761  1.00  0.00    -0.200 F 
ATOM     58  C   UNL A   1      49.245  26.761  24.775  1.00  0.00     0.200 A 
ATOM     59  F   UNL A   1      50.291  26.205  26.818  1.00  0.00    -0.200 F 
ATOM     60  F   UNL A   1      50.303  26.308  24.091  1.00  0.00    -0.200 F 
ENDBRANCH  26  50
BRANCH  38  61
ATOM     61  C   UNL A   1      45.367  33.665  29.376  1.00  0.00     0.064 A 
ATOM     62  C   UNL A   1      45.247  34.707  28.445  1.00  0.00     0.173 A 
ATOM     63  C   UNL A   1      46.182  33.870  30.498  1.00  0.00     0.173 A 
ATOM     64  F   UNL A   1      44.494  34.548  27.346  1.00  0.00    -0.203 F 
ATOM     65  C   UNL A   1      45.932  35.905  28.623  1.00  0.00     0.198 A 
ATOM     66  C   UNL A   1      46.842  35.080  30.687  1.00  0.00     0.198 A 
ATOM     67  F   UNL A   1      46.326  32.903  31.416  1.00  0.00    -0.203 F 
ATOM     68  F   UNL A   1      45.840  36.871  27.700  1.00  0.00    -0.200 F 
ATOM     69  C   UNL A   1      46.723  36.093  29.748  1.00  0.00     0.200 A 
ATOM     70  F   UNL A   1      47.595  35.266  31.780  1.00  0.00    -0.200 F 
ATOM     71  F   UNL A   1      47.374  37.251  29.922  1.00  0.00    -0.200 F 
ENDBRANCH  38  61
ENDBRANCH  12  13
ENDBRANCH   5   7
ENDBRANCH   2   3
ENDBRANCH   1   2
BRANCH   1  72
ATOM     72  C   UNL A   1      34.309  22.708  26.131  1.00  0.00     0.118 C 
BRANCH  72  73
ATOM     73  N   UNL A   1      34.020  23.173  24.788  1.00  0.00    -0.351 N 
ATOM     74  C   UNL A   1      33.411  24.268  24.271  1.00  0.00     0.278 C 
ATOM     75  H   UNL A   1      34.338  22.552  24.094  1.00  0.00     0.163 HD
ATOM     76  O   UNL A   1      33.302  24.275  23.034  1.00  0.00    -0.268 OA
BRANCH  74  77
ATOM     77  C   UNL A   1      32.930  25.507  25.061  1.00  0.00     0.277 C 
ATOM     78  C   UNL A   1      33.979  26.560  25.409  1.00  0.00     0.114 C 
ATOM     79  N   UNL A   1      31.813  26.105  24.283  1.00  0.00    -0.325 N 
ATOM     80  C   UNL A   1      33.348  27.729  26.049  1.00  0.00    -0.006 A 
ATOM     81  C   UNL A   1      31.085  27.208  24.950  1.00  0.00     0.262 C 
ATOM     82  H   UNL A   1      31.143  25.365  24.077  1.00  0.00     0.347 HD
ATOM     83  H   UNL A   1      32.242  26.517  23.453  1.00  0.00     0.347 HD
ATOM     84  C   UNL A   1      32.020  28.016  25.816  1.00  0.00     0.083 A 
ATOM     85  C   UNL A   1      33.937  28.809  26.737  1.00  0.00     0.003 A 
ATOM     86  N   UNL A   1      31.743  29.187  26.479  1.00  0.00    -0.353 N 
ATOM     87  C   UNL A   1      32.919  29.735  26.964  1.00  0.00     0.046 A 
ATOM     88  C   UNL A   1      35.258  29.117  27.114  1.00  0.00     0.010 A 
ATOM     89  H   UNL A   1      30.846  29.577  26.592  1.00  0.00     0.166 HD
ATOM     90  C   UNL A   1      33.175  30.981  27.551  1.00  0.00     0.026 A 
ATOM     91  C   UNL A   1      35.528  30.359  27.688  1.00  0.00     0.001 A 
ATOM     92  C   UNL A   1      34.501  31.277  27.896  1.00  0.00     0.002 A 
BRANCH  81  93
ATOM     93  C   UNL A   1      30.388  28.001  23.842  1.00  0.00     0.016 A 
ATOM     94  C   UNL A   1      28.994  28.022  23.677  1.00  0.00     0.014 A 
ATOM     95  C   UNL A   1      31.151  28.850  23.019  1.00  0.00     0.014 A 
ATOM     96  C   UNL A   1      28.398  28.817  22.695  1.00  0.00     0.047 A 
ATOM     97  C   UNL A   1      30.548  29.675  22.059  1.00  0.00     0.047 A 
ATOM     98  C   UNL A   1      29.167  29.655  21.886  1.00  0.00     0.129 A 
BRANCH  98  99
ATOM     99  O   UNL A   1      28.444  30.385  20.988  1.00  0.00    -0.406 OA
BRANCH  99 100
ATOM    100  C   UNL A   1      28.077  31.703  21.351  1.00  0.00     0.573 C 
ATOM    101  F   UNL A   1      27.276  31.706  22.437  1.00  0.00    -0.132 F 
ATOM    102  F   UNL A   1      29.166  32.467  21.589  1.00  0.00    -0.132 F 
ATOM    103  F   UNL A   1      27.396  32.259  20.323  1.00  0.00    -0.132 F 
ENDBRANCH  99 100
ENDBRANCH  98  99
ENDBRANCH  81  93
ENDBRANCH  74  77
ENDBRANCH  72  73
ENDBRANCH   1  72
TORSDOF 13
ENDMDL
MODEL 2
REMARK VINA RESULT:     -13.9      5.114      8.098
REMARK SMILES O=C(NCCCNC(=O)[C@H]1Cc2c([nH]c3ccccc23)[C@@H](c2ccc(OC(F)(F)F)cc2)[NH2+]1)c1ccc(-c2c3nc(c(-c4c(F)c(F)c(F)c(F)c4F)c4ccc([nH]4)c(-c4c(F)c(F)c(F)c(F)c4F)c4nc(c(-c5c(F)c(F)c(F)c(F)c5F)c5ccc2[nH]5)C=C4)C=C3)cc1
REMARK SMILES IDX 5 1 4 2 3 3 1 4 2 5 34 7 35 8 96 9 36 10 95 11 37 12 38 13
REMARK SMILES IDX 39 14 89 15 40 16 94 17 88 18 90 19 41 20 93 21 87 22 86 23
REMARK SMILES IDX 42 25 74 26 54 27 73 28 55 29 58 30 72 31 91 32 56 33 57 34
REMARK SMILES IDX 71 36 92 37 59 38 43 39 44 40 52 41 45 42 46 43 50 44 53 45
REMARK SMILES IDX 47 46 48 47 51 48 49 49 75 50 76 51 84 52 77 53 78 54 82 55
REMARK SMILES IDX 85 56 79 57 80 58 83 59 81 60 60 61 61 62 69 63 62 64 63 65
REMARK SMILES IDX 67 66 70 67 64 68 65 69 68 70 66 71 6 72 7 73 8 74 9 76
REMARK SMILES IDX 10 77 11 78 33 79 12 80 21 81 13 84 20 85 14 86 15 87 19 88
REMARK SMILES IDX 16 90 18 91 17 92 22 93 23 94 32 95 24 96 31 97 25 98 26 99
REMARK SMILES IDX 27 100 28 101 29 102 30 103
REMARK H PARENT 3 6 90 24 58 35 7 75 33 82 33 83 14 89
REMARK Flexibility Score: inf
ROOT
ATOM      1  C   UNL A   1      32.881  29.328  24.505  1.00  0.00     0.042 C 
ENDROOT
BRANCH   1   2
ATOM      2  C   UNL A   1      33.234  29.545  25.967  1.00  0.00     0.118 C 
BRANCH   2   3
ATOM      3  N   UNL A   1      33.122  30.955  26.329  1.00  0.00    -0.352 N 
ATOM      4  O   UNL A   1      33.317  32.740  27.684  1.00  0.00    -0.269 OA
ATOM      5  C   UNL A   1      33.760  31.659  27.315  1.00  0.00     0.251 C 
ATOM      6  H   UNL A   1      32.491  31.478  25.782  1.00  0.00     0.163 HD
BRANCH   5   7
ATOM      7  C   UNL A   1      34.998  31.122  27.910  1.00  0.00     0.039 A 
ATOM      8  C   UNL A   1      36.107  31.954  28.082  1.00  0.00     0.014 A 
ATOM      9  C   UNL A   1      35.023  29.804  28.373  1.00  0.00     0.014 A 
ATOM     10  C   UNL A   1      37.279  31.444  28.613  1.00  0.00     0.010 A 
ATOM     11  C   UNL A   1      36.169  29.322  29.008  1.00  0.00     0.010 A 
ATOM     12  C   UNL A   1      37.299  30.143  29.134  1.00  0.00    -0.014 A 
BRANCH  12  13
ATOM     13  C   UNL A   1      38.461  29.730  29.950  1.00  0.00     0.031 A 
ATOM     14  C   UNL A   1      38.673  30.267  31.329  1.00  0.00     0.074 A 
ATOM     15  C   UNL A   1      39.324  28.851  29.401  1.00  0.00     0.049 A 
ATOM     16  N   UNL A   1      39.657  30.026  32.157  1.00  0.00    -0.248 NA
ATOM     17  C   UNL A   1      37.663  31.201  31.850  1.00  0.00     0.031 C 
ATOM     18  C   UNL A   1      39.206  28.288  28.050  1.00  0.00     0.029 A 
ATOM     19  N   UNL A   1      40.459  28.270  29.900  1.00  0.00    -0.354 N 
ATOM     20  C   UNL A   1      39.399  30.792  33.284  1.00  0.00     0.074 A 
ATOM     21  C   UNL A   1      38.171  31.517  33.034  1.00  0.00     0.031 C 
ATOM     22  C   UNL A   1      40.207  27.425  27.841  1.00  0.00     0.029 A 
ATOM     23  C   UNL A   1      41.080  27.431  29.007  1.00  0.00     0.049 A 
ATOM     24  H   UNL A   1      40.798  28.438  30.809  1.00  0.00     0.167 HD
ATOM     25  C   UNL A   1      40.133  30.875  34.418  1.00  0.00     0.037 A 
ATOM     26  C   UNL A   1      42.248  26.773  29.099  1.00  0.00     0.037 A 
ATOM     27  C   UNL A   1      41.338  30.121  34.653  1.00  0.00     0.049 A 
ATOM     28  C   UNL A   1      43.049  26.914  30.360  1.00  0.00     0.074 A 
ATOM     29  C   UNL A   1      42.107  30.065  35.802  1.00  0.00     0.029 A 
ATOM     30  N   UNL A   1      41.955  29.304  33.717  1.00  0.00    -0.354 N 
ATOM     31  N   UNL A   1      42.760  27.588  31.447  1.00  0.00    -0.248 NA
ATOM     32  C   UNL A   1      44.340  26.219  30.406  1.00  0.00     0.031 C 
ATOM     33  C   UNL A   1      43.223  29.263  35.540  1.00  0.00     0.029 A 
ATOM     34  C   UNL A   1      43.122  28.778  34.246  1.00  0.00     0.049 A 
ATOM     35  H   UNL A   1      41.614  29.124  32.810  1.00  0.00     0.167 HD
ATOM     36  C   UNL A   1      43.830  27.396  32.306  1.00  0.00     0.074 A 
ATOM     37  C   UNL A   1      44.759  26.515  31.627  1.00  0.00     0.031 C 
ATOM     38  C   UNL A   1      44.033  27.912  33.543  1.00  0.00     0.037 A 
BRANCH  25  39
ATOM     39  C   UNL A   1      39.683  31.820  35.490  1.00  0.00     0.064 A 
ATOM     40  C   UNL A   1      40.175  33.130  35.580  1.00  0.00     0.173 A 
ATOM     41  C   UNL A   1      38.668  31.438  36.382  1.00  0.00     0.173 A 
ATOM     42  F   UNL A   1      41.152  33.541  34.758  1.00  0.00    -0.203 F 
ATOM     43  C   UNL A   1      39.671  34.021  36.525  1.00  0.00     0.198 A 
ATOM     44  C   UNL A   1      38.151  32.338  37.309  1.00  0.00     0.198 A 
ATOM     45  F   UNL A   1      38.160  30.198  36.335  1.00  0.00    -0.203 F 
ATOM     46  F   UNL A   1      40.169  35.263  36.605  1.00  0.00    -0.200 F 
ATOM     47  C   UNL A   1      38.652  33.628  37.380  1.00  0.00     0.200 A 
ATOM     48  F   UNL A   1      37.157  31.960  38.127  1.00  0.00    -0.200 F 
ATOM     49  F   UNL A   1      38.153  34.495  38.272  1.00  0.00    -0.200 F 
ENDBRANCH  25  39
BRANCH  26  50
ATOM     50  C   UNL A   1      42.748  25.979  27.946  1.00  0.00     0.064 A 
ATOM     51  C   UNL A   1      42.448  24.617  27.818  1.00  0.00     0.173 A 
ATOM     52  C   UNL A   1      43.544  26.568  26.951  1.00  0.00     0.173 A 
ATOM     53  F   UNL A   1      41.704  24.004  28.751  1.00  0.00    -0.203 F 
ATOM     54  C   UNL A   1      42.943  23.870  26.751  1.00  0.00     0.198 A 
ATOM     55  C   UNL A   1      44.009  25.830  25.868  1.00  0.00     0.198 A 
ATOM     56  F   UNL A   1      43.856  27.871  27.024  1.00  0.00    -0.203 F 
ATOM     57  F   UNL A   1      42.683  22.558  26.679  1.00  0.00    -0.200 F 
ATOM     58  C   UNL A   1      43.718  24.478  25.773  1.00  0.00     0.200 A 
ATOM     59  F   UNL A   1      44.740  26.427  24.916  1.00  0.00    -0.200 F 
ATOM     60  F   UNL A   1      44.190  23.759  24.747  1.00  0.00    -0.200 F 
ENDBRANCH  26  50
BRANCH  38  61
ATOM     61  C   UNL A   1      45.309  27.535  34.231  1.00  0.00     0.064 A 
ATOM     62  C   UNL A   1      45.396  26.377  35.018  1.00  0.00     0.173 A 
ATOM     63  C   UNL A   1      46.462  28.317  34.076  1.00  0.00     0.173 A 
ATOM     64  F   UNL A   1      44.313  25.609  35.212  1.00  0.00    -0.203 F 
ATOM     65  C   UNL A   1      46.590  26.025  35.640  1.00  0.00     0.198 A 
ATOM     66  C   UNL A   1      47.662  27.945  34.675  1.00  0.00     0.198 A 
ATOM     67  F   UNL A   1      46.428  29.432  33.331  1.00  0.00    -0.203 F 
ATOM     68  F   UNL A   1      46.641  24.939  36.423  1.00  0.00    -0.200 F 
ATOM     69  C   UNL A   1      47.724  26.805  35.460  1.00  0.00     0.200 A 
ATOM     70  F   UNL A   1      48.759  28.693  34.490  1.00  0.00    -0.200 F 
ATOM     71  F   UNL A   1      48.875  26.459  36.052  1.00  0.00    -0.200 F 
ENDBRANCH  38  61
ENDBRANCH  12  13
ENDBRANCH   5   7
ENDBRANCH   2   3
ENDBRANCH   1   2
BRANCH   1  72
ATOM     72  C   UNL A   1      33.272  27.927  24.055  1.00  0.00     0.118 C 
BRANCH  72  73
ATOM     73  N   UNL A   1      32.316  26.940  24.520  1.00  0.00    -0.351 N 
ATOM     74  C   UNL A   1      32.320  25.589  24.626  1.00  0.00     0.278 C 
ATOM     75  H   UNL A   1      31.473  27.343  24.829  1.00  0.00     0.163 HD
ATOM     76  O   UNL A   1      31.257  25.089  25.028  1.00  0.00    -0.268 OA
BRANCH  74  77
ATOM     77  C   UNL A   1      33.525  24.654  24.374  1.00  0.00     0.277 C 
ATOM     78  C   UNL A   1      34.656  24.684  25.399  1.00  0.00     0.114 C 
ATOM     79  N   UNL A   1      32.978  23.279  24.226  1.00  0.00    -0.325 N 
ATOM     80  C   UNL A   1      35.666  23.657  25.088  1.00  0.00    -0.006 A 
ATOM     81  C   UNL A   1      33.948  22.245  23.800  1.00  0.00     0.262 C 
ATOM     82  H   UNL A   1      32.230  23.312  23.533  1.00  0.00     0.347 HD
ATOM     83  H   UNL A   1      32.666  23.002  25.157  1.00  0.00     0.347 HD
ATOM     84  C   UNL A   1      35.318  22.538  24.362  1.00  0.00     0.083 A 
ATOM     85  C   UNL A   1      36.965  23.482  25.606  1.00  0.00     0.003 A 
ATOM     86  N   UNL A   1      36.435  21.741  24.299  1.00  0.00    -0.353 N 
ATOM     87  C   UNL A   1      37.418  22.252  25.131  1.00  0.00     0.046 A 
ATOM     88  C   UNL A   1      37.762  24.222  26.501  1.00  0.00     0.010 A 
ATOM     89  H   UNL A   1      36.524  20.931  23.746  1.00  0.00     0.166 HD
ATOM     90  C   UNL A   1      38.649  21.717  25.530  1.00  0.00     0.026 A 
ATOM     91  C   UNL A   1      38.985  23.694  26.915  1.00  0.00     0.001 A 
ATOM     92  C   UNL A   1      39.416  22.457  26.440  1.00  0.00     0.002 A 
BRANCH  81  93
ATOM     93  C   UNL A   1      33.357  20.896  24.219  1.00  0.00     0.016 A 
ATOM     94  C   UNL A   1      32.706  20.036  23.322  1.00  0.00     0.014 A 
ATOM     95  C   UNL A   1      33.572  20.427  25.528  1.00  0.00     0.014 A 
ATOM     96  C   UNL A   1      32.244  18.783  23.733  1.00  0.00     0.047 A 
ATOM     97  C   UNL A   1      33.141  19.155  25.929  1.00  0.00     0.047 A 
ATOM     98  C   UNL A   1      32.465  18.329  25.034  1.00  0.00     0.129 A 
BRANCH  98  99
ATOM     99  O   UNL A   1      31.975  17.080  25.284  1.00  0.00    -0.406 OA
BRANCH  99 100
ATOM    100  C   UNL A   1      32.860  15.983  25.146  1.00  0.00     0.573 C 
ATOM    101  F   UNL A   1      32.234  14.815  25.401  1.00  0.00    -0.132 F 
ATOM    102  F   UNL A   1      33.405  15.945  23.911  1.00  0.00    -0.132 F 
ATOM    103  F   UNL A   1      33.864  16.126  26.040  1.00  0.00    -0.132 F 
ENDBRANCH  99 100
ENDBRANCH  98  99
ENDBRANCH  81  93
ENDBRANCH  74  77
ENDBRANCH  72  73
ENDBRANCH   1  72
TORSDOF 13
ENDMDL
MODEL 3
REMARK VINA RESULT:     -13.9      5.048      7.935
REMARK SMILES O=C(NCCCNC(=O)[C@H]1Cc2c([nH]c3ccccc23)[C@@H](c2ccc(OC(F)(F)F)cc2)[NH2+]1)c1ccc(-c2c3nc(c(-c4c(F)c(F)c(F)c(F)c4F)c4ccc([nH]4)c(-c4c(F)c(F)c(F)c(F)c4F)c4nc(c(-c5c(F)c(F)c(F)c(F)c5F)c5ccc2[nH]5)C=C4)C=C3)cc1
REMARK SMILES IDX 5 1 4 2 3 3 1 4 2 5 34 7 35 8 96 9 36 10 95 11 37 12 38 13
REMARK SMILES IDX 39 14 89 15 40 16 94 17 88 18 90 19 41 20 93 21 87 22 86 23
REMARK SMILES IDX 42 25 74 26 54 27 73 28 55 29 58 30 72 31 91 32 56 33 57 34
REMARK SMILES IDX 71 36 92 37 59 38 43 39 44 40 52 41 45 42 46 43 50 44 53 45
REMARK SMILES IDX 47 46 48 47 51 48 49 49 75 50 76 51 84 52 77 53 78 54 82 55
REMARK SMILES IDX 85 56 79 57 80 58 83 59 81 60 60 61 61 62 69 63 62 64 63 65
REMARK SMILES IDX 67 66 70 67 64 68 65 69 68 70 66 71 6 72 7 73 8 74 9 76
REMARK SMILES IDX 10 77 11 78 33 79 12 80 21 81 13 84 20 85 14 86 15 87 19 88
REMARK SMILES IDX 16 90 18 91 17 92 22 93 23 94 32 95 24 96 31 97 25 98 26 99
REMARK SMILES IDX 27 100 28 101 29 102 30 103
REMARK H PARENT 3 6 90 24 58 35 7 75 33 82 33 83 14 89
REMARK Flexibility Score: inf
ROOT
ATOM      1  C   UNL A   1      33.332  28.846  24.214  1.00  0.00     0.042 C 
ENDROOT
BRANCH   1   2
ATOM      2  C   UNL A   1      32.918  29.037  25.664  1.00  0.00     0.118 C 
BRANCH   2   3
ATOM      3  N   UNL A   1      32.724  30.451  25.970  1.00  0.00    -0.352 N 
ATOM      4  O   UNL A   1      32.797  32.294  27.260  1.00  0.00    -0.269 OA
ATOM      5  C   UNL A   1      33.304  31.225  26.940  1.00  0.00     0.251 C 
ATOM      6  H   UNL A   1      32.078  30.920  25.393  1.00  0.00     0.163 HD
BRANCH   5   7
ATOM      7  C   UNL A   1      34.557  30.777  27.577  1.00  0.00     0.039 A 
ATOM      8  C   UNL A   1      35.580  31.695  27.826  1.00  0.00     0.014 A 
ATOM      9  C   UNL A   1      34.677  29.451  28.001  1.00  0.00     0.014 A 
ATOM     10  C   UNL A   1      36.766  31.271  28.398  1.00  0.00     0.010 A 
ATOM     11  C   UNL A   1      35.831  29.049  28.676  1.00  0.00     0.010 A 
ATOM     12  C   UNL A   1      36.878  29.960  28.880  1.00  0.00    -0.014 A 
BRANCH  12  13
ATOM     13  C   UNL A   1      38.034  29.622  29.737  1.00  0.00     0.031 A 
ATOM     14  C   UNL A   1      38.170  30.184  31.116  1.00  0.00     0.074 A 
ATOM     15  C   UNL A   1      38.962  28.787  29.227  1.00  0.00     0.049 A 
ATOM     16  N   UNL A   1      39.138  30.007  31.979  1.00  0.00    -0.248 NA
ATOM     17  C   UNL A   1      37.092  31.064  31.593  1.00  0.00     0.031 C 
ATOM     18  C   UNL A   1      38.920  28.205  27.881  1.00  0.00     0.029 A 
ATOM     19  N   UNL A   1      40.112  28.277  29.770  1.00  0.00    -0.354 N 
ATOM     20  C   UNL A   1      38.800  30.769  33.087  1.00  0.00     0.074 A 
ATOM     21  C   UNL A   1      37.543  31.421  32.789  1.00  0.00     0.031 C 
ATOM     22  C   UNL A   1      39.975  27.397  27.714  1.00  0.00     0.029 A 
ATOM     23  C   UNL A   1      40.807  27.465  28.908  1.00  0.00     0.049 A 
ATOM     24  H   UNL A   1      40.410  28.472  30.687  1.00  0.00     0.167 HD
ATOM     25  C   UNL A   1      39.491  30.905  34.243  1.00  0.00     0.037 A 
ATOM     26  C   UNL A   1      42.007  26.875  29.045  1.00  0.00     0.037 A 
ATOM     27  C   UNL A   1      40.728  30.223  34.526  1.00  0.00     0.049 A 
ATOM     28  C   UNL A   1      42.756  27.074  30.330  1.00  0.00     0.074 A 
ATOM     29  C   UNL A   1      41.461  30.222  35.699  1.00  0.00     0.029 A 
ATOM     30  N   UNL A   1      41.420  29.432  33.620  1.00  0.00    -0.354 N 
ATOM     31  N   UNL A   1      42.395  27.741  31.398  1.00  0.00    -0.248 NA
ATOM     32  C   UNL A   1      44.082  26.453  30.425  1.00  0.00     0.031 C 
ATOM     33  C   UNL A   1      42.628  29.482  35.484  1.00  0.00     0.029 A 
ATOM     34  C   UNL A   1      42.598  28.979  34.193  1.00  0.00     0.049 A 
ATOM     35  H   UNL A   1      41.120  29.224  32.705  1.00  0.00     0.167 HD
ATOM     36  C   UNL A   1      43.445  27.619  32.294  1.00  0.00     0.074 A 
ATOM     37  C   UNL A   1      44.444  26.785  31.656  1.00  0.00     0.031 C 
ATOM     38  C   UNL A   1      43.578  28.158  33.530  1.00  0.00     0.037 A 
BRANCH  25  39
ATOM     39  C   UNL A   1      38.954  31.834  35.289  1.00  0.00     0.064 A 
ATOM     40  C   UNL A   1      38.194  31.372  36.372  1.00  0.00     0.173 A 
ATOM     41  C   UNL A   1      39.289  33.197  35.256  1.00  0.00     0.173 A 
ATOM     42  F   UNL A   1      37.839  30.081  36.445  1.00  0.00    -0.203 F 
ATOM     43  C   UNL A   1      37.788  32.240  37.384  1.00  0.00     0.198 A 
ATOM     44  C   UNL A   1      38.900  34.057  36.280  1.00  0.00     0.198 A 
ATOM     45  F   UNL A   1      40.017  33.689  34.243  1.00  0.00    -0.203 F 
ATOM     46  F   UNL A   1      37.047  31.781  38.401  1.00  0.00    -0.200 F 
ATOM     47  C   UNL A   1      38.151  33.578  37.342  1.00  0.00     0.200 A 
ATOM     48  F   UNL A   1      39.263  35.348  36.243  1.00  0.00    -0.200 F 
ATOM     49  F   UNL A   1      37.777  34.406  38.327  1.00  0.00    -0.200 F 
ENDBRANCH  25  39
BRANCH  26  50
ATOM     50  C   UNL A   1      42.589  26.099  27.919  1.00  0.00     0.064 A 
ATOM     51  C   UNL A   1      43.384  26.716  26.945  1.00  0.00     0.173 A 
ATOM     52  C   UNL A   1      42.354  24.720  27.792  1.00  0.00     0.173 A 
ATOM     53  F   UNL A   1      43.625  28.033  27.014  1.00  0.00    -0.203 F 
ATOM     54  C   UNL A   1      43.902  25.989  25.875  1.00  0.00     0.198 A 
ATOM     55  C   UNL A   1      42.901  23.989  26.743  1.00  0.00     0.198 A 
ATOM     56  F   UNL A   1      41.603  24.079  28.701  1.00  0.00    -0.203 F 
ATOM     57  F   UNL A   1      44.618  26.613  24.930  1.00  0.00    -0.200 F 
ATOM     58  C   UNL A   1      43.666  24.625  25.778  1.00  0.00     0.200 A 
ATOM     59  F   UNL A   1      42.686  22.668  26.665  1.00  0.00    -0.200 F 
ATOM     60  F   UNL A   1      44.168  23.928  24.751  1.00  0.00    -0.200 F 
ENDBRANCH  26  50
BRANCH  38  61
ATOM     61  C   UNL A   1      44.850  27.861  34.264  1.00  0.00     0.064 A 
ATOM     62  C   UNL A   1      44.978  26.715  35.063  1.00  0.00     0.173 A 
ATOM     63  C   UNL A   1      45.960  28.709  34.140  1.00  0.00     0.173 A 
ATOM     64  F   UNL A   1      43.935  25.887  35.227  1.00  0.00    -0.203 F 
ATOM     65  C   UNL A   1      46.168  26.438  35.727  1.00  0.00     0.198 A 
ATOM     66  C   UNL A   1      47.159  28.412  34.781  1.00  0.00     0.198 A 
ATOM     67  F   UNL A   1      45.887  29.815  33.385  1.00  0.00    -0.203 F 
ATOM     68  F   UNL A   1      46.256  25.362  36.521  1.00  0.00    -0.200 F 
ATOM     69  C   UNL A   1      47.260  27.282  35.578  1.00  0.00     0.200 A 
ATOM     70  F   UNL A   1      48.216  29.221  34.627  1.00  0.00    -0.200 F 
ATOM     71  F   UNL A   1      48.409  27.007  36.211  1.00  0.00    -0.200 F 
ENDBRANCH  38  61
ENDBRANCH  12  13
ENDBRANCH   5   7
ENDBRANCH   2   3
ENDBRANCH   1   2
BRANCH   1  72
ATOM     72  C   UNL A   1      32.525  27.731  23.563  1.00  0.00     0.118 C 
BRANCH  72  73
ATOM     73  N   UNL A   1      31.909  26.876  24.560  1.00  0.00    -0.351 N 
ATOM     74  C   UNL A   1      32.148  25.623  25.018  1.00  0.00     0.278 C 
ATOM     75  H   UNL A   1      31.143  27.305  25.007  1.00  0.00     0.163 HD
ATOM     76  O   UNL A   1      31.338  25.208  25.862  1.00  0.00    -0.268 OA
BRANCH  74  77
ATOM     77  C   UNL A   1      33.352  24.728  24.649  1.00  0.00     0.277 C 
ATOM     78  C   UNL A   1      34.521  24.693  25.631  1.00  0.00     0.114 C 
ATOM     79  N   UNL A   1      32.815  23.361  24.413  1.00  0.00    -0.325 N 
ATOM     80  C   UNL A   1      35.529  23.707  25.203  1.00  0.00    -0.006 A 
ATOM     81  C   UNL A   1      33.780  22.377  23.872  1.00  0.00     0.262 C 
ATOM     82  H   UNL A   1      32.042  23.438  23.753  1.00  0.00     0.347 HD
ATOM     83  H   UNL A   1      32.541  23.008  25.330  1.00  0.00     0.347 HD
ATOM     84  C   UNL A   1      35.166  22.644  24.404  1.00  0.00     0.083 A 
ATOM     85  C   UNL A   1      36.849  23.510  25.658  1.00  0.00     0.003 A 
ATOM     86  N   UNL A   1      36.288  21.870  24.237  1.00  0.00    -0.353 N 
ATOM     87  C   UNL A   1      37.297  22.327  25.070  1.00  0.00     0.046 A 
ATOM     88  C   UNL A   1      37.671  24.188  26.578  1.00  0.00     0.010 A 
ATOM     89  H   UNL A   1      36.366  21.106  23.619  1.00  0.00     0.166 HD
ATOM     90  C   UNL A   1      38.548  21.779  25.380  1.00  0.00     0.026 A 
ATOM     91  C   UNL A   1      38.914  23.645  26.904  1.00  0.00     0.001 A 
ATOM     92  C   UNL A   1      39.340  22.456  26.317  1.00  0.00     0.002 A 
BRANCH  81  93
ATOM     93  C   UNL A   1      33.219  20.992  24.204  1.00  0.00     0.016 A 
ATOM     94  C   UNL A   1      32.592  20.173  23.252  1.00  0.00     0.014 A 
ATOM     95  C   UNL A   1      33.440  20.448  25.483  1.00  0.00     0.014 A 
ATOM     96  C   UNL A   1      32.159  18.886  23.584  1.00  0.00     0.047 A 
ATOM     97  C   UNL A   1      33.038  19.144  25.803  1.00  0.00     0.047 A 
ATOM     98  C   UNL A   1      32.385  18.359  24.856  1.00  0.00     0.129 A 
BRANCH  98  99
ATOM     99  O   UNL A   1      31.924  17.086  25.026  1.00  0.00    -0.406 OA
BRANCH  99 100
ATOM    100  C   UNL A   1      32.876  16.039  25.069  1.00  0.00     0.573 C 
ATOM    101  F   UNL A   1      33.727  16.195  26.105  1.00  0.00    -0.132 F 
ATOM    102  F   UNL A   1      32.274  14.833  25.156  1.00  0.00    -0.132 F 
ATOM    103  F   UNL A   1      33.596  16.064  23.925  1.00  0.00    -0.132 F 
ENDBRANCH  99 100
ENDBRANCH  98  99
ENDBRANCH  81  93
ENDBRANCH  74  77
ENDBRANCH  72  73
ENDBRANCH   1  72
TORSDOF 13
ENDMDL
