MODEL 1
REMARK VINA RESULT:      -9.9      0.000      0.000
REMARK SMILES C#CCN(CC(=O)NCCCNC(=O)c1ccc(-c2c3nc(c(-c4c(F)c(F)c(F)c(F)c4F)c4ccc([nH]4)c(-c4c(F)c(F)c(F)c(F)c4F)c4nc(c(-c5c(F)c(F)c(F)c(F)c5F)c5ccc2[nH]5)C=C4)C=C3)cc1)C(=O)N1CC[N@@H+]2CCC[C@H]2C1
REMARK SMILES IDX 9 1 8 2 6 3 7 4 5 6 4 7 3 8 2 9 1 10 78 11 79 12 80 13 81 14
REMARK SMILES IDX 88 15 82 16 87 17 83 18 86 19 84 20 85 22 10 23 11 24 12 25
REMARK SMILES IDX 13 26 14 28 15 29 16 30 77 31 17 32 76 33 18 34 19 35 20 36
REMARK SMILES IDX 70 37 21 38 75 39 69 40 71 41 22 42 74 43 68 44 67 45 23 47
REMARK SMILES IDX 55 48 35 49 54 50 36 51 39 52 53 53 72 54 37 55 38 56 52 58
REMARK SMILES IDX 73 59 40 60 24 61 25 62 33 63 26 64 27 65 31 66 34 67 28 68
REMARK SMILES IDX 29 69 32 70 30 71 56 72 57 73 65 74 58 75 59 76 63 77 66 78
REMARK SMILES IDX 60 79 61 80 64 81 62 82 41 83 42 84 50 85 43 86 44 87 48 88
REMARK SMILES IDX 51 89 45 90 46 91 49 92 47 93
REMARK H PARENT 8 5 83 21 12 27 71 46 39 57
REMARK Flexibility Score: inf
ROOT
ATOM      1  C   UNL A   1      34.463  34.643  30.049  1.00  0.00     0.117 C 
ENDROOT
BRANCH   1   2
ATOM      2  N   UNL A   1      33.830  34.070  31.218  1.00  0.00    -0.354 N 
ATOM      3  C   UNL A   1      34.297  33.184  32.144  1.00  0.00     0.239 C 
ATOM      4  O   UNL A   1      33.650  33.096  33.194  1.00  0.00    -0.273 OA
ATOM      5  H   UNL A   1      32.905  34.370  31.371  1.00  0.00     0.163 HD
BRANCH   3   6
ATOM      6  C   UNL A   1      35.619  32.412  31.989  1.00  0.00     0.222 C 
BRANCH   6   7
ATOM      7  N   UNL A   1      36.750  32.912  32.768  1.00  0.00    -0.304 N 
BRANCH   7   8
ATOM      8  C   UNL A   1      37.540  33.990  32.192  1.00  0.00     0.211 C 
BRANCH   8   9
ATOM      9  C   UNL A   1      37.817  33.781  30.712  1.00  0.00    -0.085 C 
ATOM     10  C   UNL A   1      38.055  33.602  29.444  1.00  0.00     0.006 C 
ENDBRANCH   8   9
ENDBRANCH   7   8
BRANCH   7  11
ATOM     11  C   UNL A   1      37.013  32.567  34.089  1.00  0.00     0.321 C 
ATOM     12  O   UNL A   1      36.280  32.905  35.017  1.00  0.00    -0.248 OA
BRANCH  11  13
ATOM     13  N   UNL A   1      38.050  31.685  34.289  1.00  0.00    -0.313 N 
ATOM     14  C   UNL A   1      38.704  31.548  35.597  1.00  0.00     0.183 C 
ATOM     15  C   UNL A   1      38.020  30.427  33.530  1.00  0.00     0.186 C 
ATOM     16  C   UNL A   1      40.135  30.975  35.455  1.00  0.00     0.284 C 
ATOM     17  C   UNL A   1      39.446  29.885  33.408  1.00  0.00     0.204 C 
ATOM     18  N   UNL A   1      40.072  29.701  34.732  1.00  0.00    -0.330 N 
ATOM     19  C   UNL A   1      39.606  28.492  32.824  1.00  0.00     0.073 C 
ATOM     20  C   UNL A   1      41.344  29.056  34.449  1.00  0.00     0.262 C 
ATOM     21  H   UNL A   1      39.541  29.111  35.374  1.00  0.00     0.348 HD
ATOM     22  C   UNL A   1      40.935  28.002  33.417  1.00  0.00     0.068 C 
ENDBRANCH  11  13
ENDBRANCH   7  11
ENDBRANCH   6   7
ENDBRANCH   3   6
ENDBRANCH   1   2
BRANCH   1  23
ATOM     23  C   UNL A   1      33.986  34.052  28.724  1.00  0.00     0.042 C 
BRANCH  23  24
ATOM     24  C   UNL A   1      34.862  32.939  28.152  1.00  0.00     0.118 C 
BRANCH  24  25
ATOM     25  N   UNL A   1      34.148  31.684  27.980  1.00  0.00    -0.352 N 
ATOM     26  C   UNL A   1      34.583  30.384  27.931  1.00  0.00     0.251 C 
ATOM     27  H   UNL A   1      33.174  31.786  27.879  1.00  0.00     0.163 HD
ATOM     28  O   UNL A   1      33.787  29.510  27.593  1.00  0.00    -0.269 OA
BRANCH  26  29
ATOM     29  C   UNL A   1      35.977  30.002  28.263  1.00  0.00     0.039 A 
ATOM     30  C   UNL A   1      36.942  30.078  27.249  1.00  0.00     0.014 A 
ATOM     31  C   UNL A   1      36.336  29.489  29.511  1.00  0.00     0.014 A 
ATOM     32  C   UNL A   1      38.262  29.693  27.500  1.00  0.00     0.010 A 
ATOM     33  C   UNL A   1      37.668  29.167  29.781  1.00  0.00     0.010 A 
ATOM     34  C   UNL A   1      38.643  29.258  28.778  1.00  0.00    -0.014 A 
BRANCH  34  35
ATOM     35  C   UNL A   1      40.054  28.892  29.074  1.00  0.00     0.031 A 
ATOM     36  C   UNL A   1      40.953  29.849  29.807  1.00  0.00     0.074 A 
ATOM     37  C   UNL A   1      40.543  27.718  28.633  1.00  0.00     0.049 A 
ATOM     38  N   UNL A   1      42.227  29.735  30.095  1.00  0.00    -0.248 NA
ATOM     39  C   UNL A   1      40.349  31.111  30.257  1.00  0.00     0.031 C 
ATOM     40  C   UNL A   1      39.788  26.720  27.875  1.00  0.00     0.029 A 
ATOM     41  N   UNL A   1      41.797  27.169  28.748  1.00  0.00    -0.354 N 
ATOM     42  C   UNL A   1      42.578  30.915  30.738  1.00  0.00     0.074 A 
ATOM     43  C   UNL A   1      41.395  31.748  30.765  1.00  0.00     0.031 C 
ATOM     44  C   UNL A   1      40.587  25.675  27.606  1.00  0.00     0.029 A 
ATOM     45  C   UNL A   1      41.918  25.942  28.143  1.00  0.00     0.049 A 
ATOM     46  H   UNL A   1      42.538  27.614  29.220  1.00  0.00     0.167 HD
ATOM     47  C   UNL A   1      43.773  31.265  31.273  1.00  0.00     0.037 A 
ATOM     48  C   UNL A   1      42.983  25.128  28.027  1.00  0.00     0.037 A 
ATOM     49  C   UNL A   1      44.941  30.423  31.275  1.00  0.00     0.049 A 
ATOM     50  C   UNL A   1      44.295  25.534  28.642  1.00  0.00     0.074 A 
ATOM     51  C   UNL A   1      46.179  30.666  31.847  1.00  0.00     0.029 A 
ATOM     52  N   UNL A   1      45.016  29.175  30.676  1.00  0.00    -0.354 N 
ATOM     53  N   UNL A   1      44.597  26.625  29.300  1.00  0.00    -0.248 NA
ATOM     54  C   UNL A   1      45.411  24.588  28.503  1.00  0.00     0.031 C 
ATOM     55  C   UNL A   1      47.013  29.579  31.564  1.00  0.00     0.029 A 
ATOM     56  C   UNL A   1      46.284  28.642  30.851  1.00  0.00     0.049 A 
ATOM     57  H   UNL A   1      44.279  28.733  30.197  1.00  0.00     0.167 HD
ATOM     58  C   UNL A   1      45.926  26.490  29.674  1.00  0.00     0.074 A 
ATOM     59  C   UNL A   1      46.370  25.202  29.183  1.00  0.00     0.031 C 
ATOM     60  C   UNL A   1      46.709  27.356  30.364  1.00  0.00     0.037 A 
BRANCH  47  61
ATOM     61  C   UNL A   1      43.878  32.620  31.908  1.00  0.00     0.064 A 
ATOM     62  C   UNL A   1      43.637  32.810  33.277  1.00  0.00     0.173 A 
ATOM     63  C   UNL A   1      44.262  33.735  31.149  1.00  0.00     0.173 A 
ATOM     64  F   UNL A   1      43.256  31.778  34.046  1.00  0.00    -0.203 F 
ATOM     65  C   UNL A   1      43.751  34.071  33.857  1.00  0.00     0.198 A 
ATOM     66  C   UNL A   1      44.401  34.990  31.737  1.00  0.00     0.198 A 
ATOM     67  F   UNL A   1      44.512  33.607  29.837  1.00  0.00    -0.203 F 
ATOM     68  F   UNL A   1      43.472  34.236  35.157  1.00  0.00    -0.200 F 
ATOM     69  C   UNL A   1      44.139  35.158  33.089  1.00  0.00     0.200 A 
ATOM     70  F   UNL A   1      44.788  36.038  30.996  1.00  0.00    -0.200 F 
ATOM     71  F   UNL A   1      44.253  36.370  33.649  1.00  0.00    -0.200 F 
ENDBRANCH  47  61
BRANCH  48  72
ATOM     72  C   UNL A   1      42.846  23.828  27.322  1.00  0.00     0.064 A 
ATOM     73  C   UNL A   1      42.343  22.701  27.986  1.00  0.00     0.173 A 
ATOM     74  C   UNL A   1      43.210  23.686  25.976  1.00  0.00     0.173 A 
ATOM     75  F   UNL A   1      42.003  22.785  29.281  1.00  0.00    -0.203 F 
ATOM     76  C   UNL A   1      42.225  21.476  27.335  1.00  0.00     0.198 A 
ATOM     77  C   UNL A   1      43.069  22.467  25.319  1.00  0.00     0.198 A 
ATOM     78  F   UNL A   1      43.695  24.736  25.297  1.00  0.00    -0.203 F 
ATOM     79  F   UNL A   1      41.778  20.405  28.005  1.00  0.00    -0.200 F 
ATOM     80  C   UNL A   1      42.581  21.360  26.000  1.00  0.00     0.200 A 
ATOM     81  F   UNL A   1      43.404  22.360  24.025  1.00  0.00    -0.200 F 
ATOM     82  F   UNL A   1      42.464  20.182  25.373  1.00  0.00    -0.200 F 
ENDBRANCH  48  72
BRANCH  60  83
ATOM     83  C   UNL A   1      48.115  26.924  30.656  1.00  0.00     0.064 A 
ATOM     84  C   UNL A   1      48.423  26.130  31.770  1.00  0.00     0.173 A 
ATOM     85  C   UNL A   1      49.161  27.281  29.791  1.00  0.00     0.173 A 
ATOM     86  F   UNL A   1      47.460  25.777  32.634  1.00  0.00    -0.203 F 
ATOM     87  C   UNL A   1      49.733  25.729  32.021  1.00  0.00     0.198 A 
ATOM     88  C   UNL A   1      50.464  26.856  30.031  1.00  0.00     0.198 A 
ATOM     89  F   UNL A   1      48.917  28.035  28.709  1.00  0.00    -0.203 F 
ATOM     90  F   UNL A   1      50.012  25.008  33.115  1.00  0.00    -0.200 F 
ATOM     91  C   UNL A   1      50.750  26.086  31.149  1.00  0.00     0.200 A 
ATOM     92  F   UNL A   1      51.445  27.195  29.183  1.00  0.00    -0.200 F 
ATOM     93  F   UNL A   1      52.009  25.696  31.391  1.00  0.00    -0.200 F 
ENDBRANCH  60  83
ENDBRANCH  34  35
ENDBRANCH  26  29
ENDBRANCH  24  25
ENDBRANCH  23  24
ENDBRANCH   1  23
TORSDOF 15
ENDMDL
MODEL 2
REMARK VINA RESULT:      -9.6      4.106     10.103
REMARK SMILES C#CCN(CC(=O)NCCCNC(=O)c1ccc(-c2c3nc(c(-c4c(F)c(F)c(F)c(F)c4F)c4ccc([nH]4)c(-c4c(F)c(F)c(F)c(F)c4F)c4nc(c(-c5c(F)c(F)c(F)c(F)c5F)c5ccc2[nH]5)C=C4)C=C3)cc1)C(=O)N1CC[N@@H+]2CCC[C@H]2C1
REMARK SMILES IDX 9 1 8 2 6 3 7 4 5 6 4 7 3 8 2 9 1 10 78 11 79 12 80 13 81 14
REMARK SMILES IDX 88 15 82 16 87 17 83 18 86 19 84 20 85 22 10 23 11 24 12 25
REMARK SMILES IDX 13 26 14 28 15 29 16 30 77 31 17 32 76 33 18 34 19 35 20 36
REMARK SMILES IDX 70 37 21 38 75 39 69 40 71 41 22 42 74 43 68 44 67 45 23 47
REMARK SMILES IDX 55 48 35 49 54 50 36 51 39 52 53 53 72 54 37 55 38 56 52 58
REMARK SMILES IDX 73 59 40 60 24 61 25 62 33 63 26 64 27 65 31 66 34 67 28 68
REMARK SMILES IDX 29 69 32 70 30 71 56 72 57 73 65 74 58 75 59 76 63 77 66 78
REMARK SMILES IDX 60 79 61 80 64 81 62 82 41 83 42 84 50 85 43 86 44 87 48 88
REMARK SMILES IDX 51 89 45 90 46 91 49 92 47 93
REMARK H PARENT 8 5 83 21 12 27 71 46 39 57
REMARK Flexibility Score: inf
ROOT
ATOM      1  C   UNL A   1      31.138  30.734  25.370  1.00  0.00     0.117 C 
ENDROOT
BRANCH   1   2
ATOM      2  N   UNL A   1      32.221  29.847  25.741  1.00  0.00    -0.354 N 
ATOM      3  C   UNL A   1      33.083  29.120  24.974  1.00  0.00     0.239 C 
ATOM      4  O   UNL A   1      34.091  28.685  25.544  1.00  0.00    -0.273 OA
ATOM      5  H   UNL A   1      32.358  29.751  26.711  1.00  0.00     0.163 HD
BRANCH   3   6
ATOM      6  C   UNL A   1      32.919  28.934  23.455  1.00  0.00     0.222 C 
BRANCH   6   7
ATOM      7  N   UNL A   1      32.438  27.626  23.017  1.00  0.00    -0.304 N 
BRANCH   7   8
ATOM      8  C   UNL A   1      31.013  27.485  22.757  1.00  0.00     0.211 C 
BRANCH   8   9
ATOM      9  C   UNL A   1      30.361  28.801  22.364  1.00  0.00    -0.085 C 
ATOM     10  C   UNL A   1      29.801  29.928  22.027  1.00  0.00     0.006 C 
ENDBRANCH   8   9
ENDBRANCH   7   8
BRANCH   7  11
ATOM     11  C   UNL A   1      33.258  26.564  22.653  1.00  0.00     0.321 C 
ATOM     12  O   UNL A   1      33.832  26.516  21.566  1.00  0.00    -0.248 OA
BRANCH  11  13
ATOM     13  N   UNL A   1      33.529  25.642  23.640  1.00  0.00    -0.313 N 
ATOM     14  C   UNL A   1      32.666  25.499  24.819  1.00  0.00     0.183 C 
ATOM     15  C   UNL A   1      34.148  24.376  23.225  1.00  0.00     0.186 C 
ATOM     16  C   UNL A   1      33.432  24.866  26.005  1.00  0.00     0.284 C 
ATOM     17  C   UNL A   1      34.895  23.773  24.418  1.00  0.00     0.204 C 
ATOM     18  N   UNL A   1      34.003  23.585  25.578  1.00  0.00    -0.330 N 
ATOM     19  C   UNL A   1      35.441  22.366  24.249  1.00  0.00     0.073 C 
ATOM     20  C   UNL A   1      34.819  22.883  26.556  1.00  0.00     0.262 C 
ATOM     21  H   UNL A   1      33.170  23.027  25.386  1.00  0.00     0.348 HD
ATOM     22  C   UNL A   1      35.512  21.830  25.686  1.00  0.00     0.068 C 
ENDBRANCH  11  13
ENDBRANCH   7  11
ENDBRANCH   6   7
ENDBRANCH   3   6
ENDBRANCH   1   2
BRANCH   1  23
ATOM     23  C   UNL A   1      31.023  31.981  26.244  1.00  0.00     0.042 C 
BRANCH  23  24
ATOM     24  C   UNL A   1      32.322  32.439  26.904  1.00  0.00     0.118 C 
BRANCH  24  25
ATOM     25  N   UNL A   1      32.273  33.818  27.363  1.00  0.00    -0.352 N 
ATOM     26  C   UNL A   1      32.997  34.491  28.314  1.00  0.00     0.251 C 
ATOM     27  H   UNL A   1      31.595  34.369  26.909  1.00  0.00     0.163 HD
ATOM     28  O   UNL A   1      32.634  35.619  28.640  1.00  0.00    -0.269 OA
BRANCH  26  29
ATOM     29  C   UNL A   1      34.193  33.902  28.964  1.00  0.00     0.039 A 
ATOM     30  C   UNL A   1      34.000  32.864  29.884  1.00  0.00     0.014 A 
ATOM     31  C   UNL A   1      35.480  34.404  28.758  1.00  0.00     0.014 A 
ATOM     32  C   UNL A   1      35.091  32.300  30.553  1.00  0.00     0.010 A 
ATOM     33  C   UNL A   1      36.576  33.798  29.375  1.00  0.00     0.010 A 
ATOM     34  C   UNL A   1      36.394  32.745  30.284  1.00  0.00    -0.014 A 
BRANCH  34  35
ATOM     35  C   UNL A   1      37.569  32.122  30.949  1.00  0.00     0.031 A 
ATOM     36  C   UNL A   1      38.379  31.071  30.243  1.00  0.00     0.074 A 
ATOM     37  C   UNL A   1      37.875  32.464  32.215  1.00  0.00     0.049 A 
ATOM     38  N   UNL A   1      39.393  30.367  30.685  1.00  0.00    -0.248 NA
ATOM     39  C   UNL A   1      37.985  30.750  28.863  1.00  0.00     0.031 C 
ATOM     40  C   UNL A   1      37.146  33.439  33.026  1.00  0.00     0.029 A 
ATOM     41  N   UNL A   1      38.874  32.021  33.047  1.00  0.00    -0.354 N 
ATOM     42  C   UNL A   1      39.741  29.510  29.649  1.00  0.00     0.074 A 
ATOM     43  C   UNL A   1      38.808  29.753  28.570  1.00  0.00     0.031 C 
ATOM     44  C   UNL A   1      37.729  33.532  34.232  1.00  0.00     0.029 A 
ATOM     45  C   UNL A   1      38.852  32.601  34.292  1.00  0.00     0.049 A 
ATOM     46  H   UNL A   1      39.542  31.350  32.776  1.00  0.00     0.167 HD
ATOM     47  C   UNL A   1      40.757  28.615  29.596  1.00  0.00     0.037 A 
ATOM     48  C   UNL A   1      39.643  32.401  35.362  1.00  0.00     0.037 A 
ATOM     49  C   UNL A   1      41.705  28.396  30.657  1.00  0.00     0.049 A 
ATOM     50  C   UNL A   1      40.772  31.411  35.272  1.00  0.00     0.074 A 
ATOM     51  C   UNL A   1      42.805  27.555  30.672  1.00  0.00     0.029 A 
ATOM     52  N   UNL A   1      41.665  29.024  31.893  1.00  0.00    -0.354 N 
ATOM     53  N   UNL A   1      41.127  30.651  34.267  1.00  0.00    -0.248 NA
ATOM     54  C   UNL A   1      41.614  31.258  36.467  1.00  0.00     0.031 C 
ATOM     55  C   UNL A   1      43.411  27.649  31.930  1.00  0.00     0.029 A 
ATOM     56  C   UNL A   1      42.713  28.577  32.684  1.00  0.00     0.049 A 
ATOM     57  H   UNL A   1      40.993  29.688  32.168  1.00  0.00     0.167 HD
ATOM     58  C   UNL A   1      42.245  29.949  34.695  1.00  0.00     0.074 A 
ATOM     59  C   UNL A   1      42.519  30.384  36.049  1.00  0.00     0.031 C 
ATOM     60  C   UNL A   1      42.978  29.026  34.026  1.00  0.00     0.037 A 
BRANCH  47  61
ATOM     61  C   UNL A   1      40.900  27.803  28.342  1.00  0.00     0.064 A 
ATOM     62  C   UNL A   1      41.716  28.227  27.283  1.00  0.00     0.173 A 
ATOM     63  C   UNL A   1      40.248  26.568  28.215  1.00  0.00     0.173 A 
ATOM     64  F   UNL A   1      42.354  29.405  27.351  1.00  0.00    -0.203 F 
ATOM     65  C   UNL A   1      41.851  27.457  26.130  1.00  0.00     0.198 A 
ATOM     66  C   UNL A   1      40.406  25.788  27.072  1.00  0.00     0.198 A 
ATOM     67  F   UNL A   1      39.462  26.113  29.202  1.00  0.00    -0.203 F 
ATOM     68  F   UNL A   1      42.600  27.903  25.112  1.00  0.00    -0.200 F 
ATOM     69  C   UNL A   1      41.202  26.236  26.028  1.00  0.00     0.200 A 
ATOM     70  F   UNL A   1      39.787  24.602  26.980  1.00  0.00    -0.200 F 
ATOM     71  F   UNL A   1      41.337  25.494  24.921  1.00  0.00    -0.200 F 
ENDBRANCH  47  61
BRANCH  48  72
ATOM     72  C   UNL A   1      39.412  33.176  36.607  1.00  0.00     0.064 A 
ATOM     73  C   UNL A   1      40.065  34.398  36.822  1.00  0.00     0.173 A 
ATOM     74  C   UNL A   1      38.535  32.719  37.601  1.00  0.00     0.173 A 
ATOM     75  F   UNL A   1      40.929  34.864  35.909  1.00  0.00    -0.203 F 
ATOM     76  C   UNL A   1      39.863  35.124  37.994  1.00  0.00     0.198 A 
ATOM     77  C   UNL A   1      38.316  33.458  38.760  1.00  0.00     0.198 A 
ATOM     78  F   UNL A   1      37.885  31.557  37.439  1.00  0.00    -0.203 F 
ATOM     79  F   UNL A   1      40.531  36.269  38.192  1.00  0.00    -0.200 F 
ATOM     80  C   UNL A   1      38.984  34.657  38.959  1.00  0.00     0.200 A 
ATOM     81  F   UNL A   1      37.458  33.010  39.687  1.00  0.00    -0.200 F 
ATOM     82  F   UNL A   1      38.788  35.358  40.084  1.00  0.00    -0.200 F 
ENDBRANCH  48  72
BRANCH  60  83
ATOM     83  C   UNL A   1      44.167  28.449  34.737  1.00  0.00     0.064 A 
ATOM     84  C   UNL A   1      44.074  27.263  35.479  1.00  0.00     0.173 A 
ATOM     85  C   UNL A   1      45.420  29.072  34.644  1.00  0.00     0.173 A 
ATOM     86  F   UNL A   1      42.893  26.639  35.609  1.00  0.00    -0.203 F 
ATOM     87  C   UNL A   1      45.189  26.734  36.124  1.00  0.00     0.198 A 
ATOM     88  C   UNL A   1      46.538  28.526  35.268  1.00  0.00     0.198 A 
ATOM     89  F   UNL A   1      45.562  30.206  33.942  1.00  0.00    -0.203 F 
ATOM     90  F   UNL A   1      45.068  25.623  36.864  1.00  0.00    -0.200 F 
ATOM     91  C   UNL A   1      46.420  27.362  36.012  1.00  0.00     0.200 A 
ATOM     92  F   UNL A   1      47.730  29.129  35.153  1.00  0.00    -0.200 F 
ATOM     93  F   UNL A   1      47.493  26.849  36.630  1.00  0.00    -0.200 F 
ENDBRANCH  60  83
ENDBRANCH  34  35
ENDBRANCH  26  29
ENDBRANCH  24  25
ENDBRANCH  23  24
ENDBRANCH   1  23
TORSDOF 15
ENDMDL
MODEL 3
REMARK VINA RESULT:      -9.6      4.364     10.298
REMARK SMILES C#CCN(CC(=O)NCCCNC(=O)c1ccc(-c2c3nc(c(-c4c(F)c(F)c(F)c(F)c4F)c4ccc([nH]4)c(-c4c(F)c(F)c(F)c(F)c4F)c4nc(c(-c5c(F)c(F)c(F)c(F)c5F)c5ccc2[nH]5)C=C4)C=C3)cc1)C(=O)N1CC[N@@H+]2CCC[C@H]2C1
REMARK SMILES IDX 9 1 8 2 6 3 7 4 5 6 4 7 3 8 2 9 1 10 78 11 79 12 80 13 81 14
REMARK SMILES IDX 88 15 82 16 87 17 83 18 86 19 84 20 85 22 10 23 11 24 12 25
REMARK SMILES IDX 13 26 14 28 15 29 16 30 77 31 17 32 76 33 18 34 19 35 20 36
REMARK SMILES IDX 70 37 21 38 75 39 69 40 71 41 22 42 74 43 68 44 67 45 23 47
REMARK SMILES IDX 55 48 35 49 54 50 36 51 39 52 53 53 72 54 37 55 38 56 52 58
REMARK SMILES IDX 73 59 40 60 24 61 25 62 33 63 26 64 27 65 31 66 34 67 28 68
REMARK SMILES IDX 29 69 32 70 30 71 56 72 57 73 65 74 58 75 59 76 63 77 66 78
REMARK SMILES IDX 60 79 61 80 64 81 62 82 41 83 42 84 50 85 43 86 44 87 48 88
REMARK SMILES IDX 51 89 45 90 46 91 49 92 47 93
REMARK H PARENT 8 5 83 21 12 27 71 46 39 57
REMARK Flexibility Score: inf
ROOT
ATOM      1  C   UNL A   1      31.183  30.694  25.493  1.00  0.00     0.117 C 
ENDROOT
BRANCH   1   2
ATOM      2  N   UNL A   1      32.248  29.810  25.919  1.00  0.00    -0.354 N 
ATOM      3  C   UNL A   1      33.142  29.076  25.198  1.00  0.00     0.239 C 
ATOM      4  O   UNL A   1      34.123  28.645  25.816  1.00  0.00    -0.273 OA
ATOM      5  H   UNL A   1      32.341  29.724  26.895  1.00  0.00     0.163 HD
BRANCH   3   6
ATOM      6  C   UNL A   1      33.044  28.875  23.675  1.00  0.00     0.222 C 
BRANCH   6   7
ATOM      7  N   UNL A   1      32.464  27.609  23.230  1.00  0.00    -0.304 N 
BRANCH   7   8
ATOM      8  C   UNL A   1      31.022  27.452  23.345  1.00  0.00     0.211 C 
BRANCH   8   9
ATOM      9  C   UNL A   1      30.259  28.597  22.698  1.00  0.00    -0.085 C 
ATOM     10  C   UNL A   1      29.605  29.578  22.144  1.00  0.00     0.006 C 
ENDBRANCH   8   9
ENDBRANCH   7   8
BRANCH   7  11
ATOM     11  C   UNL A   1      33.158  26.622  22.539  1.00  0.00     0.321 C 
ATOM     12  O   UNL A   1      33.652  26.818  21.429  1.00  0.00    -0.248 OA
BRANCH  11  13
ATOM     13  N   UNL A   1      33.408  25.459  23.232  1.00  0.00    -0.313 N 
ATOM     14  C   UNL A   1      33.881  25.477  24.622  1.00  0.00     0.183 C 
ATOM     15  C   UNL A   1      32.556  24.301  22.931  1.00  0.00     0.186 C 
ATOM     16  C   UNL A   1      34.618  24.165  24.983  1.00  0.00     0.284 C 
ATOM     17  C   UNL A   1      33.309  23.020  23.301  1.00  0.00     0.204 C 
ATOM     18  N   UNL A   1      33.732  23.028  24.714  1.00  0.00    -0.330 N 
ATOM     19  C   UNL A   1      32.525  21.720  23.247  1.00  0.00     0.073 C 
ATOM     20  C   UNL A   1      34.293  21.705  24.936  1.00  0.00     0.262 C 
ATOM     21  H   UNL A   1      32.975  23.178  25.383  1.00  0.00     0.348 HD
ATOM     22  C   UNL A   1      33.266  20.810  24.237  1.00  0.00     0.068 C 
ENDBRANCH  11  13
ENDBRANCH   7  11
ENDBRANCH   6   7
ENDBRANCH   3   6
ENDBRANCH   1   2
BRANCH   1  23
ATOM     23  C   UNL A   1      31.090  31.994  26.290  1.00  0.00     0.042 C 
BRANCH  23  24
ATOM     24  C   UNL A   1      32.391  32.452  26.946  1.00  0.00     0.118 C 
BRANCH  24  25
ATOM     25  N   UNL A   1      32.340  33.828  27.413  1.00  0.00    -0.352 N 
ATOM     26  C   UNL A   1      33.053  34.493  28.378  1.00  0.00     0.251 C 
ATOM     27  H   UNL A   1      31.671  34.384  26.952  1.00  0.00     0.163 HD
ATOM     28  O   UNL A   1      32.689  35.621  28.704  1.00  0.00    -0.269 OA
BRANCH  26  29
ATOM     29  C   UNL A   1      34.237  33.896  29.041  1.00  0.00     0.039 A 
ATOM     30  C   UNL A   1      34.024  32.888  29.991  1.00  0.00     0.014 A 
ATOM     31  C   UNL A   1      35.535  34.363  28.819  1.00  0.00     0.014 A 
ATOM     32  C   UNL A   1      35.103  32.320  30.673  1.00  0.00     0.010 A 
ATOM     33  C   UNL A   1      36.619  33.750  29.451  1.00  0.00     0.010 A 
ATOM     34  C   UNL A   1      36.415  32.727  30.389  1.00  0.00    -0.014 A 
BRANCH  34  35
ATOM     35  C   UNL A   1      37.578  32.097  31.069  1.00  0.00     0.031 A 
ATOM     36  C   UNL A   1      38.389  31.040  30.373  1.00  0.00     0.074 A 
ATOM     37  C   UNL A   1      37.871  32.438  32.338  1.00  0.00     0.049 A 
ATOM     38  N   UNL A   1      39.393  30.329  30.828  1.00  0.00    -0.248 NA
ATOM     39  C   UNL A   1      38.010  30.720  28.989  1.00  0.00     0.031 C 
ATOM     40  C   UNL A   1      37.138  33.418  33.140  1.00  0.00     0.029 A 
ATOM     41  N   UNL A   1      38.857  31.989  33.183  1.00  0.00    -0.354 N 
ATOM     42  C   UNL A   1      39.748  29.469  29.798  1.00  0.00     0.074 A 
ATOM     43  C   UNL A   1      38.830  29.717  28.707  1.00  0.00     0.031 C 
ATOM     44  C   UNL A   1      37.707  33.509  34.353  1.00  0.00     0.029 A 
ATOM     45  C   UNL A   1      38.823  32.570  34.426  1.00  0.00     0.049 A 
ATOM     46  H   UNL A   1      39.524  31.314  32.921  1.00  0.00     0.167 HD
ATOM     47  C   UNL A   1      40.758  28.567  29.758  1.00  0.00     0.037 A 
ATOM     48  C   UNL A   1      39.600  32.365  35.507  1.00  0.00     0.037 A 
ATOM     49  C   UNL A   1      41.692  28.343  30.830  1.00  0.00     0.049 A 
ATOM     50  C   UNL A   1      40.723  31.368  35.431  1.00  0.00     0.074 A 
ATOM     51  C   UNL A   1      42.786  27.495  30.859  1.00  0.00     0.029 A 
ATOM     52  N   UNL A   1      41.642  28.972  32.065  1.00  0.00    -0.354 N 
ATOM     53  N   UNL A   1      41.086  30.605  34.431  1.00  0.00    -0.248 NA
ATOM     54  C   UNL A   1      41.550  31.211  36.637  1.00  0.00     0.031 C 
ATOM     55  C   UNL A   1      43.378  27.586  32.125  1.00  0.00     0.029 A 
ATOM     56  C   UNL A   1      42.677  28.519  32.869  1.00  0.00     0.049 A 
ATOM     57  H   UNL A   1      40.971  29.641  32.331  1.00  0.00     0.167 HD
ATOM     58  C   UNL A   1      42.193  29.896  34.873  1.00  0.00     0.074 A 
ATOM     59  C   UNL A   1      42.453  30.330  36.230  1.00  0.00     0.031 C 
ATOM     60  C   UNL A   1      42.928  28.967  34.214  1.00  0.00     0.037 A 
BRANCH  47  61
ATOM     61  C   UNL A   1      40.911  27.753  28.507  1.00  0.00     0.064 A 
ATOM     62  C   UNL A   1      40.249  26.527  28.343  1.00  0.00     0.173 A 
ATOM     63  C   UNL A   1      41.696  28.222  27.443  1.00  0.00     0.173 A 
ATOM     64  F   UNL A   1      39.494  26.029  29.334  1.00  0.00    -0.203 F 
ATOM     65  C   UNL A   1      40.390  25.787  27.171  1.00  0.00     0.198 A 
ATOM     66  C   UNL A   1      41.813  27.493  26.262  1.00  0.00     0.198 A 
ATOM     67  F   UNL A   1      42.344  29.392  27.545  1.00  0.00    -0.203 F 
ATOM     68  F   UNL A   1      39.784  24.598  27.055  1.00  0.00    -0.200 F 
ATOM     69  C   UNL A   1      41.166  26.273  26.130  1.00  0.00     0.200 A 
ATOM     70  F   UNL A   1      42.554  27.970  25.251  1.00  0.00    -0.200 F 
ATOM     71  F   UNL A   1      41.295  25.563  25.001  1.00  0.00    -0.200 F 
ENDBRANCH  47  61
BRANCH  48  72
ATOM     72  C   UNL A   1      39.359  33.144  36.748  1.00  0.00     0.064 A 
ATOM     73  C   UNL A   1      40.039  34.347  36.983  1.00  0.00     0.173 A 
ATOM     74  C   UNL A   1      38.446  32.708  37.718  1.00  0.00     0.173 A 
ATOM     75  F   UNL A   1      40.938  34.792  36.093  1.00  0.00    -0.203 F 
ATOM     76  C   UNL A   1      39.828  35.075  38.152  1.00  0.00     0.198 A 
ATOM     77  C   UNL A   1      38.218  33.449  38.874  1.00  0.00     0.198 A 
ATOM     78  F   UNL A   1      37.769  31.564  37.537  1.00  0.00    -0.203 F 
ATOM     79  F   UNL A   1      40.521  36.201  38.370  1.00  0.00    -0.200 F 
ATOM     80  C   UNL A   1      38.913  34.630  39.093  1.00  0.00     0.200 A 
ATOM     81  F   UNL A   1      37.325  33.022  39.778  1.00  0.00    -0.200 F 
ATOM     82  F   UNL A   1      38.708  35.333  40.215  1.00  0.00    -0.200 F 
ENDBRANCH  48  72
BRANCH  60  83
ATOM     83  C   UNL A   1      44.104  28.383  34.939  1.00  0.00     0.064 A 
ATOM     84  C   UNL A   1      45.363  29.000  34.914  1.00  0.00     0.173 A 
ATOM     85  C   UNL A   1      43.960  27.211  35.696  1.00  0.00     0.173 A 
ATOM     86  F   UNL A   1      45.554  30.115  34.191  1.00  0.00    -0.203 F 
ATOM     87  C   UNL A   1      46.443  28.451  35.601  1.00  0.00     0.198 A 
ATOM     88  C   UNL A   1      45.035  26.679  36.404  1.00  0.00     0.198 A 
ATOM     89  F   UNL A   1      42.775  26.585  35.757  1.00  0.00    -0.203 F 
ATOM     90  F   UNL A   1      47.647  29.034  35.528  1.00  0.00    -0.200 F 
ATOM     91  C   UNL A   1      46.276  27.296  36.351  1.00  0.00     0.200 A 
ATOM     92  F   UNL A   1      44.871  25.568  37.134  1.00  0.00    -0.200 F 
ATOM     93  F   UNL A   1      47.315  26.772  37.015  1.00  0.00    -0.200 F 
ENDBRANCH  60  83
ENDBRANCH  34  35
ENDBRANCH  26  29
ENDBRANCH  24  25
ENDBRANCH  23  24
ENDBRANCH   1  23
TORSDOF 15
ENDMDL
