MODEL 1
REMARK VINA RESULT:     -12.5      0.000      0.000
REMARK SMILES COc1ccc(-c2cc(C(=O)NCCCNC(=O)c3ccc(-c4c5nc(c(-c6c(F)c(F)c(F)c(F)c6F)c6ccc([nH]6)c(-c6c(F)c(F)c(F)c(F)c6F)c6nc(c(-c7c(F)c(F)c(F)c(F)c7F)c7ccc4[nH]7)C=C6)C=C5)cc3)nc(=O)n2C)cc1
REMARK SMILES IDX 14 1 13 2 12 3 10 4 11 5 9 7 7 8 8 9 85 10 83 11 86 12 82 13
REMARK SMILES IDX 84 14 6 15 3 16 4 17 88 18 5 19 87 20 2 21 1 22 15 23 16 24
REMARK SMILES IDX 17 25 18 27 19 28 20 29 81 30 21 31 80 32 22 33 23 34 24 35
REMARK SMILES IDX 74 36 25 37 79 38 73 39 75 40 26 41 78 42 72 43 71 44 27 46
REMARK SMILES IDX 59 47 39 48 58 49 40 50 43 51 57 52 76 53 41 54 42 55 56 57
REMARK SMILES IDX 77 58 44 59 28 60 29 61 37 62 30 63 31 64 35 65 38 66 32 67
REMARK SMILES IDX 33 68 36 69 34 70 60 71 61 72 69 73 62 74 63 75 67 76 70 77
REMARK SMILES IDX 64 78 65 79 68 80 66 81 45 82 46 83 54 84 47 85 48 86 52 87
REMARK SMILES IDX 55 88 49 89 50 90 53 91 51 92
REMARK H PARENT 12 6 16 26 75 45 43 56
REMARK Flexibility Score: inf
ROOT
ATOM      1  C   UNL A   1      37.953  19.811  24.874  1.00  0.00     0.042 C 
ENDROOT
BRANCH   1   2
ATOM      2  C   UNL A   1      36.870  20.875  24.717  1.00  0.00     0.118 C 
BRANCH   2   3
ATOM      3  N   UNL A   1      35.860  20.752  25.755  1.00  0.00    -0.351 N 
ATOM      4  C   UNL A   1      34.774  21.544  26.032  1.00  0.00     0.270 C 
ATOM      5  O   UNL A   1      34.100  21.317  27.033  1.00  0.00    -0.268 OA
ATOM      6  H   UNL A   1      35.973  19.979  26.354  1.00  0.00     0.163 HD
BRANCH   4   7
ATOM      7  C   UNL A   1      34.347  22.675  25.096  1.00  0.00     0.136 A 
ATOM      8  C   UNL A   1      33.567  24.914  24.967  1.00  0.00     0.055 A 
ATOM      9  C   UNL A   1      33.954  23.920  25.771  1.00  0.00     0.061 A 
ATOM     10  N   UNL A   1      33.522  24.733  23.595  1.00  0.00    -0.295 N 
ATOM     11  C   UNL A   1      33.887  23.513  23.010  1.00  0.00     0.348 A 
ATOM     12  C   UNL A   1      33.048  25.768  22.688  1.00  0.00     0.155 C 
ATOM     13  N   UNL A   1      34.352  22.507  23.816  1.00  0.00    -0.188 NA
ATOM     14  O   UNL A   1      33.777  23.325  21.800  1.00  0.00    -0.246 OA
BRANCH   8  15
ATOM     15  C   UNL A   1      33.191  26.182  25.612  1.00  0.00    -0.001 A 
ATOM     16  C   UNL A   1      32.517  28.565  26.942  1.00  0.00     0.118 A 
ATOM     17  C   UNL A   1      33.804  28.379  26.437  1.00  0.00     0.047 A 
ATOM     18  C   UNL A   1      31.559  27.566  26.765  1.00  0.00     0.047 A 
ATOM     19  C   UNL A   1      34.145  27.194  25.781  1.00  0.00     0.014 A 
ATOM     20  C   UNL A   1      31.896  26.377  26.108  1.00  0.00     0.014 A 
BRANCH  16  21
ATOM     21  O   UNL A   1      32.307  29.770  27.556  1.00  0.00    -0.497 OA
ATOM     22  C   UNL A   1      33.174  30.830  27.172  1.00  0.00     0.278 C 
ENDBRANCH  16  21
ENDBRANCH   8  15
ENDBRANCH   4   7
ENDBRANCH   2   3
ENDBRANCH   1   2
BRANCH   1  23
ATOM     23  C   UNL A   1      39.046  20.207  25.867  1.00  0.00     0.118 C 
BRANCH  23  24
ATOM     24  N   UNL A   1      40.128  19.231  25.922  1.00  0.00    -0.352 N 
ATOM     25  C   UNL A   1      41.478  19.407  26.089  1.00  0.00     0.251 C 
ATOM     26  H   UNL A   1      39.844  18.294  25.824  1.00  0.00     0.163 HD
ATOM     27  O   UNL A   1      42.244  18.471  25.883  1.00  0.00    -0.269 OA
BRANCH  25  28
ATOM     28  C   UNL A   1      42.016  20.716  26.509  1.00  0.00     0.039 A 
ATOM     29  C   UNL A   1      42.420  21.627  25.529  1.00  0.00     0.014 A 
ATOM     30  C   UNL A   1      42.159  21.032  27.863  1.00  0.00     0.014 A 
ATOM     31  C   UNL A   1      42.911  22.878  25.907  1.00  0.00     0.010 A 
ATOM     32  C   UNL A   1      42.572  22.308  28.236  1.00  0.00     0.010 A 
ATOM     33  C   UNL A   1      42.958  23.241  27.262  1.00  0.00    -0.014 A 
BRANCH  33  34
ATOM     34  C   UNL A   1      43.400  24.594  27.682  1.00  0.00     0.031 A 
ATOM     35  C   UNL A   1      42.388  25.651  28.025  1.00  0.00     0.074 A 
ATOM     36  C   UNL A   1      44.715  24.890  27.684  1.00  0.00     0.049 A 
ATOM     37  N   UNL A   1      42.576  26.908  28.340  1.00  0.00    -0.248 NA
ATOM     38  C   UNL A   1      40.974  25.249  27.981  1.00  0.00     0.031 C 
ATOM     39  C   UNL A   1      45.789  23.964  27.322  1.00  0.00     0.029 A 
ATOM     40  N   UNL A   1      45.370  26.056  27.987  1.00  0.00    -0.354 N 
ATOM     41  C   UNL A   1      41.309  27.447  28.514  1.00  0.00     0.074 A 
ATOM     42  C   UNL A   1      40.358  26.399  28.214  1.00  0.00     0.031 C 
ATOM     43  C   UNL A   1      46.969  24.590  27.447  1.00  0.00     0.029 A 
ATOM     44  C   UNL A   1      46.734  25.972  27.853  1.00  0.00     0.049 A 
ATOM     45  H   UNL A   1      44.906  26.877  28.274  1.00  0.00     0.167 HD
ATOM     46  C   UNL A   1      40.969  28.697  28.911  1.00  0.00     0.037 A 
ATOM     47  C   UNL A   1      47.687  26.908  28.026  1.00  0.00     0.037 A 
ATOM     48  C   UNL A   1      41.922  29.731  29.224  1.00  0.00     0.049 A 
ATOM     49  C   UNL A   1      47.285  28.292  28.454  1.00  0.00     0.074 A 
ATOM     50  C   UNL A   1      41.684  31.010  29.693  1.00  0.00     0.029 A 
ATOM     51  N   UNL A   1      43.298  29.603  29.091  1.00  0.00    -0.354 N 
ATOM     52  N   UNL A   1      46.086  28.772  28.687  1.00  0.00    -0.248 NA
ATOM     53  C   UNL A   1      48.368  29.265  28.649  1.00  0.00     0.031 C 
ATOM     54  C   UNL A   1      42.910  31.677  29.786  1.00  0.00     0.029 A 
ATOM     55  C   UNL A   1      43.920  30.792  29.441  1.00  0.00     0.049 A 
ATOM     56  H   UNL A   1      43.764  28.789  28.792  1.00  0.00     0.167 HD
ATOM     57  C   UNL A   1      46.272  30.088  29.086  1.00  0.00     0.074 A 
ATOM     58  C   UNL A   1      47.701  30.329  29.075  1.00  0.00     0.031 C 
ATOM     59  C   UNL A   1      45.344  31.014  29.431  1.00  0.00     0.037 A 
BRANCH  46  60
ATOM     60  C   UNL A   1      39.505  29.018  29.022  1.00  0.00     0.064 A 
ATOM     61  C   UNL A   1      38.744  29.399  27.906  1.00  0.00     0.173 A 
ATOM     62  C   UNL A   1      38.846  28.915  30.257  1.00  0.00     0.173 A 
ATOM     63  F   UNL A   1      39.324  29.521  26.702  1.00  0.00    -0.203 F 
ATOM     64  C   UNL A   1      37.390  29.702  28.029  1.00  0.00     0.198 A 
ATOM     65  C   UNL A   1      37.484  29.186  30.370  1.00  0.00     0.198 A 
ATOM     66  F   UNL A   1      39.522  28.548  31.357  1.00  0.00    -0.203 F 
ATOM     67  F   UNL A   1      36.700  30.123  26.960  1.00  0.00    -0.200 F 
ATOM     68  C   UNL A   1      36.760  29.589  29.259  1.00  0.00     0.200 A 
ATOM     69  F   UNL A   1      36.874  29.059  31.556  1.00  0.00    -0.200 F 
ATOM     70  F   UNL A   1      35.457  29.876  29.375  1.00  0.00    -0.200 F 
ENDBRANCH  46  60
BRANCH  47  71
ATOM     71  C   UNL A   1      49.116  26.554  27.817  1.00  0.00     0.064 A 
ATOM     72  C   UNL A   1      49.963  26.306  28.906  1.00  0.00     0.173 A 
ATOM     73  C   UNL A   1      49.662  26.452  26.529  1.00  0.00     0.173 A 
ATOM     74  F   UNL A   1      49.493  26.410  30.158  1.00  0.00    -0.203 F 
ATOM     75  C   UNL A   1      51.306  25.988  28.715  1.00  0.00     0.198 A 
ATOM     76  C   UNL A   1      50.998  26.104  26.339  1.00  0.00     0.198 A 
ATOM     77  F   UNL A   1      48.893  26.674  25.453  1.00  0.00    -0.203 F 
ATOM     78  F   UNL A   1      52.104  25.801  29.775  1.00  0.00    -0.200 F 
ATOM     79  C   UNL A   1      51.821  25.879  27.432  1.00  0.00     0.200 A 
ATOM     80  F   UNL A   1      51.486  25.984  25.097  1.00  0.00    -0.200 F 
ATOM     81  F   UNL A   1      53.111  25.568  27.249  1.00  0.00    -0.200 F 
ENDBRANCH  47  71
BRANCH  59  82
ATOM     82  C   UNL A   1      45.842  32.362  29.867  1.00  0.00     0.064 A 
ATOM     83  C   UNL A   1      45.961  33.434  28.971  1.00  0.00     0.173 A 
ATOM     84  C   UNL A   1      46.166  32.595  31.213  1.00  0.00     0.173 A 
ATOM     85  F   UNL A   1      45.679  33.262  27.670  1.00  0.00    -0.203 F 
ATOM     86  C   UNL A   1      46.411  34.681  29.400  1.00  0.00     0.198 A 
ATOM     87  C   UNL A   1      46.582  33.850  31.646  1.00  0.00     0.198 A 
ATOM     88  F   UNL A   1      46.063  31.606  32.115  1.00  0.00    -0.203 F 
ATOM     89  F   UNL A   1      46.567  35.675  28.515  1.00  0.00    -0.200 F 
ATOM     90  C   UNL A   1      46.713  34.890  30.737  1.00  0.00     0.200 A 
ATOM     91  F   UNL A   1      46.855  34.055  32.942  1.00  0.00    -0.200 F 
ATOM     92  F   UNL A   1      47.135  36.093  31.150  1.00  0.00    -0.200 F 
ENDBRANCH  59  82
ENDBRANCH  33  34
ENDBRANCH  25  28
ENDBRANCH  23  24
ENDBRANCH   1  23
TORSDOF 12
ENDMDL
MODEL 2
REMARK VINA RESULT:     -12.3      5.116     10.528
REMARK SMILES COc1ccc(-c2cc(C(=O)NCCCNC(=O)c3ccc(-c4c5nc(c(-c6c(F)c(F)c(F)c(F)c6F)c6ccc([nH]6)c(-c6c(F)c(F)c(F)c(F)c6F)c6nc(c(-c7c(F)c(F)c(F)c(F)c7F)c7ccc4[nH]7)C=C6)C=C5)cc3)nc(=O)n2C)cc1
REMARK SMILES IDX 14 1 13 2 12 3 10 4 11 5 9 7 7 8 8 9 85 10 83 11 86 12 82 13
REMARK SMILES IDX 84 14 6 15 3 16 4 17 88 18 5 19 87 20 2 21 1 22 15 23 16 24
REMARK SMILES IDX 17 25 18 27 19 28 20 29 81 30 21 31 80 32 22 33 23 34 24 35
REMARK SMILES IDX 74 36 25 37 79 38 73 39 75 40 26 41 78 42 72 43 71 44 27 46
REMARK SMILES IDX 59 47 39 48 58 49 40 50 43 51 57 52 76 53 41 54 42 55 56 57
REMARK SMILES IDX 77 58 44 59 28 60 29 61 37 62 30 63 31 64 35 65 38 66 32 67
REMARK SMILES IDX 33 68 36 69 34 70 60 71 61 72 69 73 62 74 63 75 67 76 70 77
REMARK SMILES IDX 64 78 65 79 68 80 66 81 45 82 46 83 54 84 47 85 48 86 52 87
REMARK SMILES IDX 55 88 49 89 50 90 53 91 51 92
REMARK H PARENT 12 6 16 26 75 45 43 56
REMARK Flexibility Score: inf
ROOT
ATOM      1  C   UNL A   1      31.403  31.755  26.501  1.00  0.00     0.042 C 
ENDROOT
BRANCH   1   2
ATOM      2  C   UNL A   1      31.601  30.280  26.161  1.00  0.00     0.118 C 
BRANCH   2   3
ATOM      3  N   UNL A   1      31.626  30.072  24.723  1.00  0.00    -0.351 N 
ATOM      4  C   UNL A   1      31.737  28.913  23.997  1.00  0.00     0.270 C 
ATOM      5  O   UNL A   1      31.845  28.972  22.776  1.00  0.00    -0.268 OA
ATOM      6  H   UNL A   1      31.552  30.893  24.184  1.00  0.00     0.163 HD
BRANCH   4   7
ATOM      7  C   UNL A   1      31.677  27.540  24.667  1.00  0.00     0.136 A 
ATOM      8  C   UNL A   1      32.803  25.473  24.990  1.00  0.00     0.055 A 
ATOM      9  C   UNL A   1      32.845  26.681  24.421  1.00  0.00     0.061 A 
ATOM     10  N   UNL A   1      31.699  25.081  25.728  1.00  0.00    -0.295 N 
ATOM     11  C   UNL A   1      30.603  25.936  25.909  1.00  0.00     0.348 A 
ATOM     12  C   UNL A   1      31.584  23.753  26.313  1.00  0.00     0.155 C 
ATOM     13  N   UNL A   1      30.662  27.203  25.390  1.00  0.00    -0.188 NA
ATOM     14  O   UNL A   1      29.592  25.564  26.500  1.00  0.00    -0.246 OA
BRANCH   8  15
ATOM     15  C   UNL A   1      33.969  24.600  24.783  1.00  0.00    -0.001 A 
ATOM     16  C   UNL A   1      36.252  23.020  24.344  1.00  0.00     0.118 A 
ATOM     17  C   UNL A   1      36.144  23.800  25.496  1.00  0.00     0.047 A 
ATOM     18  C   UNL A   1      35.208  23.016  23.417  1.00  0.00     0.047 A 
ATOM     19  C   UNL A   1      35.014  24.590  25.715  1.00  0.00     0.014 A 
ATOM     20  C   UNL A   1      34.073  23.807  23.633  1.00  0.00     0.014 A 
BRANCH  16  21
ATOM     21  O   UNL A   1      37.403  22.287  24.250  1.00  0.00    -0.497 OA
ATOM     22  C   UNL A   1      37.882  21.712  25.460  1.00  0.00     0.278 C 
ENDBRANCH  16  21
ENDBRANCH   8  15
ENDBRANCH   4   7
ENDBRANCH   2   3
ENDBRANCH   1   2
BRANCH   1  23
ATOM     23  C   UNL A   1      32.699  32.457  26.906  1.00  0.00     0.118 C 
BRANCH  23  24
ATOM     24  N   UNL A   1      32.474  33.829  27.347  1.00  0.00    -0.352 N 
ATOM     25  C   UNL A   1      33.018  34.529  28.393  1.00  0.00     0.251 C 
ATOM     26  H   UNL A   1      31.826  34.336  26.806  1.00  0.00     0.163 HD
ATOM     27  O   UNL A   1      32.529  35.603  28.728  1.00  0.00    -0.269 OA
BRANCH  25  28
ATOM     28  C   UNL A   1      34.186  33.996  29.123  1.00  0.00     0.039 A 
ATOM     29  C   UNL A   1      33.974  33.105  30.179  1.00  0.00     0.014 A 
ATOM     30  C   UNL A   1      35.482  34.401  28.796  1.00  0.00     0.014 A 
ATOM     31  C   UNL A   1      35.066  32.575  30.867  1.00  0.00     0.010 A 
ATOM     32  C   UNL A   1      36.572  33.810  29.428  1.00  0.00     0.010 A 
ATOM     33  C   UNL A   1      36.376  32.895  30.473  1.00  0.00    -0.014 A 
BRANCH  33  34
ATOM     34  C   UNL A   1      37.552  32.281  31.138  1.00  0.00     0.031 A 
ATOM     35  C   UNL A   1      38.298  31.159  30.473  1.00  0.00     0.074 A 
ATOM     36  C   UNL A   1      37.902  32.688  32.374  1.00  0.00     0.049 A 
ATOM     37  N   UNL A   1      39.300  30.446  30.925  1.00  0.00    -0.248 NA
ATOM     38  C   UNL A   1      37.839  30.764  29.132  1.00  0.00     0.031 C 
ATOM     39  C   UNL A   1      37.224  33.733  33.141  1.00  0.00     0.029 A 
ATOM     40  N   UNL A   1      38.906  32.262  33.205  1.00  0.00    -0.354 N 
ATOM     41  C   UNL A   1      39.578  29.515  29.934  1.00  0.00     0.074 A 
ATOM     42  C   UNL A   1      38.605  29.712  28.882  1.00  0.00     0.031 C 
ATOM     43  C   UNL A   1      37.845  33.884  34.322  1.00  0.00     0.029 A 
ATOM     44  C   UNL A   1      38.935  32.917  34.412  1.00  0.00     0.049 A 
ATOM     45  H   UNL A   1      39.546  31.554  32.961  1.00  0.00     0.167 HD
ATOM     46  C   UNL A   1      40.570  28.593  29.895  1.00  0.00     0.037 A 
ATOM     47  C   UNL A   1      39.742  32.749  35.478  1.00  0.00     0.037 A 
ATOM     48  C   UNL A   1      41.546  28.414  30.939  1.00  0.00     0.049 A 
ATOM     49  C   UNL A   1      40.828  31.710  35.416  1.00  0.00     0.074 A 
ATOM     50  C   UNL A   1      42.627  27.552  30.971  1.00  0.00     0.029 A 
ATOM     51  N   UNL A   1      41.552  29.108  32.142  1.00  0.00    -0.354 N 
ATOM     52  N   UNL A   1      41.129  30.882  34.444  1.00  0.00    -0.248 NA
ATOM     53  C   UNL A   1      41.692  31.585  36.598  1.00  0.00     0.031 C 
ATOM     54  C   UNL A   1      43.252  27.679  32.215  1.00  0.00     0.029 A 
ATOM     55  C   UNL A   1      42.602  28.670  32.935  1.00  0.00     0.049 A 
ATOM     56  H   UNL A   1      40.907  29.806  32.394  1.00  0.00     0.167 HD
ATOM     57  C   UNL A   1      42.232  30.163  34.882  1.00  0.00     0.074 A 
ATOM     58  C   UNL A   1      42.556  30.660  36.203  1.00  0.00     0.031 C 
ATOM     59  C   UNL A   1      42.916  29.180  34.246  1.00  0.00     0.037 A 
BRANCH  46  60
ATOM     60  C   UNL A   1      40.645  27.703  28.687  1.00  0.00     0.064 A 
ATOM     61  C   UNL A   1      41.446  28.023  27.580  1.00  0.00     0.173 A 
ATOM     62  C   UNL A   1      39.927  26.497  28.646  1.00  0.00     0.173 A 
ATOM     63  F   UNL A   1      42.147  29.167  27.562  1.00  0.00    -0.203 F 
ATOM     64  C   UNL A   1      41.496  27.191  26.463  1.00  0.00     0.198 A 
ATOM     65  C   UNL A   1      40.006  25.651  27.542  1.00  0.00     0.198 A 
ATOM     66  F   UNL A   1      39.150  26.135  29.678  1.00  0.00    -0.203 F 
ATOM     67  F   UNL A   1      42.220  27.551  25.395  1.00  0.00    -0.200 F 
ATOM     68  C   UNL A   1      40.781  26.003  26.448  1.00  0.00     0.200 A 
ATOM     69  F   UNL A   1      39.328  24.495  27.536  1.00  0.00    -0.200 F 
ATOM     70  F   UNL A   1      40.834  25.202  25.376  1.00  0.00    -0.200 F 
ENDBRANCH  46  60
BRANCH  47  71
ATOM     71  C   UNL A   1      39.564  33.602  36.681  1.00  0.00     0.064 A 
ATOM     72  C   UNL A   1      40.188  34.853  36.775  1.00  0.00     0.173 A 
ATOM     73  C   UNL A   1      38.765  33.190  37.758  1.00  0.00     0.173 A 
ATOM     74  F   UNL A   1      40.979  35.284  35.780  1.00  0.00    -0.203 F 
ATOM     75  C   UNL A   1      40.037  35.651  37.907  1.00  0.00     0.198 A 
ATOM     76  C   UNL A   1      38.589  34.002  38.876  1.00  0.00     0.198 A 
ATOM     77  F   UNL A   1      38.141  32.003  37.716  1.00  0.00    -0.203 F 
ATOM     78  F   UNL A   1      40.682  36.822  37.990  1.00  0.00    -0.200 F 
ATOM     79  C   UNL A   1      39.231  35.228  38.953  1.00  0.00     0.200 A 
ATOM     80  F   UNL A   1      37.797  33.596  39.878  1.00  0.00    -0.200 F 
ATOM     81  F   UNL A   1      39.080  35.999  40.039  1.00  0.00    -0.200 F 
ENDBRANCH  47  71
BRANCH  59  82
ATOM     82  C   UNL A   1      44.111  28.603  34.951  1.00  0.00     0.064 A 
ATOM     83  C   UNL A   1      45.389  29.165  34.823  1.00  0.00     0.173 A 
ATOM     84  C   UNL A   1      43.963  27.496  35.800  1.00  0.00     0.173 A 
ATOM     85  F   UNL A   1      45.588  30.215  34.012  1.00  0.00    -0.203 F 
ATOM     86  C   UNL A   1      46.481  28.623  35.498  1.00  0.00     0.198 A 
ATOM     87  C   UNL A   1      45.049  26.978  36.501  1.00  0.00     0.198 A 
ATOM     88  F   UNL A   1      42.761  26.923  35.964  1.00  0.00    -0.203 F 
ATOM     89  F   UNL A   1      47.702  29.144  35.320  1.00  0.00    -0.200 F 
ATOM     90  C   UNL A   1      46.308  27.536  36.343  1.00  0.00     0.200 A 
ATOM     91  F   UNL A   1      44.876  25.939  37.330  1.00  0.00    -0.200 F 
ATOM     92  F   UNL A   1      47.357  27.023  37.000  1.00  0.00    -0.200 F 
ENDBRANCH  59  82
ENDBRANCH  33  34
ENDBRANCH  25  28
ENDBRANCH  23  24
ENDBRANCH   1  23
TORSDOF 12
ENDMDL
MODEL 3
REMARK VINA RESULT:     -12.3      5.271     10.699
REMARK SMILES COc1ccc(-c2cc(C(=O)NCCCNC(=O)c3ccc(-c4c5nc(c(-c6c(F)c(F)c(F)c(F)c6F)c6ccc([nH]6)c(-c6c(F)c(F)c(F)c(F)c6F)c6nc(c(-c7c(F)c(F)c(F)c(F)c7F)c7ccc4[nH]7)C=C6)C=C5)cc3)nc(=O)n2C)cc1
REMARK SMILES IDX 14 1 13 2 12 3 10 4 11 5 9 7 7 8 8 9 85 10 83 11 86 12 82 13
REMARK SMILES IDX 84 14 6 15 3 16 4 17 88 18 5 19 87 20 2 21 1 22 15 23 16 24
REMARK SMILES IDX 17 25 18 27 19 28 20 29 81 30 21 31 80 32 22 33 23 34 24 35
REMARK SMILES IDX 74 36 25 37 79 38 73 39 75 40 26 41 78 42 72 43 71 44 27 46
REMARK SMILES IDX 59 47 39 48 58 49 40 50 43 51 57 52 76 53 41 54 42 55 56 57
REMARK SMILES IDX 77 58 44 59 28 60 29 61 37 62 30 63 31 64 35 65 38 66 32 67
REMARK SMILES IDX 33 68 36 69 34 70 60 71 61 72 69 73 62 74 63 75 67 76 70 77
REMARK SMILES IDX 64 78 65 79 68 80 66 81 45 82 46 83 54 84 47 85 48 86 52 87
REMARK SMILES IDX 55 88 49 89 50 90 53 91 51 92
REMARK H PARENT 12 6 16 26 75 45 43 56
REMARK Flexibility Score: inf
ROOT
ATOM      1  C   UNL A   1      31.514  32.203  26.859  1.00  0.00     0.042 C 
ENDROOT
BRANCH   1   2
ATOM      2  C   UNL A   1      31.759  30.696  26.882  1.00  0.00     0.118 C 
BRANCH   2   3
ATOM      3  N   UNL A   1      33.044  30.382  27.483  1.00  0.00    -0.351 N 
ATOM      4  C   UNL A   1      33.955  29.407  27.167  1.00  0.00     0.270 C 
ATOM      5  O   UNL A   1      34.942  29.247  27.879  1.00  0.00    -0.268 OA
ATOM      6  H   UNL A   1      33.301  30.961  28.237  1.00  0.00     0.163 HD
BRANCH   4   7
ATOM      7  C   UNL A   1      33.801  28.542  25.915  1.00  0.00     0.136 A 
ATOM      8  C   UNL A   1      33.686  26.323  25.076  1.00  0.00     0.055 A 
ATOM      9  C   UNL A   1      33.807  27.093  26.161  1.00  0.00     0.061 A 
ATOM     10  N   UNL A   1      33.595  26.892  23.816  1.00  0.00    -0.295 N 
ATOM     11  C   UNL A   1      33.619  28.282  23.642  1.00  0.00     0.348 A 
ATOM     12  C   UNL A   1      33.524  26.090  22.604  1.00  0.00     0.155 C 
ATOM     13  N   UNL A   1      33.673  29.086  24.751  1.00  0.00    -0.188 NA
ATOM     14  O   UNL A   1      33.614  28.787  22.521  1.00  0.00    -0.246 OA
BRANCH   8  15
ATOM     15  C   UNL A   1      33.663  24.868  25.293  1.00  0.00    -0.001 A 
ATOM     16  C   UNL A   1      33.613  22.107  25.818  1.00  0.00     0.118 A 
ATOM     17  C   UNL A   1      32.424  22.834  25.749  1.00  0.00     0.047 A 
ATOM     18  C   UNL A   1      34.829  22.758  25.605  1.00  0.00     0.047 A 
ATOM     19  C   UNL A   1      32.445  24.207  25.494  1.00  0.00     0.014 A 
ATOM     20  C   UNL A   1      34.855  24.134  25.349  1.00  0.00     0.014 A 
BRANCH  16  21
ATOM     21  O   UNL A   1      33.459  20.771  26.067  1.00  0.00    -0.497 OA
ATOM     22  C   UNL A   1      32.657  20.048  25.140  1.00  0.00     0.278 C 
ENDBRANCH  16  21
ENDBRANCH   8  15
ENDBRANCH   4   7
ENDBRANCH   2   3
ENDBRANCH   1   2
BRANCH   1  23
ATOM     23  C   UNL A   1      32.785  33.022  27.086  1.00  0.00     0.118 C 
BRANCH  23  24
ATOM     24  N   UNL A   1      32.504  34.345  27.633  1.00  0.00    -0.352 N 
ATOM     25  C   UNL A   1      33.003  34.973  28.745  1.00  0.00     0.251 C 
ATOM     26  H   UNL A   1      31.850  34.873  27.120  1.00  0.00     0.163 HD
ATOM     27  O   UNL A   1      32.470  35.999  29.155  1.00  0.00    -0.269 OA
BRANCH  25  28
ATOM     28  C   UNL A   1      34.173  34.420  29.455  1.00  0.00     0.039 A 
ATOM     29  C   UNL A   1      33.977  33.774  30.679  1.00  0.00     0.014 A 
ATOM     30  C   UNL A   1      35.462  34.571  28.940  1.00  0.00     0.014 A 
ATOM     31  C   UNL A   1      35.068  33.226  31.355  1.00  0.00     0.010 A 
ATOM     32  C   UNL A   1      36.537  33.954  29.573  1.00  0.00     0.010 A 
ATOM     33  C   UNL A   1      36.353  33.281  30.790  1.00  0.00    -0.014 A 
BRANCH  33  34
ATOM     34  C   UNL A   1      37.513  32.636  31.452  1.00  0.00     0.031 A 
ATOM     35  C   UNL A   1      38.211  31.476  30.798  1.00  0.00     0.074 A 
ATOM     36  C   UNL A   1      37.892  33.050  32.677  1.00  0.00     0.049 A 
ATOM     37  N   UNL A   1      39.192  30.736  31.251  1.00  0.00    -0.248 NA
ATOM     38  C   UNL A   1      37.723  31.076  29.469  1.00  0.00     0.031 C 
ATOM     39  C   UNL A   1      37.261  34.132  33.434  1.00  0.00     0.029 A 
ATOM     40  N   UNL A   1      38.890  32.603  33.505  1.00  0.00    -0.354 N 
ATOM     41  C   UNL A   1      39.425  29.778  30.274  1.00  0.00     0.074 A 
ATOM     42  C   UNL A   1      38.447  29.993  29.229  1.00  0.00     0.031 C 
ATOM     43  C   UNL A   1      37.901  34.279  34.605  1.00  0.00     0.029 A 
ATOM     44  C   UNL A   1      38.956  33.276  34.700  1.00  0.00     0.049 A 
ATOM     45  H   UNL A   1      39.501  31.868  33.266  1.00  0.00     0.167 HD
ATOM     46  C   UNL A   1      40.383  28.821  30.240  1.00  0.00     0.037 A 
ATOM     47  C   UNL A   1      39.769  33.096  35.759  1.00  0.00     0.037 A 
ATOM     48  C   UNL A   1      41.364  28.624  31.276  1.00  0.00     0.049 A 
ATOM     49  C   UNL A   1      40.816  32.018  35.704  1.00  0.00     0.074 A 
ATOM     50  C   UNL A   1      42.414  27.724  31.310  1.00  0.00     0.029 A 
ATOM     51  N   UNL A   1      41.409  29.337  32.467  1.00  0.00    -0.354 N 
ATOM     52  N   UNL A   1      41.075  31.164  34.742  1.00  0.00    -0.248 NA
ATOM     53  C   UNL A   1      41.688  31.882  36.878  1.00  0.00     0.031 C 
ATOM     54  C   UNL A   1      43.057  27.850  32.545  1.00  0.00     0.029 A 
ATOM     55  C   UNL A   1      42.452  28.875  33.255  1.00  0.00     0.049 A 
ATOM     56  H   UNL A   1      40.792  30.063  32.714  1.00  0.00     0.167 HD
ATOM     57  C   UNL A   1      42.157  30.413  35.180  1.00  0.00     0.074 A 
ATOM     58  C   UNL A   1      42.514  30.920  36.490  1.00  0.00     0.031 C 
ATOM     59  C   UNL A   1      42.798  29.395  34.554  1.00  0.00     0.037 A 
BRANCH  46  60
ATOM     60  C   UNL A   1      40.412  27.909  29.046  1.00  0.00     0.064 A 
ATOM     61  C   UNL A   1      39.660  26.724  29.001  1.00  0.00     0.173 A 
ATOM     62  C   UNL A   1      41.181  28.236  27.919  1.00  0.00     0.173 A 
ATOM     63  F   UNL A   1      38.914  26.358  30.054  1.00  0.00    -0.203 F 
ATOM     64  C   UNL A   1      39.706  25.885  27.890  1.00  0.00     0.198 A 
ATOM     65  C   UNL A   1      41.198  27.412  26.796  1.00  0.00     0.198 A 
ATOM     66  F   UNL A   1      41.915  29.360  27.902  1.00  0.00    -0.203 F 
ATOM     67  F   UNL A   1      39.027  24.729  27.898  1.00  0.00    -0.200 F 
ATOM     68  C   UNL A   1      40.470  26.232  26.787  1.00  0.00     0.200 A 
ATOM     69  F   UNL A   1      41.923  27.758  25.723  1.00  0.00    -0.200 F 
ATOM     70  F   UNL A   1      40.510  25.427  25.717  1.00  0.00    -0.200 F 
ENDBRANCH  46  60
BRANCH  47  71
ATOM     71  C   UNL A   1      39.636  33.975  36.950  1.00  0.00     0.064 A 
ATOM     72  C   UNL A   1      38.865  33.582  38.053  1.00  0.00     0.173 A 
ATOM     73  C   UNL A   1      40.278  35.221  37.014  1.00  0.00     0.173 A 
ATOM     74  F   UNL A   1      38.214  32.409  38.031  1.00  0.00    -0.203 F 
ATOM     75  C   UNL A   1      38.725  34.409  39.166  1.00  0.00     0.198 A 
ATOM     76  C   UNL A   1      40.163  36.033  38.141  1.00  0.00     0.198 A 
ATOM     77  F   UNL A   1      41.033  35.641  35.988  1.00  0.00    -0.203 F 
ATOM     78  F   UNL A   1      37.945  34.029  40.186  1.00  0.00    -0.200 F 
ATOM     79  C   UNL A   1      39.381  35.630  39.212  1.00  0.00     0.200 A 
ATOM     80  F   UNL A   1      40.811  37.205  38.187  1.00  0.00    -0.200 F 
ATOM     81  F   UNL A   1      39.252  36.422  40.285  1.00  0.00    -0.200 F 
ENDBRANCH  47  71
BRANCH  59  82
ATOM     82  C   UNL A   1      43.979  28.788  35.256  1.00  0.00     0.064 A 
ATOM     83  C   UNL A   1      45.289  29.234  35.025  1.00  0.00     0.173 A 
ATOM     84  C   UNL A   1      43.791  27.771  36.205  1.00  0.00     0.173 A 
ATOM     85  F   UNL A   1      45.526  30.193  34.117  1.00  0.00    -0.203 F 
ATOM     86  C   UNL A   1      46.368  28.666  35.698  1.00  0.00     0.198 A 
ATOM     87  C   UNL A   1      44.868  27.230  36.901  1.00  0.00     0.198 A 
ATOM     88  F   UNL A   1      42.559  27.311  36.469  1.00  0.00    -0.203 F 
ATOM     89  F   UNL A   1      47.615  29.073  35.423  1.00  0.00    -0.200 F 
ATOM     90  C   UNL A   1      46.157  27.672  36.641  1.00  0.00     0.200 A 
ATOM     91  F   UNL A   1      44.659  26.281  37.825  1.00  0.00    -0.200 F 
ATOM     92  F   UNL A   1      47.195  27.134  37.296  1.00  0.00    -0.200 F 
ENDBRANCH  59  82
ENDBRANCH  33  34
ENDBRANCH  25  28
ENDBRANCH  23  24
ENDBRANCH   1  23
TORSDOF 12
ENDMDL
