MODEL 1
REMARK VINA RESULT:     -12.4      0.000      0.000
REMARK SMILES Cc1nc(C)c(C(=O)N[C@@H](Cc2ccccc2)C(=O)NCCCNC(=O)c2ccc(-c3c4nc(c(-c5c(F)c(F)c(F)c(F)c5F)c5ccc([nH]5)c(-c5c(F)c(F)c(F)c(F)c5F)c5nc(c(-c6c(F)c(F)c(F)c(F)c6F)c6ccc3[nH]6)C=C5)C=C4)cc2)s1
REMARK SMILES IDX 22 1 21 2 20 3 18 4 19 5 10 7 9 8 7 9 8 10 6 12 1 13 2 14
REMARK SMILES IDX 3 15 90 16 4 17 5 18 11 19 12 20 13 21 17 22 14 23 16 24
REMARK SMILES IDX 15 25 23 26 24 27 25 28 26 30 27 31 28 32 89 33 29 34 88 35
REMARK SMILES IDX 30 36 31 37 32 38 82 39 33 40 87 41 81 42 83 43 34 44 86 45
REMARK SMILES IDX 80 46 79 47 35 49 67 50 47 51 66 52 48 53 51 54 65 55 84 56
REMARK SMILES IDX 49 57 50 58 64 60 85 61 52 62 36 63 37 64 45 65 38 66 39 67
REMARK SMILES IDX 43 68 46 69 40 70 41 71 44 72 42 73 68 74 69 75 77 76 70 77
REMARK SMILES IDX 71 78 75 79 78 80 72 81 73 82 76 83 74 84 53 85 54 86 62 87
REMARK SMILES IDX 55 88 56 89 60 90 63 91 57 92 58 93 61 94 59 95
REMARK H PARENT 20 6 9 11 24 29 83 48 51 59
REMARK Flexibility Score: inf
ROOT
ATOM      1  C   UNL A   1      31.747  27.891  26.243  1.00  0.00     0.042 C 
ENDROOT
BRANCH   1   2
ATOM      2  C   UNL A   1      32.292  26.483  26.325  1.00  0.00     0.117 C 
BRANCH   2   3
ATOM      3  N   UNL A   1      31.378  25.501  26.864  1.00  0.00    -0.354 N 
ATOM      4  C   UNL A   1      31.153  24.222  26.443  1.00  0.00     0.242 C 
ATOM      5  O   UNL A   1      30.714  23.433  27.287  1.00  0.00    -0.273 OA
ATOM      6  H   UNL A   1      30.847  25.794  27.639  1.00  0.00     0.163 HD
BRANCH   4   7
ATOM      7  C   UNL A   1      31.481  23.728  25.013  1.00  0.00     0.176 C 
BRANCH   7   8
ATOM      8  N   UNL A   1      31.919  22.326  24.994  1.00  0.00    -0.339 N 
ATOM      9  C   UNL A   1      33.117  21.670  25.146  1.00  0.00     0.263 C 
ATOM     10  O   UNL A   1      32.959  20.450  25.275  1.00  0.00    -0.268 OA
ATOM     11  H   UNL A   1      31.173  21.706  24.831  1.00  0.00     0.164 HD
BRANCH   9  12
ATOM     12  C   UNL A   1      34.446  22.273  25.114  1.00  0.00     0.115 A 
ATOM     13  C   UNL A   1      37.984  23.585  26.123  1.00  0.00     0.079 C 
ATOM     14  C   UNL A   1      36.686  23.178  25.520  1.00  0.00     0.091 A 
ATOM     15  N   UNL A   1      36.277  23.542  24.331  1.00  0.00    -0.246 NA
ATOM     16  S   UNL A   1      35.604  22.184  26.373  1.00  0.00    -0.113 S 
ATOM     17  C   UNL A   1      35.008  23.027  24.077  1.00  0.00     0.061 A 
ATOM     18  C   UNL A   1      34.430  23.388  22.751  1.00  0.00     0.068 C 
ENDBRANCH   9  12
ENDBRANCH   7   8
BRANCH   7  19
ATOM     19  C   UNL A   1      30.456  24.089  23.916  1.00  0.00     0.070 C 
BRANCH  19  20
ATOM     20  C   UNL A   1      30.342  25.527  23.472  1.00  0.00    -0.045 A 
ATOM     21  C   UNL A   1      29.241  26.315  23.840  1.00  0.00     0.004 A 
ATOM     22  C   UNL A   1      31.361  26.105  22.697  1.00  0.00     0.004 A 
ATOM     23  C   UNL A   1      29.203  27.672  23.509  1.00  0.00     0.000 A 
ATOM     24  C   UNL A   1      31.312  27.457  22.355  1.00  0.00     0.000 A 
ATOM     25  C   UNL A   1      30.243  28.245  22.777  1.00  0.00     0.000 A 
ENDBRANCH  19  20
ENDBRANCH   7  19
ENDBRANCH   4   7
ENDBRANCH   2   3
ENDBRANCH   1   2
BRANCH   1  26
ATOM     26  C   UNL A   1      32.774  28.913  25.786  1.00  0.00     0.118 C 
BRANCH  26  27
ATOM     27  N   UNL A   1      32.439  30.287  26.158  1.00  0.00    -0.352 N 
ATOM     28  C   UNL A   1      33.082  31.192  26.970  1.00  0.00     0.251 C 
ATOM     29  H   UNL A   1      31.606  30.625  25.756  1.00  0.00     0.163 HD
ATOM     30  O   UNL A   1      32.533  32.252  27.257  1.00  0.00    -0.269 OA
BRANCH  28  31
ATOM     31  C   UNL A   1      34.412  30.878  27.535  1.00  0.00     0.039 A 
ATOM     32  C   UNL A   1      35.339  31.909  27.719  1.00  0.00     0.014 A 
ATOM     33  C   UNL A   1      34.743  29.576  27.903  1.00  0.00     0.014 A 
ATOM     34  C   UNL A   1      36.546  31.647  28.373  1.00  0.00     0.010 A 
ATOM     35  C   UNL A   1      35.878  29.343  28.667  1.00  0.00     0.010 A 
ATOM     36  C   UNL A   1      36.797  30.374  28.907  1.00  0.00    -0.014 A 
BRANCH  36  37
ATOM     37  C   UNL A   1      38.013  30.077  29.709  1.00  0.00     0.031 A 
ATOM     38  C   UNL A   1      39.051  29.131  29.166  1.00  0.00     0.074 A 
ATOM     39  C   UNL A   1      38.133  30.574  30.956  1.00  0.00     0.049 A 
ATOM     40  N   UNL A   1      40.098  28.619  29.761  1.00  0.00    -0.248 NA
ATOM     41  C   UNL A   1      38.860  28.661  27.784  1.00  0.00     0.031 C 
ATOM     42  C   UNL A   1      37.167  31.451  31.620  1.00  0.00     0.029 A 
ATOM     43  N   UNL A   1      39.118  30.398  31.897  1.00  0.00    -0.354 N 
ATOM     44  C   UNL A   1      40.665  27.748  28.839  1.00  0.00     0.074 A 
ATOM     45  C   UNL A   1      39.814  27.751  27.671  1.00  0.00     0.031 C 
ATOM     46  C   UNL A   1      37.620  31.760  32.847  1.00  0.00     0.029 A 
ATOM     47  C   UNL A   1      38.884  31.068  33.073  1.00  0.00     0.049 A 
ATOM     48  H   UNL A   1      39.916  29.842  31.743  1.00  0.00     0.167 HD
ATOM     49  C   UNL A   1      41.810  27.033  28.945  1.00  0.00     0.037 A 
ATOM     50  C   UNL A   1      39.607  31.112  34.208  1.00  0.00     0.037 A 
ATOM     51  C   UNL A   1      42.683  27.076  30.086  1.00  0.00     0.049 A 
ATOM     52  C   UNL A   1      40.892  30.332  34.287  1.00  0.00     0.074 A 
ATOM     53  C   UNL A   1      43.899  26.441  30.267  1.00  0.00     0.029 A 
ATOM     54  N   UNL A   1      42.438  27.811  31.236  1.00  0.00    -0.354 N 
ATOM     55  N   UNL A   1      41.445  29.555  33.387  1.00  0.00    -0.248 NA
ATOM     56  C   UNL A   1      41.656  30.439  35.537  1.00  0.00     0.031 C 
ATOM     57  C   UNL A   1      44.376  26.770  31.540  1.00  0.00     0.029 A 
ATOM     58  C   UNL A   1      43.478  27.641  32.133  1.00  0.00     0.049 A 
ATOM     59  H   UNL A   1      41.643  28.371  31.390  1.00  0.00     0.167 HD
ATOM     60  C   UNL A   1      42.632  29.109  33.948  1.00  0.00     0.074 A 
ATOM     61  C   UNL A   1      42.728  29.711  35.261  1.00  0.00     0.031 C 
ATOM     62  C   UNL A   1      43.561  28.271  33.425  1.00  0.00     0.037 A 
BRANCH  49  63
ATOM     63  C   UNL A   1      42.196  26.165  27.783  1.00  0.00     0.064 A 
ATOM     64  C   UNL A   1      43.172  26.570  26.859  1.00  0.00     0.173 A 
ATOM     65  C   UNL A   1      41.615  24.901  27.611  1.00  0.00     0.173 A 
ATOM     66  F   UNL A   1      43.746  27.777  26.970  1.00  0.00    -0.203 F 
ATOM     67  C   UNL A   1      43.530  25.753  25.790  1.00  0.00     0.198 A 
ATOM     68  C   UNL A   1      41.999  24.073  26.559  1.00  0.00     0.198 A 
ATOM     69  F   UNL A   1      40.680  24.462  28.468  1.00  0.00    -0.203 F 
ATOM     70  F   UNL A   1      44.427  26.183  24.893  1.00  0.00    -0.200 F 
ATOM     71  C   UNL A   1      42.949  24.502  25.646  1.00  0.00     0.200 A 
ATOM     72  F   UNL A   1      41.445  22.859  26.426  1.00  0.00    -0.200 F 
ATOM     73  F   UNL A   1      43.302  23.713  24.622  1.00  0.00    -0.200 F 
ENDBRANCH  49  63
BRANCH  50  74
ATOM     74  C   UNL A   1      39.155  31.946  35.353  1.00  0.00     0.064 A 
ATOM     75  C   UNL A   1      38.407  31.383  36.397  1.00  0.00     0.173 A 
ATOM     76  C   UNL A   1      39.440  33.317  35.421  1.00  0.00     0.173 A 
ATOM     77  F   UNL A   1      38.092  30.079  36.366  1.00  0.00    -0.203 F 
ATOM     78  C   UNL A   1      37.935  32.165  37.450  1.00  0.00     0.198 A 
ATOM     79  C   UNL A   1      38.993  34.093  36.489  1.00  0.00     0.198 A 
ATOM     80  F   UNL A   1      40.159  33.903  34.452  1.00  0.00    -0.203 F 
ATOM     81  F   UNL A   1      37.177  31.611  38.405  1.00  0.00    -0.200 F 
ATOM     82  C   UNL A   1      38.231  33.519  37.496  1.00  0.00     0.200 A 
ATOM     83  F   UNL A   1      39.292  35.398  36.538  1.00  0.00    -0.200 F 
ATOM     84  F   UNL A   1      37.776  34.271  38.507  1.00  0.00    -0.200 F 
ENDBRANCH  50  74
BRANCH  62  85
ATOM     85  C   UNL A   1      44.782  27.995  34.253  1.00  0.00     0.064 A 
ATOM     86  C   UNL A   1      44.840  26.907  35.135  1.00  0.00     0.173 A 
ATOM     87  C   UNL A   1      45.919  28.806  34.125  1.00  0.00     0.173 A 
ATOM     88  F   UNL A   1      43.771  26.115  35.302  1.00  0.00    -0.203 F 
ATOM     89  C   UNL A   1      45.989  26.653  35.878  1.00  0.00     0.198 A 
ATOM     90  C   UNL A   1      47.076  28.532  34.848  1.00  0.00     0.198 A 
ATOM     91  F   UNL A   1      45.913  29.853  33.288  1.00  0.00    -0.203 F 
ATOM     92  F   UNL A   1      46.011  25.635  36.748  1.00  0.00    -0.200 F 
ATOM     93  C   UNL A   1      47.108  27.460  35.729  1.00  0.00     0.200 A 
ATOM     94  F   UNL A   1      48.159  29.304  34.693  1.00  0.00    -0.200 F 
ATOM     95  F   UNL A   1      48.217  27.210  36.439  1.00  0.00    -0.200 F 
ENDBRANCH  62  85
ENDBRANCH  36  37
ENDBRANCH  28  31
ENDBRANCH  26  27
ENDBRANCH   1  26
TORSDOF 14
ENDMDL
MODEL 2
REMARK VINA RESULT:     -12.4      1.080      7.500
REMARK SMILES Cc1nc(C)c(C(=O)N[C@@H](Cc2ccccc2)C(=O)NCCCNC(=O)c2ccc(-c3c4nc(c(-c5c(F)c(F)c(F)c(F)c5F)c5ccc([nH]5)c(-c5c(F)c(F)c(F)c(F)c5F)c5nc(c(-c6c(F)c(F)c(F)c(F)c6F)c6ccc3[nH]6)C=C5)C=C4)cc2)s1
REMARK SMILES IDX 22 1 21 2 20 3 18 4 19 5 10 7 9 8 7 9 8 10 6 12 1 13 2 14
REMARK SMILES IDX 3 15 90 16 4 17 5 18 11 19 12 20 13 21 17 22 14 23 16 24
REMARK SMILES IDX 15 25 23 26 24 27 25 28 26 30 27 31 28 32 89 33 29 34 88 35
REMARK SMILES IDX 30 36 31 37 32 38 82 39 33 40 87 41 81 42 83 43 34 44 86 45
REMARK SMILES IDX 80 46 79 47 35 49 67 50 47 51 66 52 48 53 51 54 65 55 84 56
REMARK SMILES IDX 49 57 50 58 64 60 85 61 52 62 36 63 37 64 45 65 38 66 39 67
REMARK SMILES IDX 43 68 46 69 40 70 41 71 44 72 42 73 68 74 69 75 77 76 70 77
REMARK SMILES IDX 71 78 75 79 78 80 72 81 73 82 76 83 74 84 53 85 54 86 62 87
REMARK SMILES IDX 55 88 56 89 60 90 63 91 57 92 58 93 61 94 59 95
REMARK H PARENT 20 6 9 11 24 29 83 48 51 59
REMARK Flexibility Score: inf
ROOT
ATOM      1  C   UNL A   1      31.797  28.973  26.568  1.00  0.00     0.042 C 
ENDROOT
BRANCH   1   2
ATOM      2  C   UNL A   1      31.968  27.543  26.105  1.00  0.00     0.117 C 
BRANCH   2   3
ATOM      3  N   UNL A   1      30.962  26.620  26.580  1.00  0.00    -0.354 N 
ATOM      4  C   UNL A   1      30.240  25.705  25.869  1.00  0.00     0.242 C 
ATOM      5  O   UNL A   1      29.807  24.733  26.500  1.00  0.00    -0.273 OA
ATOM      6  H   UNL A   1      30.772  26.655  27.545  1.00  0.00     0.163 HD
BRANCH   4   7
ATOM      7  C   UNL A   1      30.010  25.804  24.341  1.00  0.00     0.176 C 
BRANCH   7   8
ATOM      8  N   UNL A   1      30.283  24.535  23.653  1.00  0.00    -0.339 N 
ATOM      9  C   UNL A   1      31.330  23.647  23.610  1.00  0.00     0.263 C 
ATOM     10  O   UNL A   1      31.013  22.588  23.054  1.00  0.00    -0.268 OA
ATOM     11  H   UNL A   1      29.532  24.254  23.081  1.00  0.00     0.164 HD
BRANCH   9  12
ATOM     12  C   UNL A   1      32.688  23.883  24.093  1.00  0.00     0.115 A 
ATOM     13  C   UNL A   1      36.019  23.702  26.122  1.00  0.00     0.079 C 
ATOM     14  C   UNL A   1      34.858  23.951  25.226  1.00  0.00     0.091 A 
ATOM     15  N   UNL A   1      34.772  24.953  24.390  1.00  0.00    -0.246 NA
ATOM     16  S   UNL A   1      33.513  22.913  25.240  1.00  0.00    -0.113 S 
ATOM     17  C   UNL A   1      33.546  24.926  23.727  1.00  0.00     0.061 A 
ATOM     18  C   UNL A   1      33.327  26.033  22.752  1.00  0.00     0.068 C 
ENDBRANCH   9  12
ENDBRANCH   7   8
BRANCH   7  19
ATOM     19  C   UNL A   1      28.710  26.504  23.892  1.00  0.00     0.070 C 
BRANCH  19  20
ATOM     20  C   UNL A   1      28.799  27.880  23.278  1.00  0.00    -0.045 A 
ATOM     21  C   UNL A   1      30.024  28.396  22.828  1.00  0.00     0.004 A 
ATOM     22  C   UNL A   1      27.639  28.657  23.126  1.00  0.00     0.004 A 
ATOM     23  C   UNL A   1      30.070  29.627  22.167  1.00  0.00     0.000 A 
ATOM     24  C   UNL A   1      27.692  29.893  22.479  1.00  0.00     0.000 A 
ATOM     25  C   UNL A   1      28.904  30.368  21.982  1.00  0.00     0.000 A 
ENDBRANCH  19  20
ENDBRANCH   7  19
ENDBRANCH   4   7
ENDBRANCH   2   3
ENDBRANCH   1   2
BRANCH   1  26
ATOM     26  C   UNL A   1      32.823  29.926  25.980  1.00  0.00     0.118 C 
BRANCH  26  27
ATOM     27  N   UNL A   1      32.704  31.296  26.480  1.00  0.00    -0.352 N 
ATOM     28  C   UNL A   1      33.472  32.009  27.371  1.00  0.00     0.251 C 
ATOM     29  H   UNL A   1      31.939  31.796  26.114  1.00  0.00     0.163 HD
ATOM     30  O   UNL A   1      33.093  33.111  27.757  1.00  0.00    -0.269 OA
BRANCH  28  31
ATOM     31  C   UNL A   1      34.729  31.439  27.900  1.00  0.00     0.039 A 
ATOM     32  C   UNL A   1      35.846  32.267  28.051  1.00  0.00     0.014 A 
ATOM     33  C   UNL A   1      34.808  30.097  28.266  1.00  0.00     0.014 A 
ATOM     34  C   UNL A   1      36.996  31.772  28.672  1.00  0.00     0.010 A 
ATOM     35  C   UNL A   1      35.896  29.645  28.998  1.00  0.00     0.010 A 
ATOM     36  C   UNL A   1      37.006  30.474  29.207  1.00  0.00    -0.014 A 
BRANCH  36  37
ATOM     37  C   UNL A   1      38.163  29.944  29.975  1.00  0.00     0.031 A 
ATOM     38  C   UNL A   1      38.398  30.411  31.387  1.00  0.00     0.074 A 
ATOM     39  C   UNL A   1      39.050  29.127  29.374  1.00  0.00     0.049 A 
ATOM     40  N   UNL A   1      39.422  30.197  32.172  1.00  0.00    -0.248 NA
ATOM     41  C   UNL A   1      37.362  31.275  31.979  1.00  0.00     0.031 C 
ATOM     42  C   UNL A   1      38.970  28.650  27.992  1.00  0.00     0.029 A 
ATOM     43  N   UNL A   1      40.209  28.563  29.849  1.00  0.00    -0.354 N 
ATOM     44  C   UNL A   1      39.168  30.923  33.328  1.00  0.00     0.074 A 
ATOM     45  C   UNL A   1      37.927  31.634  33.120  1.00  0.00     0.031 C 
ATOM     46  C   UNL A   1      40.015  27.844  27.740  1.00  0.00     0.029 A 
ATOM     47  C   UNL A   1      40.862  27.783  28.926  1.00  0.00     0.049 A 
ATOM     48  H   UNL A   1      40.541  28.705  30.764  1.00  0.00     0.167 HD
ATOM     49  C   UNL A   1      39.889  30.969  34.473  1.00  0.00     0.037 A 
ATOM     50  C   UNL A   1      42.019  27.100  29.025  1.00  0.00     0.037 A 
ATOM     51  C   UNL A   1      41.094  30.217  34.697  1.00  0.00     0.049 A 
ATOM     52  C   UNL A   1      42.784  27.144  30.320  1.00  0.00     0.074 A 
ATOM     53  C   UNL A   1      41.864  30.142  35.843  1.00  0.00     0.029 A 
ATOM     54  N   UNL A   1      41.692  29.394  33.755  1.00  0.00    -0.354 N 
ATOM     55  N   UNL A   1      42.503  27.791  31.426  1.00  0.00    -0.248 NA
ATOM     56  C   UNL A   1      44.024  26.358  30.384  1.00  0.00     0.031 C 
ATOM     57  C   UNL A   1      42.947  29.295  35.586  1.00  0.00     0.029 A 
ATOM     58  C   UNL A   1      42.827  28.812  34.293  1.00  0.00     0.049 A 
ATOM     59  H   UNL A   1      41.360  29.246  32.840  1.00  0.00     0.167 HD
ATOM     60  C   UNL A   1      43.510  27.466  32.323  1.00  0.00     0.074 A 
ATOM     61  C   UNL A   1      44.402  26.553  31.639  1.00  0.00     0.031 C 
ATOM     62  C   UNL A   1      43.685  27.887  33.599  1.00  0.00     0.037 A 
BRANCH  49  63
ATOM     63  C   UNL A   1      39.377  31.842  35.582  1.00  0.00     0.064 A 
ATOM     64  C   UNL A   1      39.780  33.181  35.706  1.00  0.00     0.173 A 
ATOM     65  C   UNL A   1      38.446  31.349  36.507  1.00  0.00     0.173 A 
ATOM     66  F   UNL A   1      40.680  33.695  34.855  1.00  0.00    -0.203 F 
ATOM     67  C   UNL A   1      39.292  33.985  36.732  1.00  0.00     0.198 A 
ATOM     68  C   UNL A   1      37.935  32.166  37.514  1.00  0.00     0.198 A 
ATOM     69  F   UNL A   1      38.023  30.078  36.432  1.00  0.00    -0.203 F 
ATOM     70  F   UNL A   1      39.730  35.244  36.859  1.00  0.00    -0.200 F 
ATOM     71  C   UNL A   1      38.363  33.479  37.630  1.00  0.00     0.200 A 
ATOM     72  F   UNL A   1      37.030  31.680  38.375  1.00  0.00    -0.200 F 
ATOM     73  F   UNL A   1      37.887  34.257  38.611  1.00  0.00    -0.200 F 
ENDBRANCH  49  63
BRANCH  50  74
ATOM     74  C   UNL A   1      42.513  26.291  27.880  1.00  0.00     0.064 A 
ATOM     75  C   UNL A   1      43.446  26.822  26.978  1.00  0.00     0.173 A 
ATOM     76  C   UNL A   1      42.053  24.986  27.649  1.00  0.00     0.173 A 
ATOM     77  F   UNL A   1      43.900  28.074  27.145  1.00  0.00    -0.203 F 
ATOM     78  C   UNL A   1      43.878  26.091  25.872  1.00  0.00     0.198 A 
ATOM     79  C   UNL A   1      42.508  24.246  26.560  1.00  0.00     0.198 A 
ATOM     80  F   UNL A   1      41.166  24.429  28.486  1.00  0.00    -0.203 F 
ATOM     81  F   UNL A   1      44.729  26.644  24.998  1.00  0.00    -0.200 F 
ATOM     82  C   UNL A   1      43.411  24.803  25.667  1.00  0.00     0.200 A 
ATOM     83  F   UNL A   1      42.064  22.995  26.370  1.00  0.00    -0.200 F 
ATOM     84  F   UNL A   1      43.824  24.100  24.603  1.00  0.00    -0.200 F 
ENDBRANCH  50  74
BRANCH  62  85
ATOM     85  C   UNL A   1      44.856  27.330  34.353  1.00  0.00     0.064 A 
ATOM     86  C   UNL A   1      46.094  27.987  34.378  1.00  0.00     0.173 A 
ATOM     87  C   UNL A   1      44.720  26.147  35.094  1.00  0.00     0.173 A 
ATOM     88  F   UNL A   1      46.276  29.112  33.671  1.00  0.00    -0.203 F 
ATOM     89  C   UNL A   1      47.163  27.467  35.101  1.00  0.00     0.198 A 
ATOM     90  C   UNL A   1      45.782  25.645  35.840  1.00  0.00     0.198 A 
ATOM     91  F   UNL A   1      43.553  25.487  35.107  1.00  0.00    -0.203 F 
ATOM     92  F   UNL A   1      48.350  28.086  35.078  1.00  0.00    -0.200 F 
ATOM     93  C   UNL A   1      47.004  26.301  35.838  1.00  0.00     0.200 A 
ATOM     94  F   UNL A   1      45.624  24.527  36.560  1.00  0.00    -0.200 F 
ATOM     95  F   UNL A   1      48.032  25.806  36.541  1.00  0.00    -0.200 F 
ENDBRANCH  62  85
ENDBRANCH  36  37
ENDBRANCH  28  31
ENDBRANCH  26  27
ENDBRANCH   1  26
TORSDOF 14
ENDMDL
MODEL 3
REMARK VINA RESULT:     -12.4      1.028      7.389
REMARK SMILES Cc1nc(C)c(C(=O)N[C@@H](Cc2ccccc2)C(=O)NCCCNC(=O)c2ccc(-c3c4nc(c(-c5c(F)c(F)c(F)c(F)c5F)c5ccc([nH]5)c(-c5c(F)c(F)c(F)c(F)c5F)c5nc(c(-c6c(F)c(F)c(F)c(F)c6F)c6ccc3[nH]6)C=C5)C=C4)cc2)s1
REMARK SMILES IDX 22 1 21 2 20 3 18 4 19 5 10 7 9 8 7 9 8 10 6 12 1 13 2 14
REMARK SMILES IDX 3 15 90 16 4 17 5 18 11 19 12 20 13 21 17 22 14 23 16 24
REMARK SMILES IDX 15 25 23 26 24 27 25 28 26 30 27 31 28 32 89 33 29 34 88 35
REMARK SMILES IDX 30 36 31 37 32 38 82 39 33 40 87 41 81 42 83 43 34 44 86 45
REMARK SMILES IDX 80 46 79 47 35 49 67 50 47 51 66 52 48 53 51 54 65 55 84 56
REMARK SMILES IDX 49 57 50 58 64 60 85 61 52 62 36 63 37 64 45 65 38 66 39 67
REMARK SMILES IDX 43 68 46 69 40 70 41 71 44 72 42 73 68 74 69 75 77 76 70 77
REMARK SMILES IDX 71 78 75 79 78 80 72 81 73 82 76 83 74 84 53 85 54 86 62 87
REMARK SMILES IDX 55 88 56 89 60 90 63 91 57 92 58 93 61 94 59 95
REMARK H PARENT 20 6 9 11 24 29 83 48 51 59
REMARK Flexibility Score: inf
ROOT
ATOM      1  C   UNL A   1      31.756  28.804  26.631  1.00  0.00     0.042 C 
ENDROOT
BRANCH   1   2
ATOM      2  C   UNL A   1      32.060  27.346  26.368  1.00  0.00     0.117 C 
BRANCH   2   3
ATOM      3  N   UNL A   1      31.028  26.420  26.778  1.00  0.00    -0.354 N 
ATOM      4  C   UNL A   1      30.292  25.567  26.008  1.00  0.00     0.242 C 
ATOM      5  O   UNL A   1      29.830  24.570  26.575  1.00  0.00    -0.273 OA
ATOM      6  H   UNL A   1      30.830  26.402  27.742  1.00  0.00     0.163 HD
BRANCH   4   7
ATOM      7  C   UNL A   1      30.079  25.763  24.487  1.00  0.00     0.176 C 
BRANCH   7   8
ATOM      8  N   UNL A   1      30.328  24.533  23.725  1.00  0.00    -0.339 N 
ATOM      9  C   UNL A   1      31.367  23.640  23.613  1.00  0.00     0.263 C 
ATOM     10  O   UNL A   1      31.030  22.616  23.007  1.00  0.00    -0.268 OA
ATOM     11  H   UNL A   1      29.565  24.288  23.154  1.00  0.00     0.164 HD
BRANCH   9  12
ATOM     12  C   UNL A   1      32.736  23.840  24.082  1.00  0.00     0.115 A 
ATOM     13  C   UNL A   1      36.098  23.539  26.046  1.00  0.00     0.079 C 
ATOM     14  C   UNL A   1      34.925  23.836  25.179  1.00  0.00     0.091 A 
ATOM     15  N   UNL A   1      34.839  24.870  24.382  1.00  0.00    -0.246 NA
ATOM     16  S   UNL A   1      33.566  22.817  25.178  1.00  0.00    -0.113 S 
ATOM     17  C   UNL A   1      33.603  24.884  23.739  1.00  0.00     0.061 A 
ATOM     18  C   UNL A   1      33.383  26.029  22.810  1.00  0.00     0.068 C 
ENDBRANCH   9  12
ENDBRANCH   7   8
BRANCH   7  19
ATOM     19  C   UNL A   1      28.801  26.522  24.070  1.00  0.00     0.070 C 
BRANCH  19  20
ATOM     20  C   UNL A   1      28.938  27.800  23.280  1.00  0.00    -0.045 A 
ATOM     21  C   UNL A   1      27.820  28.596  22.986  1.00  0.00     0.004 A 
ATOM     22  C   UNL A   1      30.205  28.225  22.848  1.00  0.00     0.004 A 
ATOM     23  C   UNL A   1      27.980  29.828  22.346  1.00  0.00     0.000 A 
ATOM     24  C   UNL A   1      30.359  29.449  22.196  1.00  0.00     0.000 A 
ATOM     25  C   UNL A   1      29.249  30.259  21.962  1.00  0.00     0.000 A 
ENDBRANCH  19  20
ENDBRANCH   7  19
ENDBRANCH   4   7
ENDBRANCH   2   3
ENDBRANCH   1   2
BRANCH   1  26
ATOM     26  C   UNL A   1      32.769  29.755  26.016  1.00  0.00     0.118 C 
BRANCH  26  27
ATOM     27  N   UNL A   1      32.633  31.135  26.481  1.00  0.00    -0.352 N 
ATOM     28  C   UNL A   1      33.412  31.891  27.326  1.00  0.00     0.251 C 
ATOM     29  H   UNL A   1      31.846  31.608  26.125  1.00  0.00     0.163 HD
ATOM     30  O   UNL A   1      33.019  32.995  27.692  1.00  0.00    -0.269 OA
BRANCH  28  31
ATOM     31  C   UNL A   1      34.698  31.365  27.831  1.00  0.00     0.039 A 
ATOM     32  C   UNL A   1      35.774  32.239  28.006  1.00  0.00     0.014 A 
ATOM     33  C   UNL A   1      34.842  30.017  28.153  1.00  0.00     0.014 A 
ATOM     34  C   UNL A   1      36.950  31.780  28.606  1.00  0.00     0.010 A 
ATOM     35  C   UNL A   1      35.954  29.593  28.866  1.00  0.00     0.010 A 
ATOM     36  C   UNL A   1      37.025  30.467  29.097  1.00  0.00    -0.014 A 
BRANCH  36  37
ATOM     37  C   UNL A   1      38.209  29.968  29.844  1.00  0.00     0.031 A 
ATOM     38  C   UNL A   1      38.465  30.452  31.246  1.00  0.00     0.074 A 
ATOM     39  C   UNL A   1      39.101  29.166  29.229  1.00  0.00     0.049 A 
ATOM     40  N   UNL A   1      39.511  30.266  32.010  1.00  0.00    -0.248 NA
ATOM     41  C   UNL A   1      37.425  31.298  31.855  1.00  0.00     0.031 C 
ATOM     42  C   UNL A   1      39.000  28.676  27.853  1.00  0.00     0.029 A 
ATOM     43  N   UNL A   1      40.282  28.630  29.682  1.00  0.00    -0.354 N 
ATOM     44  C   UNL A   1      39.267  30.995  33.166  1.00  0.00     0.074 A 
ATOM     45  C   UNL A   1      38.007  31.678  32.981  1.00  0.00     0.031 C 
ATOM     46  C   UNL A   1      40.056  27.891  27.583  1.00  0.00     0.029 A 
ATOM     47  C   UNL A   1      40.930  27.857  28.750  1.00  0.00     0.049 A 
ATOM     48  H   UNL A   1      40.631  28.787  30.589  1.00  0.00     0.167 HD
ATOM     49  C   UNL A   1      40.012  31.066  34.294  1.00  0.00     0.037 A 
ATOM     50  C   UNL A   1      42.104  27.200  28.829  1.00  0.00     0.037 A 
ATOM     51  C   UNL A   1      41.237  30.341  34.497  1.00  0.00     0.049 A 
ATOM     52  C   UNL A   1      42.896  27.271  30.107  1.00  0.00     0.074 A 
ATOM     53  C   UNL A   1      42.035  30.292  35.626  1.00  0.00     0.029 A 
ATOM     54  N   UNL A   1      41.832  29.524  33.548  1.00  0.00    -0.354 N 
ATOM     55  N   UNL A   1      42.626  27.920  31.213  1.00  0.00    -0.248 NA
ATOM     56  C   UNL A   1      44.154  26.512  30.148  1.00  0.00     0.031 C 
ATOM     57  C   UNL A   1      43.129  29.466  35.351  1.00  0.00     0.029 A 
ATOM     58  C   UNL A   1      42.991  28.970  34.064  1.00  0.00     0.049 A 
ATOM     59  H   UNL A   1      41.483  29.362  32.641  1.00  0.00     0.167 HD
ATOM     60  C   UNL A   1      43.660  27.624  32.090  1.00  0.00     0.074 A 
ATOM     61  C   UNL A   1      44.556  26.724  31.393  1.00  0.00     0.031 C 
ATOM     62  C   UNL A   1      43.853  28.059  33.359  1.00  0.00     0.037 A 
BRANCH  49  63
ATOM     63  C   UNL A   1      39.506  31.936  35.408  1.00  0.00     0.064 A 
ATOM     64  C   UNL A   1      39.885  33.283  35.514  1.00  0.00     0.173 A 
ATOM     65  C   UNL A   1      38.604  31.432  36.355  1.00  0.00     0.173 A 
ATOM     66  F   UNL A   1      40.758  33.809  34.642  1.00  0.00    -0.203 F 
ATOM     67  C   UNL A   1      39.403  34.085  36.545  1.00  0.00     0.198 A 
ATOM     68  C   UNL A   1      38.098  32.246  37.367  1.00  0.00     0.198 A 
ATOM     69  F   UNL A   1      38.204  30.152  36.297  1.00  0.00    -0.203 F 
ATOM     70  F   UNL A   1      39.819  35.353  36.655  1.00  0.00    -0.200 F 
ATOM     71  C   UNL A   1      38.503  33.567  37.466  1.00  0.00     0.200 A 
ATOM     72  F   UNL A   1      37.220  31.748  38.249  1.00  0.00    -0.200 F 
ATOM     73  F   UNL A   1      38.032  34.343  38.451  1.00  0.00    -0.200 F 
ENDBRANCH  49  63
BRANCH  50  74
ATOM     74  C   UNL A   1      42.589  26.392  27.679  1.00  0.00     0.064 A 
ATOM     75  C   UNL A   1      42.149  25.074  27.494  1.00  0.00     0.173 A 
ATOM     76  C   UNL A   1      43.513  26.906  26.758  1.00  0.00     0.173 A 
ATOM     77  F   UNL A   1      41.280  24.532  28.362  1.00  0.00    -0.203 F 
ATOM     78  C   UNL A   1      42.635  24.290  26.450  1.00  0.00     0.198 A 
ATOM     79  C   UNL A   1      43.977  26.131  25.697  1.00  0.00     0.198 A 
ATOM     80  F   UNL A   1      43.961  28.163  26.885  1.00  0.00    -0.203 F 
ATOM     81  F   UNL A   1      42.237  23.017  26.330  1.00  0.00    -0.200 F 
ATOM     82  C   UNL A   1      43.547  24.821  25.550  1.00  0.00     0.200 A 
ATOM     83  F   UNL A   1      44.849  26.650  24.821  1.00  0.00    -0.200 F 
ATOM     84  F   UNL A   1      44.016  24.067  24.547  1.00  0.00    -0.200 F 
ENDBRANCH  50  74
BRANCH  62  85
ATOM     85  C   UNL A   1      45.053  27.533  34.090  1.00  0.00     0.064 A 
ATOM     86  C   UNL A   1      46.278  28.213  34.078  1.00  0.00     0.173 A 
ATOM     87  C   UNL A   1      44.957  26.356  34.849  1.00  0.00     0.173 A 
ATOM     88  F   UNL A   1      46.421  29.333  33.354  1.00  0.00    -0.203 F 
ATOM     89  C   UNL A   1      47.374  27.722  34.781  1.00  0.00     0.198 A 
ATOM     90  C   UNL A   1      46.046  25.884  35.573  1.00  0.00     0.198 A 
ATOM     91  F   UNL A   1      43.803  25.675  34.898  1.00  0.00    -0.203 F 
ATOM     92  F   UNL A   1      48.548  28.363  34.721  1.00  0.00    -0.200 F 
ATOM     93  C   UNL A   1      47.255  26.563  35.534  1.00  0.00     0.200 A 
ATOM     94  F   UNL A   1      45.926  24.771  36.311  1.00  0.00    -0.200 F 
ATOM     95  F   UNL A   1      48.309  26.095  36.218  1.00  0.00    -0.200 F 
ENDBRANCH  62  85
ENDBRANCH  36  37
ENDBRANCH  28  31
ENDBRANCH  26  27
ENDBRANCH   1  26
TORSDOF 14
ENDMDL
