MODEL 1
REMARK VINA RESULT:     -12.2      0.000      0.000
REMARK SMILES Cn1ccnc(N[C@H]2C=C[C@H](C(=O)NCCCNC(=O)c3ccc(-c4c5nc(c(-c6c(F)c(F)c(F)c(F)c6F)c6ccc([nH]6)c(-c6c(F)c(F)c(F)c(F)c6F)c6nc(c(-c7c(F)c(F)c(F)c(F)c7F)c7ccc4[nH]7)C=C6)C=C5)cc3)C2)c1=O
REMARK SMILES IDX 16 1 15 2 14 3 12 4 13 5 11 7 8 8 9 9 84 10 10 11 7 12 6 14
REMARK SMILES IDX 1 15 2 16 3 17 85 18 4 19 86 20 5 21 17 22 18 23 19 24 20 26
REMARK SMILES IDX 21 27 22 28 83 29 23 30 82 31 24 32 25 33 26 34 76 35 27 36
REMARK SMILES IDX 81 37 75 38 77 39 28 40 80 41 74 42 73 43 29 45 61 46 41 47
REMARK SMILES IDX 60 48 42 49 45 50 59 51 78 52 43 53 44 54 58 56 79 57 46 58
REMARK SMILES IDX 30 59 31 60 39 61 32 62 33 63 37 64 40 65 34 66 35 67 38 68
REMARK SMILES IDX 36 69 62 70 63 71 71 72 64 73 65 74 69 75 72 76 66 77 67 78
REMARK SMILES IDX 70 79 68 80 47 81 48 82 56 83 49 84 50 85 54 86 57 87 51 88
REMARK SMILES IDX 52 89 55 90 53 91
REMARK H PARENT 14 6 7 13 18 25 77 44 45 55
REMARK Flexibility Score: inf
ROOT
ATOM      1  C   UNL A   1      31.576  32.085  26.769  1.00  0.00     0.042 C 
ENDROOT
BRANCH   1   2
ATOM      2  C   UNL A   1      31.803  30.587  26.689  1.00  0.00     0.117 C 
BRANCH   2   3
ATOM      3  N   UNL A   1      31.776  30.086  25.324  1.00  0.00    -0.356 N 
ATOM      4  C   UNL A   1      32.067  28.824  24.878  1.00  0.00     0.227 C 
ATOM      5  O   UNL A   1      31.906  28.574  23.684  1.00  0.00    -0.274 OA
ATOM      6  H   UNL A   1      31.516  30.738  24.633  1.00  0.00     0.163 HD
BRANCH   4   7
ATOM      7  C   UNL A   1      32.584  27.812  25.894  1.00  0.00     0.103 C 
ATOM      8  C   UNL A   1      33.024  25.434  25.481  1.00  0.00     0.104 C 
ATOM      9  C   UNL A   1      31.716  25.627  26.152  1.00  0.00    -0.006 C 
ATOM     10  C   UNL A   1      33.629  26.830  25.333  1.00  0.00     0.046 C 
ATOM     11  C   UNL A   1      31.458  26.921  26.354  1.00  0.00    -0.016 C 
BRANCH   8  12
ATOM     12  N   UNL A   1      33.843  24.494  26.194  1.00  0.00    -0.359 N 
ATOM     13  H   UNL A   1      34.048  24.778  27.114  1.00  0.00     0.162 HD
BRANCH  12  14
ATOM     14  C   UNL A   1      34.403  23.281  25.864  1.00  0.00     0.193 A 
ATOM     15  C   UNL A   1      37.668  21.369  25.181  1.00  0.00     0.153 C 
ATOM     16  N   UNL A   1      36.268  21.705  25.337  1.00  0.00    -0.314 N 
ATOM     17  C   UNL A   1      35.283  20.784  25.084  1.00  0.00     0.109 A 
ATOM     18  C   UNL A   1      35.940  22.992  25.760  1.00  0.00     0.293 A 
ATOM     19  C   UNL A   1      33.995  21.106  25.234  1.00  0.00     0.131 A 
ATOM     20  O   UNL A   1      36.788  23.832  26.024  1.00  0.00    -0.265 OA
ATOM     21  N   UNL A   1      33.527  22.332  25.617  1.00  0.00    -0.233 NA
ENDBRANCH  12  14
ENDBRANCH   8  12
ENDBRANCH   4   7
ENDBRANCH   2   3
ENDBRANCH   1   2
BRANCH   1  22
ATOM     22  C   UNL A   1      32.761  32.862  27.313  1.00  0.00     0.118 C 
BRANCH  22  23
ATOM     23  N   UNL A   1      32.438  34.243  27.647  1.00  0.00    -0.352 N 
ATOM     24  C   UNL A   1      32.976  35.062  28.609  1.00  0.00     0.251 C 
ATOM     25  H   UNL A   1      31.727  34.650  27.100  1.00  0.00     0.163 HD
ATOM     26  O   UNL A   1      32.468  36.153  28.848  1.00  0.00    -0.269 OA
BRANCH  24  27
ATOM     27  C   UNL A   1      34.149  34.609  29.383  1.00  0.00     0.039 A 
ATOM     28  C   UNL A   1      33.958  34.082  30.662  1.00  0.00     0.014 A 
ATOM     29  C   UNL A   1      35.432  34.673  28.834  1.00  0.00     0.014 A 
ATOM     30  C   UNL A   1      35.043  33.540  31.353  1.00  0.00     0.010 A 
ATOM     31  C   UNL A   1      36.488  34.039  29.476  1.00  0.00     0.010 A 
ATOM     32  C   UNL A   1      36.307  33.468  30.746  1.00  0.00    -0.014 A 
BRANCH  32  33
ATOM     33  C   UNL A   1      37.460  32.816  31.415  1.00  0.00     0.031 A 
ATOM     34  C   UNL A   1      38.133  31.638  30.764  1.00  0.00     0.074 A 
ATOM     35  C   UNL A   1      37.854  33.231  32.635  1.00  0.00     0.049 A 
ATOM     36  N   UNL A   1      39.078  30.860  31.230  1.00  0.00    -0.248 NA
ATOM     37  C   UNL A   1      37.658  31.265  29.422  1.00  0.00     0.031 C 
ATOM     38  C   UNL A   1      37.260  34.338  33.387  1.00  0.00     0.029 A 
ATOM     39  N   UNL A   1      38.841  32.762  33.466  1.00  0.00    -0.354 N 
ATOM     40  C   UNL A   1      39.301  29.908  30.244  1.00  0.00     0.074 A 
ATOM     41  C   UNL A   1      38.347  30.159  29.187  1.00  0.00     0.031 C 
ATOM     42  C   UNL A   1      37.912  34.479  34.553  1.00  0.00     0.029 A 
ATOM     43  C   UNL A   1      38.934  33.443  34.655  1.00  0.00     0.049 A 
ATOM     44  H   UNL A   1      39.428  32.007  33.230  1.00  0.00     0.167 HD
ATOM     45  C   UNL A   1      40.237  28.930  30.210  1.00  0.00     0.037 A 
ATOM     46  C   UNL A   1      39.742  33.243  35.714  1.00  0.00     0.037 A 
ATOM     47  C   UNL A   1      41.194  28.693  31.257  1.00  0.00     0.049 A 
ATOM     48  C   UNL A   1      40.741  32.117  35.668  1.00  0.00     0.074 A 
ATOM     49  C   UNL A   1      42.206  27.750  31.305  1.00  0.00     0.029 A 
ATOM     50  N   UNL A   1      41.259  29.409  32.444  1.00  0.00    -0.354 N 
ATOM     51  N   UNL A   1      40.981  31.257  34.708  1.00  0.00    -0.248 NA
ATOM     52  C   UNL A   1      41.588  31.935  36.857  1.00  0.00     0.031 C 
ATOM     53  C   UNL A   1      42.849  27.860  32.540  1.00  0.00     0.029 A 
ATOM     54  C   UNL A   1      42.280  28.913  33.238  1.00  0.00     0.049 A 
ATOM     55  H   UNL A   1      40.666  30.158  32.686  1.00  0.00     0.167 HD
ATOM     56  C   UNL A   1      42.029  30.464  35.157  1.00  0.00     0.074 A 
ATOM     57  C   UNL A   1      42.387  30.951  36.472  1.00  0.00     0.031 C 
ATOM     58  C   UNL A   1      42.640  29.426  34.536  1.00  0.00     0.037 A 
BRANCH  45  59
ATOM     59  C   UNL A   1      40.277  28.048  28.994  1.00  0.00     0.064 A 
ATOM     60  C   UNL A   1      41.023  28.400  27.858  1.00  0.00     0.173 A 
ATOM     61  C   UNL A   1      39.599  26.821  28.979  1.00  0.00     0.173 A 
ATOM     62  F   UNL A   1      41.680  29.569  27.816  1.00  0.00    -0.203 F 
ATOM     63  C   UNL A   1      41.065  27.569  26.743  1.00  0.00     0.198 A 
ATOM     64  C   UNL A   1      39.672  25.976  27.875  1.00  0.00     0.198 A 
ATOM     65  F   UNL A   1      38.876  26.433  30.040  1.00  0.00    -0.203 F 
ATOM     66  F   UNL A   1      41.741  27.951  25.651  1.00  0.00    -0.200 F 
ATOM     67  C   UNL A   1      40.397  26.354  26.754  1.00  0.00     0.200 A 
ATOM     68  F   UNL A   1      39.039  24.794  27.893  1.00  0.00    -0.200 F 
ATOM     69  F   UNL A   1      40.447  25.549  25.684  1.00  0.00    -0.200 F 
ENDBRANCH  45  59
BRANCH  46  70
ATOM     70  C   UNL A   1      39.658  34.131  36.905  1.00  0.00     0.064 A 
ATOM     71  C   UNL A   1      40.411  35.312  36.975  1.00  0.00     0.173 A 
ATOM     72  C   UNL A   1      38.857  33.805  38.009  1.00  0.00     0.173 A 
ATOM     73  F   UNL A   1      41.208  35.659  35.954  1.00  0.00    -0.203 F 
ATOM     74  C   UNL A   1      40.394  36.112  38.116  1.00  0.00     0.198 A 
ATOM     75  C   UNL A   1      38.814  34.624  39.136  1.00  0.00     0.198 A 
ATOM     76  F   UNL A   1      38.112  32.690  37.994  1.00  0.00    -0.203 F 
ATOM     77  F   UNL A   1      41.174  37.200  38.180  1.00  0.00    -0.200 F 
ATOM     78  C   UNL A   1      39.593  35.769  39.194  1.00  0.00     0.200 A 
ATOM     79  F   UNL A   1      38.026  34.298  40.169  1.00  0.00    -0.200 F 
ATOM     80  F   UNL A   1      39.580  36.537  40.293  1.00  0.00    -0.200 F 
ENDBRANCH  46  70
BRANCH  58  81
ATOM     81  C   UNL A   1      43.800  28.782  35.239  1.00  0.00     0.064 A 
ATOM     82  C   UNL A   1      45.120  29.205  35.035  1.00  0.00     0.173 A 
ATOM     83  C   UNL A   1      43.576  27.759  36.175  1.00  0.00     0.173 A 
ATOM     84  F   UNL A   1      45.390  30.169  34.141  1.00  0.00    -0.203 F 
ATOM     85  C   UNL A   1      46.177  28.611  35.720  1.00  0.00     0.198 A 
ATOM     86  C   UNL A   1      44.631  27.191  36.884  1.00  0.00     0.198 A 
ATOM     87  F   UNL A   1      42.331  27.322  36.415  1.00  0.00    -0.203 F 
ATOM     88  F   UNL A   1      47.435  28.998  35.472  1.00  0.00    -0.200 F 
ATOM     89  C   UNL A   1      45.930  27.613  36.651  1.00  0.00     0.200 A 
ATOM     90  F   UNL A   1      44.387  26.240  37.796  1.00  0.00    -0.200 F 
ATOM     91  F   UNL A   1      46.947  27.052  37.321  1.00  0.00    -0.200 F 
ENDBRANCH  58  81
ENDBRANCH  32  33
ENDBRANCH  24  27
ENDBRANCH  22  23
ENDBRANCH   1  22
TORSDOF 12
ENDMDL
MODEL 2
REMARK VINA RESULT:     -12.2      1.285      7.511
REMARK SMILES Cn1ccnc(N[C@H]2C=C[C@H](C(=O)NCCCNC(=O)c3ccc(-c4c5nc(c(-c6c(F)c(F)c(F)c(F)c6F)c6ccc([nH]6)c(-c6c(F)c(F)c(F)c(F)c6F)c6nc(c(-c7c(F)c(F)c(F)c(F)c7F)c7ccc4[nH]7)C=C6)C=C5)cc3)C2)c1=O
REMARK SMILES IDX 16 1 15 2 14 3 12 4 13 5 11 7 8 8 9 9 84 10 10 11 7 12 6 14
REMARK SMILES IDX 1 15 2 16 3 17 85 18 4 19 86 20 5 21 17 22 18 23 19 24 20 26
REMARK SMILES IDX 21 27 22 28 83 29 23 30 82 31 24 32 25 33 26 34 76 35 27 36
REMARK SMILES IDX 81 37 75 38 77 39 28 40 80 41 74 42 73 43 29 45 61 46 41 47
REMARK SMILES IDX 60 48 42 49 45 50 59 51 78 52 43 53 44 54 58 56 79 57 46 58
REMARK SMILES IDX 30 59 31 60 39 61 32 62 33 63 37 64 40 65 34 66 35 67 38 68
REMARK SMILES IDX 36 69 62 70 63 71 71 72 64 73 65 74 69 75 72 76 66 77 67 78
REMARK SMILES IDX 70 79 68 80 47 81 48 82 56 83 49 84 50 85 54 86 57 87 51 88
REMARK SMILES IDX 52 89 55 90 53 91
REMARK H PARENT 14 6 7 13 18 25 77 44 45 55
REMARK Flexibility Score: inf
ROOT
ATOM      1  C   UNL A   1      31.400  32.109  26.838  1.00  0.00     0.042 C 
ENDROOT
BRANCH   1   2
ATOM      2  C   UNL A   1      31.612  30.916  25.926  1.00  0.00     0.117 C 
BRANCH   2   3
ATOM      3  N   UNL A   1      30.674  30.883  24.815  1.00  0.00    -0.356 N 
ATOM      4  C   UNL A   1      30.387  29.838  23.978  1.00  0.00     0.227 C 
ATOM      5  O   UNL A   1      29.496  29.985  23.142  1.00  0.00    -0.274 OA
ATOM      6  H   UNL A   1      30.183  31.719  24.643  1.00  0.00     0.163 HD
BRANCH   4   7
ATOM      7  C   UNL A   1      31.201  28.559  24.131  1.00  0.00     0.103 C 
ATOM      8  C   UNL A   1      32.509  27.449  22.377  1.00  0.00     0.104 C 
ATOM      9  C   UNL A   1      31.197  26.785  22.567  1.00  0.00    -0.006 C 
ATOM     10  C   UNL A   1      32.558  28.581  23.404  1.00  0.00     0.046 C 
ATOM     11  C   UNL A   1      30.469  27.402  23.501  1.00  0.00    -0.016 C 
BRANCH   8  12
ATOM     12  N   UNL A   1      33.588  26.507  22.466  1.00  0.00    -0.359 N 
ATOM     13  H   UNL A   1      34.390  26.786  21.966  1.00  0.00     0.162 HD
BRANCH  12  14
ATOM     14  C   UNL A   1      33.741  25.295  23.101  1.00  0.00     0.193 A 
ATOM     15  C   UNL A   1      34.237  23.512  26.470  1.00  0.00     0.153 C 
ATOM     16  N   UNL A   1      34.081  23.778  25.056  1.00  0.00    -0.314 N 
ATOM     17  C   UNL A   1      34.141  22.765  24.131  1.00  0.00     0.109 A 
ATOM     18  C   UNL A   1      33.858  25.092  24.651  1.00  0.00     0.293 A 
ATOM     19  C   UNL A   1      33.993  23.024  22.828  1.00  0.00     0.131 A 
ATOM     20  O   UNL A   1      33.768  26.017  25.445  1.00  0.00    -0.265 OA
ATOM     21  N   UNL A   1      33.796  24.264  22.287  1.00  0.00    -0.233 NA
ENDBRANCH  12  14
ENDBRANCH   8  12
ENDBRANCH   4   7
ENDBRANCH   2   3
ENDBRANCH   1   2
BRANCH   1  22
ATOM     22  C   UNL A   1      32.678  32.848  27.194  1.00  0.00     0.118 C 
BRANCH  22  23
ATOM     23  N   UNL A   1      32.446  34.227  27.608  1.00  0.00    -0.352 N 
ATOM     24  C   UNL A   1      33.037  34.951  28.615  1.00  0.00     0.251 C 
ATOM     25  H   UNL A   1      31.764  34.711  27.088  1.00  0.00     0.163 HD
ATOM     26  O   UNL A   1      32.602  36.058  28.918  1.00  0.00    -0.269 OA
BRANCH  24  27
ATOM     27  C   UNL A   1      34.177  34.377  29.358  1.00  0.00     0.039 A 
ATOM     28  C   UNL A   1      33.930  33.614  30.501  1.00  0.00     0.014 A 
ATOM     29  C   UNL A   1      35.486  34.563  28.908  1.00  0.00     0.014 A 
ATOM     30  C   UNL A   1      34.988  32.967  31.140  1.00  0.00     0.010 A 
ATOM     31  C   UNL A   1      36.521  33.835  29.480  1.00  0.00     0.010 A 
ATOM     32  C   UNL A   1      36.285  33.031  30.606  1.00  0.00    -0.014 A 
BRANCH  32  33
ATOM     33  C   UNL A   1      37.416  32.281  31.207  1.00  0.00     0.031 A 
ATOM     34  C   UNL A   1      37.928  32.665  32.569  1.00  0.00     0.074 A 
ATOM     35  C   UNL A   1      38.028  31.308  30.504  1.00  0.00     0.049 A 
ATOM     36  N   UNL A   1      38.969  32.214  33.222  1.00  0.00    -0.248 NA
ATOM     37  C   UNL A   1      37.188  33.721  33.279  1.00  0.00     0.031 C 
ATOM     38  C   UNL A   1      37.649  30.865  29.161  1.00  0.00     0.029 A 
ATOM     39  N   UNL A   1      39.109  30.521  30.817  1.00  0.00    -0.354 N 
ATOM     40  C   UNL A   1      39.011  32.935  34.408  1.00  0.00     0.074 A 
ATOM     41  C   UNL A   1      37.936  33.900  34.356  1.00  0.00     0.031 C 
ATOM     42  C   UNL A   1      38.466  29.870  28.777  1.00  0.00     0.029 A 
ATOM     43  C   UNL A   1      39.456  29.638  29.823  1.00  0.00     0.049 A 
ATOM     44  H   UNL A   1      39.589  30.583  31.674  1.00  0.00     0.167 HD
ATOM     45  C   UNL A   1      39.851  32.784  35.459  1.00  0.00     0.037 A 
ATOM     46  C   UNL A   1      40.469  28.753  29.758  1.00  0.00     0.037 A 
ATOM     47  C   UNL A   1      40.910  31.812  35.513  1.00  0.00     0.049 A 
ATOM     48  C   UNL A   1      41.418  28.641  30.923  1.00  0.00     0.074 A 
ATOM     49  C   UNL A   1      41.795  31.557  36.546  1.00  0.00     0.029 A 
ATOM     50  N   UNL A   1      41.226  30.933  34.488  1.00  0.00    -0.354 N 
ATOM     51  N   UNL A   1      41.414  29.289  32.063  1.00  0.00    -0.248 NA
ATOM     52  C   UNL A   1      42.514  27.670  30.793  1.00  0.00     0.031 C 
ATOM     53  C   UNL A   1      42.679  30.559  36.127  1.00  0.00     0.029 A 
ATOM     54  C   UNL A   1      42.307  30.148  34.857  1.00  0.00     0.049 A 
ATOM     55  H   UNL A   1      40.753  30.875  33.626  1.00  0.00     0.167 HD
ATOM     56  C   UNL A   1      42.475  28.775  32.798  1.00  0.00     0.074 A 
ATOM     57  C   UNL A   1      43.094  27.755  31.981  1.00  0.00     0.031 C 
ATOM     58  C   UNL A   1      42.896  29.118  34.040  1.00  0.00     0.037 A 
BRANCH  45  59
ATOM     59  C   UNL A   1      39.651  33.687  36.643  1.00  0.00     0.064 A 
ATOM     60  C   UNL A   1      40.252  34.955  36.707  1.00  0.00     0.173 A 
ATOM     61  C   UNL A   1      38.819  33.303  37.704  1.00  0.00     0.173 A 
ATOM     62  F   UNL A   1      41.067  35.367  35.725  1.00  0.00    -0.203 F 
ATOM     63  C   UNL A   1      40.049  35.789  37.803  1.00  0.00     0.198 A 
ATOM     64  C   UNL A   1      38.590  34.155  38.781  1.00  0.00     0.198 A 
ATOM     65  F   UNL A   1      38.215  32.104  37.691  1.00  0.00    -0.203 F 
ATOM     66  F   UNL A   1      40.675  36.972  37.866  1.00  0.00    -0.200 F 
ATOM     67  C   UNL A   1      39.212  35.393  38.834  1.00  0.00     0.200 A 
ATOM     68  F   UNL A   1      37.768  33.777  39.770  1.00  0.00    -0.200 F 
ATOM     69  F   UNL A   1      39.009  36.202  39.883  1.00  0.00    -0.200 F 
ENDBRANCH  45  59
BRANCH  46  70
ATOM     70  C   UNL A   1      40.640  27.888  28.559  1.00  0.00     0.064 A 
ATOM     71  C   UNL A   1      41.398  28.323  27.462  1.00  0.00     0.173 A 
ATOM     72  C   UNL A   1      40.025  26.632  28.466  1.00  0.00     0.173 A 
ATOM     73  F   UNL A   1      41.990  29.526  27.492  1.00  0.00    -0.203 F 
ATOM     74  C   UNL A   1      41.503  27.552  26.306  1.00  0.00     0.198 A 
ATOM     75  C   UNL A   1      40.159  25.846  27.323  1.00  0.00     0.198 A 
ATOM     76  F   UNL A   1      39.292  26.164  29.487  1.00  0.00    -0.203 F 
ATOM     77  F   UNL A   1      42.181  28.021  25.249  1.00  0.00    -0.200 F 
ATOM     78  C   UNL A   1      40.887  26.311  26.240  1.00  0.00     0.200 A 
ATOM     79  F   UNL A   1      39.575  24.640  27.269  1.00  0.00    -0.200 F 
ATOM     80  F   UNL A   1      40.985  25.572  25.126  1.00  0.00    -0.200 F 
ENDBRANCH  46  70
BRANCH  58  81
ATOM     81  C   UNL A   1      44.046  28.345  34.620  1.00  0.00     0.064 A 
ATOM     82  C   UNL A   1      45.371  28.783  34.498  1.00  0.00     0.173 A 
ATOM     83  C   UNL A   1      43.807  27.173  35.356  1.00  0.00     0.173 A 
ATOM     84  F   UNL A   1      45.655  29.889  33.792  1.00  0.00    -0.203 F 
ATOM     85  C   UNL A   1      46.419  28.064  35.069  1.00  0.00     0.198 A 
ATOM     86  C   UNL A   1      44.852  26.477  35.956  1.00  0.00     0.198 A 
ATOM     87  F   UNL A   1      42.556  26.714  35.511  1.00  0.00    -0.203 F 
ATOM     88  F   UNL A   1      47.682  28.476  34.898  1.00  0.00    -0.200 F 
ATOM     89  C   UNL A   1      46.157  26.919  35.806  1.00  0.00     0.200 A 
ATOM     90  F   UNL A   1      44.595  25.380  36.682  1.00  0.00    -0.200 F 
ATOM     91  F   UNL A   1      47.165  26.236  36.367  1.00  0.00    -0.200 F 
ENDBRANCH  58  81
ENDBRANCH  32  33
ENDBRANCH  24  27
ENDBRANCH  22  23
ENDBRANCH   1  22
TORSDOF 12
ENDMDL
MODEL 3
REMARK VINA RESULT:     -12.2      0.673      1.847
REMARK SMILES Cn1ccnc(N[C@H]2C=C[C@H](C(=O)NCCCNC(=O)c3ccc(-c4c5nc(c(-c6c(F)c(F)c(F)c(F)c6F)c6ccc([nH]6)c(-c6c(F)c(F)c(F)c(F)c6F)c6nc(c(-c7c(F)c(F)c(F)c(F)c7F)c7ccc4[nH]7)C=C6)C=C5)cc3)C2)c1=O
REMARK SMILES IDX 16 1 15 2 14 3 12 4 13 5 11 7 8 8 9 9 84 10 10 11 7 12 6 14
REMARK SMILES IDX 1 15 2 16 3 17 85 18 4 19 86 20 5 21 17 22 18 23 19 24 20 26
REMARK SMILES IDX 21 27 22 28 83 29 23 30 82 31 24 32 25 33 26 34 76 35 27 36
REMARK SMILES IDX 81 37 75 38 77 39 28 40 80 41 74 42 73 43 29 45 61 46 41 47
REMARK SMILES IDX 60 48 42 49 45 50 59 51 78 52 43 53 44 54 58 56 79 57 46 58
REMARK SMILES IDX 30 59 31 60 39 61 32 62 33 63 37 64 40 65 34 66 35 67 38 68
REMARK SMILES IDX 36 69 62 70 63 71 71 72 64 73 65 74 69 75 72 76 66 77 67 78
REMARK SMILES IDX 70 79 68 80 47 81 48 82 56 83 49 84 50 85 54 86 57 87 51 88
REMARK SMILES IDX 52 89 55 90 53 91
REMARK H PARENT 14 6 7 13 18 25 77 44 45 55
REMARK Flexibility Score: inf
ROOT
ATOM      1  C   UNL A   1      31.592  31.999  26.863  1.00  0.00     0.042 C 
ENDROOT
BRANCH   1   2
ATOM      2  C   UNL A   1      31.859  30.511  26.743  1.00  0.00     0.117 C 
BRANCH   2   3
ATOM      3  N   UNL A   1      32.009  30.075  25.364  1.00  0.00    -0.356 N 
ATOM      4  C   UNL A   1      32.361  28.836  24.900  1.00  0.00     0.227 C 
ATOM      5  O   UNL A   1      32.355  28.643  23.685  1.00  0.00    -0.274 OA
ATOM      6  H   UNL A   1      31.837  30.759  24.677  1.00  0.00     0.163 HD
BRANCH   4   7
ATOM      7  C   UNL A   1      32.748  27.776  25.924  1.00  0.00     0.103 C 
ATOM      8  C   UNL A   1      33.044  25.378  25.494  1.00  0.00     0.104 C 
ATOM      9  C   UNL A   1      31.717  25.655  26.096  1.00  0.00    -0.006 C 
ATOM     10  C   UNL A   1      33.751  26.730  25.405  1.00  0.00     0.046 C 
ATOM     11  C   UNL A   1      31.539  26.960  26.306  1.00  0.00    -0.016 C 
BRANCH   8  12
ATOM     12  N   UNL A   1      33.753  24.373  26.234  1.00  0.00    -0.359 N 
ATOM     13  H   UNL A   1      33.798  24.562  27.200  1.00  0.00     0.162 HD
BRANCH  12  14
ATOM     14  C   UNL A   1      34.386  23.203  25.881  1.00  0.00     0.193 A 
ATOM     15  C   UNL A   1      33.928  19.563  24.734  1.00  0.00     0.153 C 
ATOM     16  N   UNL A   1      34.517  20.816  25.157  1.00  0.00    -0.314 N 
ATOM     17  C   UNL A   1      35.873  20.945  25.323  1.00  0.00     0.109 A 
ATOM     18  C   UNL A   1      33.670  21.899  25.387  1.00  0.00     0.293 A 
ATOM     19  C   UNL A   1      36.403  22.109  25.712  1.00  0.00     0.131 A 
ATOM     20  O   UNL A   1      32.461  21.833  25.222  1.00  0.00    -0.265 OA
ATOM     21  N   UNL A   1      35.695  23.243  25.998  1.00  0.00    -0.233 NA
ENDBRANCH  12  14
ENDBRANCH   8  12
ENDBRANCH   4   7
ENDBRANCH   2   3
ENDBRANCH   1   2
BRANCH   1  22
ATOM     22  C   UNL A   1      32.804  32.812  27.282  1.00  0.00     0.118 C 
BRANCH  22  23
ATOM     23  N   UNL A   1      32.479  34.191  27.626  1.00  0.00    -0.352 N 
ATOM     24  C   UNL A   1      33.010  35.000  28.601  1.00  0.00     0.251 C 
ATOM     25  H   UNL A   1      31.773  34.604  27.078  1.00  0.00     0.163 HD
ATOM     26  O   UNL A   1      32.502  36.090  28.846  1.00  0.00    -0.269 OA
BRANCH  24  27
ATOM     27  C   UNL A   1      34.177  34.538  29.380  1.00  0.00     0.039 A 
ATOM     28  C   UNL A   1      33.967  33.880  30.594  1.00  0.00     0.014 A 
ATOM     29  C   UNL A   1      35.475  34.724  28.897  1.00  0.00     0.014 A 
ATOM     30  C   UNL A   1      35.054  33.333  31.278  1.00  0.00     0.010 A 
ATOM     31  C   UNL A   1      36.540  34.089  29.523  1.00  0.00     0.010 A 
ATOM     32  C   UNL A   1      36.342  33.389  30.723  1.00  0.00    -0.014 A 
BRANCH  32  33
ATOM     33  C   UNL A   1      37.504  32.738  31.379  1.00  0.00     0.031 A 
ATOM     34  C   UNL A   1      38.198  31.589  30.699  1.00  0.00     0.074 A 
ATOM     35  C   UNL A   1      37.888  33.127  32.610  1.00  0.00     0.049 A 
ATOM     36  N   UNL A   1      39.155  30.815  31.146  1.00  0.00    -0.248 NA
ATOM     37  C   UNL A   1      37.733  31.244  29.346  1.00  0.00     0.031 C 
ATOM     38  C   UNL A   1      37.274  34.204  33.390  1.00  0.00     0.029 A 
ATOM     39  N   UNL A   1      38.881  32.652  33.431  1.00  0.00    -0.354 N 
ATOM     40  C   UNL A   1      39.396  29.893  30.137  1.00  0.00     0.074 A 
ATOM     41  C   UNL A   1      38.441  30.157  29.083  1.00  0.00     0.031 C 
ATOM     42  C   UNL A   1      37.920  34.324  34.561  1.00  0.00     0.029 A 
ATOM     43  C   UNL A   1      38.959  33.303  34.639  1.00  0.00     0.049 A 
ATOM     44  H   UNL A   1      39.481  31.914  33.177  1.00  0.00     0.167 HD
ATOM     45  C   UNL A   1      40.348  28.932  30.079  1.00  0.00     0.037 A 
ATOM     46  C   UNL A   1      39.767  33.088  35.694  1.00  0.00     0.037 A 
ATOM     47  C   UNL A   1      41.307  28.683  31.122  1.00  0.00     0.049 A 
ATOM     48  C   UNL A   1      40.785  31.980  35.622  1.00  0.00     0.074 A 
ATOM     49  C   UNL A   1      42.334  27.756  31.148  1.00  0.00     0.029 A 
ATOM     50  N   UNL A   1      41.356  29.368  32.328  1.00  0.00    -0.354 N 
ATOM     51  N   UNL A   1      41.042  31.150  34.639  1.00  0.00    -0.248 NA
ATOM     52  C   UNL A   1      41.631  31.780  36.808  1.00  0.00     0.031 C 
ATOM     53  C   UNL A   1      42.971  27.844  32.388  1.00  0.00     0.029 A 
ATOM     54  C   UNL A   1      42.383  28.868  33.112  1.00  0.00     0.049 A 
ATOM     55  H   UNL A   1      40.751  30.100  32.588  1.00  0.00     0.167 HD
ATOM     56  C   UNL A   1      42.101  30.363  35.071  1.00  0.00     0.074 A 
ATOM     57  C   UNL A   1      42.447  30.820  36.399  1.00  0.00     0.031 C 
ATOM     58  C   UNL A   1      42.731  29.353  34.424  1.00  0.00     0.037 A 
BRANCH  45  59
ATOM     59  C   UNL A   1      40.406  28.084  28.841  1.00  0.00     0.064 A 
ATOM     60  C   UNL A   1      41.166  28.468  27.724  1.00  0.00     0.173 A 
ATOM     61  C   UNL A   1      39.732  26.856  28.783  1.00  0.00     0.173 A 
ATOM     62  F   UNL A   1      41.821  29.639  27.723  1.00  0.00    -0.203 F 
ATOM     63  C   UNL A   1      41.224  27.668  26.587  1.00  0.00     0.198 A 
ATOM     64  C   UNL A   1      39.821  26.042  27.657  1.00  0.00     0.198 A 
ATOM     65  F   UNL A   1      38.996  26.438  29.824  1.00  0.00    -0.203 F 
ATOM     66  F   UNL A   1      41.913  28.080  25.514  1.00  0.00    -0.200 F 
ATOM     67  C   UNL A   1      40.559  26.452  26.557  1.00  0.00     0.200 A 
ATOM     68  F   UNL A   1      39.191  24.859  27.635  1.00  0.00    -0.200 F 
ATOM     69  F   UNL A   1      40.625  25.677  25.466  1.00  0.00    -0.200 F 
ENDBRANCH  45  59
BRANCH  46  70
ATOM     70  C   UNL A   1      39.665  33.942  36.908  1.00  0.00     0.064 A 
ATOM     71  C   UNL A   1      38.884  33.544  38.003  1.00  0.00     0.173 A 
ATOM     72  C   UNL A   1      40.311  35.184  36.990  1.00  0.00     0.173 A 
ATOM     73  F   UNL A   1      38.229  32.374  37.968  1.00  0.00    -0.203 F 
ATOM     74  C   UNL A   1      38.724  34.369  39.114  1.00  0.00     0.198 A 
ATOM     75  C   UNL A   1      40.179  35.993  38.116  1.00  0.00     0.198 A 
ATOM     76  F   UNL A   1      41.076  35.612  35.974  1.00  0.00    -0.203 F 
ATOM     77  F   UNL A   1      37.919  33.991  40.117  1.00  0.00    -0.200 F 
ATOM     78  C   UNL A   1      39.375  35.592  39.172  1.00  0.00     0.200 A 
ATOM     79  F   UNL A   1      40.823  37.167  38.174  1.00  0.00    -0.200 F 
ATOM     80  F   UNL A   1      39.218  36.388  40.238  1.00  0.00    -0.200 F 
ENDBRANCH  46  70
BRANCH  58  81
ATOM     81  C   UNL A   1      43.900  28.708  35.114  1.00  0.00     0.064 A 
ATOM     82  C   UNL A   1      43.747  27.590  35.945  1.00  0.00     0.173 A 
ATOM     83  C   UNL A   1      45.201  29.190  34.894  1.00  0.00     0.173 A 
ATOM     84  F   UNL A   1      42.524  27.100  36.199  1.00  0.00    -0.203 F 
ATOM     85  C   UNL A   1      44.849  26.993  36.551  1.00  0.00     0.198 A 
ATOM     86  C   UNL A   1      46.303  28.569  35.473  1.00  0.00     0.198 A 
ATOM     87  F   UNL A   1      45.404  30.252  34.101  1.00  0.00    -0.203 F 
ATOM     88  F   UNL A   1      44.673  25.955  37.380  1.00  0.00    -0.200 F 
ATOM     89  C   UNL A   1      46.126  27.476  36.306  1.00  0.00     0.200 A 
ATOM     90  F   UNL A   1      47.537  29.026  35.221  1.00  0.00    -0.200 F 
ATOM     91  F   UNL A   1      47.187  26.891  36.880  1.00  0.00    -0.200 F 
ENDBRANCH  58  81
ENDBRANCH  32  33
ENDBRANCH  24  27
ENDBRANCH  22  23
ENDBRANCH   1  22
TORSDOF 12
ENDMDL
