MODEL 1
REMARK VINA RESULT:     -10.6      0.000      0.000
REMARK SMILES C[C@@H]([N@@H+](C)[C@@H]1COC[C@@H]1C(=O)NCCCNC(=O)c1ccc(-c2c3nc(c(-c4c(F)c(F)c(F)c(F)c4F)c4ccc([nH]4)c(-c4c(F)c(F)c(F)c(F)c4F)c4nc(c(-c5c(F)c(F)c(F)c(F)c5F)c5ccc2[nH]5)C=C4)C=C3)cc1)C1(C)CC1
REMARK SMILES IDX 13 1 12 2 10 3 11 4 9 6 5 7 6 8 7 9 8 10 3 11 4 12 2 14 1 15
REMARK SMILES IDX 82 16 83 17 84 18 85 19 14 20 15 21 16 22 17 23 18 25 19 26
REMARK SMILES IDX 20 27 81 28 21 29 80 30 22 31 23 32 24 33 74 34 25 35 79 36
REMARK SMILES IDX 73 37 75 38 26 39 78 40 72 41 71 42 27 44 59 45 39 46 58 47
REMARK SMILES IDX 40 48 43 49 57 50 76 51 41 52 42 53 56 55 77 56 44 57 28 58
REMARK SMILES IDX 29 59 37 60 30 61 31 62 35 63 38 64 32 65 33 66 36 67 34 68
REMARK SMILES IDX 60 69 61 70 69 71 62 72 63 73 67 74 70 75 64 76 65 77 68 78
REMARK SMILES IDX 66 79 45 80 46 81 54 82 47 83 48 84 52 85 55 86 49 87 50 88
REMARK SMILES IDX 53 89 51 90
REMARK H PARENT 12 5 3 13 16 24 75 43 43 54
REMARK Flexibility Score: inf
ROOT
ATOM      1  C   UNL A   1      33.971  34.931  28.995  1.00  0.00     0.117 C 
ENDROOT
BRANCH   1   2
ATOM      2  N   UNL A   1      32.875  35.208  29.909  1.00  0.00    -0.356 N 
ATOM      3  C   UNL A   1      32.852  35.846  31.117  1.00  0.00     0.231 C 
ATOM      4  O   UNL A   1      31.761  35.934  31.686  1.00  0.00    -0.274 OA
ATOM      5  H   UNL A   1      31.998  34.879  29.605  1.00  0.00     0.163 HD
BRANCH   3   6
ATOM      6  C   UNL A   1      34.132  36.385  31.726  1.00  0.00     0.164 C 
ATOM      7  C   UNL A   1      34.827  35.535  32.810  1.00  0.00     0.225 C 
ATOM      8  C   UNL A   1      34.156  36.031  34.091  1.00  0.00     0.226 C 
ATOM      9  O   UNL A   1      33.949  37.435  33.902  1.00  0.00    -0.374 OA
ATOM     10  C   UNL A   1      33.800  37.675  32.493  1.00  0.00     0.180 C 
BRANCH   7  11
ATOM     11  N   UNL A   1      35.049  34.072  32.662  1.00  0.00    -0.330 N 
ATOM     12  C   UNL A   1      33.990  33.284  33.312  1.00  0.00     0.333 C 
ATOM     13  H   UNL A   1      35.026  33.900  31.657  1.00  0.00     0.348 HD
BRANCH  11  14
ATOM     14  C   UNL A   1      36.389  33.622  33.188  1.00  0.00     0.186 C 
ATOM     15  C   UNL A   1      37.439  34.747  33.273  1.00  0.00     0.076 C 
BRANCH  14  16
ATOM     16  C   UNL A   1      36.939  32.416  32.369  1.00  0.00     0.019 C 
ATOM     17  C   UNL A   1      36.936  32.629  30.867  1.00  0.00     0.018 C 
ATOM     18  C   UNL A   1      38.034  31.558  32.993  1.00  0.00     0.013 C 
ATOM     19  C   UNL A   1      36.680  30.966  32.778  1.00  0.00     0.013 C 
ENDBRANCH  14  16
ENDBRANCH  11  14
ENDBRANCH   7  11
ENDBRANCH   3   6
ENDBRANCH   1   2
BRANCH   1  20
ATOM     20  C   UNL A   1      33.703  33.783  28.024  1.00  0.00     0.042 C 
BRANCH  20  21
ATOM     21  C   UNL A   1      34.659  32.595  28.133  1.00  0.00     0.118 C 
BRANCH  21  22
ATOM     22  N   UNL A   1      33.986  31.315  27.976  1.00  0.00    -0.352 N 
ATOM     23  C   UNL A   1      34.488  30.039  27.907  1.00  0.00     0.251 C 
ATOM     24  H   UNL A   1      33.006  31.374  27.907  1.00  0.00     0.163 HD
ATOM     25  O   UNL A   1      33.736  29.117  27.601  1.00  0.00    -0.269 OA
BRANCH  23  26
ATOM     26  C   UNL A   1      35.916  29.744  28.179  1.00  0.00     0.039 A 
ATOM     27  C   UNL A   1      36.267  29.288  29.455  1.00  0.00     0.014 A 
ATOM     28  C   UNL A   1      36.918  29.993  27.237  1.00  0.00     0.014 A 
ATOM     29  C   UNL A   1      37.605  29.033  29.771  1.00  0.00     0.010 A 
ATOM     30  C   UNL A   1      38.251  29.698  27.538  1.00  0.00     0.010 A 
ATOM     31  C   UNL A   1      38.609  29.215  28.808  1.00  0.00    -0.014 A 
BRANCH  31  32
ATOM     32  C   UNL A   1      40.031  28.896  29.109  1.00  0.00     0.031 A 
ATOM     33  C   UNL A   1      40.903  29.887  29.827  1.00  0.00     0.074 A 
ATOM     34  C   UNL A   1      40.557  27.729  28.687  1.00  0.00     0.049 A 
ATOM     35  N   UNL A   1      42.185  29.826  30.091  1.00  0.00    -0.248 NA
ATOM     36  C   UNL A   1      40.251  31.118  30.300  1.00  0.00     0.031 C 
ATOM     37  C   UNL A   1      39.827  26.684  27.971  1.00  0.00     0.029 A 
ATOM     38  N   UNL A   1      41.836  27.236  28.787  1.00  0.00    -0.354 N 
ATOM     39  C   UNL A   1      42.497  31.012  30.742  1.00  0.00     0.074 A 
ATOM     40  C   UNL A   1      41.275  31.787  30.810  1.00  0.00     0.031 C 
ATOM     41  C   UNL A   1      40.666  25.672  27.699  1.00  0.00     0.029 A 
ATOM     42  C   UNL A   1      42.001  26.012  28.185  1.00  0.00     0.049 A 
ATOM     43  H   UNL A   1      42.564  27.713  29.246  1.00  0.00     0.167 HD
ATOM     44  C   UNL A   1      43.690  31.412  31.246  1.00  0.00     0.037 A 
ATOM     45  C   UNL A   1      43.105  25.257  28.025  1.00  0.00     0.037 A 
ATOM     46  C   UNL A   1      44.900  30.634  31.204  1.00  0.00     0.049 A 
ATOM     47  C   UNL A   1      44.422  25.739  28.570  1.00  0.00     0.074 A 
ATOM     48  C   UNL A   1      46.140  30.937  31.742  1.00  0.00     0.029 A 
ATOM     49  N   UNL A   1      45.026  29.398  30.588  1.00  0.00    -0.354 N 
ATOM     50  N   UNL A   1      44.693  26.840  29.224  1.00  0.00    -0.248 NA
ATOM     51  C   UNL A   1      45.587  24.869  28.352  1.00  0.00     0.031 C 
ATOM     52  C   UNL A   1      47.026  29.905  31.415  1.00  0.00     0.029 A 
ATOM     53  C   UNL A   1      46.327  28.938  30.711  1.00  0.00     0.049 A 
ATOM     54  H   UNL A   1      44.297  28.918  30.130  1.00  0.00     0.167 HD
ATOM     55  C   UNL A   1      46.049  26.785  29.520  1.00  0.00     0.074 A 
ATOM     56  C   UNL A   1      46.544  25.536  28.981  1.00  0.00     0.031 C 
ATOM     57  C   UNL A   1      46.810  27.688  30.182  1.00  0.00     0.037 A 
BRANCH  44  58
ATOM     58  C   UNL A   1      43.754  32.768  31.885  1.00  0.00     0.064 A 
ATOM     59  C   UNL A   1      43.954  33.931  31.128  1.00  0.00     0.173 A 
ATOM     60  C   UNL A   1      43.554  32.911  33.268  1.00  0.00     0.173 A 
ATOM     61  F   UNL A   1      44.157  33.847  29.804  1.00  0.00    -0.203 F 
ATOM     62  C   UNL A   1      43.974  35.186  31.732  1.00  0.00     0.198 A 
ATOM     63  C   UNL A   1      43.549  34.169  33.865  1.00  0.00     0.198 A 
ATOM     64  F   UNL A   1      43.349  31.830  34.036  1.00  0.00    -0.203 F 
ATOM     65  F   UNL A   1      44.203  36.280  30.994  1.00  0.00    -0.200 F 
ATOM     66  C   UNL A   1      43.764  35.304  33.099  1.00  0.00     0.200 A 
ATOM     67  F   UNL A   1      43.333  34.282  35.183  1.00  0.00    -0.200 F 
ATOM     68  F   UNL A   1      43.774  36.512  33.677  1.00  0.00    -0.200 F 
ENDBRANCH  44  58
BRANCH  45  69
ATOM     69  C   UNL A   1      43.012  23.955  27.318  1.00  0.00     0.064 A 
ATOM     70  C   UNL A   1      42.608  22.797  27.995  1.00  0.00     0.173 A 
ATOM     71  C   UNL A   1      43.330  23.840  25.956  1.00  0.00     0.173 A 
ATOM     72  F   UNL A   1      42.318  22.854  29.303  1.00  0.00    -0.203 F 
ATOM     73  C   UNL A   1      42.539  21.568  27.341  1.00  0.00     0.198 A 
ATOM     74  C   UNL A   1      43.236  22.617  25.297  1.00  0.00     0.198 A 
ATOM     75  F   UNL A   1      43.722  24.920  25.265  1.00  0.00    -0.203 F 
ATOM     76  F   UNL A   1      42.191  20.469  28.021  1.00  0.00    -0.200 F 
ATOM     77  C   UNL A   1      42.848  21.481  25.992  1.00  0.00     0.200 A 
ATOM     78  F   UNL A   1      43.525  22.538  23.992  1.00  0.00    -0.200 F 
ATOM     79  F   UNL A   1      42.779  20.300  25.362  1.00  0.00    -0.200 F 
ENDBRANCH  45  69
BRANCH  57  80
ATOM     80  C   UNL A   1      48.255  27.348  30.399  1.00  0.00     0.064 A 
ATOM     81  C   UNL A   1      48.671  26.565  31.485  1.00  0.00     0.173 A 
ATOM     82  C   UNL A   1      49.229  27.772  29.482  1.00  0.00     0.173 A 
ATOM     83  F   UNL A   1      47.780  26.150  32.397  1.00  0.00    -0.203 F 
ATOM     84  C   UNL A   1      50.013  26.233  31.654  1.00  0.00     0.198 A 
ATOM     85  C   UNL A   1      50.566  27.417  29.640  1.00  0.00     0.198 A 
ATOM     86  F   UNL A   1      48.881  28.520  28.424  1.00  0.00    -0.203 F 
ATOM     87  F   UNL A   1      50.394  25.514  32.719  1.00  0.00    -0.200 F 
ATOM     88  C   UNL A   1      50.958  26.652  30.728  1.00  0.00     0.200 A 
ATOM     89  F   UNL A   1      51.475  27.814  28.740  1.00  0.00    -0.200 F 
ATOM     90  F   UNL A   1      52.247  26.323  30.888  1.00  0.00    -0.200 F 
ENDBRANCH  57  80
ENDBRANCH  31  32
ENDBRANCH  23  26
ENDBRANCH  21  22
ENDBRANCH  20  21
ENDBRANCH   1  20
TORSDOF 13
ENDMDL
MODEL 2
REMARK VINA RESULT:     -10.3      4.308     10.271
REMARK SMILES C[C@@H]([N@@H+](C)[C@@H]1COC[C@@H]1C(=O)NCCCNC(=O)c1ccc(-c2c3nc(c(-c4c(F)c(F)c(F)c(F)c4F)c4ccc([nH]4)c(-c4c(F)c(F)c(F)c(F)c4F)c4nc(c(-c5c(F)c(F)c(F)c(F)c5F)c5ccc2[nH]5)C=C4)C=C3)cc1)C1(C)CC1
REMARK SMILES IDX 13 1 12 2 10 3 11 4 9 6 5 7 6 8 7 9 8 10 3 11 4 12 2 14 1 15
REMARK SMILES IDX 82 16 83 17 84 18 85 19 14 20 15 21 16 22 17 23 18 25 19 26
REMARK SMILES IDX 20 27 81 28 21 29 80 30 22 31 23 32 24 33 74 34 25 35 79 36
REMARK SMILES IDX 73 37 75 38 26 39 78 40 72 41 71 42 27 44 59 45 39 46 58 47
REMARK SMILES IDX 40 48 43 49 57 50 76 51 41 52 42 53 56 55 77 56 44 57 28 58
REMARK SMILES IDX 29 59 37 60 30 61 31 62 35 63 38 64 32 65 33 66 36 67 34 68
REMARK SMILES IDX 60 69 61 70 69 71 62 72 63 73 67 74 70 75 64 76 65 77 68 78
REMARK SMILES IDX 66 79 45 80 46 81 54 82 47 83 48 84 52 85 55 86 49 87 50 88
REMARK SMILES IDX 53 89 51 90
REMARK H PARENT 12 5 3 13 16 24 75 43 43 54
REMARK Flexibility Score: inf
ROOT
ATOM      1  C   UNL A   1      31.429  30.720  26.440  1.00  0.00     0.117 C 
ENDROOT
BRANCH   1   2
ATOM      2  N   UNL A   1      32.358  30.225  25.437  1.00  0.00    -0.356 N 
ATOM      3  C   UNL A   1      32.194  29.315  24.432  1.00  0.00     0.231 C 
ATOM      4  O   UNL A   1      33.174  29.078  23.722  1.00  0.00    -0.274 OA
ATOM      5  H   UNL A   1      33.261  30.614  25.493  1.00  0.00     0.163 HD
BRANCH   3   6
ATOM      6  C   UNL A   1      30.863  28.614  24.240  1.00  0.00     0.164 C 
ATOM      7  C   UNL A   1      30.852  27.294  23.442  1.00  0.00     0.225 C 
ATOM      8  C   UNL A   1      30.660  27.785  22.006  1.00  0.00     0.226 C 
ATOM      9  O   UNL A   1      29.774  28.906  22.094  1.00  0.00    -0.374 OA
ATOM     10  C   UNL A   1      29.959  29.515  23.382  1.00  0.00     0.180 C 
BRANCH   7  11
ATOM     11  N   UNL A   1      31.837  26.205  23.678  1.00  0.00    -0.330 N 
ATOM     12  C   UNL A   1      32.221  25.526  22.432  1.00  0.00     0.333 C 
ATOM     13  H   UNL A   1      32.655  26.669  24.073  1.00  0.00     0.348 HD
BRANCH  11  14
ATOM     14  C   UNL A   1      31.353  25.177  24.670  1.00  0.00     0.186 C 
ATOM     15  C   UNL A   1      29.982  25.504  25.294  1.00  0.00     0.076 C 
BRANCH  14  16
ATOM     16  C   UNL A   1      32.416  24.920  25.780  1.00  0.00     0.019 C 
ATOM     17  C   UNL A   1      33.273  26.127  26.113  1.00  0.00     0.018 C 
ATOM     18  C   UNL A   1      32.084  23.920  26.881  1.00  0.00     0.013 C 
ATOM     19  C   UNL A   1      33.164  23.593  25.902  1.00  0.00     0.013 C 
ENDBRANCH  14  16
ENDBRANCH  11  14
ENDBRANCH   7  11
ENDBRANCH   3   6
ENDBRANCH   1   2
BRANCH   1  20
ATOM     20  C   UNL A   1      31.355  32.243  26.530  1.00  0.00     0.042 C 
BRANCH  20  21
ATOM     21  C   UNL A   1      32.651  32.938  26.947  1.00  0.00     0.118 C 
BRANCH  21  22
ATOM     22  N   UNL A   1      32.419  34.222  27.590  1.00  0.00    -0.352 N 
ATOM     23  C   UNL A   1      33.017  34.800  28.682  1.00  0.00     0.251 C 
ATOM     24  H   UNL A   1      31.715  34.767  27.171  1.00  0.00     0.163 HD
ATOM     25  O   UNL A   1      32.537  35.831  29.150  1.00  0.00    -0.269 OA
BRANCH  23  26
ATOM     26  C   UNL A   1      34.217  34.210  29.322  1.00  0.00     0.039 A 
ATOM     27  C   UNL A   1      34.030  33.326  30.392  1.00  0.00     0.014 A 
ATOM     28  C   UNL A   1      35.513  34.578  28.950  1.00  0.00     0.014 A 
ATOM     29  C   UNL A   1      35.132  32.774  31.052  1.00  0.00     0.010 A 
ATOM     30  C   UNL A   1      36.615  33.993  29.583  1.00  0.00     0.010 A 
ATOM     31  C   UNL A   1      36.436  33.085  30.639  1.00  0.00    -0.014 A 
BRANCH  31  32
ATOM     32  C   UNL A   1      37.619  32.464  31.295  1.00  0.00     0.031 A 
ATOM     33  C   UNL A   1      38.370  31.348  30.625  1.00  0.00     0.074 A 
ATOM     34  C   UNL A   1      37.989  32.871  32.526  1.00  0.00     0.049 A 
ATOM     35  N   UNL A   1      39.361  30.624  31.083  1.00  0.00    -0.248 NA
ATOM     36  C   UNL A   1      37.941  30.989  29.265  1.00  0.00     0.031 C 
ATOM     37  C   UNL A   1      37.343  33.935  33.293  1.00  0.00     0.029 A 
ATOM     38  N   UNL A   1      38.991  32.424  33.353  1.00  0.00    -0.354 N 
ATOM     39  C   UNL A   1      39.662  29.713  30.078  1.00  0.00     0.074 A 
ATOM     40  C   UNL A   1      38.731  29.959  28.996  1.00  0.00     0.031 C 
ATOM     41  C   UNL A   1      37.966  34.062  34.476  1.00  0.00     0.029 A 
ATOM     42  C   UNL A   1      39.028  33.063  34.567  1.00  0.00     0.049 A 
ATOM     43  H   UNL A   1      39.623  31.713  33.099  1.00  0.00     0.167 HD
ATOM     44  C   UNL A   1      40.633  28.767  30.057  1.00  0.00     0.037 A 
ATOM     45  C   UNL A   1      39.814  32.858  35.642  1.00  0.00     0.037 A 
ATOM     46  C   UNL A   1      41.577  28.538  31.118  1.00  0.00     0.049 A 
ATOM     47  C   UNL A   1      40.865  31.783  35.601  1.00  0.00     0.074 A 
ATOM     48  C   UNL A   1      42.631  27.640  31.157  1.00  0.00     0.029 A 
ATOM     49  N   UNL A   1      41.583  29.208  32.332  1.00  0.00    -0.354 N 
ATOM     50  N   UNL A   1      41.169  30.961  34.628  1.00  0.00    -0.248 NA
ATOM     51  C   UNL A   1      41.682  31.607  36.811  1.00  0.00     0.031 C 
ATOM     52  C   UNL A   1      43.248  27.738  32.408  1.00  0.00     0.029 A 
ATOM     53  C   UNL A   1      42.606  28.727  33.134  1.00  0.00     0.049 A 
ATOM     54  H   UNL A   1      40.953  29.922  32.586  1.00  0.00     0.167 HD
ATOM     55  C   UNL A   1      42.228  30.191  35.095  1.00  0.00     0.074 A 
ATOM     56  C   UNL A   1      42.518  30.649  36.437  1.00  0.00     0.031 C 
ATOM     57  C   UNL A   1      42.897  29.197  34.465  1.00  0.00     0.037 A 
BRANCH  44  58
ATOM     58  C   UNL A   1      40.722  27.891  28.841  1.00  0.00     0.064 A 
ATOM     59  C   UNL A   1      39.961  26.721  28.720  1.00  0.00     0.173 A 
ATOM     60  C   UNL A   1      41.537  28.261  27.759  1.00  0.00     0.173 A 
ATOM     61  F   UNL A   1      39.172  26.321  29.729  1.00  0.00    -0.203 F 
ATOM     62  C   UNL A   1      40.028  25.939  27.569  1.00  0.00     0.198 A 
ATOM     63  C   UNL A   1      41.582  27.491  26.600  1.00  0.00     0.198 A 
ATOM     64  F   UNL A   1      42.279  29.378  27.822  1.00  0.00    -0.203 F 
ATOM     65  F   UNL A   1      39.320  24.804  27.490  1.00  0.00    -0.200 F 
ATOM     66  C   UNL A   1      40.833  26.328  26.508  1.00  0.00     0.200 A 
ATOM     67  F   UNL A   1      42.350  27.876  25.572  1.00  0.00    -0.200 F 
ATOM     68  F   UNL A   1      40.889  25.580  25.398  1.00  0.00    -0.200 F 
ENDBRANCH  44  58
BRANCH  45  69
ATOM     69  C   UNL A   1      39.641  33.697  36.854  1.00  0.00     0.064 A 
ATOM     70  C   UNL A   1      38.799  33.287  37.897  1.00  0.00     0.173 A 
ATOM     71  C   UNL A   1      40.305  34.925  36.994  1.00  0.00     0.173 A 
ATOM     72  F   UNL A   1      38.123  32.133  37.796  1.00  0.00    -0.203 F 
ATOM     73  C   UNL A   1      38.615  34.080  39.028  1.00  0.00     0.198 A 
ATOM     74  C   UNL A   1      40.142  35.704  38.136  1.00  0.00     0.198 A 
ATOM     75  F   UNL A   1      41.121  35.360  36.024  1.00  0.00    -0.203 F 
ATOM     76  F   UNL A   1      37.773  33.685  39.991  1.00  0.00    -0.200 F 
ATOM     77  C   UNL A   1      39.291  35.285  39.149  1.00  0.00     0.200 A 
ATOM     78  F   UNL A   1      40.804  36.862  38.255  1.00  0.00    -0.200 F 
ATOM     79  F   UNL A   1      39.117  36.046  40.238  1.00  0.00    -0.200 F 
ENDBRANCH  45  69
BRANCH  57  80
ATOM     80  C   UNL A   1      44.038  28.557  35.198  1.00  0.00     0.064 A 
ATOM     81  C   UNL A   1      45.342  29.065  35.114  1.00  0.00     0.173 A 
ATOM     82  C   UNL A   1      43.815  27.452  36.032  1.00  0.00     0.173 A 
ATOM     83  F   UNL A   1      45.610  30.110  34.317  1.00  0.00    -0.203 F 
ATOM     84  C   UNL A   1      46.385  28.478  35.827  1.00  0.00     0.198 A 
ATOM     85  C   UNL A   1      44.855  26.883  36.763  1.00  0.00     0.198 A 
ATOM     86  F   UNL A   1      42.584  26.932  36.150  1.00  0.00    -0.203 F 
ATOM     87  F   UNL A   1      47.631  28.957  35.704  1.00  0.00    -0.200 F 
ATOM     88  C   UNL A   1      46.139  27.393  36.656  1.00  0.00     0.200 A 
ATOM     89  F   UNL A   1      44.613  25.841  37.571  1.00  0.00    -0.200 F 
ATOM     90  F   UNL A   1      47.142  26.835  37.348  1.00  0.00    -0.200 F 
ENDBRANCH  57  80
ENDBRANCH  31  32
ENDBRANCH  23  26
ENDBRANCH  21  22
ENDBRANCH  20  21
ENDBRANCH   1  20
TORSDOF 13
ENDMDL
MODEL 3
REMARK VINA RESULT:     -10.3      5.100      9.875
REMARK SMILES C[C@@H]([N@@H+](C)[C@@H]1COC[C@@H]1C(=O)NCCCNC(=O)c1ccc(-c2c3nc(c(-c4c(F)c(F)c(F)c(F)c4F)c4ccc([nH]4)c(-c4c(F)c(F)c(F)c(F)c4F)c4nc(c(-c5c(F)c(F)c(F)c(F)c5F)c5ccc2[nH]5)C=C4)C=C3)cc1)C1(C)CC1
REMARK SMILES IDX 13 1 12 2 10 3 11 4 9 6 5 7 6 8 7 9 8 10 3 11 4 12 2 14 1 15
REMARK SMILES IDX 82 16 83 17 84 18 85 19 14 20 15 21 16 22 17 23 18 25 19 26
REMARK SMILES IDX 20 27 81 28 21 29 80 30 22 31 23 32 24 33 74 34 25 35 79 36
REMARK SMILES IDX 73 37 75 38 26 39 78 40 72 41 71 42 27 44 59 45 39 46 58 47
REMARK SMILES IDX 40 48 43 49 57 50 76 51 41 52 42 53 56 55 77 56 44 57 28 58
REMARK SMILES IDX 29 59 37 60 30 61 31 62 35 63 38 64 32 65 33 66 36 67 34 68
REMARK SMILES IDX 60 69 61 70 69 71 62 72 63 73 67 74 70 75 64 76 65 77 68 78
REMARK SMILES IDX 66 79 45 80 46 81 54 82 47 83 48 84 52 85 55 86 49 87 50 88
REMARK SMILES IDX 53 89 51 90
REMARK H PARENT 12 5 3 13 16 24 75 43 43 54
REMARK Flexibility Score: inf
ROOT
ATOM      1  C   UNL A   1      37.122  20.945  24.656  1.00  0.00     0.117 C 
ENDROOT
BRANCH   1   2
ATOM      2  N   UNL A   1      36.298  21.279  25.807  1.00  0.00    -0.356 N 
ATOM      3  C   UNL A   1      34.948  21.455  25.924  1.00  0.00     0.231 C 
ATOM      4  O   UNL A   1      34.513  21.744  27.040  1.00  0.00    -0.274 OA
ATOM      5  H   UNL A   1      36.799  21.399  26.645  1.00  0.00     0.163 HD
BRANCH   3   6
ATOM      6  C   UNL A   1      34.048  21.327  24.709  1.00  0.00     0.164 C 
ATOM      7  C   UNL A   1      32.682  22.041  24.746  1.00  0.00     0.225 C 
ATOM      8  C   UNL A   1      31.777  20.980  25.374  1.00  0.00     0.226 C 
ATOM      9  O   UNL A   1      32.234  19.726  24.857  1.00  0.00    -0.374 OA
ATOM     10  C   UNL A   1      33.636  19.852  24.564  1.00  0.00     0.180 C 
BRANCH   7  11
ATOM     11  N   UNL A   1      32.524  23.448  25.203  1.00  0.00    -0.330 N 
ATOM     12  C   UNL A   1      31.348  23.619  26.069  1.00  0.00     0.333 C 
ATOM     13  H   UNL A   1      33.368  23.649  25.740  1.00  0.00     0.348 HD
BRANCH  11  14
ATOM     14  C   UNL A   1      32.444  24.433  24.064  1.00  0.00     0.186 C 
ATOM     15  C   UNL A   1      32.555  23.789  22.668  1.00  0.00     0.076 C 
BRANCH  14  16
ATOM     16  C   UNL A   1      33.495  25.572  24.229  1.00  0.00     0.019 C 
ATOM     17  C   UNL A   1      34.710  25.184  25.051  1.00  0.00     0.018 C 
ATOM     18  C   UNL A   1      33.658  26.575  23.094  1.00  0.00     0.013 C 
ATOM     19  C   UNL A   1      33.091  27.037  24.396  1.00  0.00     0.013 C 
ENDBRANCH  14  16
ENDBRANCH  11  14
ENDBRANCH   7  11
ENDBRANCH   3   6
ENDBRANCH   1   2
BRANCH   1  20
ATOM     20  C   UNL A   1      38.074  19.773  24.886  1.00  0.00     0.042 C 
BRANCH  20  21
ATOM     21  C   UNL A   1      38.990  19.902  26.103  1.00  0.00     0.118 C 
BRANCH  21  22
ATOM     22  N   UNL A   1      40.160  19.041  26.020  1.00  0.00    -0.352 N 
ATOM     23  C   UNL A   1      41.499  19.339  26.070  1.00  0.00     0.251 C 
ATOM     24  H   UNL A   1      39.957  18.085  25.909  1.00  0.00     0.163 HD
ATOM     25  O   UNL A   1      42.317  18.460  25.808  1.00  0.00    -0.269 OA
BRANCH  23  26
ATOM     26  C   UNL A   1      41.987  20.696  26.418  1.00  0.00     0.039 A 
ATOM     27  C   UNL A   1      42.228  21.600  25.377  1.00  0.00     0.014 A 
ATOM     28  C   UNL A   1      42.295  21.059  27.732  1.00  0.00     0.014 A 
ATOM     29  C   UNL A   1      42.726  22.878  25.653  1.00  0.00     0.010 A 
ATOM     30  C   UNL A   1      42.752  22.352  28.012  1.00  0.00     0.010 A 
ATOM     31  C   UNL A   1      42.972  23.274  26.976  1.00  0.00    -0.014 A 
BRANCH  31  32
ATOM     32  C   UNL A   1      43.449  24.648  27.291  1.00  0.00     0.031 A 
ATOM     33  C   UNL A   1      42.507  25.678  27.846  1.00  0.00     0.074 A 
ATOM     34  C   UNL A   1      44.726  24.987  27.026  1.00  0.00     0.049 A 
ATOM     35  N   UNL A   1      42.717  26.948  28.092  1.00  0.00    -0.248 NA
ATOM     36  C   UNL A   1      41.142  25.225  28.155  1.00  0.00     0.031 C 
ATOM     37  C   UNL A   1      45.742  24.090  26.478  1.00  0.00     0.029 A 
ATOM     38  N   UNL A   1      45.382  26.186  27.170  1.00  0.00    -0.354 N 
ATOM     39  C   UNL A   1      41.511  27.449  28.564  1.00  0.00     0.074 A 
ATOM     40  C   UNL A   1      40.565  26.353  28.547  1.00  0.00     0.031 C 
ATOM     41  C   UNL A   1      46.893  24.766  26.334  1.00  0.00     0.029 A 
ATOM     42  C   UNL A   1      46.686  26.154  26.742  1.00  0.00     0.049 A 
ATOM     43  H   UNL A   1      44.958  26.992  27.543  1.00  0.00     0.167 HD
ATOM     44  C   UNL A   1      41.224  28.706  28.984  1.00  0.00     0.037 A 
ATOM     45  C   UNL A   1      47.608  27.133  26.668  1.00  0.00     0.037 A 
ATOM     46  C   UNL A   1      42.168  29.791  29.029  1.00  0.00     0.049 A 
ATOM     47  C   UNL A   1      47.253  28.525  27.115  1.00  0.00     0.074 A 
ATOM     48  C   UNL A   1      41.978  31.082  29.495  1.00  0.00     0.029 A 
ATOM     49  N   UNL A   1      43.481  29.717  28.589  1.00  0.00    -0.354 N 
ATOM     50  N   UNL A   1      46.124  28.974  27.603  1.00  0.00    -0.248 NA
ATOM     51  C   UNL A   1      48.304  29.547  26.998  1.00  0.00     0.031 C 
ATOM     52  C   UNL A   1      43.162  31.800  29.299  1.00  0.00     0.029 A 
ATOM     53  C   UNL A   1      44.104  30.945  28.750  1.00  0.00     0.049 A 
ATOM     54  H   UNL A   1      43.907  28.911  28.217  1.00  0.00     0.167 HD
ATOM     55  C   UNL A   1      46.335  30.319  27.878  1.00  0.00     0.074 A 
ATOM     56  C   UNL A   1      47.704  30.613  27.509  1.00  0.00     0.031 C 
ATOM     57  C   UNL A   1      45.471  31.226  28.392  1.00  0.00     0.037 A 
BRANCH  44  58
ATOM     58  C   UNL A   1      39.817  28.985  29.427  1.00  0.00     0.064 A 
ATOM     59  C   UNL A   1      38.841  29.441  28.530  1.00  0.00     0.173 A 
ATOM     60  C   UNL A   1      39.428  28.737  30.753  1.00  0.00     0.173 A 
ATOM     61  F   UNL A   1      39.164  29.700  27.254  1.00  0.00    -0.203 F 
ATOM     62  C   UNL A   1      37.530  29.660  28.948  1.00  0.00     0.198 A 
ATOM     63  C   UNL A   1      38.111  28.932  31.162  1.00  0.00     0.198 A 
ATOM     64  F   UNL A   1      40.323  28.291  31.648  1.00  0.00    -0.203 F 
ATOM     65  F   UNL A   1      36.622  30.131  28.084  1.00  0.00    -0.200 F 
ATOM     66  C   UNL A   1      37.166  29.399  30.262  1.00  0.00     0.200 A 
ATOM     67  F   UNL A   1      37.758  28.667  32.426  1.00  0.00    -0.200 F 
ATOM     68  F   UNL A   1      35.903  29.602  30.660  1.00  0.00    -0.200 F 
ENDBRANCH  44  58
BRANCH  45  69
ATOM     69  C   UNL A   1      48.967  26.830  26.151  1.00  0.00     0.064 A 
ATOM     70  C   UNL A   1      49.972  26.357  27.006  1.00  0.00     0.173 A 
ATOM     71  C   UNL A   1      49.291  27.012  24.798  1.00  0.00     0.173 A 
ATOM     72  F   UNL A   1      49.715  26.192  28.312  1.00  0.00    -0.203 F 
ATOM     73  C   UNL A   1      51.254  26.091  26.531  1.00  0.00     0.198 A 
ATOM     74  C   UNL A   1      50.565  26.721  24.319  1.00  0.00     0.198 A 
ATOM     75  F   UNL A   1      48.363  27.463  23.941  1.00  0.00    -0.203 F 
ATOM     76  F   UNL A   1      52.207  25.680  27.377  1.00  0.00    -0.200 F 
ATOM     77  C   UNL A   1      51.548  26.268  25.187  1.00  0.00     0.200 A 
ATOM     78  F   UNL A   1      50.843  26.883  23.019  1.00  0.00    -0.200 F 
ATOM     79  F   UNL A   1      52.780  26.010  24.729  1.00  0.00    -0.200 F 
ENDBRANCH  45  69
BRANCH  57  80
ATOM     80  C   UNL A   1      45.984  32.616  28.626  1.00  0.00     0.064 A 
ATOM     81  C   UNL A   1      45.863  33.618  27.653  1.00  0.00     0.173 A 
ATOM     82  C   UNL A   1      46.559  32.962  29.858  1.00  0.00     0.173 A 
ATOM     83  F   UNL A   1      45.335  33.332  26.453  1.00  0.00    -0.203 F 
ATOM     84  C   UNL A   1      46.316  34.912  27.899  1.00  0.00     0.198 A 
ATOM     85  C   UNL A   1      46.988  34.262  30.110  1.00  0.00     0.198 A 
ATOM     86  F   UNL A   1      46.693  32.040  30.824  1.00  0.00    -0.203 F 
ATOM     87  F   UNL A   1      46.224  35.845  26.941  1.00  0.00    -0.200 F 
ATOM     88  C   UNL A   1      46.871  35.234  29.129  1.00  0.00     0.200 A 
ATOM     89  F   UNL A   1      47.514  34.575  31.302  1.00  0.00    -0.200 F 
ATOM     90  F   UNL A   1      47.297  36.482  29.366  1.00  0.00    -0.200 F 
ENDBRANCH  57  80
ENDBRANCH  31  32
ENDBRANCH  23  26
ENDBRANCH  21  22
ENDBRANCH  20  21
ENDBRANCH   1  20
TORSDOF 13
ENDMDL
