MODEL 1
REMARK VINA RESULT:     -13.3      0.000      0.000
REMARK SMILES Cn1c(C(=O)NCCCNC(=O)c2ccc(-c3c4nc(c(-c5c(F)c(F)c(F)c(F)c5F)c5ccc([nH]5)c(-c5c(F)c(F)c(F)c(F)c5F)c5nc(c(-c6c(F)c(F)c(F)c(F)c6F)c6ccc3[nH]6)C=C5)C=C4)cc2)cc2cc(OCc3ccccc3)ccc21
REMARK SMILES IDX 7 1 6 2 4 3 5 4 3 6 1 7 2 8 90 9 76 10 77 11 89 12 78 13
REMARK SMILES IDX 88 14 79 15 80 16 81 17 82 18 83 19 87 20 84 21 86 22 85 23
REMARK SMILES IDX 8 24 9 25 10 26 11 27 12 29 13 30 14 31 75 32 15 33 74 34
REMARK SMILES IDX 16 35 17 36 18 37 68 38 19 39 73 40 67 41 69 42 20 43 72 44
REMARK SMILES IDX 66 45 65 46 21 48 53 49 33 50 52 51 34 52 37 53 51 54 70 55
REMARK SMILES IDX 35 56 36 57 50 59 71 60 38 61 22 62 23 63 31 64 24 65 25 66
REMARK SMILES IDX 29 67 32 68 26 69 27 70 30 71 28 72 54 73 55 74 63 75 56 76
REMARK SMILES IDX 57 77 61 78 64 79 58 80 59 81 62 82 60 83 39 84 40 85 48 86
REMARK SMILES IDX 41 87 42 88 46 89 49 90 43 91 44 92 47 93 45 94
REMARK H PARENT 6 5 10 28 69 47 37 58
REMARK Flexibility Score: inf
ROOT
ATOM      1  C   UNL A   1      35.568  20.638  24.660  1.00  0.00     0.118 C 
ENDROOT
BRANCH   1   2
ATOM      2  N   UNL A   1      34.538  19.722  25.085  1.00  0.00    -0.351 N 
ATOM      3  C   UNL A   1      33.205  19.953  25.344  1.00  0.00     0.267 C 
ATOM      4  O   UNL A   1      32.553  18.974  25.703  1.00  0.00    -0.268 OA
ATOM      5  H   UNL A   1      34.831  18.790  25.206  1.00  0.00     0.163 HD
BRANCH   3   6
ATOM      6  C   UNL A   1      32.629  21.285  25.278  1.00  0.00     0.107 A 
ATOM      7  C   UNL A   1      33.162  22.373  27.525  1.00  0.00     0.150 C 
ATOM      8  N   UNL A   1      32.491  22.263  26.245  1.00  0.00    -0.340 N 
ATOM      9  C   UNL A   1      31.698  23.293  25.781  1.00  0.00     0.049 A 
ATOM     10  C   UNL A   1      32.161  21.877  24.104  1.00  0.00     0.042 A 
ATOM     11  C   UNL A   1      31.566  23.128  24.410  1.00  0.00     0.004 A 
ATOM     12  C   UNL A   1      31.162  24.386  26.462  1.00  0.00     0.031 A 
ATOM     13  C   UNL A   1      30.916  24.136  23.665  1.00  0.00     0.056 A 
ATOM     14  C   UNL A   1      30.538  25.372  25.706  1.00  0.00     0.048 A 
ATOM     15  C   UNL A   1      30.410  25.268  24.323  1.00  0.00     0.120 A 
BRANCH  15  16
ATOM     16  O   UNL A   1      29.795  26.192  23.517  1.00  0.00    -0.489 OA
BRANCH  16  17
ATOM     17  C   UNL A   1      30.441  27.460  23.323  1.00  0.00     0.265 C 
BRANCH  17  18
ATOM     18  C   UNL A   1      29.463  28.614  23.264  1.00  0.00    -0.011 A 
ATOM     19  C   UNL A   1      28.099  28.373  23.056  1.00  0.00     0.007 A 
ATOM     20  C   UNL A   1      29.895  29.935  23.470  1.00  0.00     0.007 A 
ATOM     21  C   UNL A   1      27.182  29.423  23.100  1.00  0.00     0.000 A 
ATOM     22  C   UNL A   1      28.973  30.980  23.539  1.00  0.00     0.000 A 
ATOM     23  C   UNL A   1      27.617  30.723  23.357  1.00  0.00     0.000 A 
ENDBRANCH  17  18
ENDBRANCH  16  17
ENDBRANCH  15  16
ENDBRANCH   3   6
ENDBRANCH   1   2
BRANCH   1  24
ATOM     24  C   UNL A   1      36.438  21.212  25.755  1.00  0.00     0.042 C 
BRANCH  24  25
ATOM     25  C   UNL A   1      37.878  21.475  25.358  1.00  0.00     0.118 C 
BRANCH  25  26
ATOM     26  N   UNL A   1      38.843  20.567  25.967  1.00  0.00    -0.352 N 
ATOM     27  C   UNL A   1      40.000  20.800  26.679  1.00  0.00     0.251 C 
ATOM     28  H   UNL A   1      38.629  19.613  25.849  1.00  0.00     0.163 HD
ATOM     29  O   UNL A   1      40.713  19.853  26.994  1.00  0.00    -0.269 OA
BRANCH  27  30
ATOM     30  C   UNL A   1      40.417  22.177  27.032  1.00  0.00     0.039 A 
ATOM     31  C   UNL A   1      41.379  22.369  28.029  1.00  0.00     0.014 A 
ATOM     32  C   UNL A   1      39.869  23.286  26.392  1.00  0.00     0.014 A 
ATOM     33  C   UNL A   1      41.845  23.657  28.309  1.00  0.00     0.010 A 
ATOM     34  C   UNL A   1      40.445  24.538  26.553  1.00  0.00     0.010 A 
ATOM     35  C   UNL A   1      41.418  24.749  27.536  1.00  0.00    -0.014 A 
BRANCH  35  36
ATOM     36  C   UNL A   1      41.925  26.125  27.770  1.00  0.00     0.031 A 
ATOM     37  C   UNL A   1      43.284  26.523  27.253  1.00  0.00     0.074 A 
ATOM     38  C   UNL A   1      41.199  26.996  28.499  1.00  0.00     0.049 A 
ATOM     39  N   UNL A   1      43.937  27.648  27.409  1.00  0.00    -0.248 NA
ATOM     40  C   UNL A   1      44.034  25.504  26.497  1.00  0.00     0.031 C 
ATOM     41  C   UNL A   1      39.901  26.711  29.115  1.00  0.00     0.029 A 
ATOM     42  N   UNL A   1      41.453  28.297  28.853  1.00  0.00    -0.354 N 
ATOM     43  C   UNL A   1      45.168  27.459  26.793  1.00  0.00     0.074 A 
ATOM     44  C   UNL A   1      45.208  26.090  26.335  1.00  0.00     0.031 C 
ATOM     45  C   UNL A   1      39.453  27.817  29.731  1.00  0.00     0.029 A 
ATOM     46  C   UNL A   1      40.448  28.874  29.592  1.00  0.00     0.049 A 
ATOM     47  H   UNL A   1      42.276  28.773  28.599  1.00  0.00     0.167 HD
ATOM     48  C   UNL A   1      46.161  28.356  26.589  1.00  0.00     0.037 A 
ATOM     49  C   UNL A   1      40.345  30.117  30.099  1.00  0.00     0.037 A 
ATOM     50  C   UNL A   1      46.100  29.729  27.012  1.00  0.00     0.049 A 
ATOM     51  C   UNL A   1      41.457  31.101  29.847  1.00  0.00     0.074 A 
ATOM     52  C   UNL A   1      47.021  30.739  26.804  1.00  0.00     0.029 A 
ATOM     53  N   UNL A   1      45.052  30.284  27.732  1.00  0.00    -0.354 N 
ATOM     54  N   UNL A   1      42.583  30.933  29.196  1.00  0.00    -0.248 NA
ATOM     55  C   UNL A   1      41.275  32.454  30.390  1.00  0.00     0.031 C 
ATOM     56  C   UNL A   1      46.556  31.892  27.443  1.00  0.00     0.029 A 
ATOM     57  C   UNL A   1      45.314  31.619  27.992  1.00  0.00     0.049 A 
ATOM     58  H   UNL A   1      44.242  29.801  28.014  1.00  0.00     0.167 HD
ATOM     59  C   UNL A   1      43.226  32.163  29.219  1.00  0.00     0.074 A 
ATOM     60  C   UNL A   1      42.354  33.073  29.935  1.00  0.00     0.031 C 
ATOM     61  C   UNL A   1      44.427  32.511  28.696  1.00  0.00     0.037 A 
BRANCH  48  62
ATOM     62  C   UNL A   1      47.390  27.880  25.866  1.00  0.00     0.064 A 
ATOM     63  C   UNL A   1      48.555  27.503  26.555  1.00  0.00     0.173 A 
ATOM     64  C   UNL A   1      47.398  27.777  24.466  1.00  0.00     0.173 A 
ATOM     65  F   UNL A   1      48.609  27.595  27.892  1.00  0.00    -0.203 F 
ATOM     66  C   UNL A   1      49.690  27.078  25.869  1.00  0.00     0.198 A 
ATOM     67  C   UNL A   1      48.523  27.317  23.786  1.00  0.00     0.198 A 
ATOM     68  F   UNL A   1      46.314  28.121  23.756  1.00  0.00    -0.203 F 
ATOM     69  F   UNL A   1      50.809  26.786  26.546  1.00  0.00    -0.200 F 
ATOM     70  C   UNL A   1      49.671  26.977  24.487  1.00  0.00     0.200 A 
ATOM     71  F   UNL A   1      48.498  27.205  22.451  1.00  0.00    -0.200 F 
ATOM     72  F   UNL A   1      50.761  26.562  23.828  1.00  0.00    -0.200 F 
ENDBRANCH  48  62
BRANCH  49  73
ATOM     73  C   UNL A   1      39.130  30.517  30.859  1.00  0.00     0.064 A 
ATOM     74  C   UNL A   1      38.026  31.085  30.206  1.00  0.00     0.173 A 
ATOM     75  C   UNL A   1      39.048  30.349  32.249  1.00  0.00     0.173 A 
ATOM     76  F   UNL A   1      38.061  31.282  28.880  1.00  0.00    -0.203 F 
ATOM     77  C   UNL A   1      36.902  31.498  30.917  1.00  0.00     0.198 A 
ATOM     78  C   UNL A   1      37.909  30.732  32.955  1.00  0.00     0.198 A 
ATOM     79  F   UNL A   1      40.071  29.802  32.921  1.00  0.00    -0.203 F 
ATOM     80  F   UNL A   1      35.885  32.088  30.275  1.00  0.00    -0.200 F 
ATOM     81  C   UNL A   1      36.841  31.316  32.290  1.00  0.00     0.200 A 
ATOM     82  F   UNL A   1      37.847  30.538  34.280  1.00  0.00    -0.200 F 
ATOM     83  F   UNL A   1      35.758  31.710  32.974  1.00  0.00    -0.200 F 
ENDBRANCH  49  73
BRANCH  61  84
ATOM     84  C   UNL A   1      44.845  33.947  28.832  1.00  0.00     0.064 A 
ATOM     85  C   UNL A   1      45.614  34.398  29.915  1.00  0.00     0.173 A 
ATOM     86  C   UNL A   1      44.489  34.882  27.847  1.00  0.00     0.173 A 
ATOM     87  F   UNL A   1      45.971  33.548  30.890  1.00  0.00    -0.203 F 
ATOM     88  C   UNL A   1      45.974  35.738  30.029  1.00  0.00     0.198 A 
ATOM     89  C   UNL A   1      44.883  36.213  27.944  1.00  0.00     0.198 A 
ATOM     90  F   UNL A   1      43.764  34.502  26.784  1.00  0.00    -0.203 F 
ATOM     91  F   UNL A   1      46.652  36.158  31.106  1.00  0.00    -0.200 F 
ATOM     92  C   UNL A   1      45.615  36.643  29.040  1.00  0.00     0.200 A 
ATOM     93  F   UNL A   1      44.551  37.081  26.978  1.00  0.00    -0.200 F 
ATOM     94  F   UNL A   1      45.965  37.931  29.150  1.00  0.00    -0.200 F 
ENDBRANCH  61  84
ENDBRANCH  35  36
ENDBRANCH  27  30
ENDBRANCH  25  26
ENDBRANCH  24  25
ENDBRANCH   1  24
TORSDOF 13
ENDMDL
MODEL 2
REMARK VINA RESULT:     -13.3      4.755      8.246
REMARK SMILES Cn1c(C(=O)NCCCNC(=O)c2ccc(-c3c4nc(c(-c5c(F)c(F)c(F)c(F)c5F)c5ccc([nH]5)c(-c5c(F)c(F)c(F)c(F)c5F)c5nc(c(-c6c(F)c(F)c(F)c(F)c6F)c6ccc3[nH]6)C=C5)C=C4)cc2)cc2cc(OCc3ccccc3)ccc21
REMARK SMILES IDX 7 1 6 2 4 3 5 4 3 6 1 7 2 8 90 9 76 10 77 11 89 12 78 13
REMARK SMILES IDX 88 14 79 15 80 16 81 17 82 18 83 19 87 20 84 21 86 22 85 23
REMARK SMILES IDX 8 24 9 25 10 26 11 27 12 29 13 30 14 31 75 32 15 33 74 34
REMARK SMILES IDX 16 35 17 36 18 37 68 38 19 39 73 40 67 41 69 42 20 43 72 44
REMARK SMILES IDX 66 45 65 46 21 48 53 49 33 50 52 51 34 52 37 53 51 54 70 55
REMARK SMILES IDX 35 56 36 57 50 59 71 60 38 61 22 62 23 63 31 64 24 65 25 66
REMARK SMILES IDX 29 67 32 68 26 69 27 70 30 71 28 72 54 73 55 74 63 75 56 76
REMARK SMILES IDX 57 77 61 78 64 79 58 80 59 81 62 82 60 83 39 84 40 85 48 86
REMARK SMILES IDX 41 87 42 88 46 89 49 90 43 91 44 92 47 93 45 94
REMARK H PARENT 6 5 10 28 69 47 37 58
REMARK Flexibility Score: inf
ROOT
ATOM      1  C   UNL A   1      42.385  22.689  25.787  1.00  0.00     0.118 C 
ENDROOT
BRANCH   1   2
ATOM      2  N   UNL A   1      43.386  22.526  24.761  1.00  0.00    -0.351 N 
ATOM      3  C   UNL A   1      44.405  23.371  24.384  1.00  0.00     0.267 C 
ATOM      4  O   UNL A   1      45.113  22.975  23.459  1.00  0.00    -0.268 OA
ATOM      5  H   UNL A   1      43.332  21.684  24.255  1.00  0.00     0.163 HD
BRANCH   3   6
ATOM      6  C   UNL A   1      44.579  24.682  24.985  1.00  0.00     0.107 A 
ATOM      7  C   UNL A   1      47.072  24.873  25.500  1.00  0.00     0.150 C 
ATOM      8  N   UNL A   1      45.680  25.268  25.581  1.00  0.00    -0.340 N 
ATOM      9  C   UNL A   1      45.324  26.453  26.193  1.00  0.00     0.049 A 
ATOM     10  C   UNL A   1      43.604  25.681  24.979  1.00  0.00     0.042 A 
ATOM     11  C   UNL A   1      44.055  26.788  25.743  1.00  0.00     0.004 A 
ATOM     12  C   UNL A   1      46.062  27.276  27.044  1.00  0.00     0.031 A 
ATOM     13  C   UNL A   1      43.514  28.038  26.110  1.00  0.00     0.056 A 
ATOM     14  C   UNL A   1      45.513  28.509  27.381  1.00  0.00     0.048 A 
ATOM     15  C   UNL A   1      44.257  28.904  26.926  1.00  0.00     0.120 A 
BRANCH  15  16
ATOM     16  O   UNL A   1      43.649  30.095  27.230  1.00  0.00    -0.489 OA
BRANCH  16  17
ATOM     17  C   UNL A   1      44.437  31.120  27.855  1.00  0.00     0.265 C 
BRANCH  17  18
ATOM     18  C   UNL A   1      44.170  32.497  27.284  1.00  0.00    -0.011 A 
ATOM     19  C   UNL A   1      44.206  32.706  25.899  1.00  0.00     0.007 A 
ATOM     20  C   UNL A   1      43.828  33.571  28.123  1.00  0.00     0.007 A 
ATOM     21  C   UNL A   1      43.863  33.947  25.364  1.00  0.00     0.000 A 
ATOM     22  C   UNL A   1      43.461  34.804  27.583  1.00  0.00     0.000 A 
ATOM     23  C   UNL A   1      43.476  34.990  26.204  1.00  0.00     0.000 A 
ENDBRANCH  17  18
ENDBRANCH  16  17
ENDBRANCH  15  16
ENDBRANCH   3   6
ENDBRANCH   1   2
BRANCH   1  24
ATOM     24  C   UNL A   1      41.681  21.428  26.234  1.00  0.00     0.042 C 
BRANCH  24  25
ATOM     25  C   UNL A   1      40.389  21.650  26.994  1.00  0.00     0.118 C 
BRANCH  25  26
ATOM     26  N   UNL A   1      39.299  22.182  26.183  1.00  0.00    -0.352 N 
ATOM     27  C   UNL A   1      38.719  23.430  26.131  1.00  0.00     0.251 C 
ATOM     28  H   UNL A   1      38.907  21.530  25.558  1.00  0.00     0.163 HD
ATOM     29  O   UNL A   1      37.723  23.602  25.434  1.00  0.00    -0.269 OA
BRANCH  27  30
ATOM     30  C   UNL A   1      39.251  24.556  26.934  1.00  0.00     0.039 A 
ATOM     31  C   UNL A   1      40.029  25.537  26.310  1.00  0.00     0.014 A 
ATOM     32  C   UNL A   1      38.992  24.657  28.299  1.00  0.00     0.014 A 
ATOM     33  C   UNL A   1      40.462  26.649  27.038  1.00  0.00     0.010 A 
ATOM     34  C   UNL A   1      39.280  25.832  28.977  1.00  0.00     0.010 A 
ATOM     35  C   UNL A   1      40.047  26.832  28.367  1.00  0.00    -0.014 A 
BRANCH  35  36
ATOM     36  C   UNL A   1      40.446  28.023  29.160  1.00  0.00     0.031 A 
ATOM     37  C   UNL A   1      41.833  28.106  29.746  1.00  0.00     0.074 A 
ATOM     38  C   UNL A   1      39.548  28.997  29.410  1.00  0.00     0.049 A 
ATOM     39  N   UNL A   1      42.354  29.023  30.521  1.00  0.00    -0.248 NA
ATOM     40  C   UNL A   1      42.745  26.985  29.460  1.00  0.00     0.031 C 
ATOM     41  C   UNL A   1      38.155  29.002  28.960  1.00  0.00     0.029 A 
ATOM     42  N   UNL A   1      39.673  30.171  30.110  1.00  0.00    -0.354 N 
ATOM     43  C   UNL A   1      43.634  28.577  30.826  1.00  0.00     0.074 A 
ATOM     44  C   UNL A   1      43.784  27.272  30.226  1.00  0.00     0.031 C 
ATOM     45  C   UNL A   1      37.567  30.142  29.357  1.00  0.00     0.029 A 
ATOM     46  C   UNL A   1      38.527  30.929  30.124  1.00  0.00     0.049 A 
ATOM     47  H   UNL A   1      40.505  30.444  30.558  1.00  0.00     0.167 HD
ATOM     48  C   UNL A   1      44.614  29.213  31.511  1.00  0.00     0.037 A 
ATOM     49  C   UNL A   1      38.281  32.124  30.694  1.00  0.00     0.037 A 
ATOM     50  C   UNL A   1      44.474  30.529  32.074  1.00  0.00     0.049 A 
ATOM     51  C   UNL A   1      39.391  32.818  31.438  1.00  0.00     0.074 A 
ATOM     52  C   UNL A   1      45.421  31.292  32.732  1.00  0.00     0.029 A 
ATOM     53  N   UNL A   1      43.307  31.278  32.040  1.00  0.00    -0.354 N 
ATOM     54  N   UNL A   1      40.622  32.420  31.654  1.00  0.00    -0.248 NA
ATOM     55  C   UNL A   1      39.080  34.136  32.006  1.00  0.00     0.031 C 
ATOM     56  C   UNL A   1      44.812  32.480  33.145  1.00  0.00     0.029 A 
ATOM     57  C   UNL A   1      43.505  32.488  32.685  1.00  0.00     0.049 A 
ATOM     58  H   UNL A   1      42.464  30.992  31.620  1.00  0.00     0.167 HD
ATOM     59  C   UNL A   1      41.241  33.450  32.348  1.00  0.00     0.074 A 
ATOM     60  C   UNL A   1      40.254  34.499  32.502  1.00  0.00     0.031 C 
ATOM     61  C   UNL A   1      42.512  33.524  32.817  1.00  0.00     0.037 A 
BRANCH  48  62
ATOM     62  C   UNL A   1      45.925  28.496  31.675  1.00  0.00     0.064 A 
ATOM     63  C   UNL A   1      46.111  27.507  32.655  1.00  0.00     0.173 A 
ATOM     64  C   UNL A   1      47.006  28.784  30.827  1.00  0.00     0.173 A 
ATOM     65  F   UNL A   1      45.117  27.201  33.503  1.00  0.00    -0.203 F 
ATOM     66  C   UNL A   1      47.336  26.863  32.804  1.00  0.00     0.198 A 
ATOM     67  C   UNL A   1      48.219  28.112  30.955  1.00  0.00     0.198 A 
ATOM     68  F   UNL A   1      46.886  29.717  29.871  1.00  0.00    -0.203 F 
ATOM     69  F   UNL A   1      47.506  25.969  33.788  1.00  0.00    -0.200 F 
ATOM     70  C   UNL A   1      48.386  27.159  31.949  1.00  0.00     0.200 A 
ATOM     71  F   UNL A   1      49.228  28.388  30.118  1.00  0.00    -0.200 F 
ATOM     72  F   UNL A   1      49.563  26.533  32.089  1.00  0.00    -0.200 F 
ENDBRANCH  48  62
BRANCH  49  73
ATOM     73  C   UNL A   1      36.944  32.761  30.549  1.00  0.00     0.064 A 
ATOM     74  C   UNL A   1      36.621  33.507  29.406  1.00  0.00     0.173 A 
ATOM     75  C   UNL A   1      35.967  32.648  31.549  1.00  0.00     0.173 A 
ATOM     76  F   UNL A   1      37.526  33.659  28.428  1.00  0.00    -0.203 F 
ATOM     77  C   UNL A   1      35.386  34.139  29.282  1.00  0.00     0.198 A 
ATOM     78  C   UNL A   1      34.720  33.253  31.410  1.00  0.00     0.198 A 
ATOM     79  F   UNL A   1      36.221  31.939  32.659  1.00  0.00    -0.203 F 
ATOM     80  F   UNL A   1      35.125  34.890  28.204  1.00  0.00    -0.200 F 
ATOM     81  C   UNL A   1      34.434  34.006  30.281  1.00  0.00     0.200 A 
ATOM     82  F   UNL A   1      33.796  33.108  32.370  1.00  0.00    -0.200 F 
ATOM     83  F   UNL A   1      33.245  34.613  30.161  1.00  0.00    -0.200 F 
ENDBRANCH  49  73
BRANCH  61  84
ATOM     84  C   UNL A   1      42.921  34.801  33.493  1.00  0.00     0.064 A 
ATOM     85  C   UNL A   1      43.396  35.905  32.770  1.00  0.00     0.173 A 
ATOM     86  C   UNL A   1      42.812  34.928  34.887  1.00  0.00     0.173 A 
ATOM     87  F   UNL A   1      43.530  35.833  31.438  1.00  0.00    -0.203 F 
ATOM     88  C   UNL A   1      43.787  37.072  33.421  1.00  0.00     0.198 A 
ATOM     89  C   UNL A   1      43.167  36.109  35.530  1.00  0.00     0.198 A 
ATOM     90  F   UNL A   1      42.353  33.906  35.626  1.00  0.00    -0.203 F 
ATOM     91  F   UNL A   1      44.299  38.090  32.716  1.00  0.00    -0.200 F 
ATOM     92  C   UNL A   1      43.665  37.176  34.799  1.00  0.00     0.200 A 
ATOM     93  F   UNL A   1      43.030  36.214  36.860  1.00  0.00    -0.200 F 
ATOM     94  F   UNL A   1      44.038  38.301  35.423  1.00  0.00    -0.200 F 
ENDBRANCH  61  84
ENDBRANCH  35  36
ENDBRANCH  27  30
ENDBRANCH  25  26
ENDBRANCH  24  25
ENDBRANCH   1  24
TORSDOF 13
ENDMDL
MODEL 3
REMARK VINA RESULT:     -13.2      4.557     10.363
REMARK SMILES Cn1c(C(=O)NCCCNC(=O)c2ccc(-c3c4nc(c(-c5c(F)c(F)c(F)c(F)c5F)c5ccc([nH]5)c(-c5c(F)c(F)c(F)c(F)c5F)c5nc(c(-c6c(F)c(F)c(F)c(F)c6F)c6ccc3[nH]6)C=C5)C=C4)cc2)cc2cc(OCc3ccccc3)ccc21
REMARK SMILES IDX 7 1 6 2 4 3 5 4 3 6 1 7 2 8 90 9 76 10 77 11 89 12 78 13
REMARK SMILES IDX 88 14 79 15 80 16 81 17 82 18 83 19 87 20 84 21 86 22 85 23
REMARK SMILES IDX 8 24 9 25 10 26 11 27 12 29 13 30 14 31 75 32 15 33 74 34
REMARK SMILES IDX 16 35 17 36 18 37 68 38 19 39 73 40 67 41 69 42 20 43 72 44
REMARK SMILES IDX 66 45 65 46 21 48 53 49 33 50 52 51 34 52 37 53 51 54 70 55
REMARK SMILES IDX 35 56 36 57 50 59 71 60 38 61 22 62 23 63 31 64 24 65 25 66
REMARK SMILES IDX 29 67 32 68 26 69 27 70 30 71 28 72 54 73 55 74 63 75 56 76
REMARK SMILES IDX 57 77 61 78 64 79 58 80 59 81 62 82 60 83 39 84 40 85 48 86
REMARK SMILES IDX 41 87 42 88 46 89 49 90 43 91 44 92 47 93 45 94
REMARK H PARENT 6 5 10 28 69 47 37 58
REMARK Flexibility Score: inf
ROOT
ATOM      1  C   UNL A   1      31.402  29.237  24.064  1.00  0.00     0.118 C 
ENDROOT
BRANCH   1   2
ATOM      2  N   UNL A   1      32.663  29.290  23.364  1.00  0.00    -0.351 N 
ATOM      3  C   UNL A   1      33.484  28.266  22.950  1.00  0.00     0.267 C 
ATOM      4  O   UNL A   1      34.516  28.607  22.375  1.00  0.00    -0.268 OA
ATOM      5  H   UNL A   1      32.984  30.196  23.150  1.00  0.00     0.163 HD
BRANCH   3   6
ATOM      6  C   UNL A   1      33.188  26.875  23.248  1.00  0.00     0.107 A 
ATOM      7  C   UNL A   1      31.402  26.179  21.562  1.00  0.00     0.150 C 
ATOM      8  N   UNL A   1      32.214  26.029  22.753  1.00  0.00    -0.340 N 
ATOM      9  C   UNL A   1      32.183  24.853  23.475  1.00  0.00     0.049 A 
ATOM     10  C   UNL A   1      33.960  26.074  24.090  1.00  0.00     0.042 A 
ATOM     11  C   UNL A   1      33.334  24.811  24.249  1.00  0.00     0.004 A 
ATOM     12  C   UNL A   1      31.263  23.804  23.438  1.00  0.00     0.031 A 
ATOM     13  C   UNL A   1      33.618  23.638  24.980  1.00  0.00     0.056 A 
ATOM     14  C   UNL A   1      31.572  22.653  24.155  1.00  0.00     0.048 A 
ATOM     15  C   UNL A   1      32.731  22.551  24.920  1.00  0.00     0.120 A 
BRANCH  15  16
ATOM     16  O   UNL A   1      33.091  21.456  25.662  1.00  0.00    -0.489 OA
BRANCH  16  17
ATOM     17  C   UNL A   1      34.273  20.735  25.281  1.00  0.00     0.265 C 
BRANCH  17  18
ATOM     18  C   UNL A   1      33.963  19.414  24.607  1.00  0.00    -0.011 A 
ATOM     19  C   UNL A   1      32.768  19.248  23.897  1.00  0.00     0.007 A 
ATOM     20  C   UNL A   1      34.889  18.357  24.635  1.00  0.00     0.007 A 
ATOM     21  C   UNL A   1      32.524  18.069  23.192  1.00  0.00     0.000 A 
ATOM     22  C   UNL A   1      34.653  17.190  23.909  1.00  0.00     0.000 A 
ATOM     23  C   UNL A   1      33.472  17.048  23.185  1.00  0.00     0.000 A 
ENDBRANCH  17  18
ENDBRANCH  16  17
ENDBRANCH  15  16
ENDBRANCH   3   6
ENDBRANCH   1   2
BRANCH   1  24
ATOM     24  C   UNL A   1      31.480  29.212  25.572  1.00  0.00     0.042 C 
BRANCH  24  25
ATOM     25  C   UNL A   1      32.751  29.795  26.159  1.00  0.00     0.118 C 
BRANCH  25  26
ATOM     26  N   UNL A   1      32.644  31.198  26.546  1.00  0.00    -0.352 N 
ATOM     27  C   UNL A   1      33.427  31.988  27.359  1.00  0.00     0.251 C 
ATOM     28  H   UNL A   1      31.872  31.666  26.154  1.00  0.00     0.163 HD
ATOM     29  O   UNL A   1      33.059  33.128  27.625  1.00  0.00    -0.269 OA
BRANCH  27  30
ATOM     30  C   UNL A   1      34.682  31.469  27.952  1.00  0.00     0.039 A 
ATOM     31  C   UNL A   1      35.779  32.325  28.095  1.00  0.00     0.014 A 
ATOM     32  C   UNL A   1      34.792  30.145  28.368  1.00  0.00     0.014 A 
ATOM     33  C   UNL A   1      36.937  31.872  28.733  1.00  0.00     0.010 A 
ATOM     34  C   UNL A   1      35.872  29.746  29.142  1.00  0.00     0.010 A 
ATOM     35  C   UNL A   1      36.975  30.592  29.308  1.00  0.00    -0.014 A 
BRANCH  35  36
ATOM     36  C   UNL A   1      38.169  30.090  30.036  1.00  0.00     0.031 A 
ATOM     37  C   UNL A   1      38.439  30.554  31.445  1.00  0.00     0.074 A 
ATOM     38  C   UNL A   1      39.044  29.275  29.414  1.00  0.00     0.049 A 
ATOM     39  N   UNL A   1      39.456  30.290  32.227  1.00  0.00    -0.248 NA
ATOM     40  C   UNL A   1      37.456  31.473  32.044  1.00  0.00     0.031 C 
ATOM     41  C   UNL A   1      38.935  28.811  28.029  1.00  0.00     0.029 A 
ATOM     42  N   UNL A   1      40.204  28.696  29.865  1.00  0.00    -0.354 N 
ATOM     43  C   UNL A   1      39.242  31.024  33.386  1.00  0.00     0.074 A 
ATOM     44  C   UNL A   1      38.048  31.809  33.178  1.00  0.00     0.031 C 
ATOM     45  C   UNL A   1      39.958  27.986  27.758  1.00  0.00     0.029 A 
ATOM     46  C   UNL A   1      40.819  27.895  28.933  1.00  0.00     0.049 A 
ATOM     47  H   UNL A   1      40.560  28.840  30.770  1.00  0.00     0.167 HD
ATOM     48  C   UNL A   1      39.953  31.017  34.539  1.00  0.00     0.037 A 
ATOM     49  C   UNL A   1      41.950  27.170  29.019  1.00  0.00     0.037 A 
ATOM     50  C   UNL A   1      41.120  30.205  34.755  1.00  0.00     0.049 A 
ATOM     51  C   UNL A   1      42.715  27.168  30.316  1.00  0.00     0.074 A 
ATOM     52  C   UNL A   1      41.879  30.074  35.903  1.00  0.00     0.029 A 
ATOM     53  N   UNL A   1      41.694  29.383  33.797  1.00  0.00    -0.354 N 
ATOM     54  N   UNL A   1      42.461  27.807  31.433  1.00  0.00    -0.248 NA
ATOM     55  C   UNL A   1      43.921  26.330  30.369  1.00  0.00     0.031 C 
ATOM     56  C   UNL A   1      42.945  29.213  35.624  1.00  0.00     0.029 A 
ATOM     57  C   UNL A   1      42.811  28.756  34.323  1.00  0.00     0.049 A 
ATOM     58  H   UNL A   1      41.357  29.263  32.880  1.00  0.00     0.167 HD
ATOM     59  C   UNL A   1      43.448  27.422  32.329  1.00  0.00     0.074 A 
ATOM     60  C   UNL A   1      44.298  26.479  31.629  1.00  0.00     0.031 C 
ATOM     61  C   UNL A   1      43.637  27.811  33.614  1.00  0.00     0.037 A 
BRANCH  48  62
ATOM     62  C   UNL A   1      39.477  31.906  35.654  1.00  0.00     0.064 A 
ATOM     63  C   UNL A   1      39.948  33.221  35.805  1.00  0.00     0.173 A 
ATOM     64  C   UNL A   1      38.522  31.446  36.574  1.00  0.00     0.173 A 
ATOM     65  F   UNL A   1      40.872  33.709  34.964  1.00  0.00    -0.203 F 
ATOM     66  C   UNL A   1      39.508  34.026  36.853  1.00  0.00     0.198 A 
ATOM     67  C   UNL A   1      38.058  32.267  37.598  1.00  0.00     0.198 A 
ATOM     68  F   UNL A   1      38.035  30.200  36.478  1.00  0.00    -0.203 F 
ATOM     69  F   UNL A   1      40.020  35.254  37.011  1.00  0.00    -0.200 F 
ATOM     70  C   UNL A   1      38.558  33.552  37.743  1.00  0.00     0.200 A 
ATOM     71  F   UNL A   1      37.127  31.812  38.449  1.00  0.00    -0.200 F 
ATOM     72  F   UNL A   1      38.130  34.330  38.747  1.00  0.00    -0.200 F 
ENDBRANCH  48  62
BRANCH  49  73
ATOM     73  C   UNL A   1      42.407  26.354  27.862  1.00  0.00     0.064 A 
ATOM     74  C   UNL A   1      43.371  26.846  26.969  1.00  0.00     0.173 A 
ATOM     75  C   UNL A   1      41.886  25.075  27.617  1.00  0.00     0.173 A 
ATOM     76  F   UNL A   1      43.888  28.070  27.150  1.00  0.00    -0.203 F 
ATOM     77  C   UNL A   1      43.772  26.103  25.862  1.00  0.00     0.198 A 
ATOM     78  C   UNL A   1      42.313  24.320  26.527  1.00  0.00     0.198 A 
ATOM     79  F   UNL A   1      40.968  24.554  28.445  1.00  0.00    -0.203 F 
ATOM     80  F   UNL A   1      44.654  26.621  24.995  1.00  0.00    -0.200 F 
ATOM     81  C   UNL A   1      43.248  24.838  25.645  1.00  0.00     0.200 A 
ATOM     82  F   UNL A   1      41.817  23.090  26.331  1.00  0.00    -0.200 F 
ATOM     83  F   UNL A   1      43.637  24.123  24.580  1.00  0.00    -0.200 F 
ENDBRANCH  49  73
BRANCH  61  84
ATOM     84  C   UNL A   1      44.775  27.178  34.363  1.00  0.00     0.064 A 
ATOM     85  C   UNL A   1      44.622  25.975  35.067  1.00  0.00     0.173 A 
ATOM     86  C   UNL A   1      46.045  27.776  34.354  1.00  0.00     0.173 A 
ATOM     87  F   UNL A   1      43.427  25.368  35.117  1.00  0.00    -0.203 F 
ATOM     88  C   UNL A   1      45.688  25.417  35.769  1.00  0.00     0.198 A 
ATOM     89  C   UNL A   1      47.117  27.195  35.024  1.00  0.00     0.198 A 
ATOM     90  F   UNL A   1      46.249  28.922  33.686  1.00  0.00    -0.203 F 
ATOM     91  F   UNL A   1      45.502  24.302  36.489  1.00  0.00    -0.200 F 
ATOM     92  C   UNL A   1      46.935  26.023  35.741  1.00  0.00     0.200 A 
ATOM     93  F   UNL A   1      48.326  27.773  34.980  1.00  0.00    -0.200 F 
ATOM     94  F   UNL A   1      47.960  25.482  36.414  1.00  0.00    -0.200 F 
ENDBRANCH  61  84
ENDBRANCH  35  36
ENDBRANCH  27  30
ENDBRANCH  25  26
ENDBRANCH  24  25
ENDBRANCH   1  24
TORSDOF 13
ENDMDL
