MODEL 1
REMARK VINA RESULT:     -13.9      0.000      0.000
REMARK SMILES Cc1ccc(C)c(OCC(=O)N[C@@H](Cc2ccccc2)C(=O)NCCCNC(=O)c2ccc(-c3c4nc(c(-c5c(F)c(F)c(F)c(F)c5F)c5ccc([nH]5)c(-c5c(F)c(F)c(F)c(F)c5F)c5nc(c(-c6c(F)c(F)c(F)c(F)c6F)c6ccc3[nH]6)C=C5)C=C4)cc2)c1
REMARK SMILES IDX 24 1 23 2 21 3 22 4 13 6 12 7 10 8 11 9 9 11 8 12 7 13 1 14
REMARK SMILES IDX 2 15 3 16 93 17 4 18 5 19 6 20 14 21 15 22 16 23 20 24 17 25
REMARK SMILES IDX 19 26 18 27 25 28 26 29 27 30 28 31 29 33 30 34 31 35 92 36
REMARK SMILES IDX 32 37 91 38 33 39 34 40 35 41 85 42 36 43 90 44 84 45 86 46
REMARK SMILES IDX 37 47 89 48 83 49 82 50 38 52 70 53 50 54 69 55 51 56 54 57
REMARK SMILES IDX 68 58 87 59 52 60 53 61 67 63 88 64 55 65 39 66 40 67 48 68
REMARK SMILES IDX 41 69 42 70 46 71 49 72 43 73 44 74 47 75 45 76 71 77 72 78
REMARK SMILES IDX 80 79 73 80 74 81 78 82 81 83 75 84 76 85 79 86 77 87 56 88
REMARK SMILES IDX 57 89 65 90 58 91 59 92 63 93 66 94 60 95 61 96 64 97 62 98
REMARK H PARENT 23 5 12 10 27 32 86 51 54 62
REMARK Flexibility Score: inf
ROOT
ATOM      1  C   UNL A   1      34.403  29.009  27.437  1.00  0.00     0.117 C 
ENDROOT
BRANCH   1   2
ATOM      2  N   UNL A   1      32.978  29.229  27.503  1.00  0.00    -0.354 N 
ATOM      3  C   UNL A   1      32.082  28.190  27.309  1.00  0.00     0.242 C 
ATOM      4  O   UNL A   1      31.091  28.118  28.037  1.00  0.00    -0.273 OA
ATOM      5  H   UNL A   1      32.636  30.132  27.691  1.00  0.00     0.163 HD
BRANCH   3   6
ATOM      6  C   UNL A   1      32.379  27.118  26.222  1.00  0.00     0.175 C 
BRANCH   6   7
ATOM      7  N   UNL A   1      31.599  25.913  26.559  1.00  0.00    -0.341 N 
ATOM      8  C   UNL A   1      32.074  24.639  26.685  1.00  0.00     0.258 C 
ATOM      9  O   UNL A   1      31.445  23.837  27.379  1.00  0.00    -0.271 OA
ATOM     10  H   UNL A   1      30.633  26.041  26.708  1.00  0.00     0.164 HD
BRANCH   8  11
ATOM     11  C   UNL A   1      33.343  24.228  25.931  1.00  0.00     0.329 C 
BRANCH  11  12
ATOM     12  O   UNL A   1      34.289  23.478  26.685  1.00  0.00    -0.483 OA
BRANCH  12  13
ATOM     13  C   UNL A   1      34.906  22.417  26.075  1.00  0.00     0.123 A 
ATOM     14  C   UNL A   1      34.200  18.982  24.580  1.00  0.00     0.044 C 
ATOM     15  C   UNL A   1      34.935  20.209  25.032  1.00  0.00    -0.047 A 
ATOM     16  C   UNL A   1      36.304  20.341  24.808  1.00  0.00     0.004 A 
ATOM     17  C   UNL A   1      34.254  21.238  25.692  1.00  0.00     0.050 A 
ATOM     18  C   UNL A   1      36.973  21.502  25.206  1.00  0.00     0.007 A 
ATOM     19  C   UNL A   1      36.281  22.555  25.824  1.00  0.00    -0.009 A 
ATOM     20  C   UNL A   1      37.053  23.791  26.197  1.00  0.00     0.048 C 
ENDBRANCH  12  13
ENDBRANCH  11  12
ENDBRANCH   8  11
ENDBRANCH   6   7
BRANCH   6  21
ATOM     21  C   UNL A   1      32.357  27.549  24.713  1.00  0.00     0.070 C 
BRANCH  21  22
ATOM     22  C   UNL A   1      31.155  28.206  24.046  1.00  0.00    -0.045 A 
ATOM     23  C   UNL A   1      30.172  27.448  23.391  1.00  0.00     0.004 A 
ATOM     24  C   UNL A   1      30.977  29.594  24.066  1.00  0.00     0.004 A 
ATOM     25  C   UNL A   1      28.958  28.029  22.995  1.00  0.00     0.000 A 
ATOM     26  C   UNL A   1      29.730  30.160  23.759  1.00  0.00     0.000 A 
ATOM     27  C   UNL A   1      28.700  29.367  23.273  1.00  0.00     0.000 A 
ENDBRANCH  21  22
ENDBRANCH   6  21
ENDBRANCH   3   6
ENDBRANCH   1   2
BRANCH   1  28
ATOM     28  C   UNL A   1      35.412  30.093  27.758  1.00  0.00     0.042 C 
BRANCH  28  29
ATOM     29  C   UNL A   1      36.754  29.455  27.974  1.00  0.00     0.118 C 
BRANCH  29  30
ATOM     30  N   UNL A   1      37.207  29.228  29.388  1.00  0.00    -0.352 N 
ATOM     31  C   UNL A   1      38.404  28.624  29.825  1.00  0.00     0.251 C 
ATOM     32  H   UNL A   1      36.595  29.538  30.094  1.00  0.00     0.163 HD
ATOM     33  O   UNL A   1      38.538  28.177  30.965  1.00  0.00    -0.269 OA
BRANCH  31  34
ATOM     34  C   UNL A   1      39.571  28.802  28.929  1.00  0.00     0.039 A 
ATOM     35  C   UNL A   1      39.653  29.153  27.587  1.00  0.00     0.014 A 
ATOM     36  C   UNL A   1      40.555  27.930  29.261  1.00  0.00     0.014 A 
ATOM     37  C   UNL A   1      40.726  28.529  26.833  1.00  0.00     0.010 A 
ATOM     38  C   UNL A   1      41.772  28.162  28.797  1.00  0.00     0.010 A 
ATOM     39  C   UNL A   1      41.692  27.730  27.526  1.00  0.00    -0.014 A 
BRANCH  39  40
ATOM     40  C   UNL A   1      42.986  27.109  27.127  1.00  0.00     0.031 A 
ATOM     41  C   UNL A   1      42.574  25.668  26.916  1.00  0.00     0.074 A 
ATOM     42  C   UNL A   1      44.218  27.672  26.811  1.00  0.00     0.049 A 
ATOM     43  N   UNL A   1      42.392  24.876  27.927  1.00  0.00    -0.248 NA
ATOM     44  C   UNL A   1      41.779  25.198  25.734  1.00  0.00     0.031 C 
ATOM     45  C   UNL A   1      44.734  29.068  26.738  1.00  0.00     0.029 A 
ATOM     46  N   UNL A   1      45.421  26.998  26.552  1.00  0.00    -0.354 N 
ATOM     47  C   UNL A   1      41.918  23.695  27.392  1.00  0.00     0.074 A 
ATOM     48  C   UNL A   1      41.221  24.073  26.208  1.00  0.00     0.031 C 
ATOM     49  C   UNL A   1      45.999  29.117  26.204  1.00  0.00     0.029 A 
ATOM     50  C   UNL A   1      46.504  27.770  26.004  1.00  0.00     0.049 A 
ATOM     51  H   UNL A   1      45.520  26.035  26.735  1.00  0.00     0.167 HD
ATOM     52  C   UNL A   1      42.587  22.552  27.700  1.00  0.00     0.037 A 
ATOM     53  C   UNL A   1      47.776  27.327  25.645  1.00  0.00     0.037 A 
ATOM     54  C   UNL A   1      43.443  22.816  28.843  1.00  0.00     0.049 A 
ATOM     55  C   UNL A   1      47.947  26.003  26.309  1.00  0.00     0.074 A 
ATOM     56  C   UNL A   1      43.225  23.239  30.142  1.00  0.00     0.029 A 
ATOM     57  N   UNL A   1      44.693  23.260  28.496  1.00  0.00    -0.354 N 
ATOM     58  N   UNL A   1      48.002  25.896  27.609  1.00  0.00    -0.248 NA
ATOM     59  C   UNL A   1      47.374  24.883  25.571  1.00  0.00     0.031 C 
ATOM     60  C   UNL A   1      44.228  24.226  30.403  1.00  0.00     0.029 A 
ATOM     61  C   UNL A   1      45.142  24.227  29.352  1.00  0.00     0.049 A 
ATOM     62  H   UNL A   1      45.205  22.924  27.724  1.00  0.00     0.167 HD
ATOM     63  C   UNL A   1      47.016  24.966  27.892  1.00  0.00     0.074 A 
ATOM     64  C   UNL A   1      46.644  24.399  26.582  1.00  0.00     0.031 C 
ATOM     65  C   UNL A   1      46.320  25.012  29.070  1.00  0.00     0.037 A 
BRANCH  52  66
ATOM     66  C   UNL A   1      42.901  21.465  26.693  1.00  0.00     0.064 A 
ATOM     67  C   UNL A   1      42.446  20.161  26.960  1.00  0.00     0.173 A 
ATOM     68  C   UNL A   1      43.826  21.569  25.627  1.00  0.00     0.173 A 
ATOM     69  F   UNL A   1      41.606  19.933  27.981  1.00  0.00    -0.203 F 
ATOM     70  C   UNL A   1      42.898  19.055  26.234  1.00  0.00     0.198 A 
ATOM     71  C   UNL A   1      44.234  20.472  24.871  1.00  0.00     0.198 A 
ATOM     72  F   UNL A   1      44.466  22.704  25.328  1.00  0.00    -0.203 F 
ATOM     73  F   UNL A   1      42.507  17.823  26.589  1.00  0.00    -0.200 F 
ATOM     74  C   UNL A   1      43.784  19.212  25.184  1.00  0.00     0.200 A 
ATOM     75  F   UNL A   1      45.122  20.648  23.881  1.00  0.00    -0.200 F 
ATOM     76  F   UNL A   1      44.235  18.151  24.503  1.00  0.00    -0.200 F 
ENDBRANCH  52  66
BRANCH  53  77
ATOM     77  C   UNL A   1      48.659  27.643  24.442  1.00  0.00     0.064 A 
ATOM     78  C   UNL A   1      50.080  27.496  24.382  1.00  0.00     0.173 A 
ATOM     79  C   UNL A   1      48.040  27.776  23.192  1.00  0.00     0.173 A 
ATOM     80  F   UNL A   1      50.799  27.297  25.499  1.00  0.00    -0.203 F 
ATOM     81  C   UNL A   1      50.794  27.482  23.156  1.00  0.00     0.198 A 
ATOM     82  C   UNL A   1      48.743  27.737  21.979  1.00  0.00     0.198 A 
ATOM     83  F   UNL A   1      46.705  27.839  23.120  1.00  0.00    -0.203 F 
ATOM     84  F   UNL A   1      52.127  27.312  23.134  1.00  0.00    -0.200 F 
ATOM     85  C   UNL A   1      50.117  27.586  21.956  1.00  0.00     0.200 A 
ATOM     86  F   UNL A   1      48.062  27.785  20.827  1.00  0.00    -0.200 F 
ATOM     87  F   UNL A   1      50.767  27.499  20.784  1.00  0.00    -0.200 F 
ENDBRANCH  53  77
BRANCH  65  88
ATOM     88  C   UNL A   1      46.799  25.944  30.157  1.00  0.00     0.064 A 
ATOM     89  C   UNL A   1      48.033  25.881  30.836  1.00  0.00     0.173 A 
ATOM     90  C   UNL A   1      45.993  27.057  30.418  1.00  0.00     0.173 A 
ATOM     91  F   UNL A   1      48.928  24.927  30.554  1.00  0.00    -0.203 F 
ATOM     92  C   UNL A   1      48.399  26.853  31.775  1.00  0.00     0.198 A 
ATOM     93  C   UNL A   1      46.373  28.042  31.322  1.00  0.00     0.198 A 
ATOM     94  F   UNL A   1      44.847  27.218  29.740  1.00  0.00    -0.203 F 
ATOM     95  F   UNL A   1      49.576  26.771  32.417  1.00  0.00    -0.200 F 
ATOM     96  C   UNL A   1      47.563  27.931  32.020  1.00  0.00     0.200 A 
ATOM     97  F   UNL A   1      45.594  29.118  31.488  1.00  0.00    -0.200 F 
ATOM     98  F   UNL A   1      47.913  28.875  32.905  1.00  0.00    -0.200 F 
ENDBRANCH  65  88
ENDBRANCH  39  40
ENDBRANCH  31  34
ENDBRANCH  29  30
ENDBRANCH  28  29
ENDBRANCH   1  28
TORSDOF 16
ENDMDL
MODEL 2
REMARK VINA RESULT:     -13.8      4.372      9.376
REMARK SMILES Cc1ccc(C)c(OCC(=O)N[C@@H](Cc2ccccc2)C(=O)NCCCNC(=O)c2ccc(-c3c4nc(c(-c5c(F)c(F)c(F)c(F)c5F)c5ccc([nH]5)c(-c5c(F)c(F)c(F)c(F)c5F)c5nc(c(-c6c(F)c(F)c(F)c(F)c6F)c6ccc3[nH]6)C=C5)C=C4)cc2)c1
REMARK SMILES IDX 24 1 23 2 21 3 22 4 13 6 12 7 10 8 11 9 9 11 8 12 7 13 1 14
REMARK SMILES IDX 2 15 3 16 93 17 4 18 5 19 6 20 14 21 15 22 16 23 20 24 17 25
REMARK SMILES IDX 19 26 18 27 25 28 26 29 27 30 28 31 29 33 30 34 31 35 92 36
REMARK SMILES IDX 32 37 91 38 33 39 34 40 35 41 85 42 36 43 90 44 84 45 86 46
REMARK SMILES IDX 37 47 89 48 83 49 82 50 38 52 70 53 50 54 69 55 51 56 54 57
REMARK SMILES IDX 68 58 87 59 52 60 53 61 67 63 88 64 55 65 39 66 40 67 48 68
REMARK SMILES IDX 41 69 42 70 46 71 49 72 43 73 44 74 47 75 45 76 71 77 72 78
REMARK SMILES IDX 80 79 73 80 74 81 78 82 81 83 75 84 76 85 79 86 77 87 56 88
REMARK SMILES IDX 57 89 65 90 58 91 59 92 63 93 66 94 60 95 61 96 64 97 62 98
REMARK H PARENT 23 5 12 10 27 32 86 51 54 62
REMARK Flexibility Score: inf
ROOT
ATOM      1  C   UNL A   1      36.025  23.313  25.694  1.00  0.00     0.117 C 
ENDROOT
BRANCH   1   2
ATOM      2  N   UNL A   1      35.083  22.871  26.695  1.00  0.00    -0.354 N 
ATOM      3  C   UNL A   1      33.723  22.839  26.436  1.00  0.00     0.242 C 
ATOM      4  O   UNL A   1      33.066  21.877  26.836  1.00  0.00    -0.273 OA
ATOM      5  H   UNL A   1      35.413  22.587  27.578  1.00  0.00     0.163 HD
BRANCH   3   6
ATOM      6  C   UNL A   1      33.076  23.982  25.603  1.00  0.00     0.175 C 
BRANCH   6   7
ATOM      7  N   UNL A   1      32.602  23.397  24.335  1.00  0.00    -0.341 N 
ATOM      8  C   UNL A   1      33.120  23.612  23.090  1.00  0.00     0.258 C 
ATOM      9  O   UNL A   1      32.940  22.759  22.217  1.00  0.00    -0.271 OA
ATOM     10  H   UNL A   1      31.830  22.788  24.393  1.00  0.00     0.164 HD
BRANCH   8  11
ATOM     11  C   UNL A   1      33.870  24.915  22.798  1.00  0.00     0.329 C 
BRANCH  11  12
ATOM     12  O   UNL A   1      33.187  25.844  21.965  1.00  0.00    -0.483 OA
BRANCH  12  13
ATOM     13  C   UNL A   1      32.246  26.659  22.540  1.00  0.00     0.123 A 
ATOM     14  C   UNL A   1      28.687  26.648  23.902  1.00  0.00     0.044 C 
ATOM     15  C   UNL A   1      30.051  27.124  23.502  1.00  0.00    -0.047 A 
ATOM     16  C   UNL A   1      30.444  28.440  23.743  1.00  0.00     0.004 A 
ATOM     17  C   UNL A   1      30.948  26.253  22.874  1.00  0.00     0.050 A 
ATOM     18  C   UNL A   1      31.727  28.865  23.393  1.00  0.00     0.007 A 
ATOM     19  C   UNL A   1      32.646  27.979  22.808  1.00  0.00    -0.009 A 
ATOM     20  C   UNL A   1      34.023  28.491  22.487  1.00  0.00     0.048 C 
ENDBRANCH  12  13
ENDBRANCH  11  12
ENDBRANCH   8  11
ENDBRANCH   6   7
BRANCH   6  21
ATOM     21  C   UNL A   1      32.084  24.967  26.316  1.00  0.00     0.070 C 
BRANCH  21  22
ATOM     22  C   UNL A   1      32.340  26.463  26.450  1.00  0.00    -0.045 A 
ATOM     23  C   UNL A   1      31.372  27.330  26.980  1.00  0.00     0.004 A 
ATOM     24  C   UNL A   1      33.556  27.034  26.057  1.00  0.00     0.004 A 
ATOM     25  C   UNL A   1      31.696  28.650  27.323  1.00  0.00     0.000 A 
ATOM     26  C   UNL A   1      33.913  28.322  26.484  1.00  0.00     0.000 A 
ATOM     27  C   UNL A   1      32.998  29.113  27.167  1.00  0.00     0.000 A 
ENDBRANCH  21  22
ENDBRANCH   6  21
ENDBRANCH   3   6
ENDBRANCH   1   2
BRANCH   1  28
ATOM     28  C   UNL A   1      37.126  22.421  25.159  1.00  0.00     0.042 C 
BRANCH  28  29
ATOM     29  C   UNL A   1      38.440  22.888  25.717  1.00  0.00     0.118 C 
BRANCH  29  30
ATOM     30  N   UNL A   1      39.020  22.136  26.879  1.00  0.00    -0.352 N 
ATOM     31  C   UNL A   1      40.313  22.258  27.429  1.00  0.00     0.251 C 
ATOM     32  H   UNL A   1      38.427  21.479  27.310  1.00  0.00     0.163 HD
ATOM     33  O   UNL A   1      40.812  21.386  28.141  1.00  0.00    -0.269 OA
BRANCH  31  34
ATOM     34  C   UNL A   1      40.924  23.605  27.326  1.00  0.00     0.039 A 
ATOM     35  C   UNL A   1      42.251  24.016  27.367  1.00  0.00     0.014 A 
ATOM     36  C   UNL A   1      40.114  24.533  27.893  1.00  0.00     0.014 A 
ATOM     37  C   UNL A   1      42.497  25.301  27.997  1.00  0.00     0.010 A 
ATOM     38  C   UNL A   1      40.334  25.805  27.608  1.00  0.00     0.010 A 
ATOM     39  C   UNL A   1      41.382  26.109  28.394  1.00  0.00    -0.014 A 
BRANCH  39  40
ATOM     40  C   UNL A   1      41.252  27.510  28.881  1.00  0.00     0.031 A 
ATOM     41  C   UNL A   1      42.402  28.184  28.162  1.00  0.00     0.074 A 
ATOM     42  C   UNL A   1      40.255  28.139  29.618  1.00  0.00     0.049 A 
ATOM     43  N   UNL A   1      43.619  28.046  28.587  1.00  0.00    -0.248 NA
ATOM     44  C   UNL A   1      42.391  28.503  26.697  1.00  0.00     0.031 C 
ATOM     45  C   UNL A   1      38.956  27.694  30.200  1.00  0.00     0.029 A 
ATOM     46  N   UNL A   1      40.269  29.446  30.129  1.00  0.00    -0.354 N 
ATOM     47  C   UNL A   1      44.411  28.682  27.651  1.00  0.00     0.074 A 
ATOM     48  C   UNL A   1      43.703  28.569  26.420  1.00  0.00     0.031 C 
ATOM     49  C   UNL A   1      38.236  28.750  30.706  1.00  0.00     0.029 A 
ATOM     50  C   UNL A   1      39.031  29.965  30.645  1.00  0.00     0.049 A 
ATOM     51  H   UNL A   1      41.092  29.986  30.133  1.00  0.00     0.167 HD
ATOM     52  C   UNL A   1      45.264  29.642  28.099  1.00  0.00     0.037 A 
ATOM     53  C   UNL A   1      38.788  31.229  31.179  1.00  0.00     0.037 A 
ATOM     54  C   UNL A   1      45.397  29.503  29.538  1.00  0.00     0.049 A 
ATOM     55  C   UNL A   1      40.128  31.799  31.497  1.00  0.00     0.074 A 
ATOM     56  C   UNL A   1      45.825  28.492  30.380  1.00  0.00     0.029 A 
ATOM     57  N   UNL A   1      44.471  30.228  30.243  1.00  0.00    -0.354 N 
ATOM     58  N   UNL A   1      40.888  31.277  32.421  1.00  0.00    -0.248 NA
ATOM     59  C   UNL A   1      40.795  32.432  30.364  1.00  0.00     0.031 C 
ATOM     60  C   UNL A   1      44.873  28.447  31.448  1.00  0.00     0.029 A 
ATOM     61  C   UNL A   1      44.026  29.547  31.342  1.00  0.00     0.049 A 
ATOM     62  H   UNL A   1      44.163  31.128  29.988  1.00  0.00     0.167 HD
ATOM     63  C   UNL A   1      42.079  31.040  31.757  1.00  0.00     0.074 A 
ATOM     64  C   UNL A   1      41.944  31.754  30.473  1.00  0.00     0.031 C 
ATOM     65  C   UNL A   1      42.889  29.995  32.111  1.00  0.00     0.037 A 
BRANCH  52  66
ATOM     66  C   UNL A   1      45.484  30.965  27.395  1.00  0.00     0.064 A 
ATOM     67  C   UNL A   1      46.803  31.342  27.088  1.00  0.00     0.173 A 
ATOM     68  C   UNL A   1      44.516  31.986  27.234  1.00  0.00     0.173 A 
ATOM     69  F   UNL A   1      47.812  30.473  27.251  1.00  0.00    -0.203 F 
ATOM     70  C   UNL A   1      47.127  32.640  26.678  1.00  0.00     0.198 A 
ATOM     71  C   UNL A   1      44.834  33.262  26.775  1.00  0.00     0.198 A 
ATOM     72  F   UNL A   1      43.242  31.845  27.612  1.00  0.00    -0.203 F 
ATOM     73  F   UNL A   1      48.410  32.976  26.490  1.00  0.00    -0.200 F 
ATOM     74  C   UNL A   1      46.142  33.596  26.512  1.00  0.00     0.200 A 
ATOM     75  F   UNL A   1      43.864  34.181  26.658  1.00  0.00    -0.200 F 
ATOM     76  F   UNL A   1      46.453  34.844  26.142  1.00  0.00    -0.200 F 
ENDBRANCH  52  66
BRANCH  53  77
ATOM     77  C   UNL A   1      37.622  32.198  31.009  1.00  0.00     0.064 A 
ATOM     78  C   UNL A   1      37.272  32.886  29.806  1.00  0.00     0.173 A 
ATOM     79  C   UNL A   1      36.613  32.186  31.981  1.00  0.00     0.173 A 
ATOM     80  F   UNL A   1      38.118  32.925  28.764  1.00  0.00    -0.203 F 
ATOM     81  C   UNL A   1      36.005  33.498  29.619  1.00  0.00     0.198 A 
ATOM     82  C   UNL A   1      35.353  32.770  31.786  1.00  0.00     0.198 A 
ATOM     83  F   UNL A   1      36.799  31.502  33.117  1.00  0.00    -0.203 F 
ATOM     84  F   UNL A   1      35.697  34.111  28.464  1.00  0.00    -0.200 F 
ATOM     85  C   UNL A   1      35.043  33.421  30.608  1.00  0.00     0.200 A 
ATOM     86  F   UNL A   1      34.417  32.636  32.736  1.00  0.00    -0.200 F 
ATOM     87  F   UNL A   1      33.814  33.928  30.420  1.00  0.00    -0.200 F 
ENDBRANCH  53  77
BRANCH  65  88
ATOM     88  C   UNL A   1      42.586  29.244  33.386  1.00  0.00     0.064 A 
ATOM     89  C   UNL A   1      41.879  28.031  33.499  1.00  0.00     0.173 A 
ATOM     90  C   UNL A   1      43.185  29.735  34.550  1.00  0.00     0.173 A 
ATOM     91  F   UNL A   1      41.385  27.415  32.419  1.00  0.00    -0.203 F 
ATOM     92  C   UNL A   1      41.727  27.387  34.734  1.00  0.00     0.198 A 
ATOM     93  C   UNL A   1      43.067  29.077  35.769  1.00  0.00     0.198 A 
ATOM     94  F   UNL A   1      43.943  30.839  34.491  1.00  0.00    -0.203 F 
ATOM     95  F   UNL A   1      41.042  26.235  34.822  1.00  0.00    -0.200 F 
ATOM     96  C   UNL A   1      42.319  27.916  35.869  1.00  0.00     0.200 A 
ATOM     97  F   UNL A   1      43.711  29.556  36.840  1.00  0.00    -0.200 F 
ATOM     98  F   UNL A   1      42.194  27.299  37.052  1.00  0.00    -0.200 F 
ENDBRANCH  65  88
ENDBRANCH  39  40
ENDBRANCH  31  34
ENDBRANCH  29  30
ENDBRANCH  28  29
ENDBRANCH   1  28
TORSDOF 16
ENDMDL
MODEL 3
REMARK VINA RESULT:     -13.4      6.486     12.187
REMARK SMILES Cc1ccc(C)c(OCC(=O)N[C@@H](Cc2ccccc2)C(=O)NCCCNC(=O)c2ccc(-c3c4nc(c(-c5c(F)c(F)c(F)c(F)c5F)c5ccc([nH]5)c(-c5c(F)c(F)c(F)c(F)c5F)c5nc(c(-c6c(F)c(F)c(F)c(F)c6F)c6ccc3[nH]6)C=C5)C=C4)cc2)c1
REMARK SMILES IDX 24 1 23 2 21 3 22 4 13 6 12 7 10 8 11 9 9 11 8 12 7 13 1 14
REMARK SMILES IDX 2 15 3 16 93 17 4 18 5 19 6 20 14 21 15 22 16 23 20 24 17 25
REMARK SMILES IDX 19 26 18 27 25 28 26 29 27 30 28 31 29 33 30 34 31 35 92 36
REMARK SMILES IDX 32 37 91 38 33 39 34 40 35 41 85 42 36 43 90 44 84 45 86 46
REMARK SMILES IDX 37 47 89 48 83 49 82 50 38 52 70 53 50 54 69 55 51 56 54 57
REMARK SMILES IDX 68 58 87 59 52 60 53 61 67 63 88 64 55 65 39 66 40 67 48 68
REMARK SMILES IDX 41 69 42 70 46 71 49 72 43 73 44 74 47 75 45 76 71 77 72 78
REMARK SMILES IDX 80 79 73 80 74 81 78 82 81 83 75 84 76 85 79 86 77 87 56 88
REMARK SMILES IDX 57 89 65 90 58 91 59 92 63 93 66 94 60 95 61 96 64 97 62 98
REMARK H PARENT 23 5 12 10 27 32 86 51 54 62
REMARK Flexibility Score: inf
ROOT
ATOM      1  C   UNL A   1      37.890  23.314  26.228  1.00  0.00     0.117 C 
ENDROOT
BRANCH   1   2
ATOM      2  N   UNL A   1      37.782  22.789  24.888  1.00  0.00    -0.354 N 
ATOM      3  C   UNL A   1      36.664  23.033  24.108  1.00  0.00     0.242 C 
ATOM      4  O   UNL A   1      36.819  23.296  22.914  1.00  0.00    -0.273 OA
ATOM      5  H   UNL A   1      38.517  22.247  24.520  1.00  0.00     0.163 HD
BRANCH   3   6
ATOM      6  C   UNL A   1      35.256  23.026  24.768  1.00  0.00     0.175 C 
BRANCH   6   7
ATOM      7  N   UNL A   1      34.915  21.626  25.080  1.00  0.00    -0.341 N 
ATOM      8  C   UNL A   1      33.716  21.008  24.868  1.00  0.00     0.258 C 
ATOM      9  O   UNL A   1      33.693  19.781  24.752  1.00  0.00    -0.271 OA
ATOM     10  H   UNL A   1      35.627  21.079  25.486  1.00  0.00     0.164 HD
BRANCH   8  11
ATOM     11  C   UNL A   1      32.433  21.844  24.820  1.00  0.00     0.329 C 
BRANCH  11  12
ATOM     12  O   UNL A   1      31.944  22.146  23.519  1.00  0.00    -0.483 OA
BRANCH  12  13
ATOM     13  C   UNL A   1      31.618  23.447  23.236  1.00  0.00     0.123 A 
ATOM     14  C   UNL A   1      29.167  26.208  24.181  1.00  0.00     0.044 C 
ATOM     15  C   UNL A   1      30.292  25.478  23.509  1.00  0.00    -0.047 A 
ATOM     16  C   UNL A   1      31.100  26.123  22.574  1.00  0.00     0.004 A 
ATOM     17  C   UNL A   1      30.541  24.135  23.809  1.00  0.00     0.050 A 
ATOM     18  C   UNL A   1      32.163  25.443  21.977  1.00  0.00     0.007 A 
ATOM     19  C   UNL A   1      32.445  24.109  22.313  1.00  0.00    -0.009 A 
ATOM     20  C   UNL A   1      33.626  23.444  21.659  1.00  0.00     0.048 C 
ENDBRANCH  12  13
ENDBRANCH  11  12
ENDBRANCH   8  11
ENDBRANCH   6   7
BRANCH   6  21
ATOM     21  C   UNL A   1      34.946  24.074  25.894  1.00  0.00     0.070 C 
BRANCH  21  22
ATOM     22  C   UNL A   1      33.933  25.200  25.736  1.00  0.00    -0.045 A 
ATOM     23  C   UNL A   1      32.724  25.208  26.449  1.00  0.00     0.004 A 
ATOM     24  C   UNL A   1      34.169  26.280  24.876  1.00  0.00     0.004 A 
ATOM     25  C   UNL A   1      31.914  26.353  26.484  1.00  0.00     0.000 A 
ATOM     26  C   UNL A   1      33.413  27.458  24.982  1.00  0.00     0.000 A 
ATOM     27  C   UNL A   1      32.314  27.512  25.829  1.00  0.00     0.000 A 
ENDBRANCH  21  22
ENDBRANCH   6  21
ENDBRANCH   3   6
ENDBRANCH   1   2
BRANCH   1  28
ATOM     28  C   UNL A   1      38.129  24.782  26.512  1.00  0.00     0.042 C 
BRANCH  28  29
ATOM     29  C   UNL A   1      39.365  24.916  27.355  1.00  0.00     0.118 C 
BRANCH  29  30
ATOM     30  N   UNL A   1      40.414  25.897  26.917  1.00  0.00    -0.352 N 
ATOM     31  C   UNL A   1      40.609  27.216  27.377  1.00  0.00     0.251 C 
ATOM     32  H   UNL A   1      41.040  25.582  26.226  1.00  0.00     0.163 HD
ATOM     33  O   UNL A   1      41.255  28.047  26.739  1.00  0.00    -0.269 OA
BRANCH  31  34
ATOM     34  C   UNL A   1      40.227  27.461  28.788  1.00  0.00     0.039 A 
ATOM     35  C   UNL A   1      39.254  26.877  29.591  1.00  0.00     0.014 A 
ATOM     36  C   UNL A   1      40.383  28.772  29.096  1.00  0.00     0.014 A 
ATOM     37  C   UNL A   1      38.613  27.756  30.551  1.00  0.00     0.010 A 
ATOM     38  C   UNL A   1      40.407  29.111  30.374  1.00  0.00     0.010 A 
ATOM     39  C   UNL A   1      39.105  29.092  30.711  1.00  0.00    -0.014 A 
BRANCH  39  40
ATOM     40  C   UNL A   1      38.828  30.178  31.693  1.00  0.00     0.031 A 
ATOM     41  C   UNL A   1      37.706  30.925  31.002  1.00  0.00     0.074 A 
ATOM     42  C   UNL A   1      39.282  30.383  32.990  1.00  0.00     0.049 A 
ATOM     43  N   UNL A   1      37.957  31.739  30.024  1.00  0.00    -0.248 NA
ATOM     44  C   UNL A   1      36.302  30.408  30.907  1.00  0.00     0.031 C 
ATOM     45  C   UNL A   1      40.194  29.635  33.902  1.00  0.00     0.029 A 
ATOM     46  N   UNL A   1      39.052  31.501  33.807  1.00  0.00    -0.354 N 
ATOM     47  C   UNL A   1      36.724  32.150  29.560  1.00  0.00     0.074 A 
ATOM     48  C   UNL A   1      35.839  31.066  29.831  1.00  0.00     0.031 C 
ATOM     49  C   UNL A   1      40.194  30.165  35.170  1.00  0.00     0.029 A 
ATOM     50  C   UNL A   1      39.410  31.387  35.195  1.00  0.00     0.049 A 
ATOM     51  H   UNL A   1      38.661  32.328  33.445  1.00  0.00     0.167 HD
ATOM     52  C   UNL A   1      36.491  33.488  29.493  1.00  0.00     0.037 A 
ATOM     53  C   UNL A   1      39.259  32.342  36.200  1.00  0.00     0.037 A 
ATOM     54  C   UNL A   1      37.765  34.180  29.586  1.00  0.00     0.049 A 
ATOM     55  C   UNL A   1      39.042  33.638  35.498  1.00  0.00     0.074 A 
ATOM     56  C   UNL A   1      38.929  34.174  28.839  1.00  0.00     0.029 A 
ATOM     57  N   UNL A   1      38.132  34.473  30.875  1.00  0.00    -0.354 N 
ATOM     58  N   UNL A   1      39.980  34.184  34.772  1.00  0.00    -0.248 NA
ATOM     59  C   UNL A   1      37.661  33.879  35.094  1.00  0.00     0.031 C 
ATOM     60  C   UNL A   1      40.000  34.125  29.788  1.00  0.00     0.029 A 
ATOM     61  C   UNL A   1      39.477  34.311  31.066  1.00  0.00     0.049 A 
ATOM     62  H   UNL A   1      37.506  34.763  31.576  1.00  0.00     0.167 HD
ATOM     63  C   UNL A   1      39.360  34.383  33.550  1.00  0.00     0.074 A 
ATOM     64  C   UNL A   1      37.927  34.144  33.810  1.00  0.00     0.031 C 
ATOM     65  C   UNL A   1      40.071  34.333  32.381  1.00  0.00     0.037 A 
BRANCH  52  66
ATOM     66  C   UNL A   1      35.190  34.137  29.919  1.00  0.00     0.064 A 
ATOM     67  C   UNL A   1      34.514  34.942  28.985  1.00  0.00     0.173 A 
ATOM     68  C   UNL A   1      34.706  34.224  31.247  1.00  0.00     0.173 A 
ATOM     69  F   UNL A   1      34.917  34.981  27.707  1.00  0.00    -0.203 F 
ATOM     70  C   UNL A   1      33.457  35.780  29.356  1.00  0.00     0.198 A 
ATOM     71  C   UNL A   1      33.619  35.019  31.603  1.00  0.00     0.198 A 
ATOM     72  F   UNL A   1      35.315  33.639  32.282  1.00  0.00    -0.203 F 
ATOM     73  F   UNL A   1      32.908  36.598  28.448  1.00  0.00    -0.200 F 
ATOM     74  C   UNL A   1      33.004  35.810  30.662  1.00  0.00     0.200 A 
ATOM     75  F   UNL A   1      33.223  35.057  32.884  1.00  0.00    -0.200 F 
ATOM     76  F   UNL A   1      32.007  36.629  31.024  1.00  0.00    -0.200 F 
ENDBRANCH  52  66
BRANCH  53  77
ATOM     77  C   UNL A   1      38.795  32.228  37.648  1.00  0.00     0.064 A 
ATOM     78  C   UNL A   1      39.043  33.178  38.687  1.00  0.00     0.173 A 
ATOM     79  C   UNL A   1      37.780  31.307  37.940  1.00  0.00     0.173 A 
ATOM     80  F   UNL A   1      39.946  34.159  38.521  1.00  0.00    -0.203 F 
ATOM     81  C   UNL A   1      38.315  33.184  39.905  1.00  0.00     0.198 A 
ATOM     82  C   UNL A   1      37.044  31.328  39.134  1.00  0.00     0.198 A 
ATOM     83  F   UNL A   1      37.406  30.420  37.010  1.00  0.00    -0.203 F 
ATOM     84  F   UNL A   1      38.553  34.111  40.848  1.00  0.00    -0.200 F 
ATOM     85  C   UNL A   1      37.303  32.266  40.115  1.00  0.00     0.200 A 
ATOM     86  F   UNL A   1      36.032  30.465  39.294  1.00  0.00    -0.200 F 
ATOM     87  F   UNL A   1      36.554  32.305  41.228  1.00  0.00    -0.200 F 
ENDBRANCH  53  77
BRANCH  65  88
ATOM     88  C   UNL A   1      41.579  34.293  32.453  1.00  0.00     0.064 A 
ATOM     89  C   UNL A   1      42.423  35.296  32.968  1.00  0.00     0.173 A 
ATOM     90  C   UNL A   1      42.183  33.083  32.097  1.00  0.00     0.173 A 
ATOM     91  F   UNL A   1      41.923  36.436  33.459  1.00  0.00    -0.203 F 
ATOM     92  C   UNL A   1      43.809  35.110  33.054  1.00  0.00     0.198 A 
ATOM     93  C   UNL A   1      43.553  32.884  32.217  1.00  0.00     0.198 A 
ATOM     94  F   UNL A   1      41.422  32.059  31.681  1.00  0.00    -0.203 F 
ATOM     95  F   UNL A   1      44.598  36.082  33.540  1.00  0.00    -0.200 F 
ATOM     96  C   UNL A   1      44.372  33.904  32.671  1.00  0.00     0.200 A 
ATOM     97  F   UNL A   1      44.072  31.686  31.921  1.00  0.00    -0.200 F 
ATOM     98  F   UNL A   1      45.695  33.710  32.765  1.00  0.00    -0.200 F 
ENDBRANCH  65  88
ENDBRANCH  39  40
ENDBRANCH  31  34
ENDBRANCH  29  30
ENDBRANCH  28  29
ENDBRANCH   1  28
TORSDOF 16
ENDMDL
