MODEL 1
REMARK VINA RESULT:      -9.9      0.000      0.000
REMARK SMILES CCSc1cccc(-c2ccc([C@@H](C)C(=O)NCCCNC(=O)c3ccc(-c4c5nc(c(-c6c(F)c(F)c(F)c(F)c6F)c6ccc([nH]6)c(-c6c(F)c(F)c(F)c(F)c6F)c6nc(c(-c7c(F)c(F)c(F)c(F)c7F)c7ccc4[nH]7)C=C6)C=C5)cc3)cc2)c1
REMARK SMILES IDX 18 1 17 2 15 3 16 4 13 6 14 7 12 8 9 9 10 10 88 11 11 12
REMARK SMILES IDX 87 13 8 14 4 15 5 16 89 17 6 18 7 19 3 20 2 21 1 22 19 23
REMARK SMILES IDX 20 24 21 25 22 26 23 28 24 29 25 30 86 31 26 32 85 33 27 34
REMARK SMILES IDX 28 35 29 36 79 37 30 38 84 39 78 40 80 41 31 42 83 43 77 44
REMARK SMILES IDX 76 45 32 47 64 48 44 49 63 50 45 51 48 52 62 53 81 54 46 55
REMARK SMILES IDX 47 56 61 58 82 59 49 60 33 61 34 62 42 63 35 64 36 65 40 66
REMARK SMILES IDX 43 67 37 68 38 69 41 70 39 71 65 72 66 73 74 74 67 75 68 76
REMARK SMILES IDX 72 77 75 78 69 79 70 80 73 81 71 82 50 83 51 84 59 85 52 86
REMARK SMILES IDX 53 87 57 88 60 89 54 90 55 91 58 92 56 93
REMARK H PARENT 17 5 21 27 80 46 48 57
REMARK Flexibility Score: inf
ROOT
ATOM      1  C   UNL A   1      42.406  19.581  26.809  1.00  0.00     0.117 C 
ENDROOT
BRANCH   1   2
ATOM      2  N   UNL A   1      43.539  19.874  25.953  1.00  0.00    -0.356 N 
ATOM      3  C   UNL A   1      44.001  21.035  25.413  1.00  0.00     0.227 C 
ATOM      4  O   UNL A   1      44.965  20.929  24.645  1.00  0.00    -0.274 OA
ATOM      5  H   UNL A   1      44.077  19.083  25.719  1.00  0.00     0.163 HD
BRANCH   3   6
ATOM      6  C   UNL A   1      43.406  22.421  25.707  1.00  0.00     0.105 C 
ATOM      7  C   UNL A   1      43.683  23.470  24.631  1.00  0.00     0.023 C 
BRANCH   6   8
ATOM      8  C   UNL A   1      43.617  22.877  27.142  1.00  0.00    -0.036 A 
ATOM      9  C   UNL A   1      44.067  23.906  29.776  1.00  0.00    -0.018 A 
ATOM     10  C   UNL A   1      42.779  23.605  29.304  1.00  0.00     0.009 A 
ATOM     11  C   UNL A   1      45.133  23.648  28.901  1.00  0.00     0.009 A 
ATOM     12  C   UNL A   1      42.561  23.067  28.032  1.00  0.00     0.005 A 
ATOM     13  C   UNL A   1      44.912  23.161  27.602  1.00  0.00     0.005 A 
BRANCH   9  14
ATOM     14  C   UNL A   1      44.262  24.479  31.130  1.00  0.00    -0.017 A 
ATOM     15  C   UNL A   1      44.459  26.392  32.647  1.00  0.00     0.008 A 
ATOM     16  C   UNL A   1      44.498  25.532  33.745  1.00  0.00     0.015 A 
ATOM     17  C   UNL A   1      44.318  25.868  31.354  1.00  0.00     0.023 A 
ATOM     18  C   UNL A   1      44.469  24.158  33.551  1.00  0.00     0.002 A 
ATOM     19  C   UNL A   1      44.369  23.642  32.258  1.00  0.00     0.009 A 
BRANCH  15  20
ATOM     20  S   UNL A   1      44.573  28.153  32.907  1.00  0.00    -0.126 SA
BRANCH  20  21
ATOM     21  C   UNL A   1      42.823  28.527  33.280  1.00  0.00     0.071 C 
ATOM     22  C   UNL A   1      41.954  28.619  32.037  1.00  0.00     0.016 C 
ENDBRANCH  20  21
ENDBRANCH  15  20
ENDBRANCH   9  14
ENDBRANCH   6   8
ENDBRANCH   3   6
ENDBRANCH   1   2
BRANCH   1  23
ATOM     23  C   UNL A   1      41.078  19.954  26.156  1.00  0.00     0.042 C 
BRANCH  23  24
ATOM     24  C   UNL A   1      40.360  21.107  26.842  1.00  0.00     0.118 C 
BRANCH  24  25
ATOM     25  N   UNL A   1      39.141  21.492  26.143  1.00  0.00    -0.352 N 
ATOM     26  C   UNL A   1      38.496  22.704  26.080  1.00  0.00     0.251 C 
ATOM     27  H   UNL A   1      38.711  20.768  25.635  1.00  0.00     0.163 HD
ATOM     28  O   UNL A   1      37.366  22.760  25.604  1.00  0.00    -0.269 OA
BRANCH  26  29
ATOM     29  C   UNL A   1      39.139  23.937  26.587  1.00  0.00     0.039 A 
ATOM     30  C   UNL A   1      39.928  24.696  25.715  1.00  0.00     0.014 A 
ATOM     31  C   UNL A   1      39.014  24.325  27.922  1.00  0.00     0.014 A 
ATOM     32  C   UNL A   1      40.539  25.870  26.166  1.00  0.00     0.010 A 
ATOM     33  C   UNL A   1      39.551  25.536  28.349  1.00  0.00     0.010 A 
ATOM     34  C   UNL A   1      40.330  26.316  27.480  1.00  0.00    -0.014 A 
BRANCH  34  35
ATOM     35  C   UNL A   1      40.942  27.570  27.990  1.00  0.00     0.031 A 
ATOM     36  C   UNL A   1      42.441  27.697  28.049  1.00  0.00     0.074 A 
ATOM     37  C   UNL A   1      40.161  28.555  28.473  1.00  0.00     0.049 A 
ATOM     38  N   UNL A   1      43.175  28.633  28.594  1.00  0.00    -0.248 NA
ATOM     39  C   UNL A   1      43.217  26.605  27.439  1.00  0.00     0.031 C 
ATOM     40  C   UNL A   1      38.698  28.536  28.506  1.00  0.00     0.029 A 
ATOM     41  N   UNL A   1      40.490  29.756  29.052  1.00  0.00    -0.354 N 
ATOM     42  C   UNL A   1      44.493  28.234  28.410  1.00  0.00     0.074 A 
ATOM     43  C   UNL A   1      44.458  26.945  27.754  1.00  0.00     0.031 C 
ATOM     44  C   UNL A   1      38.256  29.670  29.073  1.00  0.00     0.029 A 
ATOM     45  C   UNL A   1      39.402  30.476  29.482  1.00  0.00     0.049 A 
ATOM     46  H   UNL A   1      41.418  30.070  29.150  1.00  0.00     0.167 HD
ATOM     47  C   UNL A   1      45.630  28.895  28.735  1.00  0.00     0.037 A 
ATOM     48  C   UNL A   1      39.339  31.644  30.151  1.00  0.00     0.037 A 
ATOM     49  C   UNL A   1      45.659  30.188  29.364  1.00  0.00     0.049 A 
ATOM     50  C   UNL A   1      40.617  32.356  30.506  1.00  0.00     0.074 A 
ATOM     51  C   UNL A   1      46.758  30.956  29.708  1.00  0.00     0.029 A 
ATOM     52  N   UNL A   1      44.534  30.908  29.738  1.00  0.00    -0.354 N 
ATOM     53  N   UNL A   1      41.857  31.990  30.287  1.00  0.00    -0.248 NA
ATOM     54  C   UNL A   1      40.489  33.649  31.194  1.00  0.00     0.031 C 
ATOM     55  C   UNL A   1      46.299  32.126  30.321  1.00  0.00     0.029 A 
ATOM     56  C   UNL A   1      44.913  32.109  30.313  1.00  0.00     0.049 A 
ATOM     57  H   UNL A   1      43.604  30.609  29.612  1.00  0.00     0.167 HD
ATOM     58  C   UNL A   1      42.651  33.018  30.776  1.00  0.00     0.074 A 
ATOM     59  C   UNL A   1      41.755  34.029  31.294  1.00  0.00     0.031 C 
ATOM     60  C   UNL A   1      44.003  33.115  30.797  1.00  0.00     0.037 A 
BRANCH  47  61
ATOM     61  C   UNL A   1      46.936  28.236  28.400  1.00  0.00     0.064 A 
ATOM     62  C   UNL A   1      47.548  28.416  27.150  1.00  0.00     0.173 A 
ATOM     63  C   UNL A   1      47.607  27.451  29.350  1.00  0.00     0.173 A 
ATOM     64  F   UNL A   1      46.943  29.149  26.203  1.00  0.00    -0.203 F 
ATOM     65  C   UNL A   1      48.768  27.814  26.855  1.00  0.00     0.198 A 
ATOM     66  C   UNL A   1      48.842  26.875  29.063  1.00  0.00     0.198 A 
ATOM     67  F   UNL A   1      47.070  27.250  30.564  1.00  0.00    -0.203 F 
ATOM     68  F   UNL A   1      49.308  27.963  25.637  1.00  0.00    -0.200 F 
ATOM     69  C   UNL A   1      49.418  27.052  27.813  1.00  0.00     0.200 A 
ATOM     70  F   UNL A   1      49.476  26.150  29.993  1.00  0.00    -0.200 F 
ATOM     71  F   UNL A   1      50.597  26.481  27.530  1.00  0.00    -0.200 F 
ENDBRANCH  47  61
BRANCH  48  72
ATOM     72  C   UNL A   1      38.019  32.219  30.525  1.00  0.00     0.064 A 
ATOM     73  C   UNL A   1      37.332  33.076  29.654  1.00  0.00     0.173 A 
ATOM     74  C   UNL A   1      37.424  31.938  31.765  1.00  0.00     0.173 A 
ATOM     75  F   UNL A   1      37.867  33.390  28.465  1.00  0.00    -0.203 F 
ATOM     76  C   UNL A   1      36.119  33.655  30.020  1.00  0.00     0.198 A 
ATOM     77  C   UNL A   1      36.194  32.491  32.117  1.00  0.00     0.198 A 
ATOM     78  F   UNL A   1      38.034  31.118  32.632  1.00  0.00    -0.203 F 
ATOM     79  F   UNL A   1      35.512  34.514  29.191  1.00  0.00    -0.200 F 
ATOM     80  C   UNL A   1      35.548  33.358  31.249  1.00  0.00     0.200 A 
ATOM     81  F   UNL A   1      35.637  32.187  33.296  1.00  0.00    -0.200 F 
ATOM     82  F   UNL A   1      34.380  33.913  31.598  1.00  0.00    -0.200 F 
ENDBRANCH  48  72
BRANCH  60  83
ATOM     83  C   UNL A   1      44.598  34.380  31.345  1.00  0.00     0.064 A 
ATOM     84  C   UNL A   1      44.952  34.506  32.695  1.00  0.00     0.173 A 
ATOM     85  C   UNL A   1      44.870  35.458  30.489  1.00  0.00     0.173 A 
ATOM     86  F   UNL A   1      44.698  33.507  33.555  1.00  0.00    -0.203 F 
ATOM     87  C   UNL A   1      45.538  35.673  33.174  1.00  0.00     0.198 A 
ATOM     88  C   UNL A   1      45.484  36.613  30.966  1.00  0.00     0.198 A 
ATOM     89  F   UNL A   1      44.558  35.384  29.186  1.00  0.00    -0.203 F 
ATOM     90  F   UNL A   1      45.831  35.788  34.477  1.00  0.00    -0.200 F 
ATOM     91  C   UNL A   1      45.812  36.721  32.308  1.00  0.00     0.200 A 
ATOM     92  F   UNL A   1      45.761  37.619  30.124  1.00  0.00    -0.200 F 
ATOM     93  F   UNL A   1      46.389  37.840  32.769  1.00  0.00    -0.200 F 
ENDBRANCH  60  83
ENDBRANCH  34  35
ENDBRANCH  26  29
ENDBRANCH  24  25
ENDBRANCH  23  24
ENDBRANCH   1  23
TORSDOF 14
ENDMDL
MODEL 2
REMARK VINA RESULT:      -9.9      3.868     10.537
REMARK SMILES CCSc1cccc(-c2ccc([C@@H](C)C(=O)NCCCNC(=O)c3ccc(-c4c5nc(c(-c6c(F)c(F)c(F)c(F)c6F)c6ccc([nH]6)c(-c6c(F)c(F)c(F)c(F)c6F)c6nc(c(-c7c(F)c(F)c(F)c(F)c7F)c7ccc4[nH]7)C=C6)C=C5)cc3)cc2)c1
REMARK SMILES IDX 18 1 17 2 15 3 16 4 13 6 14 7 12 8 9 9 10 10 88 11 11 12
REMARK SMILES IDX 87 13 8 14 4 15 5 16 89 17 6 18 7 19 3 20 2 21 1 22 19 23
REMARK SMILES IDX 20 24 21 25 22 26 23 28 24 29 25 30 86 31 26 32 85 33 27 34
REMARK SMILES IDX 28 35 29 36 79 37 30 38 84 39 78 40 80 41 31 42 83 43 77 44
REMARK SMILES IDX 76 45 32 47 64 48 44 49 63 50 45 51 48 52 62 53 81 54 46 55
REMARK SMILES IDX 47 56 61 58 82 59 49 60 33 61 34 62 42 63 35 64 36 65 40 66
REMARK SMILES IDX 43 67 37 68 38 69 41 70 39 71 65 72 66 73 74 74 67 75 68 76
REMARK SMILES IDX 72 77 75 78 69 79 70 80 73 81 71 82 50 83 51 84 59 85 52 86
REMARK SMILES IDX 53 87 57 88 60 89 54 90 55 91 58 92 56 93
REMARK H PARENT 17 5 21 27 80 46 48 57
REMARK Flexibility Score: inf
ROOT
ATOM      1  C   UNL A   1      33.956  35.497  28.903  1.00  0.00     0.117 C 
ENDROOT
BRANCH   1   2
ATOM      2  N   UNL A   1      33.841  35.719  30.331  1.00  0.00    -0.356 N 
ATOM      3  C   UNL A   1      34.222  34.976  31.405  1.00  0.00     0.227 C 
ATOM      4  O   UNL A   1      33.898  35.420  32.513  1.00  0.00    -0.274 OA
ATOM      5  H   UNL A   1      33.404  36.570  30.568  1.00  0.00     0.163 HD
BRANCH   3   6
ATOM      6  C   UNL A   1      35.014  33.662  31.309  1.00  0.00     0.105 C 
ATOM      7  C   UNL A   1      34.787  32.699  32.474  1.00  0.00     0.023 C 
BRANCH   6   8
ATOM      8  C   UNL A   1      36.462  33.859  30.890  1.00  0.00    -0.036 A 
ATOM      9  C   UNL A   1      39.238  34.099  30.229  1.00  0.00    -0.018 A 
ATOM     10  C   UNL A   1      38.310  33.527  29.344  1.00  0.00     0.009 A 
ATOM     11  C   UNL A   1      38.733  34.578  31.447  1.00  0.00     0.009 A 
ATOM     12  C   UNL A   1      36.948  33.444  29.650  1.00  0.00     0.005 A 
ATOM     13  C   UNL A   1      37.376  34.443  31.781  1.00  0.00     0.005 A 
BRANCH   9  14
ATOM     14  C   UNL A   1      40.677  34.169  29.875  1.00  0.00    -0.017 A 
ATOM     15  C   UNL A   1      42.938  33.226  29.869  1.00  0.00     0.008 A 
ATOM     16  C   UNL A   1      43.385  34.272  29.062  1.00  0.00     0.015 A 
ATOM     17  C   UNL A   1      41.591  33.165  30.252  1.00  0.00     0.023 A 
ATOM     18  C   UNL A   1      42.511  35.288  28.696  1.00  0.00     0.002 A 
ATOM     19  C   UNL A   1      41.180  35.241  29.114  1.00  0.00     0.009 A 
BRANCH  15  20
ATOM     20  S   UNL A   1      44.089  31.969  30.393  1.00  0.00    -0.126 SA
BRANCH  20  21
ATOM     21  C   UNL A   1      43.332  30.504  29.604  1.00  0.00     0.071 C 
ATOM     22  C   UNL A   1      43.479  30.496  28.091  1.00  0.00     0.016 C 
ENDBRANCH  20  21
ENDBRANCH  15  20
ENDBRANCH   9  14
ENDBRANCH   6   8
ENDBRANCH   3   6
ENDBRANCH   1   2
BRANCH   1  23
ATOM     23  C   UNL A   1      33.279  34.202  28.463  1.00  0.00     0.042 C 
BRANCH  23  24
ATOM     24  C   UNL A   1      34.252  33.126  28.007  1.00  0.00     0.118 C 
BRANCH  24  25
ATOM     25  N   UNL A   1      33.569  31.955  27.471  1.00  0.00    -0.352 N 
ATOM     26  C   UNL A   1      34.001  30.658  27.331  1.00  0.00     0.251 C 
ATOM     27  H   UNL A   1      32.651  32.121  27.158  1.00  0.00     0.163 HD
ATOM     28  O   UNL A   1      33.339  29.872  26.660  1.00  0.00    -0.269 OA
BRANCH  26  29
ATOM     29  C   UNL A   1      35.257  30.200  27.967  1.00  0.00     0.039 A 
ATOM     30  C   UNL A   1      36.448  30.262  27.235  1.00  0.00     0.014 A 
ATOM     31  C   UNL A   1      35.264  29.664  29.257  1.00  0.00     0.014 A 
ATOM     32  C   UNL A   1      37.649  29.844  27.816  1.00  0.00     0.010 A 
ATOM     33  C   UNL A   1      36.470  29.329  29.865  1.00  0.00     0.010 A 
ATOM     34  C   UNL A   1      37.674  29.402  29.148  1.00  0.00    -0.014 A 
BRANCH  34  35
ATOM     35  C   UNL A   1      38.934  28.973  29.808  1.00  0.00     0.031 A 
ATOM     36  C   UNL A   1      39.430  29.714  31.021  1.00  0.00     0.074 A 
ATOM     37  C   UNL A   1      39.670  27.979  29.276  1.00  0.00     0.049 A 
ATOM     38  N   UNL A   1      40.569  29.604  31.654  1.00  0.00    -0.248 NA
ATOM     39  C   UNL A   1      38.532  30.741  31.576  1.00  0.00     0.031 C 
ATOM     40  C   UNL A   1      39.317  27.208  28.083  1.00  0.00     0.029 A 
ATOM     41  N   UNL A   1      40.883  27.460  29.658  1.00  0.00    -0.354 N 
ATOM     42  C   UNL A   1      40.532  30.556  32.665  1.00  0.00     0.074 A 
ATOM     43  C   UNL A   1      39.284  31.273  32.528  1.00  0.00     0.031 C 
ATOM     44  C   UNL A   1      40.289  26.317  27.830  1.00  0.00     0.029 A 
ATOM     45  C   UNL A   1      41.352  26.480  28.816  1.00  0.00     0.049 A 
ATOM     46  H   UNL A   1      41.371  27.764  30.457  1.00  0.00     0.167 HD
ATOM     47  C   UNL A   1      41.446  30.794  33.636  1.00  0.00     0.037 A 
ATOM     48  C   UNL A   1      42.519  25.806  28.828  1.00  0.00     0.037 A 
ATOM     49  C   UNL A   1      42.675  30.061  33.785  1.00  0.00     0.049 A 
ATOM     50  C   UNL A   1      43.521  26.093  29.916  1.00  0.00     0.074 A 
ATOM     51  C   UNL A   1      43.654  30.204  34.752  1.00  0.00     0.029 A 
ATOM     52  N   UNL A   1      43.090  29.040  32.942  1.00  0.00    -0.354 N 
ATOM     53  N   UNL A   1      43.455  26.964  30.893  1.00  0.00    -0.248 NA
ATOM     54  C   UNL A   1      44.756  25.296  29.909  1.00  0.00     0.031 C 
ATOM     55  C   UNL A   1      44.678  29.292  34.476  1.00  0.00     0.029 A 
ATOM     56  C   UNL A   1      44.313  28.547  33.365  1.00  0.00     0.049 A 
ATOM     57  H   UNL A   1      42.589  28.714  32.160  1.00  0.00     0.167 HD
ATOM     58  C   UNL A   1      44.618  26.798  31.633  1.00  0.00     0.074 A 
ATOM     59  C   UNL A   1      45.367  25.734  31.000  1.00  0.00     0.031 C 
ATOM     60  C   UNL A   1      45.029  27.468  32.737  1.00  0.00     0.037 A 
BRANCH  47  61
ATOM     61  C   UNL A   1      41.142  31.881  34.625  1.00  0.00     0.064 A 
ATOM     62  C   UNL A   1      41.589  33.197  34.427  1.00  0.00     0.173 A 
ATOM     63  C   UNL A   1      40.361  31.619  35.761  1.00  0.00     0.173 A 
ATOM     64  F   UNL A   1      42.348  33.498  33.363  1.00  0.00    -0.203 F 
ATOM     65  C   UNL A   1      41.289  34.202  35.342  1.00  0.00     0.198 A 
ATOM     66  C   UNL A   1      40.036  32.633  36.658  1.00  0.00     0.198 A 
ATOM     67  F   UNL A   1      39.902  30.380  35.997  1.00  0.00    -0.203 F 
ATOM     68  F   UNL A   1      41.768  35.440  35.155  1.00  0.00    -0.200 F 
ATOM     69  C   UNL A   1      40.506  33.922  36.452  1.00  0.00     0.200 A 
ATOM     70  F   UNL A   1      39.269  32.366  37.723  1.00  0.00    -0.200 F 
ATOM     71  F   UNL A   1      40.210  34.894  37.326  1.00  0.00    -0.200 F 
ENDBRANCH  47  61
BRANCH  48  72
ATOM     72  C   UNL A   1      42.804  24.789  27.781  1.00  0.00     0.064 A 
ATOM     73  C   UNL A   1      42.476  23.441  27.977  1.00  0.00     0.173 A 
ATOM     74  C   UNL A   1      43.423  25.140  26.572  1.00  0.00     0.173 A 
ATOM     75  F   UNL A   1      41.898  23.052  29.124  1.00  0.00    -0.203 F 
ATOM     76  C   UNL A   1      42.784  22.477  27.019  1.00  0.00     0.198 A 
ATOM     77  C   UNL A   1      43.701  24.181  25.599  1.00  0.00     0.198 A 
ATOM     78  F   UNL A   1      43.751  26.417  26.330  1.00  0.00    -0.203 F 
ATOM     79  F   UNL A   1      42.510  21.188  27.256  1.00  0.00    -0.200 F 
ATOM     80  C   UNL A   1      43.392  22.849  25.828  1.00  0.00     0.200 A 
ATOM     81  F   UNL A   1      44.271  24.545  24.443  1.00  0.00    -0.200 F 
ATOM     82  F   UNL A   1      43.686  21.922  24.907  1.00  0.00    -0.200 F 
ENDBRANCH  48  72
BRANCH  60  83
ATOM     83  C   UNL A   1      46.320  27.035  33.368  1.00  0.00     0.064 A 
ATOM     84  C   UNL A   1      46.368  26.019  34.333  1.00  0.00     0.173 A 
ATOM     85  C   UNL A   1      47.533  27.607  32.954  1.00  0.00     0.173 A 
ATOM     86  F   UNL A   1      45.233  25.452  34.770  1.00  0.00    -0.203 F 
ATOM     87  C   UNL A   1      47.580  25.606  34.876  1.00  0.00     0.198 A 
ATOM     88  C   UNL A   1      48.746  27.170  33.478  1.00  0.00     0.198 A 
ATOM     89  F   UNL A   1      47.543  28.577  32.027  1.00  0.00    -0.203 F 
ATOM     90  F   UNL A   1      47.599  24.662  35.827  1.00  0.00    -0.200 F 
ATOM     91  C   UNL A   1      48.768  26.175  34.442  1.00  0.00     0.200 A 
ATOM     92  F   UNL A   1      49.895  27.712  33.047  1.00  0.00    -0.200 F 
ATOM     93  F   UNL A   1      49.936  25.766  34.957  1.00  0.00    -0.200 F 
ENDBRANCH  60  83
ENDBRANCH  34  35
ENDBRANCH  26  29
ENDBRANCH  24  25
ENDBRANCH  23  24
ENDBRANCH   1  23
TORSDOF 14
ENDMDL
MODEL 3
REMARK VINA RESULT:      -9.8      5.453      9.954
REMARK SMILES CCSc1cccc(-c2ccc([C@@H](C)C(=O)NCCCNC(=O)c3ccc(-c4c5nc(c(-c6c(F)c(F)c(F)c(F)c6F)c6ccc([nH]6)c(-c6c(F)c(F)c(F)c(F)c6F)c6nc(c(-c7c(F)c(F)c(F)c(F)c7F)c7ccc4[nH]7)C=C6)C=C5)cc3)cc2)c1
REMARK SMILES IDX 18 1 17 2 15 3 16 4 13 6 14 7 12 8 9 9 10 10 88 11 11 12
REMARK SMILES IDX 87 13 8 14 4 15 5 16 89 17 6 18 7 19 3 20 2 21 1 22 19 23
REMARK SMILES IDX 20 24 21 25 22 26 23 28 24 29 25 30 86 31 26 32 85 33 27 34
REMARK SMILES IDX 28 35 29 36 79 37 30 38 84 39 78 40 80 41 31 42 83 43 77 44
REMARK SMILES IDX 76 45 32 47 64 48 44 49 63 50 45 51 48 52 62 53 81 54 46 55
REMARK SMILES IDX 47 56 61 58 82 59 49 60 33 61 34 62 42 63 35 64 36 65 40 66
REMARK SMILES IDX 43 67 37 68 38 69 41 70 39 71 65 72 66 73 74 74 67 75 68 76
REMARK SMILES IDX 72 77 75 78 69 79 70 80 73 81 71 82 50 83 51 84 59 85 52 86
REMARK SMILES IDX 53 87 57 88 60 89 54 90 55 91 58 92 56 93
REMARK H PARENT 17 5 21 27 80 46 48 57
REMARK Flexibility Score: inf
ROOT
ATOM      1  C   UNL A   1      31.619  30.849  26.143  1.00  0.00     0.117 C 
ENDROOT
BRANCH   1   2
ATOM      2  N   UNL A   1      31.661  29.719  27.050  1.00  0.00    -0.356 N 
ATOM      3  C   UNL A   1      31.725  28.376  26.835  1.00  0.00     0.227 C 
ATOM      4  O   UNL A   1      31.661  27.663  27.844  1.00  0.00    -0.274 OA
ATOM      5  H   UNL A   1      31.638  29.970  28.002  1.00  0.00     0.163 HD
BRANCH   3   6
ATOM      6  C   UNL A   1      31.875  27.729  25.450  1.00  0.00     0.105 C 
ATOM      7  C   UNL A   1      30.654  27.885  24.543  1.00  0.00     0.023 C 
BRANCH   6   8
ATOM      8  C   UNL A   1      32.489  26.339  25.494  1.00  0.00    -0.036 A 
ATOM      9  C   UNL A   1      33.574  23.691  25.406  1.00  0.00    -0.018 A 
ATOM     10  C   UNL A   1      34.391  24.832  25.355  1.00  0.00     0.009 A 
ATOM     11  C   UNL A   1      32.195  23.911  25.534  1.00  0.00     0.009 A 
ATOM     12  C   UNL A   1      33.866  26.125  25.437  1.00  0.00     0.005 A 
ATOM     13  C   UNL A   1      31.660  25.209  25.558  1.00  0.00     0.005 A 
BRANCH   9  14
ATOM     14  C   UNL A   1      34.164  22.333  25.313  1.00  0.00    -0.017 A 
ATOM     15  C   UNL A   1      33.943  19.904  25.084  1.00  0.00     0.008 A 
ATOM     16  C   UNL A   1      35.330  19.774  25.001  1.00  0.00     0.015 A 
ATOM     17  C   UNL A   1      33.367  21.176  25.215  1.00  0.00     0.023 A 
ATOM     18  C   UNL A   1      36.139  20.895  25.119  1.00  0.00     0.002 A 
ATOM     19  C   UNL A   1      35.561  22.154  25.290  1.00  0.00     0.009 A 
BRANCH  15  20
ATOM     20  S   UNL A   1      32.919  18.446  25.005  1.00  0.00    -0.126 SA
BRANCH  20  21
ATOM     21  C   UNL A   1      34.180  17.203  24.548  1.00  0.00     0.071 C 
ATOM     22  C   UNL A   1      34.029  16.695  23.124  1.00  0.00     0.016 C 
ENDBRANCH  20  21
ENDBRANCH  15  20
ENDBRANCH   9  14
ENDBRANCH   6   8
ENDBRANCH   3   6
ENDBRANCH   1   2
BRANCH   1  23
ATOM     23  C   UNL A   1      31.427  32.172  26.879  1.00  0.00     0.042 C 
BRANCH  23  24
ATOM     24  C   UNL A   1      32.692  33.013  26.968  1.00  0.00     0.118 C 
BRANCH  24  25
ATOM     25  N   UNL A   1      32.458  34.294  27.623  1.00  0.00    -0.352 N 
ATOM     26  C   UNL A   1      33.021  34.832  28.755  1.00  0.00     0.251 C 
ATOM     27  H   UNL A   1      31.788  34.866  27.183  1.00  0.00     0.163 HD
ATOM     28  O   UNL A   1      32.528  35.840  29.252  1.00  0.00    -0.269 OA
BRANCH  26  29
ATOM     29  C   UNL A   1      34.204  34.207  29.388  1.00  0.00     0.039 A 
ATOM     30  C   UNL A   1      35.480  34.555  28.929  1.00  0.00     0.014 A 
ATOM     31  C   UNL A   1      34.068  33.246  30.392  1.00  0.00     0.014 A 
ATOM     32  C   UNL A   1      36.614  33.985  29.516  1.00  0.00     0.010 A 
ATOM     33  C   UNL A   1      35.197  32.744  31.033  1.00  0.00     0.010 A 
ATOM     34  C   UNL A   1      36.482  33.098  30.594  1.00  0.00    -0.014 A 
BRANCH  34  35
ATOM     35  C   UNL A   1      37.664  32.491  31.260  1.00  0.00     0.031 A 
ATOM     36  C   UNL A   1      38.403  31.366  30.586  1.00  0.00     0.074 A 
ATOM     37  C   UNL A   1      38.021  32.889  32.496  1.00  0.00     0.049 A 
ATOM     38  N   UNL A   1      39.356  30.601  31.051  1.00  0.00    -0.248 NA
ATOM     39  C   UNL A   1      37.990  31.040  29.210  1.00  0.00     0.031 C 
ATOM     40  C   UNL A   1      37.362  33.942  33.270  1.00  0.00     0.029 A 
ATOM     41  N   UNL A   1      39.014  32.437  33.330  1.00  0.00    -0.354 N 
ATOM     42  C   UNL A   1      39.641  29.694  30.038  1.00  0.00     0.074 A 
ATOM     43  C   UNL A   1      38.723  29.967  28.954  1.00  0.00     0.031 C 
ATOM     44  C   UNL A   1      37.968  34.056  34.463  1.00  0.00     0.029 A 
ATOM     45  C   UNL A   1      39.028  33.058  34.556  1.00  0.00     0.049 A 
ATOM     46  H   UNL A   1      39.654  31.734  33.074  1.00  0.00     0.167 HD
ATOM     47  C   UNL A   1      40.599  28.737  30.004  1.00  0.00     0.037 A 
ATOM     48  C   UNL A   1      39.797  32.830  35.639  1.00  0.00     0.037 A 
ATOM     49  C   UNL A   1      41.527  28.486  31.075  1.00  0.00     0.049 A 
ATOM     50  C   UNL A   1      40.852  31.757  35.577  1.00  0.00     0.074 A 
ATOM     51  C   UNL A   1      42.554  27.560  31.128  1.00  0.00     0.029 A 
ATOM     52  N   UNL A   1      41.542  29.171  32.280  1.00  0.00    -0.354 N 
ATOM     53  N   UNL A   1      41.142  30.936  34.597  1.00  0.00    -0.248 NA
ATOM     54  C   UNL A   1      41.693  31.583  36.770  1.00  0.00     0.031 C 
ATOM     55  C   UNL A   1      43.169  27.662  32.379  1.00  0.00     0.029 A 
ATOM     56  C   UNL A   1      42.558  28.685  33.087  1.00  0.00     0.049 A 
ATOM     57  H   UNL A   1      40.922  29.896  32.527  1.00  0.00     0.167 HD
ATOM     58  C   UNL A   1      42.216  30.176  35.040  1.00  0.00     0.074 A 
ATOM     59  C   UNL A   1      42.535  30.639  36.373  1.00  0.00     0.031 C 
ATOM     60  C   UNL A   1      42.877  29.181  34.400  1.00  0.00     0.037 A 
BRANCH  47  61
ATOM     61  C   UNL A   1      40.703  27.901  28.762  1.00  0.00     0.064 A 
ATOM     62  C   UNL A   1      41.537  28.274  27.696  1.00  0.00     0.173 A 
ATOM     63  C   UNL A   1      39.997  26.694  28.650  1.00  0.00     0.173 A 
ATOM     64  F   UNL A   1      42.225  29.424  27.749  1.00  0.00    -0.203 F 
ATOM     65  C   UNL A   1      41.638  27.484  26.555  1.00  0.00     0.198 A 
ATOM     66  C   UNL A   1      40.125  25.890  27.520  1.00  0.00     0.198 A 
ATOM     67  F   UNL A   1      39.190  26.286  29.642  1.00  0.00    -0.203 F 
ATOM     68  F   UNL A   1      42.405  27.886  25.531  1.00  0.00    -0.200 F 
ATOM     69  C   UNL A   1      40.940  26.289  26.470  1.00  0.00     0.200 A 
ATOM     70  F   UNL A   1      39.461  24.729  27.444  1.00  0.00    -0.200 F 
ATOM     71  F   UNL A   1      41.047  25.525  25.375  1.00  0.00    -0.200 F 
ENDBRANCH  47  61
BRANCH  48  72
ATOM     72  C   UNL A   1      39.605  33.638  36.873  1.00  0.00     0.064 A 
ATOM     73  C   UNL A   1      40.285  34.850  37.055  1.00  0.00     0.173 A 
ATOM     74  C   UNL A   1      38.752  33.209  37.901  1.00  0.00     0.173 A 
ATOM     75  F   UNL A   1      41.126  35.295  36.109  1.00  0.00    -0.203 F 
ATOM     76  C   UNL A   1      40.145  35.585  38.230  1.00  0.00     0.198 A 
ATOM     77  C   UNL A   1      38.586  33.962  39.062  1.00  0.00     0.198 A 
ATOM     78  F   UNL A   1      38.071  32.061  37.774  1.00  0.00    -0.203 F 
ATOM     79  F   UNL A   1      40.850  36.712  38.401  1.00  0.00    -0.200 F 
ATOM     80  C   UNL A   1      39.291  35.144  39.230  1.00  0.00     0.200 A 
ATOM     81  F   UNL A   1      37.747  33.543  40.017  1.00  0.00    -0.200 F 
ATOM     82  F   UNL A   1      39.155  35.853  40.359  1.00  0.00    -0.200 F 
ENDBRANCH  48  72
BRANCH  60  83
ATOM     83  C   UNL A   1      44.048  28.563  35.106  1.00  0.00     0.064 A 
ATOM     84  C   UNL A   1      45.342  29.090  34.992  1.00  0.00     0.173 A 
ATOM     85  C   UNL A   1      43.858  27.462  35.957  1.00  0.00     0.173 A 
ATOM     86  F   UNL A   1      45.577  30.132  34.180  1.00  0.00    -0.203 F 
ATOM     87  C   UNL A   1      46.408  28.525  35.686  1.00  0.00     0.198 A 
ATOM     88  C   UNL A   1      44.921  26.919  36.673  1.00  0.00     0.198 A 
ATOM     89  F   UNL A   1      42.637  26.927  36.108  1.00  0.00    -0.203 F 
ATOM     90  F   UNL A   1      47.644  29.019  35.530  1.00  0.00    -0.200 F 
ATOM     91  C   UNL A   1      46.194  27.447  36.533  1.00  0.00     0.200 A 
ATOM     92  F   UNL A   1      44.709  25.887  37.502  1.00  0.00    -0.200 F 
ATOM     93  F   UNL A   1      47.220  26.913  37.212  1.00  0.00    -0.200 F 
ENDBRANCH  60  83
ENDBRANCH  34  35
ENDBRANCH  26  29
ENDBRANCH  24  25
ENDBRANCH  23  24
ENDBRANCH   1  23
TORSDOF 14
ENDMDL
