MODEL 1
REMARK VINA RESULT:     -11.8      0.000      0.000
REMARK SMILES C[C@@H](Sc1ccccc1[N+](=O)[O-])[C@@H](C)C(=O)NCCCNC(=O)c1ccc(-c2c3nc(c(-c4c(F)c(F)c(F)c(F)c4F)c4ccc([nH]4)c(-c4c(F)c(F)c(F)c(F)c4F)c4nc(c(-c5c(F)c(F)c(F)c(F)c5F)c5ccc2[nH]5)C=C4)C=C3)cc1
REMARK SMILES IDX 18 1 17 2 15 3 16 4 13 6 14 7 2 8 1 9 3 10 4 11 5 12 9 13
REMARK SMILES IDX 6 14 8 15 7 16 10 17 11 18 12 19 19 20 20 21 21 22 22 23
REMARK SMILES IDX 23 25 24 26 25 27 86 28 26 29 85 30 27 31 28 32 29 33 79 34
REMARK SMILES IDX 30 35 84 36 78 37 80 38 31 39 83 40 77 41 76 42 32 44 64 45
REMARK SMILES IDX 44 46 63 47 45 48 48 49 62 50 81 51 46 52 47 53 61 55 82 56
REMARK SMILES IDX 49 57 33 58 34 59 42 60 35 61 36 62 40 63 43 64 37 65 38 66
REMARK SMILES IDX 41 67 39 68 65 69 66 70 74 71 67 72 68 73 72 74 75 75 69 76
REMARK SMILES IDX 70 77 73 78 71 79 50 80 51 81 59 82 52 83 53 84 57 85 60 86
REMARK SMILES IDX 54 87 55 88 58 89 56 90
REMARK H PARENT 17 5 21 24 80 43 48 54
REMARK Flexibility Score: inf
ROOT
ATOM      1  C   UNL A   1      36.918  20.543  24.622  1.00  0.00     0.117 C 
ENDROOT
BRANCH   1   2
ATOM      2  N   UNL A   1      35.874  20.716  25.616  1.00  0.00    -0.356 N 
ATOM      3  C   UNL A   1      35.154  21.807  25.992  1.00  0.00     0.223 C 
ATOM      4  O   UNL A   1      34.346  21.652  26.909  1.00  0.00    -0.275 OA
ATOM      5  H   UNL A   1      35.647  19.894  26.108  1.00  0.00     0.163 HD
BRANCH   3   6
ATOM      6  C   UNL A   1      35.288  23.152  25.284  1.00  0.00     0.088 C 
ATOM      7  C   UNL A   1      36.555  23.859  25.786  1.00  0.00     0.019 C 
BRANCH   6   8
ATOM      8  C   UNL A   1      33.971  23.973  25.299  1.00  0.00     0.061 C 
ATOM      9  C   UNL A   1      34.208  25.471  25.462  1.00  0.00     0.020 C 
BRANCH   8  10
ATOM     10  S   UNL A   1      33.056  23.616  23.716  1.00  0.00    -0.115 SA
BRANCH  10  11
ATOM     11  C   UNL A   1      31.954  25.013  23.515  1.00  0.00     0.085 A 
ATOM     12  C   UNL A   1      30.826  25.058  24.353  1.00  0.00     0.022 A 
ATOM     13  C   UNL A   1      32.047  25.996  22.516  1.00  0.00     0.282 A 
ATOM     14  C   UNL A   1      29.855  26.061  24.215  1.00  0.00     0.002 A 
ATOM     15  C   UNL A   1      31.094  27.023  22.390  1.00  0.00     0.087 A 
ATOM     16  C   UNL A   1      29.993  27.048  23.242  1.00  0.00     0.007 A 
BRANCH  13  17
ATOM     17  N   UNL A   1      33.115  25.990  21.533  1.00  0.00     0.063 N 
ATOM     18  O   UNL A   1      34.052  26.780  21.727  1.00  0.00    -0.258 OA
ATOM     19  O   UNL A   1      33.004  25.243  20.554  1.00  0.00    -0.258 OA
ENDBRANCH  13  17
ENDBRANCH  10  11
ENDBRANCH   8  10
ENDBRANCH   6   8
ENDBRANCH   3   6
ENDBRANCH   1   2
BRANCH   1  20
ATOM     20  C   UNL A   1      37.930  19.484  25.042  1.00  0.00     0.042 C 
BRANCH  20  21
ATOM     21  C   UNL A   1      39.183  20.053  25.695  1.00  0.00     0.118 C 
BRANCH  21  22
ATOM     22  N   UNL A   1      40.217  19.047  25.884  1.00  0.00    -0.352 N 
ATOM     23  C   UNL A   1      41.565  19.194  26.098  1.00  0.00     0.251 C 
ATOM     24  H   UNL A   1      39.901  18.115  25.855  1.00  0.00     0.163 HD
ATOM     25  O   UNL A   1      42.303  18.218  26.021  1.00  0.00    -0.269 OA
BRANCH  23  26
ATOM     26  C   UNL A   1      42.134  20.525  26.401  1.00  0.00     0.039 A 
ATOM     27  C   UNL A   1      42.553  21.337  25.344  1.00  0.00     0.014 A 
ATOM     28  C   UNL A   1      42.279  20.966  27.719  1.00  0.00     0.014 A 
ATOM     29  C   UNL A   1      43.054  22.613  25.605  1.00  0.00     0.010 A 
ATOM     30  C   UNL A   1      42.691  22.270  27.973  1.00  0.00     0.010 A 
ATOM     31  C   UNL A   1      43.091  23.105  26.920  1.00  0.00    -0.014 A 
BRANCH  31  32
ATOM     32  C   UNL A   1      43.552  24.484  27.217  1.00  0.00     0.031 A 
ATOM     33  C   UNL A   1      42.590  25.501  27.766  1.00  0.00     0.074 A 
ATOM     34  C   UNL A   1      44.821  24.838  26.931  1.00  0.00     0.049 A 
ATOM     35  N   UNL A   1      42.781  26.772  28.017  1.00  0.00    -0.248 NA
ATOM     36  C   UNL A   1      41.221  25.036  28.041  1.00  0.00     0.031 C 
ATOM     37  C   UNL A   1      45.835  23.955  26.353  1.00  0.00     0.029 A 
ATOM     38  N   UNL A   1      45.471  26.038  27.078  1.00  0.00    -0.354 N 
ATOM     39  C   UNL A   1      41.559  27.256  28.464  1.00  0.00     0.074 A 
ATOM     40  C   UNL A   1      40.617  26.161  28.392  1.00  0.00     0.031 C 
ATOM     41  C   UNL A   1      46.985  24.634  26.220  1.00  0.00     0.029 A 
ATOM     42  C   UNL A   1      46.779  26.010  26.660  1.00  0.00     0.049 A 
ATOM     43  H   UNL A   1      45.041  26.842  27.447  1.00  0.00     0.167 HD
ATOM     44  C   UNL A   1      41.255  28.496  28.918  1.00  0.00     0.037 A 
ATOM     45  C   UNL A   1      47.706  26.986  26.629  1.00  0.00     0.037 A 
ATOM     46  C   UNL A   1      42.202  29.576  29.009  1.00  0.00     0.049 A 
ATOM     47  C   UNL A   1      47.339  28.359  27.127  1.00  0.00     0.074 A 
ATOM     48  C   UNL A   1      42.010  30.853  29.507  1.00  0.00     0.029 A 
ATOM     49  N   UNL A   1      43.524  29.506  28.590  1.00  0.00    -0.354 N 
ATOM     50  N   UNL A   1      46.198  28.787  27.609  1.00  0.00    -0.248 NA
ATOM     51  C   UNL A   1      48.393  29.382  27.082  1.00  0.00     0.031 C 
ATOM     52  C   UNL A   1      43.199  31.570  29.341  1.00  0.00     0.029 A 
ATOM     53  C   UNL A   1      44.150  30.724  28.795  1.00  0.00     0.049 A 
ATOM     54  H   UNL A   1      43.952  28.707  28.204  1.00  0.00     0.167 HD
ATOM     55  C   UNL A   1      46.404  30.116  27.953  1.00  0.00     0.074 A 
ATOM     56  C   UNL A   1      47.785  30.418  27.639  1.00  0.00     0.031 C 
ATOM     57  C   UNL A   1      45.529  31.006  28.484  1.00  0.00     0.037 A 
BRANCH  44  58
ATOM     58  C   UNL A   1      39.841  28.750  29.354  1.00  0.00     0.064 A 
ATOM     59  C   UNL A   1      38.867  29.221  28.460  1.00  0.00     0.173 A 
ATOM     60  C   UNL A   1      39.444  28.487  30.674  1.00  0.00     0.173 A 
ATOM     61  F   UNL A   1      39.195  29.499  27.189  1.00  0.00    -0.203 F 
ATOM     62  C   UNL A   1      37.557  29.448  28.878  1.00  0.00     0.198 A 
ATOM     63  C   UNL A   1      38.126  28.685  31.081  1.00  0.00     0.198 A 
ATOM     64  F   UNL A   1      40.332  28.031  31.571  1.00  0.00    -0.203 F 
ATOM     65  F   UNL A   1      36.660  29.949  28.019  1.00  0.00    -0.200 F 
ATOM     66  C   UNL A   1      37.187  29.173  30.186  1.00  0.00     0.200 A 
ATOM     67  F   UNL A   1      37.766  28.404  32.341  1.00  0.00    -0.200 F 
ATOM     68  F   UNL A   1      35.925  29.384  30.584  1.00  0.00    -0.200 F 
ENDBRANCH  44  58
BRANCH  45  69
ATOM     69  C   UNL A   1      49.076  26.697  26.129  1.00  0.00     0.064 A 
ATOM     70  C   UNL A   1      50.043  26.130  26.971  1.00  0.00     0.173 A 
ATOM     71  C   UNL A   1      49.448  26.984  24.808  1.00  0.00     0.173 A 
ATOM     72  F   UNL A   1      49.740  25.854  28.248  1.00  0.00    -0.203 F 
ATOM     73  C   UNL A   1      51.337  25.884  26.517  1.00  0.00     0.198 A 
ATOM     74  C   UNL A   1      50.734  26.709  24.347  1.00  0.00     0.198 A 
ATOM     75  F   UNL A   1      48.558  27.520  23.959  1.00  0.00    -0.203 F 
ATOM     76  F   UNL A   1      52.256  25.387  27.357  1.00  0.00    -0.200 F 
ATOM     77  C   UNL A   1      51.681  26.168  25.204  1.00  0.00     0.200 A 
ATOM     78  F   UNL A   1      51.055  26.969  23.072  1.00  0.00    -0.200 F 
ATOM     79  F   UNL A   1      52.924  25.927  24.767  1.00  0.00    -0.200 F 
ENDBRANCH  45  69
BRANCH  57  80
ATOM     80  C   UNL A   1      46.048  32.380  28.794  1.00  0.00     0.064 A 
ATOM     81  C   UNL A   1      46.643  32.684  30.027  1.00  0.00     0.173 A 
ATOM     82  C   UNL A   1      45.983  33.396  27.829  1.00  0.00     0.173 A 
ATOM     83  F   UNL A   1      46.715  31.752  30.990  1.00  0.00    -0.203 F 
ATOM     84  C   UNL A   1      47.130  33.962  30.291  1.00  0.00     0.198 A 
ATOM     85  C   UNL A   1      46.500  34.663  28.083  1.00  0.00     0.198 A 
ATOM     86  F   UNL A   1      45.429  33.156  26.630  1.00  0.00    -0.203 F 
ATOM     87  F   UNL A   1      47.648  34.243  31.494  1.00  0.00    -0.200 F 
ATOM     88  C   UNL A   1      47.066  34.947  29.317  1.00  0.00     0.200 A 
ATOM     89  F   UNL A   1      46.452  35.609  27.135  1.00  0.00    -0.200 F 
ATOM     90  F   UNL A   1      47.542  36.173  29.570  1.00  0.00    -0.200 F 
ENDBRANCH  57  80
ENDBRANCH  31  32
ENDBRANCH  23  26
ENDBRANCH  21  22
ENDBRANCH  20  21
ENDBRANCH   1  20
TORSDOF 14
ENDMDL
MODEL 2
REMARK VINA RESULT:     -11.8      5.770     11.345
REMARK SMILES C[C@@H](Sc1ccccc1[N+](=O)[O-])[C@@H](C)C(=O)NCCCNC(=O)c1ccc(-c2c3nc(c(-c4c(F)c(F)c(F)c(F)c4F)c4ccc([nH]4)c(-c4c(F)c(F)c(F)c(F)c4F)c4nc(c(-c5c(F)c(F)c(F)c(F)c5F)c5ccc2[nH]5)C=C4)C=C3)cc1
REMARK SMILES IDX 18 1 17 2 15 3 16 4 13 6 14 7 2 8 1 9 3 10 4 11 5 12 9 13
REMARK SMILES IDX 6 14 8 15 7 16 10 17 11 18 12 19 19 20 20 21 21 22 22 23
REMARK SMILES IDX 23 25 24 26 25 27 86 28 26 29 85 30 27 31 28 32 29 33 79 34
REMARK SMILES IDX 30 35 84 36 78 37 80 38 31 39 83 40 77 41 76 42 32 44 64 45
REMARK SMILES IDX 44 46 63 47 45 48 48 49 62 50 81 51 46 52 47 53 61 55 82 56
REMARK SMILES IDX 49 57 33 58 34 59 42 60 35 61 36 62 40 63 43 64 37 65 38 66
REMARK SMILES IDX 41 67 39 68 65 69 66 70 74 71 67 72 68 73 72 74 75 75 69 76
REMARK SMILES IDX 70 77 73 78 71 79 50 80 51 81 59 82 52 83 53 84 57 85 60 86
REMARK SMILES IDX 54 87 55 88 58 89 56 90
REMARK H PARENT 17 5 21 24 80 43 48 54
REMARK Flexibility Score: inf
ROOT
ATOM      1  C   UNL A   1      31.595  30.836  25.946  1.00  0.00     0.117 C 
ENDROOT
BRANCH   1   2
ATOM      2  N   UNL A   1      30.728  30.570  24.812  1.00  0.00    -0.356 N 
ATOM      3  C   UNL A   1      30.676  29.530  23.937  1.00  0.00     0.223 C 
ATOM      4  O   UNL A   1      29.838  29.601  23.036  1.00  0.00    -0.275 OA
ATOM      5  H   UNL A   1      30.057  31.270  24.646  1.00  0.00     0.163 HD
BRANCH   3   6
ATOM      6  C   UNL A   1      31.566  28.300  24.083  1.00  0.00     0.088 C 
ATOM      7  C   UNL A   1      32.523  28.227  22.885  1.00  0.00     0.019 C 
BRANCH   6   8
ATOM      8  C   UNL A   1      30.765  27.014  24.423  1.00  0.00     0.061 C 
ATOM      9  C   UNL A   1      31.057  25.863  23.466  1.00  0.00     0.020 C 
BRANCH   8  10
ATOM     10  S   UNL A   1      31.169  26.535  26.178  1.00  0.00    -0.115 SA
BRANCH  10  11
ATOM     11  C   UNL A   1      32.541  25.395  26.021  1.00  0.00     0.085 A 
ATOM     12  C   UNL A   1      33.781  25.942  25.646  1.00  0.00     0.022 A 
ATOM     13  C   UNL A   1      32.463  23.996  26.116  1.00  0.00     0.282 A 
ATOM     14  C   UNL A   1      34.896  25.125  25.408  1.00  0.00     0.002 A 
ATOM     15  C   UNL A   1      33.583  23.172  25.910  1.00  0.00     0.087 A 
ATOM     16  C   UNL A   1      34.801  23.742  25.551  1.00  0.00     0.007 A 
BRANCH  13  17
ATOM     17  N   UNL A   1      31.211  23.317  26.400  1.00  0.00     0.063 N 
ATOM     18  O   UNL A   1      30.565  22.912  25.423  1.00  0.00    -0.258 OA
ATOM     19  O   UNL A   1      30.851  23.228  27.580  1.00  0.00    -0.258 OA
ENDBRANCH  13  17
ENDBRANCH  10  11
ENDBRANCH   8  10
ENDBRANCH   6   8
ENDBRANCH   3   6
ENDBRANCH   1   2
BRANCH   1  20
ATOM     20  C   UNL A   1      31.361  32.226  26.524  1.00  0.00     0.042 C 
BRANCH  20  21
ATOM     21  C   UNL A   1      32.576  32.812  27.230  1.00  0.00     0.118 C 
BRANCH  21  22
ATOM     22  N   UNL A   1      32.385  34.206  27.601  1.00  0.00    -0.352 N 
ATOM     23  C   UNL A   1      32.981  34.948  28.591  1.00  0.00     0.251 C 
ATOM     24  H   UNL A   1      31.725  34.695  27.057  1.00  0.00     0.163 HD
ATOM     25  O   UNL A   1      32.529  36.050  28.880  1.00  0.00    -0.269 OA
BRANCH  23  26
ATOM     26  C   UNL A   1      34.152  34.417  29.321  1.00  0.00     0.039 A 
ATOM     27  C   UNL A   1      33.950  33.780  30.548  1.00  0.00     0.014 A 
ATOM     28  C   UNL A   1      35.446  34.565  28.816  1.00  0.00     0.014 A 
ATOM     29  C   UNL A   1      35.037  33.235  31.234  1.00  0.00     0.010 A 
ATOM     30  C   UNL A   1      36.515  33.942  29.453  1.00  0.00     0.010 A 
ATOM     31  C   UNL A   1      36.323  33.277  30.673  1.00  0.00    -0.014 A 
BRANCH  31  32
ATOM     32  C   UNL A   1      37.482  32.643  31.349  1.00  0.00     0.031 A 
ATOM     33  C   UNL A   1      38.216  31.510  30.685  1.00  0.00     0.074 A 
ATOM     34  C   UNL A   1      37.834  33.044  32.586  1.00  0.00     0.049 A 
ATOM     35  N   UNL A   1      39.200  30.779  31.144  1.00  0.00    -0.248 NA
ATOM     36  C   UNL A   1      37.763  31.127  29.338  1.00  0.00     0.031 C 
ATOM     37  C   UNL A   1      37.171  34.101  33.352  1.00  0.00     0.029 A 
ATOM     38  N   UNL A   1      38.828  32.603  33.422  1.00  0.00    -0.354 N 
ATOM     39  C   UNL A   1      39.472  29.846  30.153  1.00  0.00     0.074 A 
ATOM     40  C   UNL A   1      38.512  30.062  29.093  1.00  0.00     0.031 C 
ATOM     41  C   UNL A   1      37.793  34.244  34.533  1.00  0.00     0.029 A 
ATOM     42  C   UNL A   1      38.869  33.263  34.626  1.00  0.00     0.049 A 
ATOM     43  H   UNL A   1      39.454  31.882  33.182  1.00  0.00     0.167 HD
ATOM     44  C   UNL A   1      40.451  28.910  30.116  1.00  0.00     0.037 A 
ATOM     45  C   UNL A   1      39.678  33.091  35.689  1.00  0.00     0.037 A 
ATOM     46  C   UNL A   1      41.419  28.715  31.163  1.00  0.00     0.049 A 
ATOM     47  C   UNL A   1      40.749  32.035  35.628  1.00  0.00     0.074 A 
ATOM     48  C   UNL A   1      42.486  27.833  31.199  1.00  0.00     0.029 A 
ATOM     49  N   UNL A   1      41.438  29.413  32.362  1.00  0.00    -0.354 N 
ATOM     50  N   UNL A   1      41.038  31.203  34.658  1.00  0.00    -0.248 NA
ATOM     51  C   UNL A   1      41.611  31.899  36.811  1.00  0.00     0.031 C 
ATOM     52  C   UNL A   1      43.116  27.961  32.441  1.00  0.00     0.029 A 
ATOM     53  C   UNL A   1      42.481  28.964  33.155  1.00  0.00     0.049 A 
ATOM     54  H   UNL A   1      40.802  30.123  32.612  1.00  0.00     0.167 HD
ATOM     55  C   UNL A   1      42.132  30.469  35.097  1.00  0.00     0.074 A 
ATOM     56  C   UNL A   1      42.463  30.965  36.417  1.00  0.00     0.031 C 
ATOM     57  C   UNL A   1      42.803  29.475  34.464  1.00  0.00     0.037 A 
BRANCH  44  58
ATOM     58  C   UNL A   1      40.527  28.028  28.903  1.00  0.00     0.064 A 
ATOM     59  C   UNL A   1      39.810  26.823  28.822  1.00  0.00     0.173 A 
ATOM     60  C   UNL A   1      41.296  28.407  27.792  1.00  0.00     0.173 A 
ATOM     61  F   UNL A   1      39.069  26.408  29.859  1.00  0.00    -0.203 F 
ATOM     62  C   UNL A   1      39.887  26.017  27.688  1.00  0.00     0.198 A 
ATOM     63  C   UNL A   1      41.344  27.615  26.647  1.00  0.00     0.198 A 
ATOM     64  F   UNL A   1      41.997  29.551  27.812  1.00  0.00    -0.203 F 
ATOM     65  F   UNL A   1      39.237  24.847  27.657  1.00  0.00    -0.200 F 
ATOM     66  C   UNL A   1      40.647  26.418  26.599  1.00  0.00     0.200 A 
ATOM     67  F   UNL A   1      42.067  28.010  25.590  1.00  0.00    -0.200 F 
ATOM     68  F   UNL A   1      40.713  25.645  25.507  1.00  0.00    -0.200 F 
ENDBRANCH  44  58
BRANCH  45  69
ATOM     69  C   UNL A   1      39.521  33.950  36.891  1.00  0.00     0.064 A 
ATOM     70  C   UNL A   1      38.784  33.509  38.000  1.00  0.00     0.173 A 
ATOM     71  C   UNL A   1      40.098  35.227  36.958  1.00  0.00     0.173 A 
ATOM     72  F   UNL A   1      38.199  32.303  37.976  1.00  0.00    -0.203 F 
ATOM     73  C   UNL A   1      38.609  34.321  39.117  1.00  0.00     0.198 A 
ATOM     74  C   UNL A   1      39.947  36.026  38.090  1.00  0.00     0.198 A 
ATOM     75  F   UNL A   1      40.820  35.694  35.929  1.00  0.00    -0.203 F 
ATOM     76  F   UNL A   1      37.858  33.894  40.142  1.00  0.00    -0.200 F 
ATOM     77  C   UNL A   1      39.195  35.577  39.165  1.00  0.00     0.200 A 
ATOM     78  F   UNL A   1      40.531  37.232  38.137  1.00  0.00    -0.200 F 
ATOM     79  F   UNL A   1      39.030  36.356  40.242  1.00  0.00    -0.200 F 
ENDBRANCH  45  69
BRANCH  57  80
ATOM     80  C   UNL A   1      43.986  28.882  35.173  1.00  0.00     0.064 A 
ATOM     81  C   UNL A   1      45.284  29.378  34.985  1.00  0.00     0.173 A 
ATOM     82  C   UNL A   1      43.811  27.830  36.084  1.00  0.00     0.173 A 
ATOM     83  F   UNL A   1      45.507  30.373  34.113  1.00  0.00    -0.203 F 
ATOM     84  C   UNL A   1      46.367  28.823  35.662  1.00  0.00     0.198 A 
ATOM     85  C   UNL A   1      44.891  27.299  36.784  1.00  0.00     0.198 A 
ATOM     86  F   UNL A   1      42.589  27.323  36.307  1.00  0.00    -0.203 F 
ATOM     87  F   UNL A   1      47.605  29.279  35.427  1.00  0.00    -0.200 F 
ATOM     88  C   UNL A   1      46.169  27.791  36.566  1.00  0.00     0.200 A 
ATOM     89  F   UNL A   1      44.695  26.312  37.670  1.00  0.00    -0.200 F 
ATOM     90  F   UNL A   1      47.211  27.264  37.223  1.00  0.00    -0.200 F 
ENDBRANCH  57  80
ENDBRANCH  31  32
ENDBRANCH  23  26
ENDBRANCH  21  22
ENDBRANCH  20  21
ENDBRANCH   1  20
TORSDOF 14
ENDMDL
MODEL 3
REMARK VINA RESULT:     -11.8      5.916     11.261
REMARK SMILES C[C@@H](Sc1ccccc1[N+](=O)[O-])[C@@H](C)C(=O)NCCCNC(=O)c1ccc(-c2c3nc(c(-c4c(F)c(F)c(F)c(F)c4F)c4ccc([nH]4)c(-c4c(F)c(F)c(F)c(F)c4F)c4nc(c(-c5c(F)c(F)c(F)c(F)c5F)c5ccc2[nH]5)C=C4)C=C3)cc1
REMARK SMILES IDX 18 1 17 2 15 3 16 4 13 6 14 7 2 8 1 9 3 10 4 11 5 12 9 13
REMARK SMILES IDX 6 14 8 15 7 16 10 17 11 18 12 19 19 20 20 21 21 22 22 23
REMARK SMILES IDX 23 25 24 26 25 27 86 28 26 29 85 30 27 31 28 32 29 33 79 34
REMARK SMILES IDX 30 35 84 36 78 37 80 38 31 39 83 40 77 41 76 42 32 44 64 45
REMARK SMILES IDX 44 46 63 47 45 48 48 49 62 50 81 51 46 52 47 53 61 55 82 56
REMARK SMILES IDX 49 57 33 58 34 59 42 60 35 61 36 62 40 63 43 64 37 65 38 66
REMARK SMILES IDX 41 67 39 68 65 69 66 70 74 71 67 72 68 73 72 74 75 75 69 76
REMARK SMILES IDX 70 77 73 78 71 79 50 80 51 81 59 82 52 83 53 84 57 85 60 86
REMARK SMILES IDX 54 87 55 88 58 89 56 90
REMARK H PARENT 17 5 21 24 80 43 48 54
REMARK Flexibility Score: inf
ROOT
ATOM      1  C   UNL A   1      31.577  30.794  26.109  1.00  0.00     0.117 C 
ENDROOT
BRANCH   1   2
ATOM      2  N   UNL A   1      32.932  30.325  26.337  1.00  0.00    -0.356 N 
ATOM      3  C   UNL A   1      33.475  29.079  26.304  1.00  0.00     0.223 C 
ATOM      4  O   UNL A   1      34.673  28.985  26.581  1.00  0.00    -0.275 OA
ATOM      5  H   UNL A   1      33.574  31.038  26.554  1.00  0.00     0.163 HD
BRANCH   3   6
ATOM      6  C   UNL A   1      32.670  27.851  25.891  1.00  0.00     0.088 C 
ATOM      7  C   UNL A   1      31.709  27.475  27.028  1.00  0.00     0.019 C 
BRANCH   6   8
ATOM      8  C   UNL A   1      33.557  26.715  25.313  1.00  0.00     0.061 C 
ATOM      9  C   UNL A   1      33.335  25.377  26.011  1.00  0.00     0.020 C 
BRANCH   8  10
ATOM     10  S   UNL A   1      33.198  26.579  23.491  1.00  0.00    -0.115 SA
BRANCH  10  11
ATOM     11  C   UNL A   1      31.566  27.293  23.305  1.00  0.00     0.085 A 
ATOM     12  C   UNL A   1      31.504  28.649  22.940  1.00  0.00     0.022 A 
ATOM     13  C   UNL A   1      30.351  26.658  23.612  1.00  0.00     0.282 A 
ATOM     14  C   UNL A   1      30.278  29.326  22.857  1.00  0.00     0.002 A 
ATOM     15  C   UNL A   1      29.116  27.320  23.500  1.00  0.00     0.087 A 
ATOM     16  C   UNL A   1      29.084  28.660  23.126  1.00  0.00     0.007 A 
BRANCH  13  17
ATOM     17  N   UNL A   1      30.303  25.289  24.093  1.00  0.00     0.063 N 
ATOM     18  O   UNL A   1      30.495  24.398  23.252  1.00  0.00    -0.258 OA
ATOM     19  O   UNL A   1      30.032  25.098  25.284  1.00  0.00    -0.258 OA
ENDBRANCH  13  17
ENDBRANCH  10  11
ENDBRANCH   8  10
ENDBRANCH   6   8
ENDBRANCH   3   6
ENDBRANCH   1   2
BRANCH   1  20
ATOM     20  C   UNL A   1      31.403  32.248  26.532  1.00  0.00     0.042 C 
BRANCH  20  21
ATOM     21  C   UNL A   1      32.612  32.830  27.251  1.00  0.00     0.118 C 
BRANCH  21  22
ATOM     22  N   UNL A   1      32.411  34.215  27.645  1.00  0.00    -0.352 N 
ATOM     23  C   UNL A   1      32.987  34.940  28.659  1.00  0.00     0.251 C 
ATOM     24  H   UNL A   1      31.761  34.713  27.098  1.00  0.00     0.163 HD
ATOM     25  O   UNL A   1      32.528  36.035  28.961  1.00  0.00    -0.269 OA
BRANCH  23  26
ATOM     26  C   UNL A   1      34.146  34.397  29.401  1.00  0.00     0.039 A 
ATOM     27  C   UNL A   1      33.932  33.814  30.653  1.00  0.00     0.014 A 
ATOM     28  C   UNL A   1      35.440  34.482  28.882  1.00  0.00     0.014 A 
ATOM     29  C   UNL A   1      35.005  33.258  31.352  1.00  0.00     0.010 A 
ATOM     30  C   UNL A   1      36.492  33.847  29.535  1.00  0.00     0.010 A 
ATOM     31  C   UNL A   1      36.288  33.235  30.781  1.00  0.00    -0.014 A 
BRANCH  31  32
ATOM     32  C   UNL A   1      37.431  32.588  31.472  1.00  0.00     0.031 A 
ATOM     33  C   UNL A   1      38.146  31.433  30.828  1.00  0.00     0.074 A 
ATOM     34  C   UNL A   1      37.782  32.998  32.706  1.00  0.00     0.049 A 
ATOM     35  N   UNL A   1      39.113  30.689  31.303  1.00  0.00    -0.248 NA
ATOM     36  C   UNL A   1      37.695  31.042  29.483  1.00  0.00     0.031 C 
ATOM     37  C   UNL A   1      37.134  34.077  33.455  1.00  0.00     0.029 A 
ATOM     38  N   UNL A   1      38.762  32.548  33.555  1.00  0.00    -0.354 N 
ATOM     39  C   UNL A   1      39.374  29.739  30.324  1.00  0.00     0.074 A 
ATOM     40  C   UNL A   1      38.425  29.960  29.256  1.00  0.00     0.031 C 
ATOM     41  C   UNL A   1      37.751  34.223  34.638  1.00  0.00     0.029 A 
ATOM     42  C   UNL A   1      38.807  33.223  34.751  1.00  0.00     0.049 A 
ATOM     43  H   UNL A   1      39.375  31.813  33.328  1.00  0.00     0.167 HD
ATOM     44  C   UNL A   1      40.335  28.784  30.306  1.00  0.00     0.037 A 
ATOM     45  C   UNL A   1      39.606  33.049  35.821  1.00  0.00     0.037 A 
ATOM     46  C   UNL A   1      41.293  28.583  31.362  1.00  0.00     0.049 A 
ATOM     47  C   UNL A   1      40.658  31.972  35.781  1.00  0.00     0.074 A 
ATOM     48  C   UNL A   1      42.342  27.682  31.417  1.00  0.00     0.029 A 
ATOM     49  N   UNL A   1      41.316  29.296  32.553  1.00  0.00    -0.354 N 
ATOM     50  N   UNL A   1      40.937  31.123  34.823  1.00  0.00    -0.248 NA
ATOM     51  C   UNL A   1      41.509  31.835  36.970  1.00  0.00     0.031 C 
ATOM     52  C   UNL A   1      42.966  27.814  32.661  1.00  0.00     0.029 A 
ATOM     53  C   UNL A   1      42.346  28.837  33.358  1.00  0.00     0.049 A 
ATOM     54  H   UNL A   1      40.693  30.021  32.789  1.00  0.00     0.167 HD
ATOM     55  C   UNL A   1      42.013  30.374  35.278  1.00  0.00     0.074 A 
ATOM     56  C   UNL A   1      42.346  30.880  36.594  1.00  0.00     0.031 C 
ATOM     57  C   UNL A   1      42.669  29.359  34.663  1.00  0.00     0.037 A 
BRANCH  44  58
ATOM     58  C   UNL A   1      40.402  27.885  29.105  1.00  0.00     0.064 A 
ATOM     59  C   UNL A   1      39.661  26.695  29.033  1.00  0.00     0.173 A 
ATOM     60  C   UNL A   1      41.187  28.234  27.996  1.00  0.00     0.173 A 
ATOM     61  F   UNL A   1      38.903  26.308  30.070  1.00  0.00    -0.203 F 
ATOM     62  C   UNL A   1      39.729  25.873  27.910  1.00  0.00     0.198 A 
ATOM     63  C   UNL A   1      41.227  27.427  26.861  1.00  0.00     0.198 A 
ATOM     64  F   UNL A   1      41.912  29.364  28.007  1.00  0.00    -0.203 F 
ATOM     65  F   UNL A   1      39.055  24.716  27.888  1.00  0.00    -0.200 F 
ATOM     66  C   UNL A   1      40.506  26.244  26.823  1.00  0.00     0.200 A 
ATOM     67  F   UNL A   1      41.967  27.793  25.805  1.00  0.00    -0.200 F 
ATOM     68  F   UNL A   1      40.564  25.456  25.741  1.00  0.00    -0.200 F 
ENDBRANCH  44  58
BRANCH  45  69
ATOM     69  C   UNL A   1      39.458  33.927  37.011  1.00  0.00     0.064 A 
ATOM     70  C   UNL A   1      38.705  33.513  38.120  1.00  0.00     0.173 A 
ATOM     71  C   UNL A   1      40.059  35.192  37.066  1.00  0.00     0.173 A 
ATOM     72  F   UNL A   1      38.096  32.319  38.108  1.00  0.00    -0.203 F 
ATOM     73  C   UNL A   1      38.538  34.343  39.226  1.00  0.00     0.198 A 
ATOM     74  C   UNL A   1      39.916  36.009  38.187  1.00  0.00     0.198 A 
ATOM     75  F   UNL A   1      40.797  35.632  36.036  1.00  0.00    -0.203 F 
ATOM     76  F   UNL A   1      37.772  33.944  40.251  1.00  0.00    -0.200 F 
ATOM     77  C   UNL A   1      39.148  35.588  39.262  1.00  0.00     0.200 A 
ATOM     78  F   UNL A   1      40.523  37.203  38.223  1.00  0.00    -0.200 F 
ATOM     79  F   UNL A   1      38.991  36.384  40.328  1.00  0.00    -0.200 F 
ENDBRANCH  45  69
BRANCH  57  80
ATOM     80  C   UNL A   1      43.836  28.753  35.387  1.00  0.00     0.064 A 
ATOM     81  C   UNL A   1      45.149  29.199  35.176  1.00  0.00     0.173 A 
ATOM     82  C   UNL A   1      43.632  27.739  36.335  1.00  0.00     0.173 A 
ATOM     83  F   UNL A   1      45.399  30.155  34.268  1.00  0.00    -0.203 F 
ATOM     84  C   UNL A   1      46.217  28.633  35.867  1.00  0.00     0.198 A 
ATOM     85  C   UNL A   1      44.697  27.198  37.049  1.00  0.00     0.198 A 
ATOM     86  F   UNL A   1      42.395  27.281  36.580  1.00  0.00    -0.203 F 
ATOM     87  F   UNL A   1      47.467  29.039  35.611  1.00  0.00    -0.200 F 
ATOM     88  C   UNL A   1      45.990  27.640  36.808  1.00  0.00     0.200 A 
ATOM     89  F   UNL A   1      44.474  26.249  37.969  1.00  0.00    -0.200 F 
ATOM     90  F   UNL A   1      47.018  27.103  37.478  1.00  0.00    -0.200 F 
ENDBRANCH  57  80
ENDBRANCH  31  32
ENDBRANCH  23  26
ENDBRANCH  21  22
ENDBRANCH  20  21
ENDBRANCH   1  20
TORSDOF 14
ENDMDL
