MODEL 1
REMARK VINA RESULT:     -12.5      0.000      0.000
REMARK SMILES Cc1cc(C)c2c(OCCCC(=O)NCCCNC(=O)c3ccc(-c4c5nc(c(-c6c(F)c(F)c(F)c(F)c6F)c6ccc([nH]6)c(-c6c(F)c(F)c(F)c(F)c6F)c6nc(c(-c7c(F)c(F)c(F)c(F)c7F)c7ccc4[nH]7)C=C6)C=C5)cc3)nsc2n1
REMARK SMILES IDX 15 1 14 2 12 3 13 4 11 6 10 7 9 8 8 9 7 10 1 11 2 12 3 13
REMARK SMILES IDX 87 14 4 15 86 16 5 17 6 18 85 19 84 20 16 21 17 22 18 23
REMARK SMILES IDX 19 24 20 26 21 27 22 28 83 29 23 30 82 31 24 32 25 33 26 34
REMARK SMILES IDX 76 35 27 36 81 37 75 38 77 39 28 40 80 41 74 42 73 43 29 45
REMARK SMILES IDX 61 46 41 47 60 48 42 49 45 50 59 51 78 52 43 53 44 54 58 56
REMARK SMILES IDX 79 57 46 58 30 59 31 60 39 61 32 62 33 63 37 64 40 65 34 66
REMARK SMILES IDX 35 67 38 68 36 69 62 70 63 71 71 72 64 73 65 74 69 75 72 76
REMARK SMILES IDX 66 77 67 78 70 79 68 80 47 81 48 82 56 83 49 84 50 85 54 86
REMARK SMILES IDX 57 87 51 88 52 89 55 90 53 91
REMARK H PARENT 14 5 18 25 77 44 45 55
REMARK Flexibility Score: inf
ROOT
ATOM      1  C   UNL A   1      38.073  22.500  25.913  1.00  0.00     0.117 C 
ENDROOT
BRANCH   1   2
ATOM      2  N   UNL A   1      37.347  22.701  24.532  1.00  0.00    -0.356 N 
ATOM      3  C   UNL A   1      36.211  22.782  23.760  1.00  0.00     0.220 C 
ATOM      4  O   UNL A   1      36.558  23.011  22.577  1.00  0.00    -0.275 OA
ATOM      5  H   UNL A   1      38.084  22.839  23.892  1.00  0.00     0.163 HD
BRANCH   3   6
ATOM      6  C   UNL A   1      34.576  22.848  23.990  1.00  0.00     0.103 C 
BRANCH   6   7
ATOM      7  C   UNL A   1      33.262  23.495  23.279  1.00  0.00     0.051 C 
BRANCH   7   8
ATOM      8  C   UNL A   1      32.803  24.992  22.910  1.00  0.00     0.232 C 
BRANCH   8   9
ATOM      9  O   UNL A   1      31.447  25.427  22.688  1.00  0.00    -0.477 OA
BRANCH   9  10
ATOM     10  C   UNL A   1      30.984  26.662  23.031  1.00  0.00     0.235 A 
ATOM     11  C   UNL A   1      32.723  29.678  27.251  1.00  0.00     0.067 C 
ATOM     12  C   UNL A   1      31.871  28.914  26.270  1.00  0.00     0.039 A 
ATOM     13  C   UNL A   1      31.508  27.607  26.561  1.00  0.00     0.027 A 
ATOM     14  N   UNL A   1      31.545  29.524  25.105  1.00  0.00    -0.240 NA
ATOM     15  C   UNL A   1      30.921  26.808  25.568  1.00  0.00    -0.034 A 
ATOM     16  C   UNL A   1      31.126  28.661  24.153  1.00  0.00     0.147 A 
ATOM     17  C   UNL A   1      30.206  25.537  25.728  1.00  0.00     0.045 C 
ATOM     18  C   UNL A   1      30.980  27.295  24.288  1.00  0.00     0.078 A 
ATOM     19  S   UNL A   1      30.632  29.037  22.567  1.00  0.00    -0.012 S 
ATOM     20  N   UNL A   1      30.662  27.450  22.005  1.00  0.00    -0.153 NA
ENDBRANCH   9  10
ENDBRANCH   8   9
ENDBRANCH   7   8
ENDBRANCH   6   7
ENDBRANCH   3   6
ENDBRANCH   1   2
BRANCH   1  21
ATOM     21  C   UNL A   1      39.214  21.418  25.899  1.00  0.00     0.042 C 
BRANCH  21  22
ATOM     22  C   UNL A   1      40.391  21.483  26.850  1.00  0.00     0.118 C 
BRANCH  22  23
ATOM     23  N   UNL A   1      41.669  21.889  26.236  1.00  0.00    -0.352 N 
ATOM     24  C   UNL A   1      42.104  23.203  26.033  1.00  0.00     0.251 C 
ATOM     25  H   UNL A   1      42.272  21.169  25.941  1.00  0.00     0.163 HD
ATOM     26  O   UNL A   1      42.881  23.526  25.188  1.00  0.00    -0.269 OA
BRANCH  24  27
ATOM     27  C   UNL A   1      41.526  24.176  26.980  1.00  0.00     0.039 A 
ATOM     28  C   UNL A   1      42.074  24.342  28.254  1.00  0.00     0.014 A 
ATOM     29  C   UNL A   1      40.719  25.133  26.381  1.00  0.00     0.014 A 
ATOM     30  C   UNL A   1      41.902  25.572  28.887  1.00  0.00     0.010 A 
ATOM     31  C   UNL A   1      40.746  26.392  26.919  1.00  0.00     0.010 A 
ATOM     32  C   UNL A   1      41.284  26.621  28.188  1.00  0.00    -0.014 A 
BRANCH  32  33
ATOM     33  C   UNL A   1      41.275  27.990  28.710  1.00  0.00     0.031 A 
ATOM     34  C   UNL A   1      42.390  28.897  28.290  1.00  0.00     0.074 A 
ATOM     35  C   UNL A   1      40.218  28.479  29.396  1.00  0.00     0.049 A 
ATOM     36  N   UNL A   1      43.268  29.460  29.056  1.00  0.00    -0.248 NA
ATOM     37  C   UNL A   1      42.608  29.165  26.859  1.00  0.00     0.031 C 
ATOM     38  C   UNL A   1      38.930  27.838  29.703  1.00  0.00     0.029 A 
ATOM     39  N   UNL A   1      40.038  29.733  29.889  1.00  0.00    -0.354 N 
ATOM     40  C   UNL A   1      44.063  30.266  28.241  1.00  0.00     0.074 A 
ATOM     41  C   UNL A   1      43.684  29.959  26.885  1.00  0.00     0.031 C 
ATOM     42  C   UNL A   1      38.030  28.768  30.080  1.00  0.00     0.029 A 
ATOM     43  C   UNL A   1      38.732  30.019  30.260  1.00  0.00     0.049 A 
ATOM     44  H   UNL A   1      40.772  30.384  29.975  1.00  0.00     0.167 HD
ATOM     45  C   UNL A   1      44.855  31.248  28.764  1.00  0.00     0.037 A 
ATOM     46  C   UNL A   1      38.249  31.197  30.714  1.00  0.00     0.037 A 
ATOM     47  C   UNL A   1      45.022  31.080  30.183  1.00  0.00     0.049 A 
ATOM     48  C   UNL A   1      39.406  31.957  31.244  1.00  0.00     0.074 A 
ATOM     49  C   UNL A   1      45.584  30.100  30.978  1.00  0.00     0.029 A 
ATOM     50  N   UNL A   1      44.244  31.838  31.022  1.00  0.00    -0.354 N 
ATOM     51  N   UNL A   1      40.075  31.597  32.305  1.00  0.00    -0.248 NA
ATOM     52  C   UNL A   1      40.107  32.846  30.332  1.00  0.00     0.031 C 
ATOM     53  C   UNL A   1      44.720  30.012  32.109  1.00  0.00     0.029 A 
ATOM     54  C   UNL A   1      43.732  30.989  31.969  1.00  0.00     0.049 A 
ATOM     55  H   UNL A   1      44.083  32.807  30.956  1.00  0.00     0.167 HD
ATOM     56  C   UNL A   1      41.400  31.854  31.989  1.00  0.00     0.074 A 
ATOM     57  C   UNL A   1      41.350  32.710  30.805  1.00  0.00     0.031 C 
ATOM     58  C   UNL A   1      42.412  31.122  32.539  1.00  0.00     0.037 A 
BRANCH  45  59
ATOM     59  C   UNL A   1      45.239  32.535  28.075  1.00  0.00     0.064 A 
ATOM     60  C   UNL A   1      44.246  33.495  27.782  1.00  0.00     0.173 A 
ATOM     61  C   UNL A   1      46.477  32.726  27.429  1.00  0.00     0.173 A 
ATOM     62  F   UNL A   1      43.023  33.404  28.327  1.00  0.00    -0.203 F 
ATOM     63  C   UNL A   1      44.456  34.519  26.854  1.00  0.00     0.198 A 
ATOM     64  C   UNL A   1      46.699  33.779  26.540  1.00  0.00     0.198 A 
ATOM     65  F   UNL A   1      47.475  31.842  27.543  1.00  0.00    -0.203 F 
ATOM     66  F   UNL A   1      43.445  35.332  26.517  1.00  0.00    -0.200 F 
ATOM     67  C   UNL A   1      45.681  34.656  26.229  1.00  0.00     0.200 A 
ATOM     68  F   UNL A   1      47.888  33.884  25.930  1.00  0.00    -0.200 F 
ATOM     69  F   UNL A   1      45.868  35.597  25.294  1.00  0.00    -0.200 F 
ENDBRANCH  45  59
BRANCH  46  70
ATOM     70  C   UNL A   1      36.905  31.775  30.508  1.00  0.00     0.064 A 
ATOM     71  C   UNL A   1      36.007  31.912  31.575  1.00  0.00     0.173 A 
ATOM     72  C   UNL A   1      36.574  32.448  29.314  1.00  0.00     0.173 A 
ATOM     73  F   UNL A   1      36.266  31.327  32.752  1.00  0.00    -0.203 F 
ATOM     74  C   UNL A   1      34.863  32.709  31.469  1.00  0.00     0.198 A 
ATOM     75  C   UNL A   1      35.429  33.237  29.207  1.00  0.00     0.198 A 
ATOM     76  F   UNL A   1      37.401  32.428  28.257  1.00  0.00    -0.203 F 
ATOM     77  F   UNL A   1      34.064  32.871  32.531  1.00  0.00    -0.200 F 
ATOM     78  C   UNL A   1      34.582  33.381  30.290  1.00  0.00     0.200 A 
ATOM     79  F   UNL A   1      35.184  33.904  28.069  1.00  0.00    -0.200 F 
ATOM     80  F   UNL A   1      33.522  34.198  30.211  1.00  0.00    -0.200 F 
ENDBRANCH  46  70
BRANCH  58  81
ATOM     81  C   UNL A   1      42.077  30.185  33.669  1.00  0.00     0.064 A 
ATOM     82  C   UNL A   1      41.682  28.848  33.486  1.00  0.00     0.173 A 
ATOM     83  C   UNL A   1      42.344  30.600  34.980  1.00  0.00     0.173 A 
ATOM     84  F   UNL A   1      41.503  28.342  32.262  1.00  0.00    -0.203 F 
ATOM     85  C   UNL A   1      41.529  27.981  34.566  1.00  0.00     0.198 A 
ATOM     86  C   UNL A   1      42.225  29.723  36.055  1.00  0.00     0.198 A 
ATOM     87  F   UNL A   1      42.781  31.848  35.213  1.00  0.00    -0.203 F 
ATOM     88  F   UNL A   1      41.151  26.710  34.360  1.00  0.00    -0.200 F 
ATOM     89  C   UNL A   1      41.811  28.416  35.849  1.00  0.00     0.200 A 
ATOM     90  F   UNL A   1      42.547  30.133  37.288  1.00  0.00    -0.200 F 
ATOM     91  F   UNL A   1      41.715  27.569  36.884  1.00  0.00    -0.200 F 
ENDBRANCH  58  81
ENDBRANCH  32  33
ENDBRANCH  24  27
ENDBRANCH  22  23
ENDBRANCH  21  22
ENDBRANCH   1  21
TORSDOF 14
ENDMDL
MODEL 2
REMARK VINA RESULT:     -12.3      2.883      4.358
REMARK SMILES Cc1cc(C)c2c(OCCCC(=O)NCCCNC(=O)c3ccc(-c4c5nc(c(-c6c(F)c(F)c(F)c(F)c6F)c6ccc([nH]6)c(-c6c(F)c(F)c(F)c(F)c6F)c6nc(c(-c7c(F)c(F)c(F)c(F)c7F)c7ccc4[nH]7)C=C6)C=C5)cc3)nsc2n1
REMARK SMILES IDX 15 1 14 2 12 3 13 4 11 6 10 7 9 8 8 9 7 10 1 11 2 12 3 13
REMARK SMILES IDX 87 14 4 15 86 16 5 17 6 18 85 19 84 20 16 21 17 22 18 23
REMARK SMILES IDX 19 24 20 26 21 27 22 28 83 29 23 30 82 31 24 32 25 33 26 34
REMARK SMILES IDX 76 35 27 36 81 37 75 38 77 39 28 40 80 41 74 42 73 43 29 45
REMARK SMILES IDX 61 46 41 47 60 48 42 49 45 50 59 51 78 52 43 53 44 54 58 56
REMARK SMILES IDX 79 57 46 58 30 59 31 60 39 61 32 62 33 63 37 64 40 65 34 66
REMARK SMILES IDX 35 67 38 68 36 69 62 70 63 71 71 72 64 73 65 74 69 75 72 76
REMARK SMILES IDX 66 77 67 78 70 79 68 80 47 81 48 82 56 83 49 84 50 85 54 86
REMARK SMILES IDX 57 87 51 88 52 89 55 90 53 91
REMARK H PARENT 14 5 18 25 77 44 45 55
REMARK Flexibility Score: inf
ROOT
ATOM      1  C   UNL A   1      40.432  21.176  27.321  1.00  0.00     0.117 C 
ENDROOT
BRANCH   1   2
ATOM      2  N   UNL A   1      39.506  22.347  26.826  1.00  0.00    -0.356 N 
ATOM      3  C   UNL A   1      38.527  22.853  26.002  1.00  0.00     0.220 C 
ATOM      4  O   UNL A   1      38.337  24.053  26.313  1.00  0.00    -0.275 OA
ATOM      5  H   UNL A   1      39.756  23.108  27.399  1.00  0.00     0.163 HD
BRANCH   3   6
ATOM      6  C   UNL A   1      37.448  22.282  24.889  1.00  0.00     0.103 C 
BRANCH   6   7
ATOM      7  C   UNL A   1      36.670  22.802  23.555  1.00  0.00     0.051 C 
BRANCH   7   8
ATOM      8  C   UNL A   1      35.125  23.039  23.173  1.00  0.00     0.232 C 
BRANCH   8   9
ATOM      9  O   UNL A   1      34.154  23.732  23.981  1.00  0.00    -0.477 OA
BRANCH   9  10
ATOM     10  C   UNL A   1      33.643  24.955  23.664  1.00  0.00     0.235 A 
ATOM     11  C   UNL A   1      34.136  29.507  26.656  1.00  0.00     0.067 C 
ATOM     12  C   UNL A   1      33.592  28.350  25.859  1.00  0.00     0.039 A 
ATOM     13  C   UNL A   1      33.126  27.227  26.528  1.00  0.00     0.027 A 
ATOM     14  N   UNL A   1      33.640  28.433  24.508  1.00  0.00    -0.240 NA
ATOM     15  C   UNL A   1      32.838  26.056  25.808  1.00  0.00    -0.034 A 
ATOM     16  C   UNL A   1      33.499  27.235  23.898  1.00  0.00     0.147 A 
ATOM     17  C   UNL A   1      32.075  24.883  26.249  1.00  0.00     0.045 C 
ATOM     18  C   UNL A   1      33.284  26.019  24.513  1.00  0.00     0.078 A 
ATOM     19  S   UNL A   1      33.505  26.926  22.223  1.00  0.00    -0.012 S 
ATOM     20  N   UNL A   1      33.658  25.255  22.365  1.00  0.00    -0.153 NA
ENDBRANCH   9  10
ENDBRANCH   8   9
ENDBRANCH   7   8
ENDBRANCH   6   7
ENDBRANCH   3   6
ENDBRANCH   1   2
BRANCH   1  21
ATOM     21  C   UNL A   1      41.535  20.736  26.292  1.00  0.00     0.042 C 
BRANCH  21  22
ATOM     22  C   UNL A   1      42.965  20.468  26.716  1.00  0.00     0.118 C 
BRANCH  22  23
ATOM     23  N   UNL A   1      43.792  19.766  25.716  1.00  0.00    -0.352 N 
ATOM     24  C   UNL A   1      44.405  20.347  24.601  1.00  0.00     0.251 C 
ATOM     25  H   UNL A   1      43.924  18.799  25.845  1.00  0.00     0.163 HD
ATOM     26  O   UNL A   1      44.685  19.750  23.607  1.00  0.00    -0.269 OA
BRANCH  24  27
ATOM     27  C   UNL A   1      44.704  21.783  24.764  1.00  0.00     0.039 A 
ATOM     28  C   UNL A   1      43.873  22.752  24.197  1.00  0.00     0.014 A 
ATOM     29  C   UNL A   1      45.578  22.060  25.804  1.00  0.00     0.014 A 
ATOM     30  C   UNL A   1      43.836  24.012  24.791  1.00  0.00     0.010 A 
ATOM     31  C   UNL A   1      45.368  23.223  26.497  1.00  0.00     0.010 A 
ATOM     32  C   UNL A   1      44.544  24.228  25.984  1.00  0.00    -0.014 A 
BRANCH  32  33
ATOM     33  C   UNL A   1      44.367  25.451  26.771  1.00  0.00     0.031 A 
ATOM     34  C   UNL A   1      45.331  26.572  26.534  1.00  0.00     0.074 A 
ATOM     35  C   UNL A   1      43.276  25.641  27.548  1.00  0.00     0.049 A 
ATOM     36  N   UNL A   1      46.150  27.090  27.391  1.00  0.00    -0.248 NA
ATOM     37  C   UNL A   1      45.460  27.145  25.184  1.00  0.00     0.031 C 
ATOM     38  C   UNL A   1      42.100  24.776  27.729  1.00  0.00     0.029 A 
ATOM     39  N   UNL A   1      42.944  26.734  28.284  1.00  0.00    -0.354 N 
ATOM     40  C   UNL A   1      46.798  28.146  26.749  1.00  0.00     0.074 A 
ATOM     41  C   UNL A   1      46.417  28.063  25.362  1.00  0.00     0.031 C 
ATOM     42  C   UNL A   1      41.096  25.476  28.291  1.00  0.00     0.029 A 
ATOM     43  C   UNL A   1      41.626  26.754  28.715  1.00  0.00     0.049 A 
ATOM     44  H   UNL A   1      43.585  27.452  28.494  1.00  0.00     0.167 HD
ATOM     45  C   UNL A   1      47.465  29.107  27.453  1.00  0.00     0.037 A 
ATOM     46  C   UNL A   1      41.002  27.738  29.399  1.00  0.00     0.037 A 
ATOM     47  C   UNL A   1      47.704  28.686  28.808  1.00  0.00     0.049 A 
ATOM     48  C   UNL A   1      42.062  28.533  30.062  1.00  0.00     0.074 A 
ATOM     49  C   UNL A   1      48.422  27.658  29.386  1.00  0.00     0.029 A 
ATOM     50  N   UNL A   1      46.859  29.146  29.788  1.00  0.00    -0.354 N 
ATOM     51  N   UNL A   1      42.810  28.069  31.025  1.00  0.00    -0.248 NA
ATOM     52  C   UNL A   1      42.602  29.676  29.343  1.00  0.00     0.031 C 
ATOM     53  C   UNL A   1      47.619  27.227  30.483  1.00  0.00     0.029 A 
ATOM     54  C   UNL A   1      46.502  28.063  30.549  1.00  0.00     0.049 A 
ATOM     55  H   UNL A   1      46.564  30.076  29.919  1.00  0.00     0.167 HD
ATOM     56  C   UNL A   1      44.075  28.568  30.758  1.00  0.00     0.074 A 
ATOM     57  C   UNL A   1      43.867  29.626  29.771  1.00  0.00     0.031 C 
ATOM     58  C   UNL A   1      45.197  27.892  31.143  1.00  0.00     0.037 A 
BRANCH  45  59
ATOM     59  C   UNL A   1      47.646  30.545  27.034  1.00  0.00     0.064 A 
ATOM     60  C   UNL A   1      48.924  31.141  27.111  1.00  0.00     0.173 A 
ATOM     61  C   UNL A   1      46.571  31.438  26.852  1.00  0.00     0.173 A 
ATOM     62  F   UNL A   1      50.019  30.389  27.300  1.00  0.00    -0.203 F 
ATOM     63  C   UNL A   1      49.098  32.528  27.085  1.00  0.00     0.198 A 
ATOM     64  C   UNL A   1      46.754  32.820  26.776  1.00  0.00     0.198 A 
ATOM     65  F   UNL A   1      45.299  31.020  26.855  1.00  0.00    -0.203 F 
ATOM     66  F   UNL A   1      50.316  33.051  27.284  1.00  0.00    -0.200 F 
ATOM     67  C   UNL A   1      48.012  33.366  26.924  1.00  0.00     0.200 A 
ATOM     68  F   UNL A   1      45.685  33.618  26.639  1.00  0.00    -0.200 F 
ATOM     69  F   UNL A   1      48.166  34.697  26.960  1.00  0.00    -0.200 F 
ENDBRANCH  45  59
BRANCH  46  70
ATOM     70  C   UNL A   1      39.585  28.149  29.322  1.00  0.00     0.064 A 
ATOM     71  C   UNL A   1      38.785  28.202  30.472  1.00  0.00     0.173 A 
ATOM     72  C   UNL A   1      39.061  28.754  28.161  1.00  0.00     0.173 A 
ATOM     73  F   UNL A   1      39.225  27.675  31.622  1.00  0.00    -0.203 F 
ATOM     74  C   UNL A   1      37.549  28.857  30.473  1.00  0.00     0.198 A 
ATOM     75  C   UNL A   1      37.825  29.401  28.161  1.00  0.00     0.198 A 
ATOM     76  F   UNL A   1      39.777  28.810  27.028  1.00  0.00    -0.203 F 
ATOM     77  F   UNL A   1      36.844  28.945  31.608  1.00  0.00    -0.200 F 
ATOM     78  C   UNL A   1      37.077  29.467  29.322  1.00  0.00     0.200 A 
ATOM     79  F   UNL A   1      37.393  30.012  27.048  1.00  0.00    -0.200 F 
ATOM     80  F   UNL A   1      35.925  30.151  29.342  1.00  0.00    -0.200 F 
ENDBRANCH  46  70
BRANCH  58  81
ATOM     81  C   UNL A   1      45.034  26.712  32.064  1.00  0.00     0.064 A 
ATOM     82  C   UNL A   1      44.892  26.822  33.458  1.00  0.00     0.173 A 
ATOM     83  C   UNL A   1      44.831  25.447  31.498  1.00  0.00     0.173 A 
ATOM     84  F   UNL A   1      44.971  28.009  34.069  1.00  0.00    -0.203 F 
ATOM     85  C   UNL A   1      44.594  25.714  34.249  1.00  0.00     0.198 A 
ATOM     86  C   UNL A   1      44.498  24.348  32.285  1.00  0.00     0.198 A 
ATOM     87  F   UNL A   1      44.895  25.291  30.166  1.00  0.00    -0.203 F 
ATOM     88  F   UNL A   1      44.463  25.851  35.577  1.00  0.00    -0.200 F 
ATOM     89  C   UNL A   1      44.386  24.480  33.660  1.00  0.00     0.200 A 
ATOM     90  F   UNL A   1      44.249  23.166  31.705  1.00  0.00    -0.200 F 
ATOM     91  F   UNL A   1      44.049  23.423  34.412  1.00  0.00    -0.200 F 
ENDBRANCH  58  81
ENDBRANCH  32  33
ENDBRANCH  24  27
ENDBRANCH  22  23
ENDBRANCH  21  22
ENDBRANCH   1  21
TORSDOF 14
ENDMDL
MODEL 3
REMARK VINA RESULT:     -12.2      3.660      9.311
REMARK SMILES Cc1cc(C)c2c(OCCCC(=O)NCCCNC(=O)c3ccc(-c4c5nc(c(-c6c(F)c(F)c(F)c(F)c6F)c6ccc([nH]6)c(-c6c(F)c(F)c(F)c(F)c6F)c6nc(c(-c7c(F)c(F)c(F)c(F)c7F)c7ccc4[nH]7)C=C6)C=C5)cc3)nsc2n1
REMARK SMILES IDX 15 1 14 2 12 3 13 4 11 6 10 7 9 8 8 9 7 10 1 11 2 12 3 13
REMARK SMILES IDX 87 14 4 15 86 16 5 17 6 18 85 19 84 20 16 21 17 22 18 23
REMARK SMILES IDX 19 24 20 26 21 27 22 28 83 29 23 30 82 31 24 32 25 33 26 34
REMARK SMILES IDX 76 35 27 36 81 37 75 38 77 39 28 40 80 41 74 42 73 43 29 45
REMARK SMILES IDX 61 46 41 47 60 48 42 49 45 50 59 51 78 52 43 53 44 54 58 56
REMARK SMILES IDX 79 57 46 58 30 59 31 60 39 61 32 62 33 63 37 64 40 65 34 66
REMARK SMILES IDX 35 67 38 68 36 69 62 70 63 71 71 72 64 73 65 74 69 75 72 76
REMARK SMILES IDX 66 77 67 78 70 79 68 80 47 81 48 82 56 83 49 84 50 85 54 86
REMARK SMILES IDX 57 87 51 88 52 89 55 90 53 91
REMARK H PARENT 14 5 18 25 77 44 45 55
REMARK Flexibility Score: inf
ROOT
ATOM      1  C   UNL A   1      34.046  29.952  27.234  1.00  0.00     0.117 C 
ENDROOT
BRANCH   1   2
ATOM      2  N   UNL A   1      32.838  28.990  27.529  1.00  0.00    -0.356 N 
ATOM      3  C   UNL A   1      32.023  27.930  27.200  1.00  0.00     0.220 C 
ATOM      4  O   UNL A   1      31.179  27.788  28.117  1.00  0.00    -0.275 OA
ATOM      5  H   UNL A   1      32.481  29.310  28.389  1.00  0.00     0.163 HD
BRANCH   3   6
ATOM      6  C   UNL A   1      31.975  26.728  26.069  1.00  0.00     0.103 C 
BRANCH   6   7
ATOM      7  C   UNL A   1      31.189  25.326  25.800  1.00  0.00     0.051 C 
BRANCH   7   8
ATOM      8  C   UNL A   1      31.586  23.772  25.916  1.00  0.00     0.232 C 
BRANCH   8   9
ATOM      9  O   UNL A   1      31.424  22.781  24.882  1.00  0.00    -0.477 OA
BRANCH   9  10
ATOM     10  C   UNL A   1      32.287  21.745  24.686  1.00  0.00     0.235 A 
ATOM     11  C   UNL A   1      37.736  21.994  25.100  1.00  0.00     0.067 C 
ATOM     12  C   UNL A   1      36.330  21.769  24.608  1.00  0.00     0.039 A 
ATOM     13  C   UNL A   1      35.734  22.726  23.799  1.00  0.00     0.027 A 
ATOM     14  N   UNL A   1      35.680  20.660  25.033  1.00  0.00    -0.240 NA
ATOM     15  C   UNL A   1      34.360  22.651  23.525  1.00  0.00    -0.034 A 
ATOM     16  C   UNL A   1      34.341  20.732  24.866  1.00  0.00     0.147 A 
ATOM     17  C   UNL A   1      33.599  23.356  22.487  1.00  0.00     0.045 C 
ATOM     18  C   UNL A   1      33.639  21.773  24.293  1.00  0.00     0.078 A 
ATOM     19  S   UNL A   1      33.187  19.548  25.273  1.00  0.00    -0.012 S 
ATOM     20  N   UNL A   1      31.850  20.557  25.102  1.00  0.00    -0.153 NA
ENDBRANCH   9  10
ENDBRANCH   8   9
ENDBRANCH   7   8
ENDBRANCH   6   7
ENDBRANCH   3   6
ENDBRANCH   1   2
BRANCH   1  21
ATOM     21  C   UNL A   1      33.804  31.449  27.648  1.00  0.00     0.042 C 
BRANCH  21  22
ATOM     22  C   UNL A   1      34.941  32.358  28.069  1.00  0.00     0.118 C 
BRANCH  22  23
ATOM     23  N   UNL A   1      35.036  32.609  29.520  1.00  0.00    -0.352 N 
ATOM     24  C   UNL A   1      35.738  31.829  30.446  1.00  0.00     0.251 C 
ATOM     25  H   UNL A   1      34.562  33.397  29.869  1.00  0.00     0.163 HD
ATOM     26  O   UNL A   1      35.472  31.770  31.606  1.00  0.00    -0.269 OA
BRANCH  24  27
ATOM     27  C   UNL A   1      36.871  31.085  29.863  1.00  0.00     0.039 A 
ATOM     28  C   UNL A   1      38.135  31.671  29.766  1.00  0.00     0.014 A 
ATOM     29  C   UNL A   1      36.676  29.712  29.813  1.00  0.00     0.014 A 
ATOM     30  C   UNL A   1      39.247  30.831  29.748  1.00  0.00     0.010 A 
ATOM     31  C   UNL A   1      37.777  28.922  30.011  1.00  0.00     0.010 A 
ATOM     32  C   UNL A   1      39.067  29.451  29.932  1.00  0.00    -0.014 A 
BRANCH  32  33
ATOM     33  C   UNL A   1      40.203  28.552  30.146  1.00  0.00     0.031 A 
ATOM     34  C   UNL A   1      40.636  28.309  31.560  1.00  0.00     0.074 A 
ATOM     35  C   UNL A   1      40.731  27.824  29.136  1.00  0.00     0.049 A 
ATOM     36  N   UNL A   1      41.785  28.593  32.082  1.00  0.00    -0.248 NA
ATOM     37  C   UNL A   1      39.675  27.754  32.527  1.00  0.00     0.031 C 
ATOM     38  C   UNL A   1      40.299  27.730  27.732  1.00  0.00     0.029 A 
ATOM     39  N   UNL A   1      41.737  26.912  29.188  1.00  0.00    -0.354 N 
ATOM     40  C   UNL A   1      41.759  28.128  33.398  1.00  0.00     0.074 A 
ATOM     41  C   UNL A   1      40.400  27.723  33.651  1.00  0.00     0.031 C 
ATOM     42  C   UNL A   1      40.850  26.645  27.153  1.00  0.00     0.029 A 
ATOM     43  C   UNL A   1      41.838  26.107  28.063  1.00  0.00     0.049 A 
ATOM     44  H   UNL A   1      42.343  26.829  29.959  1.00  0.00     0.167 HD
ATOM     45  C   UNL A   1      42.907  27.960  34.117  1.00  0.00     0.037 A 
ATOM     46  C   UNL A   1      42.692  25.078  27.865  1.00  0.00     0.037 A 
ATOM     47  C   UNL A   1      44.013  28.642  33.498  1.00  0.00     0.049 A 
ATOM     48  C   UNL A   1      43.827  25.282  28.795  1.00  0.00     0.074 A 
ATOM     49  C   UNL A   1      44.295  29.964  33.216  1.00  0.00     0.029 A 
ATOM     50  N   UNL A   1      44.880  27.905  32.729  1.00  0.00    -0.354 N 
ATOM     51  N   UNL A   1      44.677  26.266  28.685  1.00  0.00    -0.248 NA
ATOM     52  C   UNL A   1      43.741  24.672  30.112  1.00  0.00     0.031 C 
ATOM     53  C   UNL A   1      44.933  29.935  31.941  1.00  0.00     0.029 A 
ATOM     54  C   UNL A   1      45.066  28.598  31.561  1.00  0.00     0.049 A 
ATOM     55  H   UNL A   1      45.290  27.043  32.970  1.00  0.00     0.167 HD
ATOM     56  C   UNL A   1      44.910  26.676  29.988  1.00  0.00     0.074 A 
ATOM     57  C   UNL A   1      44.386  25.600  30.826  1.00  0.00     0.031 C 
ATOM     58  C   UNL A   1      45.243  27.969  30.272  1.00  0.00     0.037 A 
BRANCH  45  59
ATOM     59  C   UNL A   1      43.126  26.942  35.210  1.00  0.00     0.064 A 
ATOM     60  C   UNL A   1      43.470  27.376  36.509  1.00  0.00     0.173 A 
ATOM     61  C   UNL A   1      43.306  25.568  34.962  1.00  0.00     0.173 A 
ATOM     62  F   UNL A   1      43.355  28.667  36.854  1.00  0.00    -0.203 F 
ATOM     63  C   UNL A   1      44.024  26.509  37.457  1.00  0.00     0.198 A 
ATOM     64  C   UNL A   1      43.813  24.695  35.926  1.00  0.00     0.198 A 
ATOM     65  F   UNL A   1      43.108  25.039  33.748  1.00  0.00    -0.203 F 
ATOM     66  F   UNL A   1      44.449  26.990  38.634  1.00  0.00    -0.200 F 
ATOM     67  C   UNL A   1      44.201  25.171  37.162  1.00  0.00     0.200 A 
ATOM     68  F   UNL A   1      43.995  23.404  35.615  1.00  0.00    -0.200 F 
ATOM     69  F   UNL A   1      44.788  24.350  38.043  1.00  0.00    -0.200 F 
ENDBRANCH  45  59
BRANCH  46  70
ATOM     70  C   UNL A   1      42.467  23.839  27.093  1.00  0.00     0.064 A 
ATOM     71  C   UNL A   1      43.336  23.464  26.060  1.00  0.00     0.173 A 
ATOM     72  C   UNL A   1      41.547  22.863  27.529  1.00  0.00     0.173 A 
ATOM     73  F   UNL A   1      44.258  24.326  25.611  1.00  0.00    -0.203 F 
ATOM     74  C   UNL A   1      43.316  22.175  25.520  1.00  0.00     0.198 A 
ATOM     75  C   UNL A   1      41.523  21.578  26.985  1.00  0.00     0.198 A 
ATOM     76  F   UNL A   1      40.716  23.105  28.554  1.00  0.00    -0.203 F 
ATOM     77  F   UNL A   1      44.208  21.832  24.581  1.00  0.00    -0.200 F 
ATOM     78  C   UNL A   1      42.420  21.230  25.992  1.00  0.00     0.200 A 
ATOM     79  F   UNL A   1      40.670  20.665  27.470  1.00  0.00    -0.200 F 
ATOM     80  F   UNL A   1      42.446  19.975  25.521  1.00  0.00    -0.200 F 
ENDBRANCH  46  70
BRANCH  58  81
ATOM     81  C   UNL A   1      45.579  28.885  29.125  1.00  0.00     0.064 A 
ATOM     82  C   UNL A   1      46.838  28.928  28.501  1.00  0.00     0.173 A 
ATOM     83  C   UNL A   1      44.540  29.606  28.522  1.00  0.00     0.173 A 
ATOM     84  F   UNL A   1      47.858  28.192  28.953  1.00  0.00    -0.203 F 
ATOM     85  C   UNL A   1      47.053  29.683  27.350  1.00  0.00     0.198 A 
ATOM     86  C   UNL A   1      44.748  30.331  27.352  1.00  0.00     0.198 A 
ATOM     87  F   UNL A   1      43.302  29.556  29.038  1.00  0.00    -0.203 F 
ATOM     88  F   UNL A   1      48.266  29.704  26.776  1.00  0.00    -0.200 F 
ATOM     89  C   UNL A   1      46.005  30.375  26.769  1.00  0.00     0.200 A 
ATOM     90  F   UNL A   1      43.719  30.958  26.766  1.00  0.00    -0.200 F 
ATOM     91  F   UNL A   1      46.197  31.059  25.633  1.00  0.00    -0.200 F 
ENDBRANCH  58  81
ENDBRANCH  32  33
ENDBRANCH  24  27
ENDBRANCH  22  23
ENDBRANCH  21  22
ENDBRANCH   1  21
TORSDOF 14
ENDMDL
