MODEL 1
REMARK VINA RESULT:     -13.5      0.000      0.000
REMARK SMILES C[C@@H]1CN(C(=O)NC[C@@H]2CC[C@H](C(=O)NCCCNC(=O)c3ccc(-c4c5nc(c(-c6c(F)c(F)c(F)c(F)c6F)c6ccc([nH]6)c(-c6c(F)c(F)c(F)c(F)c6F)c6nc(c(-c7c(F)c(F)c(F)c(F)c7F)c7ccc4[nH]7)C=C6)C=C5)cc3)O2)CC(C)(C)O1
REMARK SMILES IDX 16 1 15 2 13 3 14 4 12 6 9 7 10 8 85 9 11 10 8 11 7 12 5 13
REMARK SMILES IDX 6 14 4 16 1 17 2 18 3 19 90 20 87 21 86 22 88 23 89 24 17 25
REMARK SMILES IDX 18 26 19 27 20 28 21 30 22 31 23 32 84 33 24 34 83 35 25 36
REMARK SMILES IDX 26 37 27 38 77 39 28 40 82 41 76 42 78 43 29 44 81 45 75 46
REMARK SMILES IDX 74 47 30 49 62 50 42 51 61 52 43 53 46 54 60 55 79 56 44 57
REMARK SMILES IDX 45 58 59 60 80 61 47 62 31 63 32 64 40 65 33 66 34 67 38 68
REMARK SMILES IDX 41 69 35 70 36 71 39 72 37 73 63 74 64 75 72 76 65 77 66 78
REMARK SMILES IDX 70 79 73 80 67 81 68 82 71 83 69 84 48 85 49 86 57 87 50 88
REMARK SMILES IDX 51 89 55 90 58 91 52 92 53 93 56 94 54 95
REMARK H PARENT 15 5 7 15 19 29 78 48 46 59
REMARK Flexibility Score: inf
ROOT
ATOM      1  C   UNL A   1      33.307  29.751  26.923  1.00  0.00     0.117 C 
ENDROOT
BRANCH   1   2
ATOM      2  N   UNL A   1      33.652  29.692  25.527  1.00  0.00    -0.354 N 
ATOM      3  C   UNL A   1      32.876  29.281  24.481  1.00  0.00     0.249 C 
ATOM      4  O   UNL A   1      33.377  29.322  23.353  1.00  0.00    -0.272 OA
ATOM      5  H   UNL A   1      34.563  29.987  25.297  1.00  0.00     0.163 HD
BRANCH   3   6
ATOM      6  C   UNL A   1      31.441  28.739  24.699  1.00  0.00     0.207 C 
ATOM      7  C   UNL A   1      30.212  26.772  24.415  1.00  0.00     0.138 C 
ATOM      8  C   UNL A   1      30.006  27.578  23.144  1.00  0.00     0.037 C 
ATOM      9  O   UNL A   1      31.362  27.354  25.058  1.00  0.00    -0.363 OA
ATOM     10  C   UNL A   1      30.516  28.957  23.507  1.00  0.00     0.045 C 
BRANCH   7  11
ATOM     11  C   UNL A   1      30.438  25.256  24.239  1.00  0.00     0.149 C 
BRANCH  11  12
ATOM     12  N   UNL A   1      30.222  24.468  25.444  1.00  0.00    -0.335 N 
ATOM     13  C   UNL A   1      30.900  23.600  26.214  1.00  0.00     0.317 C 
ATOM     14  O   UNL A   1      30.341  23.330  27.283  1.00  0.00    -0.249 OA
ATOM     15  H   UNL A   1      29.314  24.613  25.798  1.00  0.00     0.165 HD
BRANCH  13  16
ATOM     16  N   UNL A   1      32.094  23.042  25.885  1.00  0.00    -0.319 N 
ATOM     17  C   UNL A   1      32.610  22.578  22.813  1.00  0.00     0.040 C 
ATOM     18  C   UNL A   1      33.308  21.969  24.023  1.00  0.00     0.135 C 
ATOM     19  C   UNL A   1      32.395  21.781  25.235  1.00  0.00     0.153 C 
ATOM     20  O   UNL A   1      34.510  22.654  24.392  1.00  0.00    -0.369 OA
ATOM     21  C   UNL A   1      34.366  23.847  25.182  1.00  0.00     0.081 C 
ATOM     22  C   UNL A   1      33.330  23.701  26.329  1.00  0.00     0.156 C 
ATOM     23  C   UNL A   1      34.034  25.040  24.282  1.00  0.00     0.044 C 
ATOM     24  C   UNL A   1      35.759  24.071  25.795  1.00  0.00     0.044 C 
ENDBRANCH  13  16
ENDBRANCH  11  12
ENDBRANCH   7  11
ENDBRANCH   3   6
ENDBRANCH   1   2
BRANCH   1  25
ATOM     25  C   UNL A   1      33.154  31.181  27.420  1.00  0.00     0.042 C 
BRANCH  25  26
ATOM     26  C   UNL A   1      34.410  31.760  28.052  1.00  0.00     0.118 C 
BRANCH  26  27
ATOM     27  N   UNL A   1      34.259  32.153  29.451  1.00  0.00    -0.352 N 
ATOM     28  C   UNL A   1      35.094  31.959  30.525  1.00  0.00     0.251 C 
ATOM     29  H   UNL A   1      33.426  32.634  29.657  1.00  0.00     0.163 HD
ATOM     30  O   UNL A   1      34.776  32.376  31.639  1.00  0.00    -0.269 OA
BRANCH  28  31
ATOM     31  C   UNL A   1      36.377  31.269  30.342  1.00  0.00     0.039 A 
ATOM     32  C   UNL A   1      36.893  30.453  31.357  1.00  0.00     0.014 A 
ATOM     33  C   UNL A   1      37.085  31.463  29.158  1.00  0.00     0.014 A 
ATOM     34  C   UNL A   1      38.102  29.782  31.153  1.00  0.00     0.010 A 
ATOM     35  C   UNL A   1      38.232  30.728  28.920  1.00  0.00     0.010 A 
ATOM     36  C   UNL A   1      38.766  29.905  29.924  1.00  0.00    -0.014 A 
BRANCH  36  37
ATOM     37  C   UNL A   1      40.086  29.297  29.642  1.00  0.00     0.031 A 
ATOM     38  C   UNL A   1      41.280  30.209  29.593  1.00  0.00     0.074 A 
ATOM     39  C   UNL A   1      40.181  28.008  29.271  1.00  0.00     0.049 A 
ATOM     40  N   UNL A   1      42.453  30.017  29.054  1.00  0.00    -0.248 NA
ATOM     41  C   UNL A   1      41.096  31.549  30.180  1.00  0.00     0.031 C 
ATOM     42  C   UNL A   1      39.085  27.040  29.268  1.00  0.00     0.029 A 
ATOM     43  N   UNL A   1      41.251  27.305  28.775  1.00  0.00    -0.354 N 
ATOM     44  C   UNL A   1      43.131  31.220  29.203  1.00  0.00     0.074 A 
ATOM     45  C   UNL A   1      42.222  32.151  29.832  1.00  0.00     0.031 C 
ATOM     46  C   UNL A   1      39.534  25.872  28.774  1.00  0.00     0.029 A 
ATOM     47  C   UNL A   1      40.931  26.029  28.380  1.00  0.00     0.049 A 
ATOM     48  H   UNL A   1      42.159  27.680  28.709  1.00  0.00     0.167 HD
ATOM     49  C   UNL A   1      44.407  31.512  28.859  1.00  0.00     0.037 A 
ATOM     50  C   UNL A   1      41.678  25.111  27.737  1.00  0.00     0.037 A 
ATOM     51  C   UNL A   1      45.306  30.561  28.264  1.00  0.00     0.049 A 
ATOM     52  C   UNL A   1      43.097  25.461  27.362  1.00  0.00     0.074 A 
ATOM     53  C   UNL A   1      46.631  30.731  27.907  1.00  0.00     0.029 A 
ATOM     54  N   UNL A   1      44.967  29.251  27.954  1.00  0.00    -0.354 N 
ATOM     55  N   UNL A   1      43.743  26.590  27.526  1.00  0.00    -0.248 NA
ATOM     56  C   UNL A   1      43.892  24.408  26.714  1.00  0.00     0.031 C 
ATOM     57  C   UNL A   1      47.085  29.533  27.347  1.00  0.00     0.029 A 
ATOM     58  C   UNL A   1      46.060  28.601  27.408  1.00  0.00     0.049 A 
ATOM     59  H   UNL A   1      44.082  28.846  28.101  1.00  0.00     0.167 HD
ATOM     60  C   UNL A   1      45.029  26.369  27.051  1.00  0.00     0.074 A 
ATOM     61  C   UNL A   1      45.073  24.998  26.589  1.00  0.00     0.031 C 
ATOM     62  C   UNL A   1      46.083  27.220  27.001  1.00  0.00     0.037 A 
BRANCH  49  63
ATOM     63  C   UNL A   1      44.903  32.902  29.127  1.00  0.00     0.064 A 
ATOM     64  C   UNL A   1      45.568  33.226  30.319  1.00  0.00     0.173 A 
ATOM     65  C   UNL A   1      44.752  33.913  28.166  1.00  0.00     0.173 A 
ATOM     66  F   UNL A   1      45.727  32.300  31.277  1.00  0.00    -0.203 F 
ATOM     67  C   UNL A   1      46.040  34.516  30.551  1.00  0.00     0.198 A 
ATOM     68  C   UNL A   1      45.255  35.193  28.387  1.00  0.00     0.198 A 
ATOM     69  F   UNL A   1      44.125  33.659  27.008  1.00  0.00    -0.203 F 
ATOM     70  F   UNL A   1      46.627  34.812  31.719  1.00  0.00    -0.200 F 
ATOM     71  C   UNL A   1      45.892  35.494  29.582  1.00  0.00     0.200 A 
ATOM     72  F   UNL A   1      45.124  36.135  27.443  1.00  0.00    -0.200 F 
ATOM     73  F   UNL A   1      46.359  36.732  29.800  1.00  0.00    -0.200 F 
ENDBRANCH  49  63
BRANCH  50  74
ATOM     74  C   UNL A   1      41.112  23.775  27.409  1.00  0.00     0.064 A 
ATOM     75  C   UNL A   1      41.641  22.611  27.985  1.00  0.00     0.173 A 
ATOM     76  C   UNL A   1      40.056  23.627  26.497  1.00  0.00     0.173 A 
ATOM     77  F   UNL A   1      42.664  22.697  28.849  1.00  0.00    -0.203 F 
ATOM     78  C   UNL A   1      41.161  21.350  27.636  1.00  0.00     0.198 A 
ATOM     79  C   UNL A   1      39.555  22.367  26.174  1.00  0.00     0.198 A 
ATOM     80  F   UNL A   1      39.506  24.707  25.923  1.00  0.00    -0.203 F 
ATOM     81  F   UNL A   1      41.729  20.253  28.154  1.00  0.00    -0.200 F 
ATOM     82  C   UNL A   1      40.117  21.228  26.733  1.00  0.00     0.200 A 
ATOM     83  F   UNL A   1      38.534  22.255  25.313  1.00  0.00    -0.200 F 
ATOM     84  F   UNL A   1      39.659  20.016  26.393  1.00  0.00    -0.200 F 
ENDBRANCH  50  74
BRANCH  62  85
ATOM     85  C   UNL A   1      47.394  26.678  26.515  1.00  0.00     0.064 A 
ATOM     86  C   UNL A   1      47.794  26.792  25.177  1.00  0.00     0.173 A 
ATOM     87  C   UNL A   1      48.293  26.103  27.427  1.00  0.00     0.173 A 
ATOM     88  F   UNL A   1      46.964  27.322  24.267  1.00  0.00    -0.203 F 
ATOM     89  C   UNL A   1      49.044  26.336  24.766  1.00  0.00     0.198 A 
ATOM     90  C   UNL A   1      49.553  25.679  27.019  1.00  0.00     0.198 A 
ATOM     91  F   UNL A   1      47.959  25.980  28.720  1.00  0.00    -0.203 F 
ATOM     92  F   UNL A   1      49.394  26.422  23.475  1.00  0.00    -0.200 F 
ATOM     93  C   UNL A   1      49.926  25.791  25.688  1.00  0.00     0.200 A 
ATOM     94  F   UNL A   1      50.410  25.169  27.915  1.00  0.00    -0.200 F 
ATOM     95  F   UNL A   1      51.135  25.371  25.294  1.00  0.00    -0.200 F 
ENDBRANCH  62  85
ENDBRANCH  36  37
ENDBRANCH  28  31
ENDBRANCH  26  27
ENDBRANCH  25  26
ENDBRANCH   1  25
TORSDOF 13
ENDMDL
MODEL 2
REMARK VINA RESULT:     -13.5      4.900     10.008
REMARK SMILES C[C@@H]1CN(C(=O)NC[C@@H]2CC[C@H](C(=O)NCCCNC(=O)c3ccc(-c4c5nc(c(-c6c(F)c(F)c(F)c(F)c6F)c6ccc([nH]6)c(-c6c(F)c(F)c(F)c(F)c6F)c6nc(c(-c7c(F)c(F)c(F)c(F)c7F)c7ccc4[nH]7)C=C6)C=C5)cc3)O2)CC(C)(C)O1
REMARK SMILES IDX 16 1 15 2 13 3 14 4 12 6 9 7 10 8 85 9 11 10 8 11 7 12 5 13
REMARK SMILES IDX 6 14 4 16 1 17 2 18 3 19 90 20 87 21 86 22 88 23 89 24 17 25
REMARK SMILES IDX 18 26 19 27 20 28 21 30 22 31 23 32 84 33 24 34 83 35 25 36
REMARK SMILES IDX 26 37 27 38 77 39 28 40 82 41 76 42 78 43 29 44 81 45 75 46
REMARK SMILES IDX 74 47 30 49 62 50 42 51 61 52 43 53 46 54 60 55 79 56 44 57
REMARK SMILES IDX 45 58 59 60 80 61 47 62 31 63 32 64 40 65 33 66 34 67 38 68
REMARK SMILES IDX 41 69 35 70 36 71 39 72 37 73 63 74 64 75 72 76 65 77 66 78
REMARK SMILES IDX 70 79 73 80 67 81 68 82 71 83 69 84 48 85 49 86 57 87 50 88
REMARK SMILES IDX 51 89 55 90 58 91 52 92 53 93 56 94 54 95
REMARK H PARENT 15 5 7 15 19 29 78 48 46 59
REMARK Flexibility Score: inf
ROOT
ATOM      1  C   UNL A   1      38.108  21.662  25.695  1.00  0.00     0.117 C 
ENDROOT
BRANCH   1   2
ATOM      2  N   UNL A   1      37.774  22.121  24.373  1.00  0.00    -0.354 N 
ATOM      3  C   UNL A   1      36.580  22.610  23.922  1.00  0.00     0.249 C 
ATOM      4  O   UNL A   1      36.520  22.957  22.739  1.00  0.00    -0.272 OA
ATOM      5  H   UNL A   1      38.499  22.078  23.707  1.00  0.00     0.163 HD
BRANCH   3   6
ATOM      6  C   UNL A   1      35.335  22.684  24.843  1.00  0.00     0.207 C 
ATOM      7  C   UNL A   1      33.241  23.716  24.933  1.00  0.00     0.138 C 
ATOM      8  C   UNL A   1      34.189  24.632  25.688  1.00  0.00     0.037 C 
ATOM      9  O   UNL A   1      34.084  22.841  24.161  1.00  0.00    -0.363 OA
ATOM     10  C   UNL A   1      35.421  23.777  25.901  1.00  0.00     0.045 C 
BRANCH   7  11
ATOM     11  C   UNL A   1      32.222  24.400  23.998  1.00  0.00     0.149 C 
BRANCH  11  12
ATOM     12  N   UNL A   1      32.810  25.066  22.845  1.00  0.00    -0.335 N 
ATOM     13  C   UNL A   1      32.814  26.285  22.280  1.00  0.00     0.317 C 
ATOM     14  O   UNL A   1      33.648  26.421  21.378  1.00  0.00    -0.249 OA
ATOM     15  H   UNL A   1      33.367  24.440  22.327  1.00  0.00     0.165 HD
BRANCH  13  16
ATOM     16  N   UNL A   1      31.989  27.306  22.635  1.00  0.00    -0.319 N 
ATOM     17  C   UNL A   1      29.216  26.481  23.877  1.00  0.00     0.040 C 
ATOM     18  C   UNL A   1      29.660  27.809  23.276  1.00  0.00     0.135 C 
ATOM     19  C   UNL A   1      30.674  27.666  22.141  1.00  0.00     0.153 C 
ATOM     20  O   UNL A   1      30.116  28.752  24.252  1.00  0.00    -0.369 OA
ATOM     21  C   UNL A   1      31.470  28.607  24.718  1.00  0.00     0.081 C 
ATOM     22  C   UNL A   1      32.483  28.319  23.577  1.00  0.00     0.156 C 
ATOM     23  C   UNL A   1      31.542  27.535  25.808  1.00  0.00     0.044 C 
ATOM     24  C   UNL A   1      31.806  29.969  25.349  1.00  0.00     0.044 C 
ENDBRANCH  13  16
ENDBRANCH  11  12
ENDBRANCH   7  11
ENDBRANCH   3   6
ENDBRANCH   1   2
BRANCH   1  25
ATOM     25  C   UNL A   1      39.492  21.036  25.756  1.00  0.00     0.042 C 
BRANCH  25  26
ATOM     26  C   UNL A   1      40.552  21.923  26.390  1.00  0.00     0.118 C 
BRANCH  26  27
ATOM     27  N   UNL A   1      41.695  22.213  25.528  1.00  0.00    -0.352 N 
ATOM     28  C   UNL A   1      42.492  23.330  25.452  1.00  0.00     0.251 C 
ATOM     29  H   UNL A   1      41.933  21.493  24.901  1.00  0.00     0.163 HD
ATOM     30  O   UNL A   1      43.420  23.375  24.644  1.00  0.00    -0.269 OA
BRANCH  28  31
ATOM     31  C   UNL A   1      42.249  24.468  26.349  1.00  0.00     0.039 A 
ATOM     32  C   UNL A   1      42.704  25.747  26.008  1.00  0.00     0.014 A 
ATOM     33  C   UNL A   1      41.585  24.248  27.554  1.00  0.00     0.014 A 
ATOM     34  C   UNL A   1      42.438  26.823  26.860  1.00  0.00     0.010 A 
ATOM     35  C   UNL A   1      41.242  25.324  28.351  1.00  0.00     0.010 A 
ATOM     36  C   UNL A   1      41.690  26.615  28.028  1.00  0.00    -0.014 A 
BRANCH  36  37
ATOM     37  C   UNL A   1      41.423  27.672  29.029  1.00  0.00     0.031 A 
ATOM     38  C   UNL A   1      42.206  27.635  30.311  1.00  0.00     0.074 A 
ATOM     39  C   UNL A   1      40.396  28.525  28.867  1.00  0.00     0.049 A 
ATOM     40  N   UNL A   1      41.954  28.203  31.459  1.00  0.00    -0.248 NA
ATOM     41  C   UNL A   1      43.409  26.782  30.311  1.00  0.00     0.031 C 
ATOM     42  C   UNL A   1      39.562  28.637  27.672  1.00  0.00     0.029 A 
ATOM     43  N   UNL A   1      39.850  29.430  29.743  1.00  0.00    -0.354 N 
ATOM     44  C   UNL A   1      42.941  27.747  32.323  1.00  0.00     0.074 A 
ATOM     45  C   UNL A   1      43.763  26.815  31.586  1.00  0.00     0.031 C 
ATOM     46  C   UNL A   1      38.596  29.545  27.895  1.00  0.00     0.029 A 
ATOM     47  C   UNL A   1      38.715  30.037  29.265  1.00  0.00     0.049 A 
ATOM     48  H   UNL A   1      40.235  29.624  30.628  1.00  0.00     0.167 HD
ATOM     49  C   UNL A   1      43.149  28.093  33.615  1.00  0.00     0.037 A 
ATOM     50  C   UNL A   1      37.851  30.866  29.884  1.00  0.00     0.037 A 
ATOM     51  C   UNL A   1      42.339  29.049  34.321  1.00  0.00     0.049 A 
ATOM     52  C   UNL A   1      38.104  31.234  31.324  1.00  0.00     0.074 A 
ATOM     53  C   UNL A   1      42.476  29.506  35.619  1.00  0.00     0.029 A 
ATOM     54  N   UNL A   1      41.245  29.704  33.774  1.00  0.00    -0.354 N 
ATOM     55  N   UNL A   1      39.051  30.822  32.132  1.00  0.00    -0.248 NA
ATOM     56  C   UNL A   1      37.168  32.187  31.940  1.00  0.00     0.031 C 
ATOM     57  C   UNL A   1      41.443  30.412  35.869  1.00  0.00     0.029 A 
ATOM     58  C   UNL A   1      40.697  30.562  34.710  1.00  0.00     0.049 A 
ATOM     59  H   UNL A   1      40.909  29.577  32.858  1.00  0.00     0.167 HD
ATOM     60  C   UNL A   1      38.857  31.499  33.329  1.00  0.00     0.074 A 
ATOM     61  C   UNL A   1      37.700  32.349  33.144  1.00  0.00     0.031 C 
ATOM     62  C   UNL A   1      39.571  31.430  34.479  1.00  0.00     0.037 A 
BRANCH  49  63
ATOM     63  C   UNL A   1      44.296  27.449  34.336  1.00  0.00     0.064 A 
ATOM     64  C   UNL A   1      44.142  26.234  35.020  1.00  0.00     0.173 A 
ATOM     65  C   UNL A   1      45.574  28.028  34.310  1.00  0.00     0.173 A 
ATOM     66  F   UNL A   1      42.939  25.645  35.089  1.00  0.00    -0.203 F 
ATOM     67  C   UNL A   1      45.218  25.636  35.673  1.00  0.00     0.198 A 
ATOM     68  C   UNL A   1      46.654  27.410  34.934  1.00  0.00     0.198 A 
ATOM     69  F   UNL A   1      45.778  29.189  33.669  1.00  0.00    -0.203 F 
ATOM     70  F   UNL A   1      45.034  24.501  36.362  1.00  0.00    -0.200 F 
ATOM     71  C   UNL A   1      46.474  26.219  35.620  1.00  0.00     0.200 A 
ATOM     72  F   UNL A   1      47.871  27.968  34.871  1.00  0.00    -0.200 F 
ATOM     73  F   UNL A   1      47.511  25.636  36.237  1.00  0.00    -0.200 F 
ENDBRANCH  49  63
BRANCH  50  74
ATOM     74  C   UNL A   1      36.674  31.409  29.154  1.00  0.00     0.064 A 
ATOM     75  C   UNL A   1      36.642  32.748  28.740  1.00  0.00     0.173 A 
ATOM     76  C   UNL A   1      35.548  30.618  28.880  1.00  0.00     0.173 A 
ATOM     77  F   UNL A   1      37.686  33.551  28.994  1.00  0.00    -0.203 F 
ATOM     78  C   UNL A   1      35.519  33.284  28.113  1.00  0.00     0.198 A 
ATOM     79  C   UNL A   1      34.438  31.146  28.224  1.00  0.00     0.198 A 
ATOM     80  F   UNL A   1      35.528  29.327  29.246  1.00  0.00    -0.203 F 
ATOM     81  F   UNL A   1      35.493  34.583  27.787  1.00  0.00    -0.200 F 
ATOM     82  C   UNL A   1      34.418  32.483  27.853  1.00  0.00     0.200 A 
ATOM     83  F   UNL A   1      33.383  30.363  27.960  1.00  0.00    -0.200 F 
ATOM     84  F   UNL A   1      33.336  32.999  27.256  1.00  0.00    -0.200 F 
ENDBRANCH  50  74
BRANCH  62  85
ATOM     85  C   UNL A   1      39.183  32.352  35.596  1.00  0.00     0.064 A 
ATOM     86  C   UNL A   1      38.348  31.941  36.642  1.00  0.00     0.173 A 
ATOM     87  C   UNL A   1      39.726  33.646  35.653  1.00  0.00     0.173 A 
ATOM     88  F   UNL A   1      37.795  30.719  36.625  1.00  0.00    -0.203 F 
ATOM     89  C   UNL A   1      38.056  32.799  37.700  1.00  0.00     0.198 A 
ATOM     90  C   UNL A   1      39.458  34.488  36.727  1.00  0.00     0.198 A 
ATOM     91  F   UNL A   1      40.539  34.082  34.679  1.00  0.00    -0.203 F 
ATOM     92  F   UNL A   1      37.225  32.400  38.673  1.00  0.00    -0.200 F 
ATOM     93  C   UNL A   1      38.619  34.066  37.747  1.00  0.00     0.200 A 
ATOM     94  F   UNL A   1      40.019  35.704  36.779  1.00  0.00    -0.200 F 
ATOM     95  F   UNL A   1      38.353  34.882  38.776  1.00  0.00    -0.200 F 
ENDBRANCH  62  85
ENDBRANCH  36  37
ENDBRANCH  28  31
ENDBRANCH  26  27
ENDBRANCH  25  26
ENDBRANCH   1  25
TORSDOF 13
ENDMDL
MODEL 3
REMARK VINA RESULT:     -13.4      4.771      8.921
REMARK SMILES C[C@@H]1CN(C(=O)NC[C@@H]2CC[C@H](C(=O)NCCCNC(=O)c3ccc(-c4c5nc(c(-c6c(F)c(F)c(F)c(F)c6F)c6ccc([nH]6)c(-c6c(F)c(F)c(F)c(F)c6F)c6nc(c(-c7c(F)c(F)c(F)c(F)c7F)c7ccc4[nH]7)C=C6)C=C5)cc3)O2)CC(C)(C)O1
REMARK SMILES IDX 16 1 15 2 13 3 14 4 12 6 9 7 10 8 85 9 11 10 8 11 7 12 5 13
REMARK SMILES IDX 6 14 4 16 1 17 2 18 3 19 90 20 87 21 86 22 88 23 89 24 17 25
REMARK SMILES IDX 18 26 19 27 20 28 21 30 22 31 23 32 84 33 24 34 83 35 25 36
REMARK SMILES IDX 26 37 27 38 77 39 28 40 82 41 76 42 78 43 29 44 81 45 75 46
REMARK SMILES IDX 74 47 30 49 62 50 42 51 61 52 43 53 46 54 60 55 79 56 44 57
REMARK SMILES IDX 45 58 59 60 80 61 47 62 31 63 32 64 40 65 33 66 34 67 38 68
REMARK SMILES IDX 41 69 35 70 36 71 39 72 37 73 63 74 64 75 72 76 65 77 66 78
REMARK SMILES IDX 70 79 73 80 67 81 68 82 71 83 69 84 48 85 49 86 57 87 50 88
REMARK SMILES IDX 51 89 55 90 58 91 52 92 53 93 56 94 54 95
REMARK H PARENT 15 5 7 15 19 29 78 48 46 59
REMARK Flexibility Score: inf
ROOT
ATOM      1  C   UNL A   1      32.053  30.462  26.976  1.00  0.00     0.117 C 
ENDROOT
BRANCH   1   2
ATOM      2  N   UNL A   1      32.898  30.063  25.881  1.00  0.00    -0.354 N 
ATOM      3  C   UNL A   1      32.562  29.337  24.774  1.00  0.00     0.249 C 
ATOM      4  O   UNL A   1      33.453  29.116  23.949  1.00  0.00    -0.272 OA
ATOM      5  H   UNL A   1      33.838  30.350  25.937  1.00  0.00     0.163 HD
BRANCH   3   6
ATOM      6  C   UNL A   1      31.132  28.772  24.578  1.00  0.00     0.207 C 
ATOM      7  C   UNL A   1      30.064  26.764  24.043  1.00  0.00     0.138 C 
ATOM      8  C   UNL A   1      30.244  27.502  22.727  1.00  0.00     0.037 C 
ATOM      9  O   UNL A   1      30.961  27.404  24.970  1.00  0.00    -0.363 OA
ATOM     10  C   UNL A   1      30.609  28.909  23.153  1.00  0.00     0.045 C 
BRANCH   7  11
ATOM     11  C   UNL A   1      30.345  25.247  24.024  1.00  0.00     0.149 C 
BRANCH  11  12
ATOM     12  N   UNL A   1      30.169  24.583  25.308  1.00  0.00    -0.335 N 
ATOM     13  C   UNL A   1      30.866  23.782  26.131  1.00  0.00     0.317 C 
ATOM     14  O   UNL A   1      30.348  23.625  27.242  1.00  0.00    -0.249 OA
ATOM     15  H   UNL A   1      29.278  24.777  25.682  1.00  0.00     0.165 HD
BRANCH  13  16
ATOM     16  N   UNL A   1      32.038  23.173  25.811  1.00  0.00    -0.319 N 
ATOM     17  C   UNL A   1      32.447  22.462  22.770  1.00  0.00     0.040 C 
ATOM     18  C   UNL A   1      33.171  21.933  24.002  1.00  0.00     0.135 C 
ATOM     19  C   UNL A   1      32.292  21.859  25.252  1.00  0.00     0.153 C 
ATOM     20  O   UNL A   1      34.397  22.617  24.281  1.00  0.00    -0.369 OA
ATOM     21  C   UNL A   1      34.302  23.871  24.980  1.00  0.00     0.081 C 
ATOM     22  C   UNL A   1      33.300  23.837  26.165  1.00  0.00     0.156 C 
ATOM     23  C   UNL A   1      33.966  24.998  24.000  1.00  0.00     0.044 C 
ATOM     24  C   UNL A   1      35.717  24.110  25.532  1.00  0.00     0.044 C 
ENDBRANCH  13  16
ENDBRANCH  11  12
ENDBRANCH   7  11
ENDBRANCH   3   6
ENDBRANCH   1   2
BRANCH   1  25
ATOM     25  C   UNL A   1      31.632  31.921  26.877  1.00  0.00     0.042 C 
BRANCH  25  26
ATOM     26  C   UNL A   1      32.777  32.912  27.018  1.00  0.00     0.118 C 
BRANCH  26  27
ATOM     27  N   UNL A   1      32.408  34.179  27.644  1.00  0.00    -0.352 N 
ATOM     28  C   UNL A   1      32.980  34.851  28.697  1.00  0.00     0.251 C 
ATOM     29  H   UNL A   1      31.624  34.624  27.247  1.00  0.00     0.163 HD
ATOM     30  O   UNL A   1      32.509  35.924  29.076  1.00  0.00    -0.269 OA
BRANCH  28  31
ATOM     31  C   UNL A   1      34.167  34.300  29.363  1.00  0.00     0.039 A 
ATOM     32  C   UNL A   1      34.032  33.508  30.509  1.00  0.00     0.014 A 
ATOM     33  C   UNL A   1      35.428  34.600  28.852  1.00  0.00     0.014 A 
ATOM     34  C   UNL A   1      35.172  32.968  31.112  1.00  0.00     0.010 A 
ATOM     35  C   UNL A   1      36.546  33.992  29.392  1.00  0.00     0.010 A 
ATOM     36  C   UNL A   1      36.433  33.196  30.542  1.00  0.00    -0.014 A 
BRANCH  36  37
ATOM     37  C   UNL A   1      37.701  32.733  31.148  1.00  0.00     0.031 A 
ATOM     38  C   UNL A   1      38.429  31.606  30.470  1.00  0.00     0.074 A 
ATOM     39  C   UNL A   1      38.091  33.186  32.353  1.00  0.00     0.049 A 
ATOM     40  N   UNL A   1      39.343  30.801  30.941  1.00  0.00    -0.248 NA
ATOM     41  C   UNL A   1      38.018  31.308  29.086  1.00  0.00     0.031 C 
ATOM     42  C   UNL A   1      37.451  34.264  33.105  1.00  0.00     0.029 A 
ATOM     43  N   UNL A   1      39.099  32.754  33.178  1.00  0.00    -0.354 N 
ATOM     44  C   UNL A   1      39.586  29.882  29.928  1.00  0.00     0.074 A 
ATOM     45  C   UNL A   1      38.687  30.193  28.840  1.00  0.00     0.031 C 
ATOM     46  C   UNL A   1      38.069  34.397  34.291  1.00  0.00     0.029 A 
ATOM     47  C   UNL A   1      39.112  33.381  34.400  1.00  0.00     0.049 A 
ATOM     48  H   UNL A   1      39.749  32.061  32.919  1.00  0.00     0.167 HD
ATOM     49  C   UNL A   1      40.493  28.878  29.907  1.00  0.00     0.037 A 
ATOM     50  C   UNL A   1      39.859  33.129  35.493  1.00  0.00     0.037 A 
ATOM     51  C   UNL A   1      41.401  28.606  30.988  1.00  0.00     0.049 A 
ATOM     52  C   UNL A   1      40.861  32.003  35.445  1.00  0.00     0.074 A 
ATOM     53  C   UNL A   1      42.388  27.640  31.065  1.00  0.00     0.029 A 
ATOM     54  N   UNL A   1      41.437  29.318  32.178  1.00  0.00    -0.354 N 
ATOM     55  N   UNL A   1      41.107  31.153  34.478  1.00  0.00    -0.248 NA
ATOM     56  C   UNL A   1      41.694  31.804  36.640  1.00  0.00     0.031 C 
ATOM     57  C   UNL A   1      42.998  27.745  32.318  1.00  0.00     0.029 A 
ATOM     58  C   UNL A   1      42.430  28.811  32.997  1.00  0.00     0.049 A 
ATOM     59  H   UNL A   1      40.844  30.070  32.406  1.00  0.00     0.167 HD
ATOM     60  C   UNL A   1      42.151  30.354  34.925  1.00  0.00     0.074 A 
ATOM     61  C   UNL A   1      42.492  30.819  36.252  1.00  0.00     0.031 C 
ATOM     62  C   UNL A   1      42.776  29.328  34.296  1.00  0.00     0.037 A 
BRANCH  49  63
ATOM     63  C   UNL A   1      40.555  28.017  28.680  1.00  0.00     0.064 A 
ATOM     64  C   UNL A   1      41.344  28.371  27.575  1.00  0.00     0.173 A 
ATOM     65  C   UNL A   1      39.853  26.804  28.622  1.00  0.00     0.173 A 
ATOM     66  F   UNL A   1      42.023  29.527  27.573  1.00  0.00    -0.203 F 
ATOM     67  C   UNL A   1      41.407  27.555  26.447  1.00  0.00     0.198 A 
ATOM     68  C   UNL A   1      39.946  25.974  27.507  1.00  0.00     0.198 A 
ATOM     69  F   UNL A   1      39.085  26.415  29.651  1.00  0.00    -0.203 F 
ATOM     70  F   UNL A   1      42.128  27.940  25.385  1.00  0.00    -0.200 F 
ATOM     71  C   UNL A   1      40.717  26.354  26.419  1.00  0.00     0.200 A 
ATOM     72  F   UNL A   1      39.289  24.806  27.486  1.00  0.00    -0.200 F 
ATOM     73  F   UNL A   1      40.789  25.564  25.339  1.00  0.00    -0.200 F 
ENDBRANCH  49  63
BRANCH  50  74
ATOM     74  C   UNL A   1      39.697  33.953  36.721  1.00  0.00     0.064 A 
ATOM     75  C   UNL A   1      38.882  33.517  37.775  1.00  0.00     0.173 A 
ATOM     76  C   UNL A   1      40.323  35.201  36.858  1.00  0.00     0.173 A 
ATOM     77  F   UNL A   1      38.246  32.339  37.685  1.00  0.00    -0.203 F 
ATOM     78  C   UNL A   1      38.672  34.309  38.902  1.00  0.00     0.198 A 
ATOM     79  C   UNL A   1      40.138  35.979  38.000  1.00  0.00     0.198 A 
ATOM     80  F   UNL A   1      41.121  35.664  35.884  1.00  0.00    -0.203 F 
ATOM     81  F   UNL A   1      37.838  33.893  39.864  1.00  0.00    -0.200 F 
ATOM     82  C   UNL A   1      39.302  35.539  39.015  1.00  0.00     0.200 A 
ATOM     83  F   UNL A   1      40.763  37.159  38.113  1.00  0.00    -0.200 F 
ATOM     84  F   UNL A   1      39.095  36.303  40.096  1.00  0.00    -0.200 F 
ENDBRANCH  50  74
BRANCH  62  85
ATOM     85  C   UNL A   1      43.945  28.695  34.990  1.00  0.00     0.064 A 
ATOM     86  C   UNL A   1      45.251  29.175  34.832  1.00  0.00     0.173 A 
ATOM     87  C   UNL A   1      43.734  27.639  35.890  1.00  0.00     0.173 A 
ATOM     88  F   UNL A   1      45.504  30.174  33.973  1.00  0.00    -0.203 F 
ATOM     89  C   UNL A   1      46.310  28.609  35.538  1.00  0.00     0.198 A 
ATOM     90  C   UNL A   1      44.788  27.097  36.618  1.00  0.00     0.198 A 
ATOM     91  F   UNL A   1      42.500  27.151  36.083  1.00  0.00    -0.203 F 
ATOM     92  F   UNL A   1      47.557  29.058  35.345  1.00  0.00    -0.200 F 
ATOM     93  C   UNL A   1      46.076  27.579  36.437  1.00  0.00     0.200 A 
ATOM     94  F   UNL A   1      44.557  26.115  37.500  1.00  0.00    -0.200 F 
ATOM     95  F   UNL A   1      47.092  27.049  37.131  1.00  0.00    -0.200 F 
ENDBRANCH  62  85
ENDBRANCH  36  37
ENDBRANCH  28  31
ENDBRANCH  26  27
ENDBRANCH  25  26
ENDBRANCH   1  25
TORSDOF 13
ENDMDL
