MODEL 1
REMARK VINA RESULT:     -12.2      0.000      0.000
REMARK SMILES Cc1noc(C)c1COc1ccc(C(=O)NCCCNC(=O)c2ccc(-c3c4nc(c(-c5c(F)c(F)c(F)c(F)c5F)c5ccc([nH]5)c(-c5c(F)c(F)c(F)c(F)c5F)c5nc(c(-c6c(F)c(F)c(F)c(F)c6F)c6ccc3[nH]6)C=C5)C=C4)cc2)cc1
REMARK SMILES IDX 17 1 16 2 14 3 15 4 13 6 10 7 11 8 87 9 12 10 86 11 9 12
REMARK SMILES IDX 8 13 7 14 1 15 2 16 3 17 4 18 5 19 6 20 18 21 19 22 20 23
REMARK SMILES IDX 21 24 22 26 23 27 24 28 85 29 25 30 84 31 26 32 27 33 28 34
REMARK SMILES IDX 78 35 29 36 83 37 77 38 79 39 30 40 82 41 76 42 75 43 31 45
REMARK SMILES IDX 63 46 43 47 62 48 44 49 47 50 61 51 80 52 45 53 46 54 60 56
REMARK SMILES IDX 81 57 48 58 32 59 33 60 41 61 34 62 35 63 39 64 42 65 36 66
REMARK SMILES IDX 37 67 40 68 38 69 64 70 65 71 73 72 66 73 67 74 71 75 74 76
REMARK SMILES IDX 68 77 69 78 72 79 70 80 49 81 50 82 58 83 51 84 52 85 56 86
REMARK SMILES IDX 59 87 53 88 54 89 57 90 55 91
REMARK H PARENT 16 5 20 25 79 44 47 55
REMARK Flexibility Score: inf
ROOT
ATOM      1  C   UNL A   1      31.472  30.812  26.253  1.00  0.00     0.118 C 
ENDROOT
BRANCH   1   2
ATOM      2  N   UNL A   1      31.025  30.464  24.913  1.00  0.00    -0.352 N 
ATOM      3  C   UNL A   1      31.088  29.278  24.222  1.00  0.00     0.251 C 
ATOM      4  O   UNL A   1      30.500  29.190  23.146  1.00  0.00    -0.269 OA
ATOM      5  H   UNL A   1      30.606  31.205  24.417  1.00  0.00     0.163 HD
BRANCH   3   6
ATOM      6  C   UNL A   1      31.809  28.095  24.755  1.00  0.00     0.040 A 
ATOM      7  C   UNL A   1      33.098  25.863  25.839  1.00  0.00     0.119 A 
ATOM      8  C   UNL A   1      31.722  26.006  25.999  1.00  0.00     0.047 A 
ATOM      9  C   UNL A   1      33.809  26.774  25.065  1.00  0.00     0.047 A 
ATOM     10  C   UNL A   1      31.077  27.125  25.458  1.00  0.00     0.017 A 
ATOM     11  C   UNL A   1      33.166  27.881  24.521  1.00  0.00     0.017 A 
BRANCH   7  12
ATOM     12  O   UNL A   1      33.730  24.766  26.360  1.00  0.00    -0.489 OA
BRANCH  12  13
ATOM     13  C   UNL A   1      33.322  23.548  25.704  1.00  0.00     0.271 C 
BRANCH  13  14
ATOM     14  C   UNL A   1      33.675  23.483  24.257  1.00  0.00     0.055 A 
ATOM     15  C   UNL A   1      31.339  23.735  23.101  1.00  0.00     0.071 C 
ATOM     16  C   UNL A   1      32.811  23.559  23.127  1.00  0.00     0.087 A 
ATOM     17  N   UNL A   1      33.498  23.505  21.981  1.00  0.00    -0.085 NA
ATOM     18  O   UNL A   1      34.825  23.386  22.341  1.00  0.00    -0.361 OA
ATOM     19  C   UNL A   1      34.931  23.378  23.694  1.00  0.00     0.140 A 
ATOM     20  C   UNL A   1      36.299  23.282  24.239  1.00  0.00     0.091 C 
ENDBRANCH  13  14
ENDBRANCH  12  13
ENDBRANCH   7  12
ENDBRANCH   3   6
ENDBRANCH   1   2
BRANCH   1  21
ATOM     21  C   UNL A   1      31.392  32.316  26.509  1.00  0.00     0.042 C 
BRANCH  21  22
ATOM     22  C   UNL A   1      32.638  32.895  27.168  1.00  0.00     0.118 C 
BRANCH  22  23
ATOM     23  N   UNL A   1      32.428  34.252  27.647  1.00  0.00    -0.352 N 
ATOM     24  C   UNL A   1      33.027  34.919  28.688  1.00  0.00     0.251 C 
ATOM     25  H   UNL A   1      31.754  34.771  27.151  1.00  0.00     0.163 HD
ATOM     26  O   UNL A   1      32.573  35.997  29.058  1.00  0.00    -0.269 OA
BRANCH  24  27
ATOM     27  C   UNL A   1      34.207  34.346  29.373  1.00  0.00     0.039 A 
ATOM     28  C   UNL A   1      34.014  33.636  30.563  1.00  0.00     0.014 A 
ATOM     29  C   UNL A   1      35.500  34.543  28.883  1.00  0.00     0.014 A 
ATOM     30  C   UNL A   1      35.110  33.083  31.232  1.00  0.00     0.010 A 
ATOM     31  C   UNL A   1      36.583  33.932  29.509  1.00  0.00     0.010 A 
ATOM     32  C   UNL A   1      36.401  33.205  30.696  1.00  0.00    -0.014 A 
BRANCH  32  33
ATOM     33  C   UNL A   1      37.581  32.604  31.369  1.00  0.00     0.031 A 
ATOM     34  C   UNL A   1      38.315  31.465  30.717  1.00  0.00     0.074 A 
ATOM     35  C   UNL A   1      37.942  33.031  32.594  1.00  0.00     0.049 A 
ATOM     36  N   UNL A   1      39.289  30.728  31.188  1.00  0.00    -0.248 NA
ATOM     37  C   UNL A   1      37.875  31.086  29.366  1.00  0.00     0.031 C 
ATOM     38  C   UNL A   1      37.290  34.104  33.342  1.00  0.00     0.029 A 
ATOM     39  N   UNL A   1      38.940  32.598  33.433  1.00  0.00    -0.354 N 
ATOM     40  C   UNL A   1      39.561  29.788  30.204  1.00  0.00     0.074 A 
ATOM     41  C   UNL A   1      38.620  30.016  29.128  1.00  0.00     0.031 C 
ATOM     42  C   UNL A   1      37.909  34.255  34.525  1.00  0.00     0.029 A 
ATOM     43  C   UNL A   1      38.975  33.264  34.634  1.00  0.00     0.049 A 
ATOM     44  H   UNL A   1      39.569  31.880  33.196  1.00  0.00     0.167 HD
ATOM     45  C   UNL A   1      40.521  28.832  30.189  1.00  0.00     0.037 A 
ATOM     46  C   UNL A   1      39.768  33.083  35.707  1.00  0.00     0.037 A 
ATOM     47  C   UNL A   1      41.474  28.628  31.248  1.00  0.00     0.049 A 
ATOM     48  C   UNL A   1      40.825  32.012  35.668  1.00  0.00     0.074 A 
ATOM     49  C   UNL A   1      42.520  27.725  31.307  1.00  0.00     0.029 A 
ATOM     50  N   UNL A   1      41.496  29.343  32.437  1.00  0.00    -0.354 N 
ATOM     51  N   UNL A   1      41.108  31.164  34.710  1.00  0.00    -0.248 NA
ATOM     52  C   UNL A   1      41.675  31.877  36.859  1.00  0.00     0.031 C 
ATOM     53  C   UNL A   1      43.149  27.864  32.548  1.00  0.00     0.029 A 
ATOM     54  C   UNL A   1      42.528  28.889  33.242  1.00  0.00     0.049 A 
ATOM     55  H   UNL A   1      40.871  30.066  32.673  1.00  0.00     0.167 HD
ATOM     56  C   UNL A   1      42.188  30.420  35.164  1.00  0.00     0.074 A 
ATOM     57  C   UNL A   1      42.515  30.921  36.483  1.00  0.00     0.031 C 
ATOM     58  C   UNL A   1      42.850  29.413  34.545  1.00  0.00     0.037 A 
BRANCH  45  59
ATOM     59  C   UNL A   1      40.589  27.931  28.989  1.00  0.00     0.064 A 
ATOM     60  C   UNL A   1      41.441  28.206  27.909  1.00  0.00     0.173 A 
ATOM     61  C   UNL A   1      39.817  26.760  28.933  1.00  0.00     0.173 A 
ATOM     62  F   UNL A   1      42.192  29.318  27.908  1.00  0.00    -0.203 F 
ATOM     63  C   UNL A   1      41.497  27.359  26.806  1.00  0.00     0.198 A 
ATOM     64  C   UNL A   1      39.898  25.899  27.842  1.00  0.00     0.198 A 
ATOM     65  F   UNL A   1      38.990  26.446  29.942  1.00  0.00    -0.203 F 
ATOM     66  F   UNL A   1      42.281  27.669  25.765  1.00  0.00    -0.200 F 
ATOM     67  C   UNL A   1      40.731  26.203  26.776  1.00  0.00     0.200 A 
ATOM     68  F   UNL A   1      39.168  24.775  27.821  1.00  0.00    -0.200 F 
ATOM     69  F   UNL A   1      40.791  25.385  25.716  1.00  0.00    -0.200 F 
ENDBRANCH  45  59
BRANCH  46  70
ATOM     70  C   UNL A   1      39.607  33.951  36.902  1.00  0.00     0.064 A 
ATOM     71  C   UNL A   1      40.245  35.198  36.975  1.00  0.00     0.173 A 
ATOM     72  C   UNL A   1      38.819  33.557  37.993  1.00  0.00     0.173 A 
ATOM     73  F   UNL A   1      41.026  35.609  35.966  1.00  0.00    -0.203 F 
ATOM     74  C   UNL A   1      40.117  36.008  38.101  1.00  0.00     0.198 A 
ATOM     75  C   UNL A   1      38.668  34.380  39.107  1.00  0.00     0.198 A 
ATOM     76  F   UNL A   1      38.184  32.376  37.971  1.00  0.00    -0.203 F 
ATOM     77  F   UNL A   1      40.773  37.173  38.163  1.00  0.00    -0.200 F 
ATOM     78  C   UNL A   1      39.324  35.601  39.164  1.00  0.00     0.200 A 
ATOM     79  F   UNL A   1      37.891  33.990  40.126  1.00  0.00    -0.200 F 
ATOM     80  F   UNL A   1      39.198  36.381  40.246  1.00  0.00    -0.200 F 
ENDBRANCH  46  70
BRANCH  58  81
ATOM     81  C   UNL A   1      44.028  28.818  35.260  1.00  0.00     0.064 A 
ATOM     82  C   UNL A   1      43.890  27.722  36.124  1.00  0.00     0.173 A 
ATOM     83  C   UNL A   1      45.319  29.317  35.031  1.00  0.00     0.173 A 
ATOM     84  F   UNL A   1      42.675  27.218  36.387  1.00  0.00    -0.203 F 
ATOM     85  C   UNL A   1      45.001  27.162  36.750  1.00  0.00     0.198 A 
ATOM     86  C   UNL A   1      46.430  28.737  35.635  1.00  0.00     0.198 A 
ATOM     87  F   UNL A   1      45.504  30.360  34.207  1.00  0.00    -0.203 F 
ATOM     88  F   UNL A   1      44.841  26.142  37.605  1.00  0.00    -0.200 F 
ATOM     89  C   UNL A   1      46.270  27.664  36.498  1.00  0.00     0.200 A 
ATOM     90  F   UNL A   1      47.656  29.214  35.380  1.00  0.00    -0.200 F 
ATOM     91  F   UNL A   1      47.337  27.115  37.094  1.00  0.00    -0.200 F 
ENDBRANCH  58  81
ENDBRANCH  32  33
ENDBRANCH  24  27
ENDBRANCH  22  23
ENDBRANCH  21  22
ENDBRANCH   1  21
TORSDOF 13
ENDMDL
MODEL 2
REMARK VINA RESULT:     -12.1      1.367      2.594
REMARK SMILES Cc1noc(C)c1COc1ccc(C(=O)NCCCNC(=O)c2ccc(-c3c4nc(c(-c5c(F)c(F)c(F)c(F)c5F)c5ccc([nH]5)c(-c5c(F)c(F)c(F)c(F)c5F)c5nc(c(-c6c(F)c(F)c(F)c(F)c6F)c6ccc3[nH]6)C=C5)C=C4)cc2)cc1
REMARK SMILES IDX 17 1 16 2 14 3 15 4 13 6 10 7 11 8 87 9 12 10 86 11 9 12
REMARK SMILES IDX 8 13 7 14 1 15 2 16 3 17 4 18 5 19 6 20 18 21 19 22 20 23
REMARK SMILES IDX 21 24 22 26 23 27 24 28 85 29 25 30 84 31 26 32 27 33 28 34
REMARK SMILES IDX 78 35 29 36 83 37 77 38 79 39 30 40 82 41 76 42 75 43 31 45
REMARK SMILES IDX 63 46 43 47 62 48 44 49 47 50 61 51 80 52 45 53 46 54 60 56
REMARK SMILES IDX 81 57 48 58 32 59 33 60 41 61 34 62 35 63 39 64 42 65 36 66
REMARK SMILES IDX 37 67 40 68 38 69 64 70 65 71 73 72 66 73 67 74 71 75 74 76
REMARK SMILES IDX 68 77 69 78 72 79 70 80 49 81 50 82 58 83 51 84 52 85 56 86
REMARK SMILES IDX 59 87 53 88 54 89 57 90 55 91
REMARK H PARENT 16 5 20 25 79 44 47 55
REMARK Flexibility Score: inf
ROOT
ATOM      1  C   UNL A   1      31.775  30.553  26.869  1.00  0.00     0.118 C 
ENDROOT
BRANCH   1   2
ATOM      2  N   UNL A   1      33.022  30.215  27.538  1.00  0.00    -0.352 N 
ATOM      3  C   UNL A   1      34.022  29.340  27.190  1.00  0.00     0.251 C 
ATOM      4  O   UNL A   1      35.061  29.339  27.847  1.00  0.00    -0.269 OA
ATOM      5  H   UNL A   1      33.175  30.694  28.385  1.00  0.00     0.163 HD
BRANCH   3   6
ATOM      6  C   UNL A   1      33.900  28.430  26.023  1.00  0.00     0.040 A 
ATOM      7  C   UNL A   1      33.629  26.796  23.769  1.00  0.00     0.119 A 
ATOM      8  C   UNL A   1      33.896  28.154  23.606  1.00  0.00     0.047 A 
ATOM      9  C   UNL A   1      33.592  26.241  25.044  1.00  0.00     0.047 A 
ATOM     10  C   UNL A   1      34.028  28.971  24.734  1.00  0.00     0.017 A 
ATOM     11  C   UNL A   1      33.733  27.053  26.165  1.00  0.00     0.017 A 
BRANCH   7  12
ATOM     12  O   UNL A   1      33.506  25.993  22.669  1.00  0.00    -0.489 OA
BRANCH  12  13
ATOM     13  C   UNL A   1      32.346  26.333  21.882  1.00  0.00     0.271 C 
BRANCH  13  14
ATOM     14  C   UNL A   1      31.080  26.426  22.664  1.00  0.00     0.055 A 
ATOM     15  C   UNL A   1      30.430  28.946  22.371  1.00  0.00     0.071 C 
ATOM     16  C   UNL A   1      30.252  27.564  22.880  1.00  0.00     0.087 A 
ATOM     17  N   UNL A   1      29.171  27.253  23.604  1.00  0.00    -0.085 NA
ATOM     18  O   UNL A   1      29.277  25.905  23.880  1.00  0.00    -0.361 OA
ATOM     19  C   UNL A   1      30.409  25.412  23.316  1.00  0.00     0.140 A 
ATOM     20  C   UNL A   1      30.653  23.968  23.501  1.00  0.00     0.091 C 
ENDBRANCH  13  14
ENDBRANCH  12  13
ENDBRANCH   7  12
ENDBRANCH   3   6
ENDBRANCH   1   2
BRANCH   1  21
ATOM     21  C   UNL A   1      31.514  32.059  26.877  1.00  0.00     0.042 C 
BRANCH  21  22
ATOM     22  C   UNL A   1      32.773  32.901  27.039  1.00  0.00     0.118 C 
BRANCH  22  23
ATOM     23  N   UNL A   1      32.493  34.203  27.625  1.00  0.00    -0.352 N 
ATOM     24  C   UNL A   1      33.037  34.801  28.735  1.00  0.00     0.251 C 
ATOM     25  H   UNL A   1      31.812  34.735  27.155  1.00  0.00     0.163 HD
ATOM     26  O   UNL A   1      32.528  35.825  29.182  1.00  0.00    -0.269 OA
BRANCH  24  27
ATOM     27  C   UNL A   1      34.222  34.219  29.405  1.00  0.00     0.039 A 
ATOM     28  C   UNL A   1      34.027  33.387  30.512  1.00  0.00     0.014 A 
ATOM     29  C   UNL A   1      35.518  34.524  28.983  1.00  0.00     0.014 A 
ATOM     30  C   UNL A   1      35.127  32.823  31.163  1.00  0.00     0.010 A 
ATOM     31  C   UNL A   1      36.610  33.906  29.586  1.00  0.00     0.010 A 
ATOM     32  C   UNL A   1      36.427  33.057  30.689  1.00  0.00    -0.014 A 
BRANCH  32  33
ATOM     33  C   UNL A   1      37.614  32.449  31.343  1.00  0.00     0.031 A 
ATOM     34  C   UNL A   1      38.362  31.341  30.655  1.00  0.00     0.074 A 
ATOM     35  C   UNL A   1      37.969  32.839  32.582  1.00  0.00     0.049 A 
ATOM     36  N   UNL A   1      39.345  30.600  31.102  1.00  0.00    -0.248 NA
ATOM     37  C   UNL A   1      37.927  31.001  29.292  1.00  0.00     0.031 C 
ATOM     38  C   UNL A   1      37.304  33.880  33.365  1.00  0.00     0.029 A 
ATOM     39  N   UNL A   1      38.971  32.391  33.407  1.00  0.00    -0.354 N 
ATOM     40  C   UNL A   1      39.628  29.696  30.088  1.00  0.00     0.074 A 
ATOM     41  C   UNL A   1      38.685  29.949  29.020  1.00  0.00     0.031 C 
ATOM     42  C   UNL A   1      37.920  33.999  34.552  1.00  0.00     0.029 A 
ATOM     43  C   UNL A   1      38.998  33.017  34.630  1.00  0.00     0.049 A 
ATOM     44  H   UNL A   1      39.610  31.689  33.148  1.00  0.00     0.167 HD
ATOM     45  C   UNL A   1      40.599  28.753  30.043  1.00  0.00     0.037 A 
ATOM     46  C   UNL A   1      39.793  32.811  35.697  1.00  0.00     0.037 A 
ATOM     47  C   UNL A   1      41.554  28.526  31.095  1.00  0.00     0.049 A 
ATOM     48  C   UNL A   1      40.862  31.755  35.623  1.00  0.00     0.074 A 
ATOM     49  C   UNL A   1      42.611  27.634  31.125  1.00  0.00     0.029 A 
ATOM     50  N   UNL A   1      41.567  29.202  32.307  1.00  0.00    -0.354 N 
ATOM     51  N   UNL A   1      41.156  30.942  34.638  1.00  0.00    -0.248 NA
ATOM     52  C   UNL A   1      41.714  31.590  36.811  1.00  0.00     0.031 C 
ATOM     53  C   UNL A   1      43.238  27.739  32.371  1.00  0.00     0.029 A 
ATOM     54  C   UNL A   1      42.604  28.733  33.098  1.00  0.00     0.049 A 
ATOM     55  H   UNL A   1      40.933  29.909  32.567  1.00  0.00     0.167 HD
ATOM     56  C   UNL A   1      42.244  30.196  35.069  1.00  0.00     0.074 A 
ATOM     57  C   UNL A   1      42.565  30.657  36.404  1.00  0.00     0.031 C 
ATOM     58  C   UNL A   1      42.919  29.218  34.418  1.00  0.00     0.037 A 
BRANCH  45  59
ATOM     59  C   UNL A   1      40.679  27.893  28.814  1.00  0.00     0.064 A 
ATOM     60  C   UNL A   1      39.947  26.701  28.701  1.00  0.00     0.173 A 
ATOM     61  C   UNL A   1      41.469  28.283  27.722  1.00  0.00     0.173 A 
ATOM     62  F   UNL A   1      39.185  26.277  29.721  1.00  0.00    -0.203 F 
ATOM     63  C   UNL A   1      40.027  25.917  27.553  1.00  0.00     0.198 A 
ATOM     64  C   UNL A   1      41.523  27.511  26.564  1.00  0.00     0.198 A 
ATOM     65  F   UNL A   1      42.183  29.417  27.775  1.00  0.00    -0.203 F 
ATOM     66  F   UNL A   1      39.359  24.757  27.489  1.00  0.00    -0.200 F 
ATOM     67  C   UNL A   1      40.809  26.326  26.483  1.00  0.00     0.200 A 
ATOM     68  F   UNL A   1      42.267  27.915  25.525  1.00  0.00    -0.200 F 
ATOM     69  F   UNL A   1      40.879  25.573  25.376  1.00  0.00    -0.200 F 
ENDBRANCH  45  59
BRANCH  46  70
ATOM     70  C   UNL A   1      39.621  33.637  36.920  1.00  0.00     0.064 A 
ATOM     71  C   UNL A   1      40.309  34.850  37.070  1.00  0.00     0.173 A 
ATOM     72  C   UNL A   1      38.772  33.236  37.961  1.00  0.00     0.173 A 
ATOM     73  F   UNL A   1      41.148  35.265  36.109  1.00  0.00    -0.203 F 
ATOM     74  C   UNL A   1      40.169  35.620  38.222  1.00  0.00     0.198 A 
ATOM     75  C   UNL A   1      38.611  34.021  39.102  1.00  0.00     0.198 A 
ATOM     76  F   UNL A   1      38.088  32.087  37.865  1.00  0.00    -0.203 F 
ATOM     77  F   UNL A   1      40.873  36.751  38.359  1.00  0.00    -0.200 F 
ATOM     78  C   UNL A   1      39.317  35.207  39.235  1.00  0.00     0.200 A 
ATOM     79  F   UNL A   1      37.776  33.625  40.073  1.00  0.00    -0.200 F 
ATOM     80  F   UNL A   1      39.180  35.949  40.343  1.00  0.00    -0.200 F 
ENDBRANCH  46  70
BRANCH  58  81
ATOM     81  C   UNL A   1      44.104  28.614  35.114  1.00  0.00     0.064 A 
ATOM     82  C   UNL A   1      45.394  29.141  34.966  1.00  0.00     0.173 A 
ATOM     83  C   UNL A   1      43.931  27.527  35.985  1.00  0.00     0.173 A 
ATOM     84  F   UNL A   1      45.613  30.169  34.134  1.00  0.00    -0.203 F 
ATOM     85  C   UNL A   1      46.474  28.587  35.649  1.00  0.00     0.198 A 
ATOM     86  C   UNL A   1      45.007  26.995  36.689  1.00  0.00     0.198 A 
ATOM     87  F   UNL A   1      42.714  26.992  36.166  1.00  0.00    -0.203 F 
ATOM     88  F   UNL A   1      47.706  29.079  35.462  1.00  0.00    -0.200 F 
ATOM     89  C   UNL A   1      46.278  27.521  36.516  1.00  0.00     0.200 A 
ATOM     90  F   UNL A   1      44.814  25.974  37.535  1.00  0.00    -0.200 F 
ATOM     91  F   UNL A   1      47.317  26.998  37.181  1.00  0.00    -0.200 F 
ENDBRANCH  58  81
ENDBRANCH  32  33
ENDBRANCH  24  27
ENDBRANCH  22  23
ENDBRANCH  21  22
ENDBRANCH   1  21
TORSDOF 13
ENDMDL
MODEL 3
REMARK VINA RESULT:     -12.1      4.194     10.594
REMARK SMILES Cc1noc(C)c1COc1ccc(C(=O)NCCCNC(=O)c2ccc(-c3c4nc(c(-c5c(F)c(F)c(F)c(F)c5F)c5ccc([nH]5)c(-c5c(F)c(F)c(F)c(F)c5F)c5nc(c(-c6c(F)c(F)c(F)c(F)c6F)c6ccc3[nH]6)C=C5)C=C4)cc2)cc1
REMARK SMILES IDX 17 1 16 2 14 3 15 4 13 6 10 7 11 8 87 9 12 10 86 11 9 12
REMARK SMILES IDX 8 13 7 14 1 15 2 16 3 17 4 18 5 19 6 20 18 21 19 22 20 23
REMARK SMILES IDX 21 24 22 26 23 27 24 28 85 29 25 30 84 31 26 32 27 33 28 34
REMARK SMILES IDX 78 35 29 36 83 37 77 38 79 39 30 40 82 41 76 42 75 43 31 45
REMARK SMILES IDX 63 46 43 47 62 48 44 49 47 50 61 51 80 52 45 53 46 54 60 56
REMARK SMILES IDX 81 57 48 58 32 59 33 60 41 61 34 62 35 63 39 64 42 65 36 66
REMARK SMILES IDX 37 67 40 68 38 69 64 70 65 71 73 72 66 73 67 74 71 75 74 76
REMARK SMILES IDX 68 77 69 78 72 79 70 80 49 81 50 82 58 83 51 84 52 85 56 86
REMARK SMILES IDX 59 87 53 88 54 89 57 90 55 91
REMARK H PARENT 16 5 20 25 79 44 47 55
REMARK Flexibility Score: inf
ROOT
ATOM      1  C   UNL A   1      34.278  34.773  30.002  1.00  0.00     0.118 C 
ENDROOT
BRANCH   1   2
ATOM      2  N   UNL A   1      33.595  34.200  31.151  1.00  0.00    -0.352 N 
ATOM      3  C   UNL A   1      34.082  33.728  32.346  1.00  0.00     0.251 C 
ATOM      4  O   UNL A   1      33.284  33.429  33.232  1.00  0.00    -0.269 OA
ATOM      5  H   UNL A   1      32.616  34.142  31.057  1.00  0.00     0.163 HD
BRANCH   3   6
ATOM      6  C   UNL A   1      35.538  33.607  32.608  1.00  0.00     0.040 A 
ATOM      7  C   UNL A   1      38.268  33.275  33.115  1.00  0.00     0.119 A 
ATOM      8  C   UNL A   1      37.555  32.250  32.498  1.00  0.00     0.047 A 
ATOM      9  C   UNL A   1      37.649  34.490  33.390  1.00  0.00     0.047 A 
ATOM     10  C   UNL A   1      36.188  32.416  32.247  1.00  0.00     0.017 A 
ATOM     11  C   UNL A   1      36.292  34.657  33.132  1.00  0.00     0.017 A 
BRANCH   7  12
ATOM     12  O   UNL A   1      39.606  33.119  33.356  1.00  0.00    -0.489 OA
BRANCH  12  13
ATOM     13  C   UNL A   1      39.907  33.156  34.766  1.00  0.00     0.271 C 
BRANCH  13  14
ATOM     14  C   UNL A   1      39.252  32.078  35.561  1.00  0.00     0.055 A 
ATOM     15  C   UNL A   1      37.504  33.416  36.979  1.00  0.00     0.071 C 
ATOM     16  C   UNL A   1      38.211  32.194  36.526  1.00  0.00     0.087 A 
ATOM     17  N   UNL A   1      37.850  30.998  37.004  1.00  0.00    -0.085 NA
ATOM     18  O   UNL A   1      38.654  30.078  36.362  1.00  0.00    -0.361 OA
ATOM     19  C   UNL A   1      39.484  30.719  35.500  1.00  0.00     0.140 A 
ATOM     20  C   UNL A   1      40.394  29.864  34.715  1.00  0.00     0.091 C 
ENDBRANCH  13  14
ENDBRANCH  12  13
ENDBRANCH   7  12
ENDBRANCH   3   6
ENDBRANCH   1   2
BRANCH   1  21
ATOM     21  C   UNL A   1      34.052  33.950  28.735  1.00  0.00     0.042 C 
BRANCH  21  22
ATOM     22  C   UNL A   1      34.961  32.732  28.621  1.00  0.00     0.118 C 
BRANCH  22  23
ATOM     23  N   UNL A   1      34.230  31.533  28.243  1.00  0.00    -0.352 N 
ATOM     24  C   UNL A   1      34.693  30.263  27.998  1.00  0.00     0.251 C 
ATOM     25  H   UNL A   1      33.257  31.648  28.150  1.00  0.00     0.163 HD
ATOM     26  O   UNL A   1      33.942  29.430  27.500  1.00  0.00    -0.269 OA
BRANCH  24  27
ATOM     27  C   UNL A   1      36.090  29.893  28.316  1.00  0.00     0.039 A 
ATOM     28  C   UNL A   1      36.381  29.397  29.592  1.00  0.00     0.014 A 
ATOM     29  C   UNL A   1      37.119  30.076  27.390  1.00  0.00     0.014 A 
ATOM     30  C   UNL A   1      37.691  29.039  29.919  1.00  0.00     0.010 A 
ATOM     31  C   UNL A   1      38.411  29.652  27.691  1.00  0.00     0.010 A 
ATOM     32  C   UNL A   1      38.713  29.140  28.963  1.00  0.00    -0.014 A 
BRANCH  32  33
ATOM     33  C   UNL A   1      40.109  28.740  29.273  1.00  0.00     0.031 A 
ATOM     34  C   UNL A   1      41.012  29.687  30.014  1.00  0.00     0.074 A 
ATOM     35  C   UNL A   1      40.585  27.563  28.824  1.00  0.00     0.049 A 
ATOM     36  N   UNL A   1      42.290  29.581  30.278  1.00  0.00    -0.248 NA
ATOM     37  C   UNL A   1      40.402  30.936  30.496  1.00  0.00     0.031 C 
ATOM     38  C   UNL A   1      39.817  26.574  28.067  1.00  0.00     0.029 A 
ATOM     39  N   UNL A   1      41.836  27.007  28.926  1.00  0.00    -0.354 N 
ATOM     40  C   UNL A   1      42.639  30.753  30.935  1.00  0.00     0.074 A 
ATOM     41  C   UNL A   1      41.451  31.578  30.989  1.00  0.00     0.031 C 
ATOM     42  C   UNL A   1      40.609  25.528  27.781  1.00  0.00     0.029 A 
ATOM     43  C   UNL A   1      41.949  25.789  28.299  1.00  0.00     0.049 A 
ATOM     44  H   UNL A   1      42.581  27.439  29.401  1.00  0.00     0.167 HD
ATOM     45  C   UNL A   1      43.837  31.102  31.462  1.00  0.00     0.037 A 
ATOM     46  C   UNL A   1      43.017  24.984  28.148  1.00  0.00     0.037 A 
ATOM     47  C   UNL A   1      45.006  30.265  31.433  1.00  0.00     0.049 A 
ATOM     48  C   UNL A   1      44.338  25.396  28.740  1.00  0.00     0.074 A 
ATOM     49  C   UNL A   1      46.252  30.502  31.987  1.00  0.00     0.029 A 
ATOM     50  N   UNL A   1      45.073  29.024  30.815  1.00  0.00    -0.354 N 
ATOM     51  N   UNL A   1      44.644  26.483  29.406  1.00  0.00    -0.248 NA
ATOM     52  C   UNL A   1      45.463  24.466  28.562  1.00  0.00     0.031 C 
ATOM     53  C   UNL A   1      47.085  29.425  31.667  1.00  0.00     0.029 A 
ATOM     54  C   UNL A   1      46.345  28.493  30.959  1.00  0.00     0.049 A 
ATOM     55  H   UNL A   1      44.328  28.587  30.343  1.00  0.00     0.167 HD
ATOM     56  C   UNL A   1      45.980  26.353  29.757  1.00  0.00     0.074 A 
ATOM     57  C   UNL A   1      46.427  25.078  29.236  1.00  0.00     0.031 C 
ATOM     58  C   UNL A   1      46.766  27.212  30.450  1.00  0.00     0.037 A 
BRANCH  45  59
ATOM     59  C   UNL A   1      43.943  32.449  32.118  1.00  0.00     0.064 A 
ATOM     60  C   UNL A   1      44.363  33.583  31.406  1.00  0.00     0.173 A 
ATOM     61  C   UNL A   1      43.588  32.616  33.465  1.00  0.00     0.173 A 
ATOM     62  F   UNL A   1      44.724  33.476  30.118  1.00  0.00    -0.203 F 
ATOM     63  C   UNL A   1      44.452  34.826  32.026  1.00  0.00     0.198 A 
ATOM     64  C   UNL A   1      43.648  33.867  34.074  1.00  0.00     0.198 A 
ATOM     65  F   UNL A   1      43.173  31.566  34.190  1.00  0.00    -0.203 F 
ATOM     66  F   UNL A   1      44.904  35.885  31.339  1.00  0.00    -0.200 F 
ATOM     67  C   UNL A   1      44.087  34.969  33.356  1.00  0.00     0.200 A 
ATOM     68  F   UNL A   1      43.283  34.006  35.355  1.00  0.00    -0.200 F 
ATOM     69  F   UNL A   1      44.167  36.168  33.950  1.00  0.00    -0.200 F 
ENDBRANCH  45  59
BRANCH  46  70
ATOM     70  C   UNL A   1      42.877  23.696  27.421  1.00  0.00     0.064 A 
ATOM     71  C   UNL A   1      43.241  23.590  26.071  1.00  0.00     0.173 A 
ATOM     72  C   UNL A   1      42.378  22.549  28.053  1.00  0.00     0.173 A 
ATOM     73  F   UNL A   1      43.705  24.666  25.418  1.00  0.00    -0.203 F 
ATOM     74  C   UNL A   1      43.093  22.391  25.376  1.00  0.00     0.198 A 
ATOM     75  C   UNL A   1      42.256  21.342  27.365  1.00  0.00     0.198 A 
ATOM     76  F   UNL A   1      42.019  22.595  29.344  1.00  0.00    -0.203 F 
ATOM     77  F   UNL A   1      43.407  22.330  24.076  1.00  0.00    -0.200 F 
ATOM     78  C   UNL A   1      42.606  21.267  26.026  1.00  0.00     0.200 A 
ATOM     79  F   UNL A   1      41.797  20.255  28.000  1.00  0.00    -0.200 F 
ATOM     80  F   UNL A   1      42.466  20.113  25.359  1.00  0.00    -0.200 F 
ENDBRANCH  46  70
BRANCH  58  81
ATOM     81  C   UNL A   1      48.177  26.784  30.733  1.00  0.00     0.064 A 
ATOM     82  C   UNL A   1      48.491  25.949  31.814  1.00  0.00     0.173 A 
ATOM     83  C   UNL A   1      49.217  27.171  29.874  1.00  0.00     0.173 A 
ATOM     84  F   UNL A   1      47.534  25.564  32.671  1.00  0.00    -0.203 F 
ATOM     85  C   UNL A   1      49.802  25.534  32.037  1.00  0.00     0.198 A 
ATOM     86  C   UNL A   1      50.520  26.731  30.084  1.00  0.00     0.198 A 
ATOM     87  F   UNL A   1      48.965  27.964  28.821  1.00  0.00    -0.203 F 
ATOM     88  F   UNL A   1      50.088  24.770  33.100  1.00  0.00    -0.200 F 
ATOM     89  C   UNL A   1      50.813  25.917  31.168  1.00  0.00     0.200 A 
ATOM     90  F   UNL A   1      51.493  27.092  29.235  1.00  0.00    -0.200 F 
ATOM     91  F   UNL A   1      52.071  25.507  31.379  1.00  0.00    -0.200 F 
ENDBRANCH  58  81
ENDBRANCH  32  33
ENDBRANCH  24  27
ENDBRANCH  22  23
ENDBRANCH  21  22
ENDBRANCH   1  21
TORSDOF 13
ENDMDL
