MODEL 1
REMARK VINA RESULT:     -12.6      0.000      0.000
REMARK SMILES Cc1cc(C(=O)Nc2cccc(C(=O)NCC(=O)NCCCNC(=O)c3ccc(-c4c5nc(c(-c6c(F)c(F)c(F)c(F)c6F)c6ccc([nH]6)c(-c6c(F)c(F)c(F)c(F)c6F)c6nc(c(-c7c(F)c(F)c(F)c(F)c7F)c7ccc4[nH]7)C=C6)C=C5)cc3)c2)no1
REMARK SMILES IDX 20 1 19 2 17 3 18 4 16 6 15 7 13 8 14 9 12 11 8 12 9 13
REMARK SMILES IDX 89 14 10 15 11 16 7 17 5 18 6 19 4 21 1 22 2 23 3 24 91 25
REMARK SMILES IDX 90 26 21 27 22 28 23 29 24 30 25 32 26 33 27 34 88 35 28 36
REMARK SMILES IDX 87 37 29 38 30 39 31 40 81 41 32 42 86 43 80 44 82 45 33 46
REMARK SMILES IDX 85 47 79 48 78 49 34 51 66 52 46 53 65 54 47 55 50 56 64 57
REMARK SMILES IDX 83 58 48 59 49 60 63 62 84 63 51 64 35 65 36 66 44 67 37 68
REMARK SMILES IDX 38 69 42 70 45 71 39 72 40 73 43 74 41 75 67 76 68 77 76 78
REMARK SMILES IDX 69 79 70 80 74 81 77 82 71 83 72 84 75 85 73 86 52 87 53 88
REMARK SMILES IDX 61 89 54 90 55 91 59 92 62 93 56 94 57 95 60 96 58 97
REMARK H PARENT 19 5 15 10 7 20 23 31 82 50 50 61
REMARK Flexibility Score: inf
ROOT
ATOM      1  C   UNL A   1      30.593  31.601  25.029  1.00  0.00     0.117 C 
ENDROOT
BRANCH   1   2
ATOM      2  N   UNL A   1      29.889  32.698  24.413  1.00  0.00    -0.355 N 
ATOM      3  C   UNL A   1      29.177  32.759  23.257  1.00  0.00     0.239 C 
ATOM      4  O   UNL A   1      28.590  33.822  23.030  1.00  0.00    -0.273 OA
ATOM      5  H   UNL A   1      29.929  33.545  24.915  1.00  0.00     0.163 HD
BRANCH   3   6
ATOM      6  C   UNL A   1      28.941  31.541  22.346  1.00  0.00     0.216 C 
BRANCH   6   7
ATOM      7  N   UNL A   1      27.837  30.628  22.632  1.00  0.00    -0.343 N 
ATOM      8  C   UNL A   1      27.684  29.314  22.989  1.00  0.00     0.251 C 
ATOM      9  O   UNL A   1      26.531  28.966  23.255  1.00  0.00    -0.269 OA
ATOM     10  H   UNL A   1      26.966  31.080  22.543  1.00  0.00     0.164 HD
BRANCH   8  11
ATOM     11  C   UNL A   1      28.761  28.274  23.047  1.00  0.00     0.041 A 
ATOM     12  C   UNL A   1      30.931  27.320  22.453  1.00  0.00     0.042 A 
ATOM     13  C   UNL A   1      30.655  26.176  23.192  1.00  0.00     0.026 A 
ATOM     14  C   UNL A   1      29.947  28.306  22.317  1.00  0.00     0.040 A 
ATOM     15  C   UNL A   1      29.459  26.096  23.904  1.00  0.00     0.003 A 
ATOM     16  C   UNL A   1      28.536  27.150  23.856  1.00  0.00     0.014 A 
BRANCH  12  17
ATOM     17  N   UNL A   1      32.202  27.468  21.868  1.00  0.00    -0.321 N 
ATOM     18  C   UNL A   1      33.391  27.895  22.453  1.00  0.00     0.277 C 
ATOM     19  O   UNL A   1      34.315  28.229  21.712  1.00  0.00    -0.267 OA
ATOM     20  H   UNL A   1      32.258  27.239  20.913  1.00  0.00     0.170 HD
BRANCH  18  21
ATOM     21  C   UNL A   1      33.521  27.864  23.921  1.00  0.00     0.171 A 
ATOM     22  C   UNL A   1      34.071  29.071  27.348  1.00  0.00     0.091 C 
ATOM     23  C   UNL A   1      33.785  28.442  26.045  1.00  0.00     0.134 A 
ATOM     24  C   UNL A   1      33.243  28.894  24.870  1.00  0.00     0.082 A 
ATOM     25  O   UNL A   1      34.192  27.157  25.874  1.00  0.00    -0.361 OA
ATOM     26  N   UNL A   1      34.019  26.787  24.552  1.00  0.00    -0.074 NA
ENDBRANCH  18  21
ENDBRANCH  12  17
ENDBRANCH   8  11
ENDBRANCH   6   7
ENDBRANCH   3   6
ENDBRANCH   1   2
BRANCH   1  27
ATOM     27  C   UNL A   1      30.857  31.822  26.506  1.00  0.00     0.042 C 
BRANCH  27  28
ATOM     28  C   UNL A   1      32.270  32.317  26.772  1.00  0.00     0.118 C 
BRANCH  28  29
ATOM     29  N   UNL A   1      32.294  33.697  27.243  1.00  0.00    -0.352 N 
ATOM     30  C   UNL A   1      33.094  34.303  28.177  1.00  0.00     0.251 C 
ATOM     31  H   UNL A   1      31.629  34.288  26.821  1.00  0.00     0.163 HD
ATOM     32  O   UNL A   1      32.815  35.426  28.579  1.00  0.00    -0.269 OA
BRANCH  30  33
ATOM     33  C   UNL A   1      34.276  33.597  28.712  1.00  0.00     0.039 A 
ATOM     34  C   UNL A   1      35.544  34.120  28.451  1.00  0.00     0.014 A 
ATOM     35  C   UNL A   1      34.141  32.421  29.453  1.00  0.00     0.014 A 
ATOM     36  C   UNL A   1      36.669  33.497  28.990  1.00  0.00     0.010 A 
ATOM     37  C   UNL A   1      35.249  31.864  30.076  1.00  0.00     0.010 A 
ATOM     38  C   UNL A   1      36.527  32.388  29.841  1.00  0.00    -0.014 A 
BRANCH  38  39
ATOM     39  C   UNL A   1      37.708  31.771  30.491  1.00  0.00     0.031 A 
ATOM     40  C   UNL A   1      38.129  32.199  31.868  1.00  0.00     0.074 A 
ATOM     41  C   UNL A   1      38.428  30.856  29.814  1.00  0.00     0.049 A 
ATOM     42  N   UNL A   1      39.136  31.781  32.594  1.00  0.00    -0.248 NA
ATOM     43  C   UNL A   1      37.332  33.258  32.507  1.00  0.00     0.031 C 
ATOM     44  C   UNL A   1      38.153  30.408  28.447  1.00  0.00     0.029 A 
ATOM     45  N   UNL A   1      39.536  30.138  30.183  1.00  0.00    -0.354 N 
ATOM     46  C   UNL A   1      39.096  32.528  33.763  1.00  0.00     0.074 A 
ATOM     47  C   UNL A   1      38.011  33.474  33.623  1.00  0.00     0.031 C 
ATOM     48  C   UNL A   1      39.042  29.461  28.109  1.00  0.00     0.029 A 
ATOM     49  C   UNL A   1      39.972  29.266  29.216  1.00  0.00     0.049 A 
ATOM     50  H   UNL A   1      39.978  30.237  31.057  1.00  0.00     0.167 HD
ATOM     51  C   UNL A   1      39.875  32.415  34.865  1.00  0.00     0.037 A 
ATOM     52  C   UNL A   1      41.005  28.403  29.224  1.00  0.00     0.037 A 
ATOM     53  C   UNL A   1      40.946  31.464  35.000  1.00  0.00     0.049 A 
ATOM     54  C   UNL A   1      41.862  28.306  30.455  1.00  0.00     0.074 A 
ATOM     55  C   UNL A   1      41.760  31.227  36.093  1.00  0.00     0.029 A 
ATOM     56  N   UNL A   1      41.361  30.595  33.998  1.00  0.00    -0.354 N 
ATOM     57  N   UNL A   1      41.764  28.958  31.588  1.00  0.00    -0.248 NA
ATOM     58  C   UNL A   1      42.969  27.341  30.411  1.00  0.00     0.031 C 
ATOM     59  C   UNL A   1      42.705  30.259  35.734  1.00  0.00     0.029 A 
ATOM     60  C   UNL A   1      42.439  29.843  34.439  1.00  0.00     0.049 A 
ATOM     61  H   UNL A   1      40.950  30.523  33.107  1.00  0.00     0.167 HD
ATOM     62  C   UNL A   1      42.778  28.469  32.400  1.00  0.00     0.074 A 
ATOM     63  C   UNL A   1      43.462  27.445  31.636  1.00  0.00     0.031 C 
ATOM     64  C   UNL A   1      43.115  28.833  33.663  1.00  0.00     0.037 A 
BRANCH  51  65
ATOM     65  C   UNL A   1      39.594  33.349  36.009  1.00  0.00     0.064 A 
ATOM     66  C   UNL A   1      40.207  34.610  36.102  1.00  0.00     0.173 A 
ATOM     67  C   UNL A   1      38.686  32.989  37.017  1.00  0.00     0.173 A 
ATOM     68  F   UNL A   1      41.092  35.002  35.173  1.00  0.00    -0.203 F 
ATOM     69  C   UNL A   1      39.953  35.454  37.180  1.00  0.00     0.198 A 
ATOM     70  C   UNL A   1      38.407  33.852  38.074  1.00  0.00     0.198 A 
ATOM     71  F   UNL A   1      38.067  31.801  36.977  1.00  0.00    -0.203 F 
ATOM     72  F   UNL A   1      40.599  36.625  37.278  1.00  0.00    -0.200 F 
ATOM     73  C   UNL A   1      39.049  35.079  38.161  1.00  0.00     0.200 A 
ATOM     74  F   UNL A   1      37.521  33.493  39.013  1.00  0.00    -0.200 F 
ATOM     75  F   UNL A   1      38.801  35.894  39.195  1.00  0.00    -0.200 F 
ENDBRANCH  51  65
BRANCH  52  76
ATOM     76  C   UNL A   1      41.261  27.544  28.039  1.00  0.00     0.064 A 
ATOM     77  C   UNL A   1      40.696  26.265  27.943  1.00  0.00     0.173 A 
ATOM     78  C   UNL A   1      42.068  27.981  26.978  1.00  0.00     0.173 A 
ATOM     79  F   UNL A   1      39.931  25.794  28.940  1.00  0.00    -0.203 F 
ATOM     80  C   UNL A   1      40.944  25.447  26.843  1.00  0.00     0.198 A 
ATOM     81  C   UNL A   1      42.290  27.176  25.864  1.00  0.00     0.198 A 
ATOM     82  F   UNL A   1      42.627  29.199  27.018  1.00  0.00    -0.203 F 
ATOM     83  F   UNL A   1      40.429  24.211  26.799  1.00  0.00    -0.200 F 
ATOM     84  C   UNL A   1      41.735  25.906  25.801  1.00  0.00     0.200 A 
ATOM     85  F   UNL A   1      43.040  27.630  24.851  1.00  0.00    -0.200 F 
ATOM     86  F   UNL A   1      41.968  25.122  24.738  1.00  0.00    -0.200 F 
ENDBRANCH  52  76
BRANCH  64  87
ATOM     87  C   UNL A   1      44.260  28.099  34.303  1.00  0.00     0.064 A 
ATOM     88  C   UNL A   1      44.069  26.897  35.000  1.00  0.00     0.173 A 
ATOM     89  C   UNL A   1      45.568  28.601  34.207  1.00  0.00     0.173 A 
ATOM     90  F   UNL A   1      42.838  26.381  35.135  1.00  0.00    -0.203 F 
ATOM     91  C   UNL A   1      45.138  26.247  35.614  1.00  0.00     0.198 A 
ATOM     92  C   UNL A   1      46.639  27.928  34.788  1.00  0.00     0.198 A 
ATOM     93  F   UNL A   1      45.808  29.742  33.544  1.00  0.00    -0.203 F 
ATOM     94  F   UNL A   1      44.920  25.137  36.332  1.00  0.00    -0.200 F 
ATOM     95  C   UNL A   1      46.421  26.760  35.501  1.00  0.00     0.200 A 
ATOM     96  F   UNL A   1      47.881  28.416  34.663  1.00  0.00    -0.200 F 
ATOM     97  F   UNL A   1      47.448  26.133  36.091  1.00  0.00    -0.200 F 
ENDBRANCH  64  87
ENDBRANCH  38  39
ENDBRANCH  30  33
ENDBRANCH  28  29
ENDBRANCH  27  28
ENDBRANCH   1  27
TORSDOF 14
ENDMDL
MODEL 2
REMARK VINA RESULT:     -12.5      1.452      7.986
REMARK SMILES Cc1cc(C(=O)Nc2cccc(C(=O)NCC(=O)NCCCNC(=O)c3ccc(-c4c5nc(c(-c6c(F)c(F)c(F)c(F)c6F)c6ccc([nH]6)c(-c6c(F)c(F)c(F)c(F)c6F)c6nc(c(-c7c(F)c(F)c(F)c(F)c7F)c7ccc4[nH]7)C=C6)C=C5)cc3)c2)no1
REMARK SMILES IDX 20 1 19 2 17 3 18 4 16 6 15 7 13 8 14 9 12 11 8 12 9 13
REMARK SMILES IDX 89 14 10 15 11 16 7 17 5 18 6 19 4 21 1 22 2 23 3 24 91 25
REMARK SMILES IDX 90 26 21 27 22 28 23 29 24 30 25 32 26 33 27 34 88 35 28 36
REMARK SMILES IDX 87 37 29 38 30 39 31 40 81 41 32 42 86 43 80 44 82 45 33 46
REMARK SMILES IDX 85 47 79 48 78 49 34 51 66 52 46 53 65 54 47 55 50 56 64 57
REMARK SMILES IDX 83 58 48 59 49 60 63 62 84 63 51 64 35 65 36 66 44 67 37 68
REMARK SMILES IDX 38 69 42 70 45 71 39 72 40 73 43 74 41 75 67 76 68 77 76 78
REMARK SMILES IDX 69 79 70 80 74 81 77 82 71 83 72 84 75 85 73 86 52 87 53 88
REMARK SMILES IDX 61 89 54 90 55 91 59 92 62 93 56 94 57 95 60 96 58 97
REMARK H PARENT 19 5 15 10 7 20 23 31 82 50 50 61
REMARK Flexibility Score: inf
ROOT
ATOM      1  C   UNL A   1      31.578  30.873  26.026  1.00  0.00     0.117 C 
ENDROOT
BRANCH   1   2
ATOM      2  N   UNL A   1      32.934  30.424  26.221  1.00  0.00    -0.355 N 
ATOM      3  C   UNL A   1      33.425  29.339  26.875  1.00  0.00     0.239 C 
ATOM      4  O   UNL A   1      34.643  29.152  26.790  1.00  0.00    -0.273 OA
ATOM      5  H   UNL A   1      33.620  30.999  25.809  1.00  0.00     0.163 HD
BRANCH   3   6
ATOM      6  C   UNL A   1      32.529  28.281  27.545  1.00  0.00     0.216 C 
BRANCH   6   7
ATOM      7  N   UNL A   1      32.516  26.915  27.029  1.00  0.00    -0.343 N 
ATOM      8  C   UNL A   1      32.170  26.283  25.863  1.00  0.00     0.251 C 
ATOM      9  O   UNL A   1      32.439  25.080  25.809  1.00  0.00    -0.269 OA
ATOM     10  H   UNL A   1      32.844  26.274  27.701  1.00  0.00     0.164 HD
BRANCH   8  11
ATOM     11  C   UNL A   1      31.475  26.899  24.687  1.00  0.00     0.041 A 
ATOM     12  C   UNL A   1      29.516  27.472  23.343  1.00  0.00     0.042 A 
ATOM     13  C   UNL A   1      30.326  28.030  22.361  1.00  0.00     0.026 A 
ATOM     14  C   UNL A   1      30.105  26.836  24.441  1.00  0.00     0.040 A 
ATOM     15  C   UNL A   1      31.706  28.075  22.559  1.00  0.00     0.003 A 
ATOM     16  C   UNL A   1      32.269  27.542  23.726  1.00  0.00     0.014 A 
BRANCH  12  17
ATOM     17  N   UNL A   1      28.119  27.571  23.216  1.00  0.00    -0.321 N 
ATOM     18  C   UNL A   1      27.324  28.713  23.151  1.00  0.00     0.277 C 
ATOM     19  O   UNL A   1      26.113  28.587  23.331  1.00  0.00    -0.267 OA
ATOM     20  H   UNL A   1      27.636  26.715  23.168  1.00  0.00     0.170 HD
BRANCH  18  21
ATOM     21  C   UNL A   1      27.947  30.002  22.801  1.00  0.00     0.171 A 
ATOM     22  C   UNL A   1      28.999  33.508  23.122  1.00  0.00     0.091 C 
ATOM     23  C   UNL A   1      28.691  32.089  22.861  1.00  0.00     0.134 A 
ATOM     24  C   UNL A   1      28.503  30.994  23.664  1.00  0.00     0.082 A 
ATOM     25  O   UNL A   1      28.448  31.735  21.573  1.00  0.00    -0.361 OA
ATOM     26  N   UNL A   1      27.994  30.428  21.528  1.00  0.00    -0.074 NA
ENDBRANCH  18  21
ENDBRANCH  12  17
ENDBRANCH   8  11
ENDBRANCH   6   7
ENDBRANCH   3   6
ENDBRANCH   1   2
BRANCH   1  27
ATOM     27  C   UNL A   1      31.343  32.283  26.532  1.00  0.00     0.042 C 
BRANCH  27  28
ATOM     28  C   UNL A   1      32.546  32.838  27.278  1.00  0.00     0.118 C 
BRANCH  28  29
ATOM     29  N   UNL A   1      32.379  34.241  27.637  1.00  0.00    -0.352 N 
ATOM     30  C   UNL A   1      32.981  34.985  28.618  1.00  0.00     0.251 C 
ATOM     31  H   UNL A   1      31.728  34.733  27.085  1.00  0.00     0.163 HD
ATOM     32  O   UNL A   1      32.547  36.099  28.889  1.00  0.00    -0.269 OA
BRANCH  30  33
ATOM     33  C   UNL A   1      34.136  34.440  29.359  1.00  0.00     0.039 A 
ATOM     34  C   UNL A   1      33.910  33.815  30.588  1.00  0.00     0.014 A 
ATOM     35  C   UNL A   1      35.435  34.554  28.859  1.00  0.00     0.014 A 
ATOM     36  C   UNL A   1      34.982  33.249  31.278  1.00  0.00     0.010 A 
ATOM     37  C   UNL A   1      36.482  33.900  29.492  1.00  0.00     0.010 A 
ATOM     38  C   UNL A   1      36.269  33.251  30.716  1.00  0.00    -0.014 A 
BRANCH  38  39
ATOM     39  C   UNL A   1      37.399  32.575  31.398  1.00  0.00     0.031 A 
ATOM     40  C   UNL A   1      38.115  31.434  30.736  1.00  0.00     0.074 A 
ATOM     41  C   UNL A   1      37.745  32.966  32.640  1.00  0.00     0.049 A 
ATOM     42  N   UNL A   1      39.117  30.716  31.178  1.00  0.00    -0.248 NA
ATOM     43  C   UNL A   1      37.625  31.021  29.411  1.00  0.00     0.031 C 
ATOM     44  C   UNL A   1      37.081  34.020  33.410  1.00  0.00     0.029 A 
ATOM     45  N   UNL A   1      38.741  32.523  33.472  1.00  0.00    -0.354 N 
ATOM     46  C   UNL A   1      39.369  29.769  30.194  1.00  0.00     0.074 A 
ATOM     47  C   UNL A   1      38.372  29.956  29.164  1.00  0.00     0.031 C 
ATOM     48  C   UNL A   1      37.714  34.171  34.583  1.00  0.00     0.029 A 
ATOM     49  C   UNL A   1      38.799  33.200  34.666  1.00  0.00     0.049 A 
ATOM     50  H   UNL A   1      39.355  31.791  33.237  1.00  0.00     0.167 HD
ATOM     51  C   UNL A   1      40.360  28.848  30.142  1.00  0.00     0.037 A 
ATOM     52  C   UNL A   1      39.637  33.054  35.709  1.00  0.00     0.037 A 
ATOM     53  C   UNL A   1      41.355  28.676  31.168  1.00  0.00     0.049 A 
ATOM     54  C   UNL A   1      40.722  32.015  35.631  1.00  0.00     0.074 A 
ATOM     55  C   UNL A   1      42.435  27.812  31.188  1.00  0.00     0.029 A 
ATOM     56  N   UNL A   1      41.383  29.379  32.365  1.00  0.00    -0.354 N 
ATOM     57  N   UNL A   1      41.003  31.180  34.659  1.00  0.00    -0.248 NA
ATOM     58  C   UNL A   1      41.613  31.906  36.793  1.00  0.00     0.031 C 
ATOM     59  C   UNL A   1      43.081  27.949  32.422  1.00  0.00     0.029 A 
ATOM     60  C   UNL A   1      42.445  28.946  33.145  1.00  0.00     0.049 A 
ATOM     61  H   UNL A   1      40.744  30.082  32.623  1.00  0.00     0.167 HD
ATOM     62  C   UNL A   1      42.115  30.465  35.080  1.00  0.00     0.074 A 
ATOM     63  C   UNL A   1      42.472  30.984  36.385  1.00  0.00     0.031 C 
ATOM     64  C   UNL A   1      42.782  29.467  34.446  1.00  0.00     0.037 A 
BRANCH  51  65
ATOM     65  C   UNL A   1      40.410  27.955  28.934  1.00  0.00     0.064 A 
ATOM     66  C   UNL A   1      41.168  28.288  27.799  1.00  0.00     0.173 A 
ATOM     67  C   UNL A   1      39.707  26.740  28.915  1.00  0.00     0.173 A 
ATOM     68  F   UNL A   1      41.850  29.443  27.757  1.00  0.00    -0.203 F 
ATOM     69  C   UNL A   1      41.186  27.461  26.679  1.00  0.00     0.198 A 
ATOM     70  C   UNL A   1      39.759  25.898  27.807  1.00  0.00     0.198 A 
ATOM     71  F   UNL A   1      38.972  26.367  29.972  1.00  0.00    -0.203 F 
ATOM     72  F   UNL A   1      41.866  27.833  25.585  1.00  0.00    -0.200 F 
ATOM     73  C   UNL A   1      40.488  26.263  26.686  1.00  0.00     0.200 A 
ATOM     74  F   UNL A   1      39.095  24.733  27.822  1.00  0.00    -0.200 F 
ATOM     75  F   UNL A   1      40.511  25.465  25.610  1.00  0.00    -0.200 F 
ENDBRANCH  51  65
BRANCH  52  76
ATOM     76  C   UNL A   1      39.502  33.935  36.898  1.00  0.00     0.064 A 
ATOM     77  C   UNL A   1      40.111  35.197  36.929  1.00  0.00     0.173 A 
ATOM     78  C   UNL A   1      38.760  33.540  38.020  1.00  0.00     0.173 A 
ATOM     79  F   UNL A   1      40.847  35.613  35.887  1.00  0.00    -0.203 F 
ATOM     80  C   UNL A   1      40.001  36.023  38.046  1.00  0.00     0.198 A 
ATOM     81  C   UNL A   1      38.623  34.380  39.123  1.00  0.00     0.198 A 
ATOM     82  F   UNL A   1      38.151  32.346  38.037  1.00  0.00    -0.203 F 
ATOM     83  F   UNL A   1      40.632  37.204  38.069  1.00  0.00    -0.200 F 
ATOM     84  C   UNL A   1      39.251  35.616  39.140  1.00  0.00     0.200 A 
ATOM     85  F   UNL A   1      37.883  33.990  40.171  1.00  0.00    -0.200 F 
ATOM     86  F   UNL A   1      39.139  36.413  40.212  1.00  0.00    -0.200 F 
ENDBRANCH  52  76
BRANCH  64  87
ATOM     87  C   UNL A   1      43.979  28.891  35.149  1.00  0.00     0.064 A 
ATOM     88  C   UNL A   1      45.274  29.383  34.926  1.00  0.00     0.173 A 
ATOM     89  C   UNL A   1      43.827  27.841  36.068  1.00  0.00     0.173 A 
ATOM     90  F   UNL A   1      45.478  30.377  34.048  1.00  0.00    -0.203 F 
ATOM     91  C   UNL A   1      46.376  28.817  35.563  1.00  0.00     0.198 A 
ATOM     92  C   UNL A   1      44.926  27.303  36.731  1.00  0.00     0.198 A 
ATOM     93  F   UNL A   1      42.610  27.338  36.325  1.00  0.00    -0.203 F 
ATOM     94  F   UNL A   1      47.609  29.258  35.281  1.00  0.00    -0.200 F 
ATOM     95  C   UNL A   1      46.199  27.782  36.469  1.00  0.00     0.200 A 
ATOM     96  F   UNL A   1      44.751  26.315  37.621  1.00  0.00    -0.200 F 
ATOM     97  F   UNL A   1      47.260  27.239  37.082  1.00  0.00    -0.200 F 
ENDBRANCH  64  87
ENDBRANCH  38  39
ENDBRANCH  30  33
ENDBRANCH  28  29
ENDBRANCH  27  28
ENDBRANCH   1  27
TORSDOF 14
ENDMDL
MODEL 3
REMARK VINA RESULT:     -12.3      2.359      3.387
REMARK SMILES Cc1cc(C(=O)Nc2cccc(C(=O)NCC(=O)NCCCNC(=O)c3ccc(-c4c5nc(c(-c6c(F)c(F)c(F)c(F)c6F)c6ccc([nH]6)c(-c6c(F)c(F)c(F)c(F)c6F)c6nc(c(-c7c(F)c(F)c(F)c(F)c7F)c7ccc4[nH]7)C=C6)C=C5)cc3)c2)no1
REMARK SMILES IDX 20 1 19 2 17 3 18 4 16 6 15 7 13 8 14 9 12 11 8 12 9 13
REMARK SMILES IDX 89 14 10 15 11 16 7 17 5 18 6 19 4 21 1 22 2 23 3 24 91 25
REMARK SMILES IDX 90 26 21 27 22 28 23 29 24 30 25 32 26 33 27 34 88 35 28 36
REMARK SMILES IDX 87 37 29 38 30 39 31 40 81 41 32 42 86 43 80 44 82 45 33 46
REMARK SMILES IDX 85 47 79 48 78 49 34 51 66 52 46 53 65 54 47 55 50 56 64 57
REMARK SMILES IDX 83 58 48 59 49 60 63 62 84 63 51 64 35 65 36 66 44 67 37 68
REMARK SMILES IDX 38 69 42 70 45 71 39 72 40 73 43 74 41 75 67 76 68 77 76 78
REMARK SMILES IDX 69 79 70 80 74 81 77 82 71 83 72 84 75 85 73 86 52 87 53 88
REMARK SMILES IDX 61 89 54 90 55 91 59 92 62 93 56 94 57 95 60 96 58 97
REMARK H PARENT 19 5 15 10 7 20 23 31 82 50 50 61
REMARK Flexibility Score: inf
ROOT
ATOM      1  C   UNL A   1      31.106  29.267  24.908  1.00  0.00     0.117 C 
ENDROOT
BRANCH   1   2
ATOM      2  N   UNL A   1      30.688  29.862  23.663  1.00  0.00    -0.355 N 
ATOM      3  C   UNL A   1      30.321  29.292  22.485  1.00  0.00     0.239 C 
ATOM      4  O   UNL A   1      29.909  30.059  21.609  1.00  0.00    -0.273 OA
ATOM      5  H   UNL A   1      30.663  30.847  23.667  1.00  0.00     0.163 HD
BRANCH   3   6
ATOM      6  C   UNL A   1      30.239  27.769  22.275  1.00  0.00     0.216 C 
BRANCH   6   7
ATOM      7  N   UNL A   1      31.383  27.054  21.713  1.00  0.00    -0.343 N 
ATOM      8  C   UNL A   1      32.388  26.244  22.173  1.00  0.00     0.251 C 
ATOM      9  O   UNL A   1      33.104  25.740  21.304  1.00  0.00    -0.269 OA
ATOM     10  H   UNL A   1      31.450  27.194  20.740  1.00  0.00     0.164 HD
BRANCH   8  11
ATOM     11  C   UNL A   1      32.712  25.951  23.605  1.00  0.00     0.041 A 
ATOM     12  C   UNL A   1      32.179  25.222  25.877  1.00  0.00     0.042 A 
ATOM     13  C   UNL A   1      33.465  25.536  26.302  1.00  0.00     0.026 A 
ATOM     14  C   UNL A   1      31.798  25.519  24.563  1.00  0.00     0.040 A 
ATOM     15  C   UNL A   1      34.395  26.006  25.375  1.00  0.00     0.003 A 
ATOM     16  C   UNL A   1      34.029  26.180  24.034  1.00  0.00     0.014 A 
BRANCH  12  17
ATOM     17  N   UNL A   1      31.294  24.599  26.774  1.00  0.00    -0.321 N 
ATOM     18  C   UNL A   1      30.950  23.253  26.873  1.00  0.00     0.277 C 
ATOM     19  O   UNL A   1      29.951  22.957  27.526  1.00  0.00    -0.267 OA
ATOM     20  H   UNL A   1      30.855  25.198  27.420  1.00  0.00     0.170 HD
BRANCH  18  21
ATOM     21  C   UNL A   1      31.828  22.241  26.259  1.00  0.00     0.171 A 
ATOM     22  C   UNL A   1      34.918  20.609  25.123  1.00  0.00     0.091 C 
ATOM     23  C   UNL A   1      33.599  21.110  25.553  1.00  0.00     0.134 A 
ATOM     24  C   UNL A   1      33.175  21.901  26.590  1.00  0.00     0.082 A 
ATOM     25  O   UNL A   1      32.539  20.832  24.751  1.00  0.00    -0.361 OA
ATOM     26  N   UNL A   1      31.427  21.527  25.194  1.00  0.00    -0.074 NA
ENDBRANCH  18  21
ENDBRANCH  12  17
ENDBRANCH   8  11
ENDBRANCH   6   7
ENDBRANCH   3   6
ENDBRANCH   1   2
BRANCH   1  27
ATOM     27  C   UNL A   1      32.505  29.683  25.323  1.00  0.00     0.042 C 
BRANCH  27  28
ATOM     28  C   UNL A   1      32.558  30.176  26.760  1.00  0.00     0.118 C 
BRANCH  28  29
ATOM     29  N   UNL A   1      32.644  31.630  26.844  1.00  0.00    -0.352 N 
ATOM     30  C   UNL A   1      33.534  32.429  27.514  1.00  0.00     0.251 C 
ATOM     31  H   UNL A   1      31.952  32.114  26.339  1.00  0.00     0.163 HD
ATOM     32  O   UNL A   1      33.307  33.628  27.627  1.00  0.00    -0.269 OA
BRANCH  30  33
ATOM     33  C   UNL A   1      34.750  31.845  28.115  1.00  0.00     0.039 A 
ATOM     34  C   UNL A   1      35.897  32.636  28.210  1.00  0.00     0.014 A 
ATOM     35  C   UNL A   1      34.768  30.525  28.571  1.00  0.00     0.014 A 
ATOM     36  C   UNL A   1      37.039  32.119  28.820  1.00  0.00     0.010 A 
ATOM     37  C   UNL A   1      35.867  30.049  29.272  1.00  0.00     0.010 A 
ATOM     38  C   UNL A   1      37.020  30.836  29.393  1.00  0.00    -0.014 A 
BRANCH  38  39
ATOM     39  C   UNL A   1      38.199  30.310  30.122  1.00  0.00     0.031 A 
ATOM     40  C   UNL A   1      38.476  30.742  31.534  1.00  0.00     0.074 A 
ATOM     41  C   UNL A   1      39.046  29.477  29.488  1.00  0.00     0.049 A 
ATOM     42  N   UNL A   1      39.458  30.397  32.328  1.00  0.00    -0.248 NA
ATOM     43  C   UNL A   1      37.542  31.713  32.127  1.00  0.00     0.031 C 
ATOM     44  C   UNL A   1      38.916  29.038  28.097  1.00  0.00     0.029 A 
ATOM     45  N   UNL A   1      40.183  28.850  29.929  1.00  0.00    -0.354 N 
ATOM     46  C   UNL A   1      39.265  31.112  33.502  1.00  0.00     0.074 A 
ATOM     47  C   UNL A   1      38.113  31.962  33.295  1.00  0.00     0.031 C 
ATOM     48  C   UNL A   1      39.907  28.180  27.813  1.00  0.00     0.029 A 
ATOM     49  C   UNL A   1      40.765  28.041  28.985  1.00  0.00     0.049 A 
ATOM     50  H   UNL A   1      40.547  28.968  30.837  1.00  0.00     0.167 HD
ATOM     51  C   UNL A   1      39.966  31.042  34.659  1.00  0.00     0.037 A 
ATOM     52  C   UNL A   1      41.867  27.272  29.058  1.00  0.00     0.037 A 
ATOM     53  C   UNL A   1      41.104  30.184  34.861  1.00  0.00     0.049 A 
ATOM     54  C   UNL A   1      42.635  27.222  30.350  1.00  0.00     0.074 A 
ATOM     55  C   UNL A   1      41.851  29.995  36.009  1.00  0.00     0.029 A 
ATOM     56  N   UNL A   1      41.668  29.379  33.880  1.00  0.00    -0.354 N 
ATOM     57  N   UNL A   1      42.394  27.838  31.483  1.00  0.00    -0.248 NA
ATOM     58  C   UNL A   1      43.823  26.358  30.376  1.00  0.00     0.031 C 
ATOM     59  C   UNL A   1      42.902  29.122  35.709  1.00  0.00     0.029 A 
ATOM     60  C   UNL A   1      42.772  28.713  34.391  1.00  0.00     0.049 A 
ATOM     61  H   UNL A   1      41.333  29.291  32.959  1.00  0.00     0.167 HD
ATOM     62  C   UNL A   1      43.384  27.420  32.362  1.00  0.00     0.074 A 
ATOM     63  C   UNL A   1      44.212  26.477  31.637  1.00  0.00     0.031 C 
ATOM     64  C   UNL A   1      43.591  27.784  33.653  1.00  0.00     0.037 A 
BRANCH  51  65
ATOM     65  C   UNL A   1      39.518  31.922  35.793  1.00  0.00     0.064 A 
ATOM     66  C   UNL A   1      40.105  33.175  36.033  1.00  0.00     0.173 A 
ATOM     67  C   UNL A   1      38.475  31.517  36.641  1.00  0.00     0.173 A 
ATOM     68  F   UNL A   1      41.113  33.608  35.261  1.00  0.00    -0.203 F 
ATOM     69  C   UNL A   1      39.694  33.969  37.100  1.00  0.00     0.198 A 
ATOM     70  C   UNL A   1      38.043  32.330  37.685  1.00  0.00     0.198 A 
ATOM     71  F   UNL A   1      37.874  30.333  36.457  1.00  0.00    -0.203 F 
ATOM     72  F   UNL A   1      40.314  35.132  37.346  1.00  0.00    -0.200 F 
ATOM     73  C   UNL A   1      38.659  33.550  37.922  1.00  0.00     0.200 A 
ATOM     74  F   UNL A   1      37.031  31.929  38.469  1.00  0.00    -0.200 F 
ATOM     75  F   UNL A   1      38.260  34.316  38.946  1.00  0.00    -0.200 F 
ENDBRANCH  51  65
BRANCH  52  76
ATOM     76  C   UNL A   1      42.287  26.465  27.883  1.00  0.00     0.064 A 
ATOM     77  C   UNL A   1      43.245  26.952  26.982  1.00  0.00     0.173 A 
ATOM     78  C   UNL A   1      41.749  25.193  27.639  1.00  0.00     0.173 A 
ATOM     79  F   UNL A   1      43.776  28.170  27.163  1.00  0.00    -0.203 F 
ATOM     80  C   UNL A   1      43.633  26.207  25.871  1.00  0.00     0.198 A 
ATOM     81  C   UNL A   1      42.161  24.436  26.545  1.00  0.00     0.198 A 
ATOM     82  F   UNL A   1      40.835  24.679  28.475  1.00  0.00    -0.203 F 
ATOM     83  F   UNL A   1      44.515  26.715  25.000  1.00  0.00    -0.200 F 
ATOM     84  C   UNL A   1      43.095  24.946  25.657  1.00  0.00     0.200 A 
ATOM     85  F   UNL A   1      41.653  23.211  26.352  1.00  0.00    -0.200 F 
ATOM     86  F   UNL A   1      43.474  24.227  24.591  1.00  0.00    -0.200 F 
ENDBRANCH  52  76
BRANCH  64  87
ATOM     87  C   UNL A   1      44.746  27.139  34.367  1.00  0.00     0.064 A 
ATOM     88  C   UNL A   1      44.607  25.916  35.042  1.00  0.00     0.173 A 
ATOM     89  C   UNL A   1      46.011  27.746  34.366  1.00  0.00     0.173 A 
ATOM     90  F   UNL A   1      43.416  25.300  35.086  1.00  0.00    -0.203 F 
ATOM     91  C   UNL A   1      45.679  25.348  35.725  1.00  0.00     0.198 A 
ATOM     92  C   UNL A   1      47.091  27.156  35.017  1.00  0.00     0.198 A 
ATOM     93  F   UNL A   1      46.202  28.911  33.730  1.00  0.00    -0.203 F 
ATOM     94  F   UNL A   1      45.505  24.216  36.419  1.00  0.00    -0.200 F 
ATOM     95  C   UNL A   1      46.921  25.966  35.706  1.00  0.00     0.200 A 
ATOM     96  F   UNL A   1      48.294  27.745  34.983  1.00  0.00    -0.200 F 
ATOM     97  F   UNL A   1      47.953  25.418  36.362  1.00  0.00    -0.200 F 
ENDBRANCH  64  87
ENDBRANCH  38  39
ENDBRANCH  30  33
ENDBRANCH  28  29
ENDBRANCH  27  28
ENDBRANCH   1  27
TORSDOF 14
ENDMDL
