MODEL 1
REMARK VINA RESULT:     -12.6      0.000      0.000
REMARK SMILES NS(=O)(=O)c1ccc(NS(=O)(=O)c2cccc(C(=O)NCCCNC(=O)c3ccc(-c4c5nc(c(-c6c(F)c(F)c(F)c(F)c6F)c6ccc([nH]6)c(-c6c(F)c(F)c(F)c(F)c6F)c6nc(c(-c7c(F)c(F)c(F)c(F)c7F)c7ccc4[nH]7)C=C6)C=C5)cc3)c2)cc1
REMARK SMILES IDX 18 1 19 2 20 3 17 5 13 6 14 7 90 8 15 9 16 10 10 11 11 12
REMARK SMILES IDX 12 13 9 14 8 16 5 17 6 18 92 19 7 20 91 21 2 22 3 23 4 24
REMARK SMILES IDX 1 25 21 28 22 29 23 30 24 31 25 32 26 34 27 35 28 36 89 37
REMARK SMILES IDX 29 38 88 39 30 40 31 41 32 42 82 43 33 44 87 45 81 46 83 47
REMARK SMILES IDX 34 48 86 49 80 50 79 51 35 53 67 54 47 55 66 56 48 57 51 58
REMARK SMILES IDX 65 59 84 60 49 61 50 62 64 64 85 65 52 66 36 67 37 68 45 69
REMARK SMILES IDX 38 70 39 71 43 72 46 73 40 74 41 75 44 76 42 77 68 78 69 79
REMARK SMILES IDX 77 80 70 81 71 82 75 83 78 84 72 85 73 86 76 87 74 88 53 89
REMARK SMILES IDX 54 90 62 91 55 92 56 93 60 94 63 95 57 96 58 97 61 98 59 99
REMARK H PARENT 20 4 9 15 1 26 1 27 24 33 83 52 51 63
REMARK Flexibility Score: inf
ROOT
ATOM      1  C   UNL A   1      37.229  23.206  25.386  1.00  0.00     0.251 C 
ATOM      2  O   UNL A   1      38.001  24.090  25.761  1.00  0.00    -0.269 OA
ATOM      3  N   UNL A   1      37.788  21.995  25.061  1.00  0.00    -0.352 N 
ATOM      4  H   UNL A   1      38.769  21.991  25.134  1.00  0.00     0.163 HD
ENDROOT
BRANCH   1   5
ATOM      5  C   UNL A   1      35.764  23.502  25.359  1.00  0.00     0.041 A 
ATOM      6  C   UNL A   1      33.621  23.783  24.262  1.00  0.00     0.088 A 
ATOM      7  C   UNL A   1      32.957  23.881  25.484  1.00  0.00     0.022 A 
ATOM      8  C   UNL A   1      35.017  23.678  24.200  1.00  0.00     0.036 A 
ATOM      9  C   UNL A   1      33.704  23.783  26.657  1.00  0.00     0.002 A 
ATOM     10  C   UNL A   1      35.089  23.569  26.592  1.00  0.00     0.014 A 
BRANCH   6  11
ATOM     11  S   UNL A   1      32.716  23.555  22.751  1.00  0.00     0.261 S 
ATOM     12  O   UNL A   1      33.664  23.340  21.678  1.00  0.00    -0.201 OA
ATOM     13  O   UNL A   1      31.739  24.619  22.679  1.00  0.00    -0.201 OA
BRANCH  11  14
ATOM     14  N   UNL A   1      31.851  22.122  22.966  1.00  0.00    -0.280 N 
ATOM     15  H   UNL A   1      30.868  22.160  22.939  1.00  0.00     0.180 HD
BRANCH  14  16
ATOM     16  C   UNL A   1      32.474  20.853  23.186  1.00  0.00     0.049 A 
ATOM     17  C   UNL A   1      33.266  18.251  23.872  1.00  0.00     0.082 A 
ATOM     18  C   UNL A   1      33.646  19.321  24.672  1.00  0.00     0.024 A 
ATOM     19  C   UNL A   1      32.547  18.473  22.693  1.00  0.00     0.024 A 
ATOM     20  C   UNL A   1      33.240  20.611  24.328  1.00  0.00     0.028 A 
ATOM     21  C   UNL A   1      32.150  19.776  22.354  1.00  0.00     0.028 A 
BRANCH  17  22
ATOM     22  S   UNL A   1      33.604  16.594  24.392  1.00  0.00     0.238 S 
ATOM     23  O   UNL A   1      34.028  15.828  23.250  1.00  0.00    -0.207 OA
ATOM     24  O   UNL A   1      32.534  16.179  25.272  1.00  0.00    -0.207 OA
BRANCH  22  25
ATOM     25  N   UNL A   1      34.967  16.739  25.370  1.00  0.00    -0.225 NA
ATOM     26  H   UNL A   1      34.764  17.374  26.142  1.00  0.00     0.137 HD
ATOM     27  H   UNL A   1      35.742  17.109  24.820  1.00  0.00     0.137 HD
ENDBRANCH  22  25
ENDBRANCH  17  22
ENDBRANCH  14  16
ENDBRANCH  11  14
ENDBRANCH   6  11
ENDBRANCH   1   5
BRANCH   3  28
ATOM     28  C   UNL A   1      37.243  20.715  24.630  1.00  0.00     0.118 C 
BRANCH  28  29
ATOM     29  C   UNL A   1      38.176  19.557  24.991  1.00  0.00     0.042 C 
BRANCH  29  30
ATOM     30  C   UNL A   1      39.191  19.909  26.077  1.00  0.00     0.118 C 
BRANCH  30  31
ATOM     31  N   UNL A   1      40.335  19.010  26.066  1.00  0.00    -0.352 N 
ATOM     32  C   UNL A   1      41.679  19.281  26.066  1.00  0.00     0.251 C 
ATOM     33  H   UNL A   1      40.108  18.052  26.056  1.00  0.00     0.163 HD
ATOM     34  O   UNL A   1      42.473  18.372  25.835  1.00  0.00    -0.269 OA
BRANCH  32  35
ATOM     35  C   UNL A   1      42.193  20.642  26.339  1.00  0.00     0.039 A 
ATOM     36  C   UNL A   1      42.350  21.042  27.670  1.00  0.00     0.014 A 
ATOM     37  C   UNL A   1      42.440  21.554  25.308  1.00  0.00     0.014 A 
ATOM     38  C   UNL A   1      42.783  22.337  27.968  1.00  0.00     0.010 A 
ATOM     39  C   UNL A   1      42.935  22.825  25.603  1.00  0.00     0.010 A 
ATOM     40  C   UNL A   1      43.095  23.234  26.935  1.00  0.00    -0.014 A 
BRANCH  40  41
ATOM     41  C   UNL A   1      43.560  24.613  27.232  1.00  0.00     0.031 A 
ATOM     42  C   UNL A   1      42.598  25.637  27.769  1.00  0.00     0.074 A 
ATOM     43  C   UNL A   1      44.835  24.958  26.972  1.00  0.00     0.049 A 
ATOM     44  N   UNL A   1      42.792  26.907  28.020  1.00  0.00    -0.248 NA
ATOM     45  C   UNL A   1      41.226  25.177  28.032  1.00  0.00     0.031 C 
ATOM     46  C   UNL A   1      45.856  24.069  26.416  1.00  0.00     0.029 A 
ATOM     47  N   UNL A   1      45.489  26.154  27.133  1.00  0.00    -0.354 N 
ATOM     48  C   UNL A   1      41.565  27.400  28.449  1.00  0.00     0.074 A 
ATOM     49  C   UNL A   1      40.623  26.303  28.382  1.00  0.00     0.031 C 
ATOM     50  C   UNL A   1      47.011  24.743  26.298  1.00  0.00     0.029 A 
ATOM     51  C   UNL A   1      46.805  26.119  26.741  1.00  0.00     0.049 A 
ATOM     52  H   UNL A   1      45.056  26.962  27.493  1.00  0.00     0.167 HD
ATOM     53  C   UNL A   1      41.258  28.648  28.877  1.00  0.00     0.037 A 
ATOM     54  C   UNL A   1      47.738  27.089  26.737  1.00  0.00     0.037 A 
ATOM     55  C   UNL A   1      42.205  29.727  28.977  1.00  0.00     0.049 A 
ATOM     56  C   UNL A   1      47.376  28.460  27.239  1.00  0.00     0.074 A 
ATOM     57  C   UNL A   1      42.004  31.014  29.446  1.00  0.00     0.029 A 
ATOM     58  N   UNL A   1      43.538  29.642  28.604  1.00  0.00    -0.354 N 
ATOM     59  N   UNL A   1      46.227  28.901  27.688  1.00  0.00    -0.248 NA
ATOM     60  C   UNL A   1      48.447  29.467  27.242  1.00  0.00     0.031 C 
ATOM     61  C   UNL A   1      43.209  31.716  29.329  1.00  0.00     0.029 A 
ATOM     62  C   UNL A   1      44.170  30.855  28.825  1.00  0.00     0.049 A 
ATOM     63  H   UNL A   1      43.971  28.838  28.237  1.00  0.00     0.167 HD
ATOM     64  C   UNL A   1      46.440  30.223  28.054  1.00  0.00     0.074 A 
ATOM     65  C   UNL A   1      47.835  30.510  27.785  1.00  0.00     0.031 C 
ATOM     66  C   UNL A   1      45.561  31.118  28.564  1.00  0.00     0.037 A 
BRANCH  53  67
ATOM     67  C   UNL A   1      39.835  28.911  29.279  1.00  0.00     0.064 A 
ATOM     68  C   UNL A   1      38.889  29.386  28.357  1.00  0.00     0.173 A 
ATOM     69  C   UNL A   1      39.406  28.658  30.590  1.00  0.00     0.173 A 
ATOM     70  F   UNL A   1      39.251  29.654  27.095  1.00  0.00    -0.203 F 
ATOM     71  C   UNL A   1      37.572  29.626  28.743  1.00  0.00     0.198 A 
ATOM     72  C   UNL A   1      38.081  28.873  30.964  1.00  0.00     0.198 A 
ATOM     73  F   UNL A   1      40.268  28.198  31.508  1.00  0.00    -0.203 F 
ATOM     74  F   UNL A   1      36.697  30.126  27.859  1.00  0.00    -0.200 F 
ATOM     75  C   UNL A   1      37.168  29.363  30.043  1.00  0.00     0.200 A 
ATOM     76  F   UNL A   1      37.689  28.607  32.218  1.00  0.00    -0.200 F 
ATOM     77  F   UNL A   1      35.900  29.592  30.411  1.00  0.00    -0.200 F 
ENDBRANCH  53  67
BRANCH  54  78
ATOM     78  C   UNL A   1      49.118  26.787  26.275  1.00  0.00     0.064 A 
ATOM     79  C   UNL A   1      50.078  26.287  27.166  1.00  0.00     0.173 A 
ATOM     80  C   UNL A   1      49.504  26.990  24.943  1.00  0.00     0.173 A 
ATOM     81  F   UNL A   1      49.760  26.097  28.456  1.00  0.00    -0.203 F 
ATOM     82  C   UNL A   1      51.378  26.018  26.746  1.00  0.00     0.198 A 
ATOM     83  C   UNL A   1      50.797  26.696  24.518  1.00  0.00     0.198 A 
ATOM     84  F   UNL A   1      48.620  27.462  24.053  1.00  0.00    -0.203 F 
ATOM     85  F   UNL A   1      52.288  25.581  27.627  1.00  0.00    -0.200 F 
ATOM     86  C   UNL A   1      51.736  26.218  25.421  1.00  0.00     0.200 A 
ATOM     87  F   UNL A   1      51.136  26.880  23.235  1.00  0.00    -0.200 F 
ATOM     88  F   UNL A   1      52.985  25.957  25.015  1.00  0.00    -0.200 F 
ENDBRANCH  54  78
BRANCH  66  89
ATOM     89  C   UNL A   1      46.090  32.480  28.903  1.00  0.00     0.064 A 
ATOM     90  C   UNL A   1      46.068  33.531  27.975  1.00  0.00     0.173 A 
ATOM     91  C   UNL A   1      46.598  32.743  30.185  1.00  0.00     0.173 A 
ATOM     92  F   UNL A   1      45.607  33.323  26.732  1.00  0.00    -0.203 F 
ATOM     93  C   UNL A   1      46.558  34.790  28.309  1.00  0.00     0.198 A 
ATOM     94  C   UNL A   1      47.063  34.010  30.524  1.00  0.00     0.198 A 
ATOM     95  F   UNL A   1      46.636  31.773  31.110  1.00  0.00    -0.203 F 
ATOM     96  F   UNL A   1      46.569  35.768  27.393  1.00  0.00    -0.200 F 
ATOM     97  C   UNL A   1      47.049  35.030  29.585  1.00  0.00     0.200 A 
ATOM     98  F   UNL A   1      47.526  34.244  31.760  1.00  0.00    -0.200 F 
ATOM     99  F   UNL A   1      47.516  36.245  29.905  1.00  0.00    -0.200 F 
ENDBRANCH  66  89
ENDBRANCH  40  41
ENDBRANCH  32  35
ENDBRANCH  30  31
ENDBRANCH  29  30
ENDBRANCH  28  29
ENDBRANCH   3  28
TORSDOF 15
ENDMDL
MODEL 2
REMARK VINA RESULT:     -12.5      5.996     10.096
REMARK SMILES NS(=O)(=O)c1ccc(NS(=O)(=O)c2cccc(C(=O)NCCCNC(=O)c3ccc(-c4c5nc(c(-c6c(F)c(F)c(F)c(F)c6F)c6ccc([nH]6)c(-c6c(F)c(F)c(F)c(F)c6F)c6nc(c(-c7c(F)c(F)c(F)c(F)c7F)c7ccc4[nH]7)C=C6)C=C5)cc3)c2)cc1
REMARK SMILES IDX 18 1 19 2 20 3 17 5 13 6 14 7 90 8 15 9 16 10 10 11 11 12
REMARK SMILES IDX 12 13 9 14 8 16 5 17 6 18 92 19 7 20 91 21 2 22 3 23 4 24
REMARK SMILES IDX 1 25 21 28 22 29 23 30 24 31 25 32 26 34 27 35 28 36 89 37
REMARK SMILES IDX 29 38 88 39 30 40 31 41 32 42 82 43 33 44 87 45 81 46 83 47
REMARK SMILES IDX 34 48 86 49 80 50 79 51 35 53 67 54 47 55 66 56 48 57 51 58
REMARK SMILES IDX 65 59 84 60 49 61 50 62 64 64 85 65 52 66 36 67 37 68 45 69
REMARK SMILES IDX 38 70 39 71 43 72 46 73 40 74 41 75 44 76 42 77 68 78 69 79
REMARK SMILES IDX 77 80 70 81 71 82 75 83 78 84 72 85 73 86 76 87 74 88 53 89
REMARK SMILES IDX 54 90 62 91 55 92 56 93 60 94 63 95 57 96 58 97 61 98 59 99
REMARK H PARENT 20 4 9 15 1 26 1 27 24 33 83 52 51 63
REMARK Flexibility Score: inf
ROOT
ATOM      1  C   UNL A   1      33.754  29.117  27.039  1.00  0.00     0.251 C 
ATOM      2  O   UNL A   1      34.828  29.125  27.644  1.00  0.00    -0.269 OA
ATOM      3  N   UNL A   1      32.943  30.213  27.207  1.00  0.00    -0.352 N 
ATOM      4  H   UNL A   1      33.313  30.873  27.836  1.00  0.00     0.163 HD
ENDROOT
BRANCH   1   5
ATOM      5  C   UNL A   1      33.444  27.957  26.150  1.00  0.00     0.041 A 
ATOM      6  C   UNL A   1      32.140  26.035  25.456  1.00  0.00     0.088 A 
ATOM      7  C   UNL A   1      32.859  25.919  24.267  1.00  0.00     0.022 A 
ATOM      8  C   UNL A   1      32.484  26.989  26.422  1.00  0.00     0.036 A 
ATOM      9  C   UNL A   1      33.878  26.836  24.014  1.00  0.00     0.002 A 
ATOM     10  C   UNL A   1      34.148  27.859  24.935  1.00  0.00     0.014 A 
BRANCH   6  11
ATOM     11  S   UNL A   1      30.627  25.137  25.695  1.00  0.00     0.261 S 
ATOM     12  O   UNL A   1      29.813  25.859  26.650  1.00  0.00    -0.201 OA
ATOM     13  O   UNL A   1      30.986  23.754  25.919  1.00  0.00    -0.201 OA
BRANCH  11  14
ATOM     14  N   UNL A   1      29.840  25.194  24.204  1.00  0.00    -0.280 N 
ATOM     15  H   UNL A   1      29.719  24.354  23.706  1.00  0.00     0.180 HD
BRANCH  14  16
ATOM     16  C   UNL A   1      29.338  26.402  23.625  1.00  0.00     0.049 A 
ATOM     17  C   UNL A   1      28.502  28.988  22.930  1.00  0.00     0.082 A 
ATOM     18  C   UNL A   1      27.595  28.098  23.491  1.00  0.00     0.024 A 
ATOM     19  C   UNL A   1      29.810  28.580  22.651  1.00  0.00     0.024 A 
ATOM     20  C   UNL A   1      28.022  26.817  23.842  1.00  0.00     0.028 A 
ATOM     21  C   UNL A   1      30.226  27.286  23.003  1.00  0.00     0.028 A 
BRANCH  17  22
ATOM     22  S   UNL A   1      28.034  30.672  22.658  1.00  0.00     0.238 S 
ATOM     23  O   UNL A   1      27.106  31.067  23.685  1.00  0.00    -0.207 OA
ATOM     24  O   UNL A   1      27.768  30.834  21.246  1.00  0.00    -0.207 OA
BRANCH  22  25
ATOM     25  N   UNL A   1      29.440  31.546  22.959  1.00  0.00    -0.225 NA
ATOM     26  H   UNL A   1      29.655  31.510  23.955  1.00  0.00     0.137 HD
ATOM     27  H   UNL A   1      29.305  32.516  22.676  1.00  0.00     0.137 HD
ENDBRANCH  22  25
ENDBRANCH  17  22
ENDBRANCH  14  16
ENDBRANCH  11  14
ENDBRANCH   6  11
ENDBRANCH   1   5
BRANCH   3  28
ATOM     28  C   UNL A   1      31.655  30.608  26.656  1.00  0.00     0.118 C 
BRANCH  28  29
ATOM     29  C   UNL A   1      31.399  32.105  26.842  1.00  0.00     0.042 C 
BRANCH  29  30
ATOM     30  C   UNL A   1      32.673  32.946  26.825  1.00  0.00     0.118 C 
BRANCH  30  31
ATOM     31  N   UNL A   1      32.515  34.190  27.564  1.00  0.00    -0.352 N 
ATOM     32  C   UNL A   1      33.125  34.627  28.712  1.00  0.00     0.251 C 
ATOM     33  H   UNL A   1      31.865  34.820  27.179  1.00  0.00     0.163 HD
ATOM     34  O   UNL A   1      32.683  35.620  29.284  1.00  0.00    -0.269 OA
BRANCH  32  35
ATOM     35  C   UNL A   1      34.304  33.928  29.275  1.00  0.00     0.039 A 
ATOM     36  C   UNL A   1      34.090  32.848  30.138  1.00  0.00     0.014 A 
ATOM     37  C   UNL A   1      35.607  34.374  29.032  1.00  0.00     0.014 A 
ATOM     38  C   UNL A   1      35.175  32.197  30.730  1.00  0.00     0.010 A 
ATOM     39  C   UNL A   1      36.693  33.683  29.570  1.00  0.00     0.010 A 
ATOM     40  C   UNL A   1      36.487  32.599  30.436  1.00  0.00    -0.014 A 
BRANCH  40  41
ATOM     41  C   UNL A   1      37.654  31.917  31.053  1.00  0.00     0.031 A 
ATOM     42  C   UNL A   1      38.100  32.286  32.441  1.00  0.00     0.074 A 
ATOM     43  C   UNL A   1      38.343  31.002  30.345  1.00  0.00     0.049 A 
ATOM     44  N   UNL A   1      39.134  31.860  33.122  1.00  0.00    -0.248 NA
ATOM     45  C   UNL A   1      37.289  33.289  33.149  1.00  0.00     0.031 C 
ATOM     46  C   UNL A   1      38.035  30.584  28.977  1.00  0.00     0.029 A 
ATOM     47  N   UNL A   1      39.451  30.263  30.677  1.00  0.00    -0.354 N 
ATOM     48  C   UNL A   1      39.110  32.557  34.323  1.00  0.00     0.074 A 
ATOM     49  C   UNL A   1      37.985  33.465  34.262  1.00  0.00     0.031 C 
ATOM     50  C   UNL A   1      38.921  29.651  28.592  1.00  0.00     0.029 A 
ATOM     51  C   UNL A   1      39.877  29.428  29.673  1.00  0.00     0.049 A 
ATOM     52  H   UNL A   1      39.900  30.327  31.550  1.00  0.00     0.167 HD
ATOM     53  C   UNL A   1      39.939  32.436  35.388  1.00  0.00     0.037 A 
ATOM     54  C   UNL A   1      40.921  28.580  29.629  1.00  0.00     0.037 A 
ATOM     55  C   UNL A   1      41.035  31.507  35.462  1.00  0.00     0.049 A 
ATOM     56  C   UNL A   1      41.812  28.449  30.834  1.00  0.00     0.074 A 
ATOM     57  C   UNL A   1      41.903  31.273  36.514  1.00  0.00     0.029 A 
ATOM     58  N   UNL A   1      41.413  30.652  34.437  1.00  0.00    -0.354 N 
ATOM     59  N   UNL A   1      41.751  29.077  31.982  1.00  0.00    -0.248 NA
ATOM     60  C   UNL A   1      42.916  27.483  30.738  1.00  0.00     0.031 C 
ATOM     61  C   UNL A   1      42.823  30.298  36.116  1.00  0.00     0.029 A 
ATOM     62  C   UNL A   1      42.505  29.895  34.829  1.00  0.00     0.049 A 
ATOM     63  H   UNL A   1      40.970  30.592  33.560  1.00  0.00     0.167 HD
ATOM     64  C   UNL A   1      42.783  28.565  32.755  1.00  0.00     0.074 A 
ATOM     65  C   UNL A   1      43.450  27.563  31.948  1.00  0.00     0.031 C 
ATOM     66  C   UNL A   1      43.147  28.894  34.018  1.00  0.00     0.037 A 
BRANCH  53  67
ATOM     67  C   UNL A   1      39.685  33.330  36.568  1.00  0.00     0.064 A 
ATOM     68  C   UNL A   1      38.802  32.958  37.594  1.00  0.00     0.173 A 
ATOM     69  C   UNL A   1      40.353  34.558  36.690  1.00  0.00     0.173 A 
ATOM     70  F   UNL A   1      38.130  31.800  37.521  1.00  0.00    -0.203 F 
ATOM     71  C   UNL A   1      38.576  33.797  38.683  1.00  0.00     0.198 A 
ATOM     72  C   UNL A   1      40.146  35.380  37.795  1.00  0.00     0.198 A 
ATOM     73  F   UNL A   1      41.211  34.958  35.740  1.00  0.00    -0.203 F 
ATOM     74  F   UNL A   1      37.693  33.443  39.627  1.00  0.00    -0.200 F 
ATOM     75  C   UNL A   1      39.252  35.003  38.785  1.00  0.00     0.200 A 
ATOM     76  F   UNL A   1      40.808  36.541  37.898  1.00  0.00    -0.200 F 
ATOM     77  F   UNL A   1      39.036  35.807  39.836  1.00  0.00    -0.200 F 
ENDBRANCH  53  67
BRANCH  54  78
ATOM     78  C   UNL A   1      41.159  27.760  28.413  1.00  0.00     0.064 A 
ATOM     79  C   UNL A   1      42.037  28.201  27.413  1.00  0.00     0.173 A 
ATOM     80  C   UNL A   1      40.518  26.528  28.225  1.00  0.00     0.173 A 
ATOM     81  F   UNL A   1      42.656  29.384  27.540  1.00  0.00    -0.203 F 
ATOM     82  C   UNL A   1      42.252  27.447  26.262  1.00  0.00     0.198 A 
ATOM     83  C   UNL A   1      40.753  25.762  27.086  1.00  0.00     0.198 A 
ATOM     84  F   UNL A   1      39.672  26.062  29.155  1.00  0.00    -0.203 F 
ATOM     85  F   UNL A   1      43.064  27.910  25.303  1.00  0.00    -0.200 F 
ATOM     86  C   UNL A   1      41.615  26.226  26.101  1.00  0.00     0.200 A 
ATOM     87  F   UNL A   1      40.144  24.578  26.938  1.00  0.00    -0.200 F 
ATOM     88  F   UNL A   1      41.823  25.500  24.995  1.00  0.00    -0.200 F 
ENDBRANCH  54  78
BRANCH  66  89
ATOM     89  C   UNL A   1      44.293  28.137  34.620  1.00  0.00     0.064 A 
ATOM     90  C   UNL A   1      45.612  28.604  34.528  1.00  0.00     0.173 A 
ATOM     91  C   UNL A   1      44.063  26.944  35.322  1.00  0.00     0.173 A 
ATOM     92  F   UNL A   1      45.884  29.730  33.853  1.00  0.00    -0.203 F 
ATOM     93  C   UNL A   1      46.663  27.891  35.098  1.00  0.00     0.198 A 
ATOM     94  C   UNL A   1      45.113  26.248  35.913  1.00  0.00     0.198 A 
ATOM     95  F   UNL A   1      42.819  26.459  35.441  1.00  0.00    -0.203 F 
ATOM     96  F   UNL A   1      47.921  28.331  34.961  1.00  0.00    -0.200 F 
ATOM     97  C   UNL A   1      46.412  26.717  35.795  1.00  0.00     0.200 A 
ATOM     98  F   UNL A   1      44.868  25.120  36.595  1.00  0.00    -0.200 F 
ATOM     99  F   UNL A   1      47.426  26.035  36.346  1.00  0.00    -0.200 F 
ENDBRANCH  66  89
ENDBRANCH  40  41
ENDBRANCH  32  35
ENDBRANCH  30  31
ENDBRANCH  29  30
ENDBRANCH  28  29
ENDBRANCH   3  28
TORSDOF 15
ENDMDL
MODEL 3
REMARK VINA RESULT:     -12.5      6.066     11.283
REMARK SMILES NS(=O)(=O)c1ccc(NS(=O)(=O)c2cccc(C(=O)NCCCNC(=O)c3ccc(-c4c5nc(c(-c6c(F)c(F)c(F)c(F)c6F)c6ccc([nH]6)c(-c6c(F)c(F)c(F)c(F)c6F)c6nc(c(-c7c(F)c(F)c(F)c(F)c7F)c7ccc4[nH]7)C=C6)C=C5)cc3)c2)cc1
REMARK SMILES IDX 18 1 19 2 20 3 17 5 13 6 14 7 90 8 15 9 16 10 10 11 11 12
REMARK SMILES IDX 12 13 9 14 8 16 5 17 6 18 92 19 7 20 91 21 2 22 3 23 4 24
REMARK SMILES IDX 1 25 21 28 22 29 23 30 24 31 25 32 26 34 27 35 28 36 89 37
REMARK SMILES IDX 29 38 88 39 30 40 31 41 32 42 82 43 33 44 87 45 81 46 83 47
REMARK SMILES IDX 34 48 86 49 80 50 79 51 35 53 67 54 47 55 66 56 48 57 51 58
REMARK SMILES IDX 65 59 84 60 49 61 50 62 64 64 85 65 52 66 36 67 37 68 45 69
REMARK SMILES IDX 38 70 39 71 43 72 46 73 40 74 41 75 44 76 42 77 68 78 69 79
REMARK SMILES IDX 77 80 70 81 71 82 75 83 78 84 72 85 73 86 76 87 74 88 53 89
REMARK SMILES IDX 54 90 62 91 55 92 56 93 60 94 63 95 57 96 58 97 61 98 59 99
REMARK H PARENT 20 4 9 15 1 26 1 27 24 33 83 52 51 63
REMARK Flexibility Score: inf
ROOT
ATOM      1  C   UNL A   1      33.767  29.134  27.005  1.00  0.00     0.251 C 
ATOM      2  O   UNL A   1      34.833  29.135  27.624  1.00  0.00    -0.269 OA
ATOM      3  N   UNL A   1      32.945  30.218  27.189  1.00  0.00    -0.352 N 
ATOM      4  H   UNL A   1      33.300  30.865  27.840  1.00  0.00     0.163 HD
ENDROOT
BRANCH   1   5
ATOM      5  C   UNL A   1      33.479  27.995  26.082  1.00  0.00     0.041 A 
ATOM      6  C   UNL A   1      32.199  26.081  25.320  1.00  0.00     0.088 A 
ATOM      7  C   UNL A   1      32.937  26.001  24.140  1.00  0.00     0.022 A 
ATOM      8  C   UNL A   1      32.521  27.014  26.315  1.00  0.00     0.036 A 
ATOM      9  C   UNL A   1      33.953  26.931  23.926  1.00  0.00     0.002 A 
ATOM     10  C   UNL A   1      34.201  27.932  24.876  1.00  0.00     0.014 A 
BRANCH   6  11
ATOM     11  S   UNL A   1      30.688  25.168  25.513  1.00  0.00     0.261 S 
ATOM     12  O   UNL A   1      29.871  25.840  26.501  1.00  0.00    -0.201 OA
ATOM     13  O   UNL A   1      31.052  23.777  25.670  1.00  0.00    -0.201 OA
BRANCH  11  14
ATOM     14  N   UNL A   1      29.903  25.295  24.026  1.00  0.00    -0.280 N 
ATOM     15  H   UNL A   1      29.801  24.482  23.479  1.00  0.00     0.180 HD
BRANCH  14  16
ATOM     16  C   UNL A   1      29.376  26.523  23.517  1.00  0.00     0.049 A 
ATOM     17  C   UNL A   1      28.498  29.130  22.965  1.00  0.00     0.082 A 
ATOM     18  C   UNL A   1      27.613  28.204  23.501  1.00  0.00     0.024 A 
ATOM     19  C   UNL A   1      29.804  28.751  22.639  1.00  0.00     0.024 A 
ATOM     20  C   UNL A   1      28.061  26.912  23.781  1.00  0.00     0.028 A 
ATOM     21  C   UNL A   1      30.241  27.446  22.919  1.00  0.00     0.028 A 
BRANCH  17  22
ATOM     22  S   UNL A   1      28.007  30.820  22.785  1.00  0.00     0.238 S 
ATOM     23  O   UNL A   1      27.135  31.168  23.876  1.00  0.00    -0.207 OA
ATOM     24  O   UNL A   1      27.662  31.034  21.397  1.00  0.00    -0.207 OA
BRANCH  22  25
ATOM     25  N   UNL A   1      29.423  31.692  23.042  1.00  0.00    -0.225 NA
ATOM     26  H   UNL A   1      29.937  31.770  22.165  1.00  0.00     0.137 HD
ATOM     27  H   UNL A   1      29.999  31.210  23.732  1.00  0.00     0.137 HD
ENDBRANCH  22  25
ENDBRANCH  17  22
ENDBRANCH  14  16
ENDBRANCH  11  14
ENDBRANCH   6  11
ENDBRANCH   1   5
BRANCH   3  28
ATOM     28  C   UNL A   1      31.661  30.618  26.630  1.00  0.00     0.118 C 
BRANCH  28  29
ATOM     29  C   UNL A   1      31.403  32.113  26.827  1.00  0.00     0.042 C 
BRANCH  29  30
ATOM     30  C   UNL A   1      32.679  32.949  26.876  1.00  0.00     0.118 C 
BRANCH  30  31
ATOM     31  N   UNL A   1      32.483  34.203  27.588  1.00  0.00    -0.352 N 
ATOM     32  C   UNL A   1      33.064  34.675  28.737  1.00  0.00     0.251 C 
ATOM     33  H   UNL A   1      31.825  34.811  27.180  1.00  0.00     0.163 HD
ATOM     34  O   UNL A   1      32.592  35.669  29.282  1.00  0.00    -0.269 OA
BRANCH  32  35
ATOM     35  C   UNL A   1      34.248  34.013  29.331  1.00  0.00     0.039 A 
ATOM     36  C   UNL A   1      34.044  32.944  30.210  1.00  0.00     0.014 A 
ATOM     37  C   UNL A   1      35.545  34.484  29.103  1.00  0.00     0.014 A 
ATOM     38  C   UNL A   1      35.133  32.328  30.832  1.00  0.00     0.010 A 
ATOM     39  C   UNL A   1      36.637  33.828  29.671  1.00  0.00     0.010 A 
ATOM     40  C   UNL A   1      36.441  32.755  30.553  1.00  0.00    -0.014 A 
BRANCH  40  41
ATOM     41  C   UNL A   1      37.611  32.110  31.201  1.00  0.00     0.031 A 
ATOM     42  C   UNL A   1      38.397  31.057  30.468  1.00  0.00     0.074 A 
ATOM     43  C   UNL A   1      37.937  32.433  32.467  1.00  0.00     0.049 A 
ATOM     44  N   UNL A   1      39.400  30.327  30.887  1.00  0.00    -0.248 NA
ATOM     45  C   UNL A   1      37.981  30.767  29.088  1.00  0.00     0.031 C 
ATOM     46  C   UNL A   1      37.232  33.409  33.298  1.00  0.00     0.029 A 
ATOM     47  N   UNL A   1      38.940  31.968  33.280  1.00  0.00    -0.354 N 
ATOM     48  C   UNL A   1      39.719  29.480  29.833  1.00  0.00     0.074 A 
ATOM     49  C   UNL A   1      38.776  29.755  28.771  1.00  0.00     0.031 C 
ATOM     50  C   UNL A   1      37.834  33.485  34.496  1.00  0.00     0.029 A 
ATOM     51  C   UNL A   1      38.947  32.541  34.528  1.00  0.00     0.049 A 
ATOM     52  H   UNL A   1      39.593  31.288  32.996  1.00  0.00     0.167 HD
ATOM     53  C   UNL A   1      40.719  28.570  29.751  1.00  0.00     0.037 A 
ATOM     54  C   UNL A   1      39.759  32.326  35.580  1.00  0.00     0.037 A 
ATOM     55  C   UNL A   1      41.679  28.324  30.795  1.00  0.00     0.049 A 
ATOM     56  C   UNL A   1      40.876  31.326  35.455  1.00  0.00     0.074 A 
ATOM     57  C   UNL A   1      42.760  27.459  30.791  1.00  0.00     0.029 A 
ATOM     58  N   UNL A   1      41.674  28.950  32.033  1.00  0.00    -0.354 N 
ATOM     59  N   UNL A   1      41.197  30.567  34.437  1.00  0.00    -0.248 NA
ATOM     60  C   UNL A   1      41.749  31.160  36.626  1.00  0.00     0.031 C 
ATOM     61  C   UNL A   1      43.391  27.541  32.037  1.00  0.00     0.029 A 
ATOM     62  C   UNL A   1      42.728  28.485  32.803  1.00  0.00     0.049 A 
ATOM     63  H   UNL A   1      41.018  29.625  32.322  1.00  0.00     0.167 HD
ATOM     64  C   UNL A   1      42.323  29.856  34.830  1.00  0.00     0.074 A 
ATOM     65  C   UNL A   1      42.637  30.284  36.177  1.00  0.00     0.031 C 
ATOM     66  C   UNL A   1      43.032  28.932  34.137  1.00  0.00     0.037 A 
BRANCH  53  67
ATOM     67  C   UNL A   1      40.831  27.776  28.482  1.00  0.00     0.064 A 
ATOM     68  C   UNL A   1      41.627  28.212  27.411  1.00  0.00     0.173 A 
ATOM     69  C   UNL A   1      40.160  26.551  28.345  1.00  0.00     0.173 A 
ATOM     70  F   UNL A   1      42.279  29.380  27.486  1.00  0.00    -0.203 F 
ATOM     71  C   UNL A   1      41.722  27.465  26.239  1.00  0.00     0.198 A 
ATOM     72  C   UNL A   1      40.281  25.794  27.182  1.00  0.00     0.198 A 
ATOM     73  F   UNL A   1      39.391  26.087  29.341  1.00  0.00    -0.203 F 
ATOM     74  F   UNL A   1      42.448  27.925  25.210  1.00  0.00    -0.200 F 
ATOM     75  C   UNL A   1      41.054  26.255  26.129  1.00  0.00     0.200 A 
ATOM     76  F   UNL A   1      39.644  24.618  27.082  1.00  0.00    -0.200 F 
ATOM     77  F   UNL A   1      41.150  25.536  25.001  1.00  0.00    -0.200 F 
ENDBRANCH  53  67
BRANCH  54  78
ATOM     78  C   UNL A   1      39.567  33.101  36.833  1.00  0.00     0.064 A 
ATOM     79  C   UNL A   1      38.638  32.685  37.797  1.00  0.00     0.173 A 
ATOM     80  C   UNL A   1      40.303  34.265  37.093  1.00  0.00     0.173 A 
ATOM     81  F   UNL A   1      37.897  31.588  37.582  1.00  0.00    -0.203 F 
ATOM     82  C   UNL A   1      38.440  33.415  38.966  1.00  0.00     0.198 A 
ATOM     83  C   UNL A   1      40.122  34.981  38.274  1.00  0.00     0.198 A 
ATOM     84  F   UNL A   1      41.206  34.701  36.203  1.00  0.00    -0.203 F 
ATOM     85  F   UNL A   1      37.516  33.018  39.852  1.00  0.00    -0.200 F 
ATOM     86  C   UNL A   1      39.185  34.559  39.207  1.00  0.00     0.200 A 
ATOM     87  F   UNL A   1      40.851  36.080  38.508  1.00  0.00    -0.200 F 
ATOM     88  F   UNL A   1      38.996  35.260  40.333  1.00  0.00    -0.200 F 
ENDBRANCH  54  78
BRANCH  66  89
ATOM     89  C   UNL A   1      44.240  28.351  34.810  1.00  0.00     0.064 A 
ATOM     90  C   UNL A   1      45.500  28.959  34.712  1.00  0.00     0.173 A 
ATOM     91  C   UNL A   1      44.127  27.188  35.587  1.00  0.00     0.173 A 
ATOM     92  F   UNL A   1      45.660  30.063  33.968  1.00  0.00    -0.203 F 
ATOM     93  C   UNL A   1      46.610  28.409  35.349  1.00  0.00     0.198 A 
ATOM     94  C   UNL A   1      45.233  26.656  36.243  1.00  0.00     0.198 A 
ATOM     95  F   UNL A   1      42.943  26.573  35.716  1.00  0.00    -0.203 F 
ATOM     96  F   UNL A   1      47.813  28.981  35.206  1.00  0.00    -0.200 F 
ATOM     97  C   UNL A   1      46.474  27.263  36.118  1.00  0.00     0.200 A 
ATOM     98  F   UNL A   1      45.099  25.555  36.996  1.00  0.00    -0.200 F 
ATOM     99  F   UNL A   1      47.543  26.738  36.733  1.00  0.00    -0.200 F 
ENDBRANCH  66  89
ENDBRANCH  40  41
ENDBRANCH  32  35
ENDBRANCH  30  31
ENDBRANCH  29  30
ENDBRANCH  28  29
ENDBRANCH   3  28
TORSDOF 15
ENDMDL
