MODEL 1
REMARK VINA RESULT:     -12.4      0.000      0.000
REMARK SMILES CCC[NH2+][C@]1(C(=O)NCCCNC(=O)c2ccc(-c3c4nc(c(-c5c(F)c(F)c(F)c(F)c5F)c5ccc([nH]5)c(-c5c(F)c(F)c(F)c(F)c5F)c5nc(c(-c6c(F)c(F)c(F)c(F)c6F)c6ccc3[nH]6)C=C5)C=C4)cc2)CC[C@H](n2nc(C)c(CC)c2C)C1
REMARK SMILES IDX 9 1 8 2 6 3 7 4 5 6 78 7 90 8 79 9 80 10 4 11 3 14 2 15 1 16
REMARK SMILES IDX 81 17 82 18 88 19 83 20 85 21 89 22 84 23 86 24 87 25 10 26
REMARK SMILES IDX 11 27 12 28 13 29 14 31 15 32 16 33 77 34 17 35 76 36 18 37
REMARK SMILES IDX 19 38 20 39 70 40 21 41 75 42 69 43 71 44 22 45 74 46 68 47
REMARK SMILES IDX 67 48 23 50 55 51 35 52 54 53 36 54 39 55 53 56 72 57 37 58
REMARK SMILES IDX 38 59 52 61 73 62 40 63 24 64 25 65 33 66 26 67 27 68 31 69
REMARK SMILES IDX 34 70 28 71 29 72 32 73 30 74 56 75 57 76 65 77 58 78 59 79
REMARK SMILES IDX 63 80 66 81 60 82 61 83 64 84 62 85 41 86 42 87 50 88 43 89
REMARK SMILES IDX 44 90 48 91 51 92 45 93 46 94 49 95 47 96
REMARK H PARENT 8 5 4 12 4 13 12 30 71 49 39 60
REMARK Flexibility Score: inf
ROOT
ATOM      1  C   UNL A   1      37.009  20.349  24.913  1.00  0.00     0.118 C 
ENDROOT
BRANCH   1   2
ATOM      2  N   UNL A   1      35.699  19.769  25.162  1.00  0.00    -0.351 N 
ATOM      3  C   UNL A   1      34.448  20.304  24.977  1.00  0.00     0.281 C 
ATOM      4  O   UNL A   1      33.526  19.484  24.878  1.00  0.00    -0.268 OA
ATOM      5  H   UNL A   1      35.711  18.852  25.519  1.00  0.00     0.163 HD
BRANCH   3   6
ATOM      6  C   UNL A   1      34.143  21.838  25.105  1.00  0.00     0.177 C 
ATOM      7  C   UNL A   1      35.010  22.542  26.165  1.00  0.00     0.081 C 
ATOM      8  C   UNL A   1      34.752  22.482  23.840  1.00  0.00     0.106 C 
ATOM      9  C   UNL A   1      35.035  24.007  25.703  1.00  0.00     0.034 C 
ATOM     10  C   UNL A   1      35.028  23.969  24.143  1.00  0.00     0.114 C 
BRANCH   6  11
ATOM     11  N   UNL A   1      32.725  22.076  25.436  1.00  0.00    -0.334 N 
ATOM     12  H   UNL A   1      32.369  21.220  25.863  1.00  0.00     0.347 HD
ATOM     13  H   UNL A   1      32.745  22.904  26.029  1.00  0.00     0.347 HD
BRANCH  11  14
ATOM     14  C   UNL A   1      31.807  22.432  24.367  1.00  0.00     0.261 C 
BRANCH  14  15
ATOM     15  C   UNL A   1      31.013  23.712  24.621  1.00  0.00     0.058 C 
ATOM     16  C   UNL A   1      30.900  24.069  26.089  1.00  0.00     0.010 C 
ENDBRANCH  14  15
ENDBRANCH  11  14
ENDBRANCH   6  11
BRANCH  10  17
ATOM     17  N   UNL A   1      34.147  24.948  23.504  1.00  0.00    -0.266 N 
ATOM     18  N   UNL A   1      33.662  24.656  22.275  1.00  0.00    -0.178 NA
ATOM     19  C   UNL A   1      33.690  26.177  23.943  1.00  0.00     0.039 A 
ATOM     20  C   UNL A   1      33.102  25.793  21.847  1.00  0.00     0.063 A 
ATOM     21  C   UNL A   1      33.195  26.821  22.815  1.00  0.00    -0.004 A 
ATOM     22  C   UNL A   1      33.760  26.712  25.328  1.00  0.00     0.066 C 
ATOM     23  C   UNL A   1      32.469  25.839  20.505  1.00  0.00     0.069 C 
BRANCH  21  24
ATOM     24  C   UNL A   1      32.765  28.253  22.710  1.00  0.00     0.036 C 
ATOM     25  C   UNL A   1      31.266  28.460  22.895  1.00  0.00     0.009 C 
ENDBRANCH  21  24
ENDBRANCH  10  17
ENDBRANCH   3   6
ENDBRANCH   1   2
BRANCH   1  26
ATOM     26  C   UNL A   1      38.168  19.372  25.001  1.00  0.00     0.042 C 
BRANCH  26  27
ATOM     27  C   UNL A   1      39.382  19.901  25.744  1.00  0.00     0.118 C 
BRANCH  27  28
ATOM     28  N   UNL A   1      40.450  18.916  25.864  1.00  0.00    -0.352 N 
ATOM     29  C   UNL A   1      41.798  19.066  26.083  1.00  0.00     0.251 C 
ATOM     30  H   UNL A   1      40.154  17.981  25.772  1.00  0.00     0.163 HD
ATOM     31  O   UNL A   1      42.537  18.095  25.986  1.00  0.00    -0.269 OA
BRANCH  29  32
ATOM     32  C   UNL A   1      42.372  20.393  26.410  1.00  0.00     0.039 A 
ATOM     33  C   UNL A   1      43.000  21.121  25.395  1.00  0.00     0.014 A 
ATOM     34  C   UNL A   1      42.319  20.913  27.704  1.00  0.00     0.014 A 
ATOM     35  C   UNL A   1      43.502  22.396  25.661  1.00  0.00     0.010 A 
ATOM     36  C   UNL A   1      42.728  22.220  27.945  1.00  0.00     0.010 A 
ATOM     37  C   UNL A   1      43.329  22.976  26.928  1.00  0.00    -0.014 A 
BRANCH  37  38
ATOM     38  C   UNL A   1      43.765  24.368  27.210  1.00  0.00     0.031 A 
ATOM     39  C   UNL A   1      42.778  25.387  27.708  1.00  0.00     0.074 A 
ATOM     40  C   UNL A   1      45.036  24.733  26.947  1.00  0.00     0.049 A 
ATOM     41  N   UNL A   1      42.949  26.666  27.935  1.00  0.00    -0.248 NA
ATOM     42  C   UNL A   1      41.407  24.913  27.955  1.00  0.00     0.031 C 
ATOM     43  C   UNL A   1      46.075  23.853  26.413  1.00  0.00     0.029 A 
ATOM     44  N   UNL A   1      45.664  25.947  27.078  1.00  0.00    -0.354 N 
ATOM     45  C   UNL A   1      41.710  27.148  28.333  1.00  0.00     0.074 A 
ATOM     46  C   UNL A   1      40.782  26.040  28.260  1.00  0.00     0.031 C 
ATOM     47  C   UNL A   1      47.216  24.546  26.285  1.00  0.00     0.029 A 
ATOM     48  C   UNL A   1      46.979  25.930  26.682  1.00  0.00     0.049 A 
ATOM     49  H   UNL A   1      45.216  26.752  27.423  1.00  0.00     0.167 HD
ATOM     50  C   UNL A   1      41.380  28.395  28.745  1.00  0.00     0.037 A 
ATOM     51  C   UNL A   1      47.889  26.922  26.632  1.00  0.00     0.037 A 
ATOM     52  C   UNL A   1      42.311  29.490  28.834  1.00  0.00     0.049 A 
ATOM     53  C   UNL A   1      47.495  28.303  27.081  1.00  0.00     0.074 A 
ATOM     54  C   UNL A   1      42.092  30.774  29.301  1.00  0.00     0.029 A 
ATOM     55  N   UNL A   1      43.640  29.431  28.436  1.00  0.00    -0.354 N 
ATOM     56  N   UNL A   1      46.339  28.730  27.528  1.00  0.00    -0.248 NA
ATOM     57  C   UNL A   1      48.536  29.339  27.024  1.00  0.00     0.031 C 
ATOM     58  C   UNL A   1      43.269  31.509  29.129  1.00  0.00     0.029 A 
ATOM     59  C   UNL A   1      44.243  30.667  28.618  1.00  0.00     0.049 A 
ATOM     60  H   UNL A   1      44.088  28.631  28.079  1.00  0.00     0.167 HD
ATOM     61  C   UNL A   1      46.520  30.073  27.832  1.00  0.00     0.074 A 
ATOM     62  C   UNL A   1      47.901  30.386  27.533  1.00  0.00     0.031 C 
ATOM     63  C   UNL A   1      45.620  30.965  28.317  1.00  0.00     0.037 A 
BRANCH  50  64
ATOM     64  C   UNL A   1      39.947  28.646  29.123  1.00  0.00     0.064 A 
ATOM     65  C   UNL A   1      39.478  28.431  30.429  1.00  0.00     0.173 A 
ATOM     66  C   UNL A   1      39.036  29.135  28.174  1.00  0.00     0.173 A 
ATOM     67  F   UNL A   1      40.303  27.956  31.375  1.00  0.00    -0.203 F 
ATOM     68  C   UNL A   1      38.143  28.658  30.760  1.00  0.00     0.198 A 
ATOM     69  C   UNL A   1      37.711  29.396  28.518  1.00  0.00     0.198 A 
ATOM     70  F   UNL A   1      39.430  29.366  26.914  1.00  0.00    -0.203 F 
ATOM     71  F   UNL A   1      37.707  28.387  31.997  1.00  0.00    -0.200 F 
ATOM     72  C   UNL A   1      37.264  29.147  29.806  1.00  0.00     0.200 A 
ATOM     73  F   UNL A   1      36.867  29.883  27.599  1.00  0.00    -0.200 F 
ATOM     74  F   UNL A   1      35.982  29.371  30.127  1.00  0.00    -0.200 F 
ENDBRANCH  50  64
BRANCH  51  75
ATOM     75  C   UNL A   1      49.267  26.636  26.153  1.00  0.00     0.064 A 
ATOM     76  C   UNL A   1      49.632  26.877  24.821  1.00  0.00     0.173 A 
ATOM     77  C   UNL A   1      50.249  26.126  27.016  1.00  0.00     0.173 A 
ATOM     78  F   UNL A   1      48.724  27.346  23.953  1.00  0.00    -0.203 F 
ATOM     79  C   UNL A   1      50.919  26.601  24.366  1.00  0.00     0.198 A 
ATOM     80  C   UNL A   1      51.544  25.880  26.567  1.00  0.00     0.198 A 
ATOM     81  F   UNL A   1      49.954  25.885  28.302  1.00  0.00    -0.203 F 
ATOM     82  F   UNL A   1      51.228  26.798  23.077  1.00  0.00    -0.200 F 
ATOM     83  C   UNL A   1      51.877  26.109  25.240  1.00  0.00     0.200 A 
ATOM     84  F   UNL A   1      52.471  25.423  27.420  1.00  0.00    -0.200 F 
ATOM     85  F   UNL A   1      53.118  25.853  24.804  1.00  0.00    -0.200 F 
ENDBRANCH  51  75
BRANCH  63  86
ATOM     86  C   UNL A   1      46.110  32.360  28.588  1.00  0.00     0.064 A 
ATOM     87  C   UNL A   1      46.028  33.375  27.623  1.00  0.00     0.173 A 
ATOM     88  C   UNL A   1      46.629  32.694  29.849  1.00  0.00     0.173 A 
ATOM     89  F   UNL A   1      45.554  33.104  26.398  1.00  0.00    -0.203 F 
ATOM     90  C   UNL A   1      46.474  34.664  27.900  1.00  0.00     0.198 A 
ATOM     91  C   UNL A   1      47.041  33.993  30.133  1.00  0.00     0.198 A 
ATOM     92  F   UNL A   1      46.724  31.764  30.811  1.00  0.00    -0.203 F 
ATOM     93  F   UNL A   1      46.435  35.604  26.946  1.00  0.00    -0.200 F 
ATOM     94  C   UNL A   1      46.972  34.975  29.158  1.00  0.00     0.200 A 
ATOM     95  F   UNL A   1      47.506  34.294  31.354  1.00  0.00    -0.200 F 
ATOM     96  F   UNL A   1      47.390  36.219  29.425  1.00  0.00    -0.200 F 
ENDBRANCH  63  86
ENDBRANCH  37  38
ENDBRANCH  29  32
ENDBRANCH  27  28
ENDBRANCH  26  27
ENDBRANCH   1  26
TORSDOF 15
ENDMDL
MODEL 2
REMARK VINA RESULT:     -12.3      5.930     11.249
REMARK SMILES CCC[NH2+][C@]1(C(=O)NCCCNC(=O)c2ccc(-c3c4nc(c(-c5c(F)c(F)c(F)c(F)c5F)c5ccc([nH]5)c(-c5c(F)c(F)c(F)c(F)c5F)c5nc(c(-c6c(F)c(F)c(F)c(F)c6F)c6ccc3[nH]6)C=C5)C=C4)cc2)CC[C@H](n2nc(C)c(CC)c2C)C1
REMARK SMILES IDX 9 1 8 2 6 3 7 4 5 6 78 7 90 8 79 9 80 10 4 11 3 14 2 15 1 16
REMARK SMILES IDX 81 17 82 18 88 19 83 20 85 21 89 22 84 23 86 24 87 25 10 26
REMARK SMILES IDX 11 27 12 28 13 29 14 31 15 32 16 33 77 34 17 35 76 36 18 37
REMARK SMILES IDX 19 38 20 39 70 40 21 41 75 42 69 43 71 44 22 45 74 46 68 47
REMARK SMILES IDX 67 48 23 50 55 51 35 52 54 53 36 54 39 55 53 56 72 57 37 58
REMARK SMILES IDX 38 59 52 61 73 62 40 63 24 64 25 65 33 66 26 67 27 68 31 69
REMARK SMILES IDX 34 70 28 71 29 72 32 73 30 74 56 75 57 76 65 77 58 78 59 79
REMARK SMILES IDX 63 80 66 81 60 82 61 83 64 84 62 85 41 86 42 87 50 88 43 89
REMARK SMILES IDX 44 90 48 91 51 92 45 93 46 94 49 95 47 96
REMARK H PARENT 8 5 4 12 4 13 12 30 71 49 39 60
REMARK Flexibility Score: inf
ROOT
ATOM      1  C   UNL A   1      31.565  30.723  26.191  1.00  0.00     0.118 C 
ENDROOT
BRANCH   1   2
ATOM      2  N   UNL A   1      31.058  30.302  24.896  1.00  0.00    -0.351 N 
ATOM      3  C   UNL A   1      30.810  29.040  24.413  1.00  0.00     0.281 C 
ATOM      4  O   UNL A   1      30.019  28.978  23.464  1.00  0.00    -0.268 OA
ATOM      5  H   UNL A   1      30.863  31.033  24.267  1.00  0.00     0.163 HD
BRANCH   3   6
ATOM      6  C   UNL A   1      31.625  27.776  24.859  1.00  0.00     0.177 C 
ATOM      7  C   UNL A   1      31.552  27.511  26.375  1.00  0.00     0.081 C 
ATOM      8  C   UNL A   1      30.800  26.565  24.371  1.00  0.00     0.106 C 
ATOM      9  C   UNL A   1      31.823  26.004  26.496  1.00  0.00     0.034 C 
ATOM     10  C   UNL A   1      31.177  25.346  25.237  1.00  0.00     0.114 C 
BRANCH   6  11
ATOM     11  N   UNL A   1      33.046  27.893  24.478  1.00  0.00    -0.334 N 
ATOM     12  H   UNL A   1      33.400  28.751  24.902  1.00  0.00     0.347 HD
ATOM     13  H   UNL A   1      33.462  27.022  24.804  1.00  0.00     0.347 HD
BRANCH  11  14
ATOM     14  C   UNL A   1      33.390  27.941  23.068  1.00  0.00     0.261 C 
BRANCH  14  15
ATOM     15  C   UNL A   1      33.814  26.597  22.478  1.00  0.00     0.058 C 
ATOM     16  C   UNL A   1      32.866  26.081  21.415  1.00  0.00     0.010 C 
ENDBRANCH  14  15
ENDBRANCH  11  14
ENDBRANCH   6  11
BRANCH  10  17
ATOM     17  N   UNL A   1      31.986  24.306  24.598  1.00  0.00    -0.266 N 
ATOM     18  N   UNL A   1      31.404  23.553  23.635  1.00  0.00    -0.178 NA
ATOM     19  C   UNL A   1      33.302  23.932  24.798  1.00  0.00     0.039 A 
ATOM     20  C   UNL A   1      32.270  22.560  23.405  1.00  0.00     0.063 A 
ATOM     21  C   UNL A   1      33.436  22.685  24.198  1.00  0.00    -0.004 A 
ATOM     22  C   UNL A   1      34.341  24.689  25.544  1.00  0.00     0.066 C 
ATOM     23  C   UNL A   1      31.944  21.522  22.396  1.00  0.00     0.069 C 
BRANCH  21  24
ATOM     24  C   UNL A   1      34.607  21.756  24.300  1.00  0.00     0.036 C 
ATOM     25  C   UNL A   1      34.313  20.480  25.080  1.00  0.00     0.009 C 
ENDBRANCH  21  24
ENDBRANCH  10  17
ENDBRANCH   3   6
ENDBRANCH   1   2
BRANCH   1  26
ATOM     26  C   UNL A   1      31.427  32.208  26.480  1.00  0.00     0.042 C 
BRANCH  26  27
ATOM     27  C   UNL A   1      32.624  32.827  27.179  1.00  0.00     0.118 C 
BRANCH  27  28
ATOM     28  N   UNL A   1      32.384  34.197  27.614  1.00  0.00    -0.352 N 
ATOM     29  C   UNL A   1      32.967  34.946  28.608  1.00  0.00     0.251 C 
ATOM     30  H   UNL A   1      31.683  34.669  27.108  1.00  0.00     0.163 HD
ATOM     31  O   UNL A   1      32.489  36.034  28.902  1.00  0.00    -0.269 OA
BRANCH  29  32
ATOM     32  C   UNL A   1      34.149  34.442  29.345  1.00  0.00     0.039 A 
ATOM     33  C   UNL A   1      33.954  33.826  30.585  1.00  0.00     0.014 A 
ATOM     34  C   UNL A   1      35.442  34.590  28.841  1.00  0.00     0.014 A 
ATOM     35  C   UNL A   1      35.044  33.294  31.277  1.00  0.00     0.010 A 
ATOM     36  C   UNL A   1      36.513  33.974  29.481  1.00  0.00     0.010 A 
ATOM     37  C   UNL A   1      36.328  33.322  30.709  1.00  0.00    -0.014 A 
BRANCH  37  38
ATOM     38  C   UNL A   1      37.487  32.677  31.377  1.00  0.00     0.031 A 
ATOM     39  C   UNL A   1      38.187  31.516  30.729  1.00  0.00     0.074 A 
ATOM     40  C   UNL A   1      37.861  33.090  32.605  1.00  0.00     0.049 A 
ATOM     41  N   UNL A   1      39.163  30.774  31.190  1.00  0.00    -0.248 NA
ATOM     42  C   UNL A   1      37.709  31.115  29.397  1.00  0.00     0.031 C 
ATOM     43  C   UNL A   1      37.229  34.171  33.362  1.00  0.00     0.029 A 
ATOM     44  N   UNL A   1      38.855  32.638  33.437  1.00  0.00    -0.354 N 
ATOM     45  C   UNL A   1      39.401  29.814  30.215  1.00  0.00     0.074 A 
ATOM     46  C   UNL A   1      38.430  30.029  29.164  1.00  0.00     0.031 C 
ATOM     47  C   UNL A   1      37.864  34.315  34.535  1.00  0.00     0.029 A 
ATOM     48  C   UNL A   1      38.915  33.308  34.634  1.00  0.00     0.049 A 
ATOM     49  H   UNL A   1      39.466  31.904  33.199  1.00  0.00     0.167 HD
ATOM     50  C   UNL A   1      40.357  28.855  30.188  1.00  0.00     0.037 A 
ATOM     51  C   UNL A   1      39.720  33.124  35.699  1.00  0.00     0.037 A 
ATOM     52  C   UNL A   1      41.334  28.657  31.227  1.00  0.00     0.049 A 
ATOM     53  C   UNL A   1      40.765  32.043  35.651  1.00  0.00     0.074 A 
ATOM     54  C   UNL A   1      42.385  27.757  31.264  1.00  0.00     0.029 A 
ATOM     55  N   UNL A   1      41.373  29.365  32.420  1.00  0.00    -0.354 N 
ATOM     56  N   UNL A   1      41.031  31.189  34.691  1.00  0.00    -0.248 NA
ATOM     57  C   UNL A   1      41.628  31.904  36.832  1.00  0.00     0.031 C 
ATOM     58  C   UNL A   1      43.020  27.878  32.504  1.00  0.00     0.029 A 
ATOM     59  C   UNL A   1      42.410  28.899  33.213  1.00  0.00     0.049 A 
ATOM     60  H   UNL A   1      40.755  30.091  32.667  1.00  0.00     0.167 HD
ATOM     61  C   UNL A   1      42.106  30.433  35.139  1.00  0.00     0.074 A 
ATOM     62  C   UNL A   1      42.453  30.938  36.451  1.00  0.00     0.031 C 
ATOM     63  C   UNL A   1      42.746  29.412  34.518  1.00  0.00     0.037 A 
BRANCH  50  64
ATOM     64  C   UNL A   1      40.389  27.938  28.996  1.00  0.00     0.064 A 
ATOM     65  C   UNL A   1      41.162  28.227  27.861  1.00  0.00     0.173 A 
ATOM     66  C   UNL A   1      39.656  26.741  29.001  1.00  0.00     0.173 A 
ATOM     67  F   UNL A   1      41.875  29.362  27.799  1.00  0.00    -0.203 F 
ATOM     68  C   UNL A   1      41.171  27.372  26.761  1.00  0.00     0.198 A 
ATOM     69  C   UNL A   1      39.697  25.871  27.913  1.00  0.00     0.198 A 
ATOM     70  F   UNL A   1      38.906  26.411  30.061  1.00  0.00    -0.203 F 
ATOM     71  F   UNL A   1      41.869  27.700  25.665  1.00  0.00    -0.200 F 
ATOM     72  C   UNL A   1      40.444  26.192  26.792  1.00  0.00     0.200 A 
ATOM     73  F   UNL A   1      39.006  24.723  27.952  1.00  0.00    -0.200 F 
ATOM     74  F   UNL A   1      40.457  25.367  25.735  1.00  0.00    -0.200 F 
ENDBRANCH  50  64
BRANCH  51  75
ATOM     75  C   UNL A   1      39.577  33.998  36.893  1.00  0.00     0.064 A 
ATOM     76  C   UNL A   1      38.810  33.594  37.995  1.00  0.00     0.173 A 
ATOM     77  C   UNL A   1      40.208  35.249  36.962  1.00  0.00     0.173 A 
ATOM     78  F   UNL A   1      38.172  32.415  37.969  1.00  0.00    -0.203 F 
ATOM     79  C   UNL A   1      38.665  34.414  39.111  1.00  0.00     0.198 A 
ATOM     80  C   UNL A   1      40.088  36.055  38.091  1.00  0.00     0.198 A 
ATOM     81  F   UNL A   1      40.959  35.681  35.938  1.00  0.00    -0.203 F 
ATOM     82  F   UNL A   1      37.890  34.022  40.132  1.00  0.00    -0.200 F 
ATOM     83  C   UNL A   1      39.310  35.641  39.162  1.00  0.00     0.200 A 
ATOM     84  F   UNL A   1      40.727  37.231  38.144  1.00  0.00    -0.200 F 
ATOM     85  F   UNL A   1      39.177  36.426  40.240  1.00  0.00    -0.200 F 
ENDBRANCH  51  75
BRANCH  63  86
ATOM     86  C   UNL A   1      43.914  28.793  35.233  1.00  0.00     0.064 A 
ATOM     87  C   UNL A   1      45.226  29.256  35.049  1.00  0.00     0.173 A 
ATOM     88  C   UNL A   1      43.711  27.748  36.149  1.00  0.00     0.173 A 
ATOM     89  F   UNL A   1      45.476  30.242  34.174  1.00  0.00    -0.203 F 
ATOM     90  C   UNL A   1      46.292  28.679  35.732  1.00  0.00     0.198 A 
ATOM     91  C   UNL A   1      44.775  27.197  36.856  1.00  0.00     0.198 A 
ATOM     92  F   UNL A   1      42.476  27.272  36.368  1.00  0.00    -0.203 F 
ATOM     93  F   UNL A   1      47.542  29.102  35.501  1.00  0.00    -0.200 F 
ATOM     94  C   UNL A   1      46.065  27.655  36.642  1.00  0.00     0.200 A 
ATOM     95  F   UNL A   1      44.550  26.220  37.747  1.00  0.00    -0.200 F 
ATOM     96  F   UNL A   1      47.091  27.108  37.306  1.00  0.00    -0.200 F 
ENDBRANCH  63  86
ENDBRANCH  37  38
ENDBRANCH  29  32
ENDBRANCH  27  28
ENDBRANCH  26  27
ENDBRANCH   1  26
TORSDOF 15
ENDMDL
MODEL 3
REMARK VINA RESULT:     -12.3      0.812      2.010
REMARK SMILES CCC[NH2+][C@]1(C(=O)NCCCNC(=O)c2ccc(-c3c4nc(c(-c5c(F)c(F)c(F)c(F)c5F)c5ccc([nH]5)c(-c5c(F)c(F)c(F)c(F)c5F)c5nc(c(-c6c(F)c(F)c(F)c(F)c6F)c6ccc3[nH]6)C=C5)C=C4)cc2)CC[C@H](n2nc(C)c(CC)c2C)C1
REMARK SMILES IDX 9 1 8 2 6 3 7 4 5 6 78 7 90 8 79 9 80 10 4 11 3 14 2 15 1 16
REMARK SMILES IDX 81 17 82 18 88 19 83 20 85 21 89 22 84 23 86 24 87 25 10 26
REMARK SMILES IDX 11 27 12 28 13 29 14 31 15 32 16 33 77 34 17 35 76 36 18 37
REMARK SMILES IDX 19 38 20 39 70 40 21 41 75 42 69 43 71 44 22 45 74 46 68 47
REMARK SMILES IDX 67 48 23 50 55 51 35 52 54 53 36 54 39 55 53 56 72 57 37 58
REMARK SMILES IDX 38 59 52 61 73 62 40 63 24 64 25 65 33 66 26 67 27 68 31 69
REMARK SMILES IDX 34 70 28 71 29 72 32 73 30 74 56 75 57 76 65 77 58 78 59 79
REMARK SMILES IDX 63 80 66 81 60 82 61 83 64 84 62 85 41 86 42 87 50 88 43 89
REMARK SMILES IDX 44 90 48 91 51 92 45 93 46 94 49 95 47 96
REMARK H PARENT 8 5 4 12 4 13 12 30 71 49 39 60
REMARK Flexibility Score: inf
ROOT
ATOM      1  C   UNL A   1      36.891  20.470  24.898  1.00  0.00     0.118 C 
ENDROOT
BRANCH   1   2
ATOM      2  N   UNL A   1      35.579  19.849  24.974  1.00  0.00    -0.351 N 
ATOM      3  C   UNL A   1      34.330  20.421  24.954  1.00  0.00     0.281 C 
ATOM      4  O   UNL A   1      33.404  19.667  24.627  1.00  0.00    -0.268 OA
ATOM      5  H   UNL A   1      35.586  18.868  25.054  1.00  0.00     0.163 HD
BRANCH   3   6
ATOM      6  C   UNL A   1      34.033  21.855  25.517  1.00  0.00     0.177 C 
ATOM      7  C   UNL A   1      35.246  22.495  26.217  1.00  0.00     0.081 C 
ATOM      8  C   UNL A   1      33.967  22.774  24.278  1.00  0.00     0.106 C 
ATOM      9  C   UNL A   1      34.980  24.002  26.106  1.00  0.00     0.034 C 
ATOM     10  C   UNL A   1      34.269  24.216  24.733  1.00  0.00     0.114 C 
BRANCH   6  11
ATOM     11  N   UNL A   1      32.908  21.833  26.471  1.00  0.00    -0.334 N 
ATOM     12  H   UNL A   1      32.868  20.893  26.866  1.00  0.00     0.347 HD
ATOM     13  H   UNL A   1      33.119  22.589  27.121  1.00  0.00     0.347 HD
BRANCH  11  14
ATOM     14  C   UNL A   1      31.574  22.148  25.988  1.00  0.00     0.261 C 
BRANCH  14  15
ATOM     15  C   UNL A   1      30.819  23.164  26.844  1.00  0.00     0.058 C 
ATOM     16  C   UNL A   1      29.414  22.724  27.199  1.00  0.00     0.010 C 
ENDBRANCH  14  15
ENDBRANCH  11  14
ENDBRANCH   6  11
BRANCH  10  17
ATOM     17  N   UNL A   1      33.143  25.151  24.757  1.00  0.00    -0.266 N 
ATOM     18  N   UNL A   1      32.993  25.934  25.851  1.00  0.00    -0.178 NA
ATOM     19  C   UNL A   1      32.155  25.402  23.823  1.00  0.00     0.039 A 
ATOM     20  C   UNL A   1      31.788  26.497  25.709  1.00  0.00     0.063 A 
ATOM     21  C   UNL A   1      31.164  26.104  24.500  1.00  0.00    -0.004 A 
ATOM     22  C   UNL A   1      32.139  24.968  22.402  1.00  0.00     0.066 C 
ATOM     23  C   UNL A   1      31.285  27.426  26.751  1.00  0.00     0.069 C 
BRANCH  21  24
ATOM     24  C   UNL A   1      29.794  26.443  23.997  1.00  0.00     0.036 C 
ATOM     25  C   UNL A   1      29.715  27.794  23.295  1.00  0.00     0.009 C 
ENDBRANCH  21  24
ENDBRANCH  10  17
ENDBRANCH   3   6
ENDBRANCH   1   2
BRANCH   1  26
ATOM     26  C   UNL A   1      38.061  19.504  24.964  1.00  0.00     0.042 C 
BRANCH  26  27
ATOM     27  C   UNL A   1      39.259  20.018  25.742  1.00  0.00     0.118 C 
BRANCH  27  28
ATOM     28  N   UNL A   1      40.315  19.023  25.883  1.00  0.00    -0.352 N 
ATOM     29  C   UNL A   1      41.662  19.162  26.122  1.00  0.00     0.251 C 
ATOM     30  H   UNL A   1      40.012  18.091  25.791  1.00  0.00     0.163 HD
ATOM     31  O   UNL A   1      42.393  18.184  26.041  1.00  0.00    -0.269 OA
BRANCH  29  32
ATOM     32  C   UNL A   1      42.243  20.485  26.451  1.00  0.00     0.039 A 
ATOM     33  C   UNL A   1      42.774  21.260  25.416  1.00  0.00     0.014 A 
ATOM     34  C   UNL A   1      42.291  20.956  27.764  1.00  0.00     0.014 A 
ATOM     35  C   UNL A   1      43.280  22.533  25.689  1.00  0.00     0.010 A 
ATOM     36  C   UNL A   1      42.702  22.260  28.020  1.00  0.00     0.010 A 
ATOM     37  C   UNL A   1      43.206  23.063  26.987  1.00  0.00    -0.014 A 
BRANCH  37  38
ATOM     38  C   UNL A   1      43.645  24.450  27.285  1.00  0.00     0.031 A 
ATOM     39  C   UNL A   1      42.659  25.467  27.789  1.00  0.00     0.074 A 
ATOM     40  C   UNL A   1      44.918  24.814  27.031  1.00  0.00     0.049 A 
ATOM     41  N   UNL A   1      42.834  26.743  28.030  1.00  0.00    -0.248 NA
ATOM     42  C   UNL A   1      41.286  24.995  28.026  1.00  0.00     0.031 C 
ATOM     43  C   UNL A   1      45.956  23.935  26.493  1.00  0.00     0.029 A 
ATOM     44  N   UNL A   1      45.550  26.023  27.177  1.00  0.00    -0.354 N 
ATOM     45  C   UNL A   1      41.594  27.225  28.428  1.00  0.00     0.074 A 
ATOM     46  C   UNL A   1      40.663  26.121  28.340  1.00  0.00     0.031 C 
ATOM     47  C   UNL A   1      47.100  24.626  26.376  1.00  0.00     0.029 A 
ATOM     48  C   UNL A   1      46.866  26.006  26.787  1.00  0.00     0.049 A 
ATOM     49  H   UNL A   1      45.103  26.827  27.529  1.00  0.00     0.167 HD
ATOM     50  C   UNL A   1      41.267  28.469  28.852  1.00  0.00     0.037 A 
ATOM     51  C   UNL A   1      47.780  26.996  26.751  1.00  0.00     0.037 A 
ATOM     52  C   UNL A   1      42.201  29.559  28.956  1.00  0.00     0.049 A 
ATOM     53  C   UNL A   1      47.389  28.373  27.212  1.00  0.00     0.074 A 
ATOM     54  C   UNL A   1      41.984  30.839  29.436  1.00  0.00     0.029 A 
ATOM     55  N   UNL A   1      43.532  29.501  28.564  1.00  0.00    -0.354 N 
ATOM     56  N   UNL A   1      46.232  28.800  27.659  1.00  0.00    -0.248 NA
ATOM     57  C   UNL A   1      48.433  29.406  27.171  1.00  0.00     0.031 C 
ATOM     58  C   UNL A   1      43.165  31.572  29.276  1.00  0.00     0.029 A 
ATOM     59  C   UNL A   1      44.138  30.732  28.760  1.00  0.00     0.049 A 
ATOM     60  H   UNL A   1      43.978  28.703  28.199  1.00  0.00     0.167 HD
ATOM     61  C   UNL A   1      46.416  30.139  27.978  1.00  0.00     0.074 A 
ATOM     62  C   UNL A   1      47.800  30.450  27.687  1.00  0.00     0.031 C 
ATOM     63  C   UNL A   1      45.518  31.028  28.468  1.00  0.00     0.037 A 
BRANCH  50  64
ATOM     64  C   UNL A   1      39.833  28.721  29.227  1.00  0.00     0.064 A 
ATOM     65  C   UNL A   1      39.361  28.509  30.532  1.00  0.00     0.173 A 
ATOM     66  C   UNL A   1      38.924  29.208  28.275  1.00  0.00     0.173 A 
ATOM     67  F   UNL A   1      40.184  28.035  31.480  1.00  0.00    -0.203 F 
ATOM     68  C   UNL A   1      38.027  28.736  30.860  1.00  0.00     0.198 A 
ATOM     69  C   UNL A   1      37.598  29.470  28.616  1.00  0.00     0.198 A 
ATOM     70  F   UNL A   1      39.321  29.437  27.015  1.00  0.00    -0.203 F 
ATOM     71  F   UNL A   1      37.587  28.468  32.097  1.00  0.00    -0.200 F 
ATOM     72  C   UNL A   1      37.149  29.223  29.903  1.00  0.00     0.200 A 
ATOM     73  F   UNL A   1      36.756  29.955  27.694  1.00  0.00    -0.200 F 
ATOM     74  F   UNL A   1      35.866  29.448  30.221  1.00  0.00    -0.200 F 
ENDBRANCH  50  64
BRANCH  51  75
ATOM     75  C   UNL A   1      49.159  26.711  26.275  1.00  0.00     0.064 A 
ATOM     76  C   UNL A   1      50.132  26.203  27.147  1.00  0.00     0.173 A 
ATOM     77  C   UNL A   1      49.531  26.931  24.941  1.00  0.00     0.173 A 
ATOM     78  F   UNL A   1      49.831  25.994  28.437  1.00  0.00    -0.203 F 
ATOM     79  C   UNL A   1      51.429  25.944  26.708  1.00  0.00     0.198 A 
ATOM     80  C   UNL A   1      50.819  26.643  24.495  1.00  0.00     0.198 A 
ATOM     81  F   UNL A   1      48.636  27.409  24.063  1.00  0.00    -0.203 F 
ATOM     82  F   UNL A   1      52.351  25.502  27.573  1.00  0.00    -0.200 F 
ATOM     83  C   UNL A   1      51.770  26.157  25.381  1.00  0.00     0.200 A 
ATOM     84  F   UNL A   1      51.139  26.832  23.207  1.00  0.00    -0.200 F 
ATOM     85  F   UNL A   1      53.015  25.900  24.956  1.00  0.00    -0.200 F 
ENDBRANCH  51  75
BRANCH  63  86
ATOM     86  C   UNL A   1      46.011  32.419  28.756  1.00  0.00     0.064 A 
ATOM     87  C   UNL A   1      46.588  32.759  29.989  1.00  0.00     0.173 A 
ATOM     88  C   UNL A   1      45.942  33.413  27.768  1.00  0.00     0.173 A 
ATOM     89  F   UNL A   1      46.664  31.850  30.972  1.00  0.00    -0.203 F 
ATOM     90  C   UNL A   1      47.052  34.049  30.230  1.00  0.00     0.198 A 
ATOM     91  C   UNL A   1      46.438  34.693  28.001  1.00  0.00     0.198 A 
ATOM     92  F   UNL A   1      45.406  33.140  26.569  1.00  0.00    -0.203 F 
ATOM     93  F   UNL A   1      47.551  34.366  31.433  1.00  0.00    -0.200 F 
ATOM     94  C   UNL A   1      46.984  35.013  29.234  1.00  0.00     0.200 A 
ATOM     95  F   UNL A   1      46.388  35.616  27.031  1.00  0.00    -0.200 F 
ATOM     96  F   UNL A   1      47.441  36.251  29.465  1.00  0.00    -0.200 F 
ENDBRANCH  63  86
ENDBRANCH  37  38
ENDBRANCH  29  32
ENDBRANCH  27  28
ENDBRANCH  26  27
ENDBRANCH   1  26
TORSDOF 15
ENDMDL
