MODEL 1
REMARK VINA RESULT:     -12.3      0.000      0.000
REMARK SMILES CN(C)S(=O)(=O)Nc1ccc(-n2nnc(C(=O)NCCCNC(=O)c3ccc(-c4c5nc(c(-c6c(F)c(F)c(F)c(F)c6F)c6ccc([nH]6)c(-c6c(F)c(F)c(F)c(F)c6F)c6nc(c(-c7c(F)c(F)c(F)c(F)c7F)c7ccc4[nH]7)C=C6)C=C5)cc3)c2N)cc1
REMARK SMILES IDX 19 1 18 2 16 3 17 4 15 6 12 7 13 8 88 9 14 10 11 11 8 12
REMARK SMILES IDX 9 13 91 14 10 15 90 16 7 17 4 19 5 20 6 21 2 22 1 23 3 24
REMARK SMILES IDX 89 25 20 28 21 29 22 30 23 31 24 33 25 34 26 35 87 36 27 37
REMARK SMILES IDX 86 38 28 39 29 40 30 41 80 42 31 43 85 44 79 45 81 46 32 47
REMARK SMILES IDX 84 48 78 49 77 50 33 52 65 53 45 54 64 55 46 56 49 57 63 58
REMARK SMILES IDX 82 59 47 60 48 61 62 63 83 64 50 65 34 66 35 67 43 68 36 69
REMARK SMILES IDX 37 70 41 71 44 72 38 73 39 74 42 75 40 76 66 77 67 78 75 79
REMARK SMILES IDX 68 80 69 81 73 82 76 83 70 84 71 85 74 86 72 87 51 88 52 89
REMARK SMILES IDX 60 90 53 91 54 92 58 93 61 94 55 95 56 96 59 97 57 98
REMARK H PARENT 18 5 7 18 89 26 89 27 22 32 81 51 49 62
REMARK Flexibility Score: inf
ROOT
ATOM      1  C   UNL A   1      41.647  27.002  34.896  1.00  0.00     0.118 C 
ENDROOT
BRANCH   1   2
ATOM      2  N   UNL A   1      42.048  28.030  35.842  1.00  0.00    -0.350 N 
ATOM      3  C   UNL A   1      41.699  29.354  36.021  1.00  0.00     0.275 C 
ATOM      4  O   UNL A   1      42.193  29.914  37.001  1.00  0.00    -0.267 OA
ATOM      5  H   UNL A   1      42.711  27.713  36.497  1.00  0.00     0.163 HD
BRANCH   3   6
ATOM      6  C   UNL A   1      40.862  30.072  35.072  1.00  0.00     0.194 A 
ATOM      7  N   UNL A   1      39.252  30.933  33.842  1.00  0.00    -0.197 N 
ATOM      8  N   UNL A   1      40.409  31.014  33.141  1.00  0.00    -0.059 NA
ATOM      9  C   UNL A   1      39.526  30.438  35.130  1.00  0.00     0.161 A 
ATOM     10  N   UNL A   1      41.386  30.510  33.878  1.00  0.00    -0.122 NA
BRANCH   7  11
ATOM     11  C   UNL A   1      38.010  31.294  33.244  1.00  0.00     0.069 A 
ATOM     12  C   UNL A   1      35.563  32.060  32.083  1.00  0.00     0.050 A 
ATOM     13  C   UNL A   1      36.144  30.831  31.756  1.00  0.00     0.029 A 
ATOM     14  C   UNL A   1      36.128  32.808  33.094  1.00  0.00     0.029 A 
ATOM     15  C   UNL A   1      37.359  30.436  32.346  1.00  0.00     0.031 A 
ATOM     16  C   UNL A   1      37.387  32.493  33.575  1.00  0.00     0.031 A 
BRANCH  12  17
ATOM     17  N   UNL A   1      34.405  32.489  31.377  1.00  0.00    -0.271 N 
ATOM     18  H   UNL A   1      33.521  32.249  31.736  1.00  0.00     0.181 HD
BRANCH  17  19
ATOM     19  S   UNL A   1      34.475  33.389  29.954  1.00  0.00     0.301 S 
ATOM     20  O   UNL A   1      33.961  32.596  28.866  1.00  0.00    -0.189 OA
ATOM     21  O   UNL A   1      35.835  33.889  29.909  1.00  0.00    -0.189 OA
BRANCH  19  22
ATOM     22  N   UNL A   1      33.426  34.695  30.247  1.00  0.00    -0.191 NA
ATOM     23  C   UNL A   1      33.588  35.328  31.570  1.00  0.00     0.125 C 
ATOM     24  C   UNL A   1      33.238  35.714  29.188  1.00  0.00     0.125 C 
ENDBRANCH  19  22
ENDBRANCH  17  19
ENDBRANCH  12  17
ENDBRANCH   7  11
BRANCH   9  25
ATOM     25  N   UNL A   1      38.623  30.353  36.145  1.00  0.00    -0.382 N 
ATOM     26  H   UNL A   1      37.760  29.902  35.998  1.00  0.00     0.158 HD
ATOM     27  H   UNL A   1      38.832  30.742  37.024  1.00  0.00     0.158 HD
ENDBRANCH   9  25
ENDBRANCH   3   6
ENDBRANCH   1   2
BRANCH   1  28
ATOM     28  C   UNL A   1      41.134  25.698  35.502  1.00  0.00     0.042 C 
BRANCH  28  29
ATOM     29  C   UNL A   1      42.181  24.595  35.403  1.00  0.00     0.118 C 
BRANCH  29  30
ATOM     30  N   UNL A   1      43.086  24.535  36.557  1.00  0.00    -0.352 N 
ATOM     31  C   UNL A   1      44.476  24.520  36.558  1.00  0.00     0.251 C 
ATOM     32  H   UNL A   1      42.654  24.499  37.441  1.00  0.00     0.163 HD
ATOM     33  O   UNL A   1      45.119  24.251  37.544  1.00  0.00    -0.269 OA
BRANCH  31  34
ATOM     34  C   UNL A   1      45.134  24.818  35.272  1.00  0.00     0.039 A 
ATOM     35  C   UNL A   1      45.553  23.766  34.460  1.00  0.00     0.014 A 
ATOM     36  C   UNL A   1      45.037  26.119  34.789  1.00  0.00     0.014 A 
ATOM     37  C   UNL A   1      45.719  24.005  33.098  1.00  0.00     0.010 A 
ATOM     38  C   UNL A   1      45.073  26.315  33.422  1.00  0.00     0.010 A 
ATOM     39  C   UNL A   1      45.400  25.266  32.557  1.00  0.00    -0.014 A 
BRANCH  39  40
ATOM     40  C   UNL A   1      45.256  25.403  31.097  1.00  0.00     0.031 A 
ATOM     41  C   UNL A   1      46.259  26.281  30.415  1.00  0.00     0.074 A 
ATOM     42  C   UNL A   1      44.434  24.673  30.309  1.00  0.00     0.049 A 
ATOM     43  N   UNL A   1      46.034  27.387  29.781  1.00  0.00    -0.248 NA
ATOM     44  C   UNL A   1      47.684  25.918  30.479  1.00  0.00     0.031 C 
ATOM     45  C   UNL A   1      43.607  23.524  30.686  1.00  0.00     0.029 A 
ATOM     46  N   UNL A   1      44.235  24.757  28.953  1.00  0.00    -0.354 N 
ATOM     47  C   UNL A   1      47.248  27.766  29.208  1.00  0.00     0.074 A 
ATOM     48  C   UNL A   1      48.251  26.902  29.774  1.00  0.00     0.031 C 
ATOM     49  C   UNL A   1      43.198  22.873  29.578  1.00  0.00     0.029 A 
ATOM     50  C   UNL A   1      43.538  23.683  28.424  1.00  0.00     0.049 A 
ATOM     51  H   UNL A   1      44.557  25.510  28.408  1.00  0.00     0.167 HD
ATOM     52  C   UNL A   1      47.278  28.596  28.127  1.00  0.00     0.037 A 
ATOM     53  C   UNL A   1      43.188  23.458  27.139  1.00  0.00     0.037 A 
ATOM     54  C   UNL A   1      46.004  29.224  27.907  1.00  0.00     0.049 A 
ATOM     55  C   UNL A   1      43.129  24.748  26.426  1.00  0.00     0.074 A 
ATOM     56  C   UNL A   1      45.317  30.330  28.352  1.00  0.00     0.029 A 
ATOM     57  N   UNL A   1      45.112  28.432  27.246  1.00  0.00    -0.354 N 
ATOM     58  N   UNL A   1      42.256  25.681  26.692  1.00  0.00    -0.248 NA
ATOM     59  C   UNL A   1      44.222  25.144  25.544  1.00  0.00     0.031 C 
ATOM     60  C   UNL A   1      43.940  30.110  28.031  1.00  0.00     0.029 A 
ATOM     61  C   UNL A   1      43.829  28.882  27.389  1.00  0.00     0.049 A 
ATOM     62  H   UNL A   1      45.363  27.633  26.728  1.00  0.00     0.167 HD
ATOM     63  C   UNL A   1      42.909  26.849  26.372  1.00  0.00     0.074 A 
ATOM     64  C   UNL A   1      44.010  26.461  25.502  1.00  0.00     0.031 C 
ATOM     65  C   UNL A   1      42.742  27.972  27.124  1.00  0.00     0.037 A 
BRANCH  52  66
ATOM     66  C   UNL A   1      48.266  28.509  26.979  1.00  0.00     0.064 A 
ATOM     67  C   UNL A   1      48.269  27.359  26.158  1.00  0.00     0.173 A 
ATOM     68  C   UNL A   1      49.411  29.327  26.876  1.00  0.00     0.173 A 
ATOM     69  F   UNL A   1      47.243  26.495  26.186  1.00  0.00    -0.203 F 
ATOM     70  C   UNL A   1      49.364  27.021  25.353  1.00  0.00     0.198 A 
ATOM     71  C   UNL A   1      50.480  29.014  26.033  1.00  0.00     0.198 A 
ATOM     72  F   UNL A   1      49.592  30.390  27.668  1.00  0.00    -0.203 F 
ATOM     73  F   UNL A   1      49.370  25.860  24.685  1.00  0.00    -0.200 F 
ATOM     74  C   UNL A   1      50.470  27.847  25.296  1.00  0.00     0.200 A 
ATOM     75  F   UNL A   1      51.556  29.813  26.010  1.00  0.00    -0.200 F 
ATOM     76  F   UNL A   1      51.544  27.500  24.574  1.00  0.00    -0.200 F 
ENDBRANCH  52  66
BRANCH  53  77
ATOM     77  C   UNL A   1      42.970  22.164  26.465  1.00  0.00     0.064 A 
ATOM     78  C   UNL A   1      44.031  21.441  25.904  1.00  0.00     0.173 A 
ATOM     79  C   UNL A   1      41.738  21.495  26.592  1.00  0.00     0.173 A 
ATOM     80  F   UNL A   1      45.241  22.005  25.778  1.00  0.00    -0.203 F 
ATOM     81  C   UNL A   1      43.878  20.108  25.520  1.00  0.00     0.198 A 
ATOM     82  C   UNL A   1      41.586  20.165  26.204  1.00  0.00     0.198 A 
ATOM     83  F   UNL A   1      40.691  22.097  27.176  1.00  0.00    -0.203 F 
ATOM     84  F   UNL A   1      44.929  19.427  25.043  1.00  0.00    -0.200 F 
ATOM     85  C   UNL A   1      42.660  19.466  25.683  1.00  0.00     0.200 A 
ATOM     86  F   UNL A   1      40.411  19.547  26.395  1.00  0.00    -0.200 F 
ATOM     87  F   UNL A   1      42.532  18.168  25.376  1.00  0.00    -0.200 F 
ENDBRANCH  53  77
BRANCH  65  88
ATOM     88  C   UNL A   1      41.454  28.132  27.860  1.00  0.00     0.064 A 
ATOM     89  C   UNL A   1      41.224  27.676  29.167  1.00  0.00     0.173 A 
ATOM     90  C   UNL A   1      40.411  28.810  27.215  1.00  0.00     0.173 A 
ATOM     91  F   UNL A   1      42.198  27.087  29.873  1.00  0.00    -0.203 F 
ATOM     92  C   UNL A   1      39.984  27.849  29.780  1.00  0.00     0.198 A 
ATOM     93  C   UNL A   1      39.184  29.011  27.840  1.00  0.00     0.198 A 
ATOM     94  F   UNL A   1      40.590  29.298  25.977  1.00  0.00    -0.203 F 
ATOM     95  F   UNL A   1      39.774  27.382  31.020  1.00  0.00    -0.200 F 
ATOM     96  C   UNL A   1      38.967  28.519  29.116  1.00  0.00     0.200 A 
ATOM     97  F   UNL A   1      38.218  29.689  27.208  1.00  0.00    -0.200 F 
ATOM     98  F   UNL A   1      37.781  28.703  29.713  1.00  0.00    -0.200 F 
ENDBRANCH  65  88
ENDBRANCH  39  40
ENDBRANCH  31  34
ENDBRANCH  29  30
ENDBRANCH  28  29
ENDBRANCH   1  28
TORSDOF 15
ENDMDL
MODEL 2
REMARK VINA RESULT:     -12.3      4.634      9.291
REMARK SMILES CN(C)S(=O)(=O)Nc1ccc(-n2nnc(C(=O)NCCCNC(=O)c3ccc(-c4c5nc(c(-c6c(F)c(F)c(F)c(F)c6F)c6ccc([nH]6)c(-c6c(F)c(F)c(F)c(F)c6F)c6nc(c(-c7c(F)c(F)c(F)c(F)c7F)c7ccc4[nH]7)C=C6)C=C5)cc3)c2N)cc1
REMARK SMILES IDX 19 1 18 2 16 3 17 4 15 6 12 7 13 8 88 9 14 10 11 11 8 12
REMARK SMILES IDX 9 13 91 14 10 15 90 16 7 17 4 19 5 20 6 21 2 22 1 23 3 24
REMARK SMILES IDX 89 25 20 28 21 29 22 30 23 31 24 33 25 34 26 35 87 36 27 37
REMARK SMILES IDX 86 38 28 39 29 40 30 41 80 42 31 43 85 44 79 45 81 46 32 47
REMARK SMILES IDX 84 48 78 49 77 50 33 52 65 53 45 54 64 55 46 56 49 57 63 58
REMARK SMILES IDX 82 59 47 60 48 61 62 63 83 64 50 65 34 66 35 67 43 68 36 69
REMARK SMILES IDX 37 70 41 71 44 72 38 73 39 74 42 75 40 76 66 77 67 78 75 79
REMARK SMILES IDX 68 80 69 81 73 82 76 83 70 84 71 85 74 86 72 87 51 88 52 89
REMARK SMILES IDX 60 90 53 91 54 92 58 93 61 94 55 95 56 96 59 97 57 98
REMARK H PARENT 18 5 7 18 89 26 89 27 22 32 81 51 49 62
REMARK Flexibility Score: inf
ROOT
ATOM      1  C   UNL A   1      42.564  18.633  26.601  1.00  0.00     0.118 C 
ENDROOT
BRANCH   1   2
ATOM      2  N   UNL A   1      42.394  19.914  27.264  1.00  0.00    -0.350 N 
ATOM      3  C   UNL A   1      41.384  20.855  27.283  1.00  0.00     0.275 C 
ATOM      4  O   UNL A   1      41.552  21.813  28.040  1.00  0.00    -0.267 OA
ATOM      5  H   UNL A   1      43.166  20.165  27.821  1.00  0.00     0.163 HD
BRANCH   3   6
ATOM      6  C   UNL A   1      40.223  20.767  26.409  1.00  0.00     0.194 A 
ATOM      7  N   UNL A   1      38.316  20.990  25.333  1.00  0.00    -0.197 N 
ATOM      8  N   UNL A   1      38.746  19.715  25.172  1.00  0.00    -0.059 NA
ATOM      9  C   UNL A   1      39.296  21.724  26.026  1.00  0.00     0.161 A 
ATOM     10  N   UNL A   1      39.900  19.575  25.805  1.00  0.00    -0.122 NA
BRANCH   7  11
ATOM     11  C   UNL A   1      37.035  21.394  24.857  1.00  0.00     0.069 A 
ATOM     12  C   UNL A   1      34.530  22.217  23.873  1.00  0.00     0.050 A 
ATOM     13  C   UNL A   1      34.607  21.275  24.903  1.00  0.00     0.029 A 
ATOM     14  C   UNL A   1      35.688  22.843  23.464  1.00  0.00     0.029 A 
ATOM     15  C   UNL A   1      35.856  20.871  25.409  1.00  0.00     0.031 A 
ATOM     16  C   UNL A   1      36.922  22.355  23.859  1.00  0.00     0.031 A 
BRANCH  12  17
ATOM     17  N   UNL A   1      33.264  22.508  23.293  1.00  0.00    -0.271 N 
ATOM     18  H   UNL A   1      32.955  21.956  22.539  1.00  0.00     0.181 HD
BRANCH  17  19
ATOM     19  S   UNL A   1      32.268  23.754  23.835  1.00  0.00     0.301 S 
ATOM     20  O   UNL A   1      32.404  23.883  25.263  1.00  0.00    -0.189 OA
ATOM     21  O   UNL A   1      30.973  23.461  23.253  1.00  0.00    -0.189 OA
BRANCH  19  22
ATOM     22  N   UNL A   1      32.901  25.140  23.078  1.00  0.00    -0.191 NA
ATOM     23  C   UNL A   1      31.943  25.860  22.218  1.00  0.00     0.125 C 
ATOM     24  C   UNL A   1      33.715  26.084  23.878  1.00  0.00     0.125 C 
ENDBRANCH  19  22
ENDBRANCH  17  19
ENDBRANCH  12  17
ENDBRANCH   7  11
BRANCH   9  25
ATOM     25  N   UNL A   1      39.259  23.067  26.245  1.00  0.00    -0.382 N 
ATOM     26  H   UNL A   1      39.996  23.506  26.728  1.00  0.00     0.158 HD
ATOM     27  H   UNL A   1      38.496  23.597  25.922  1.00  0.00     0.158 HD
ENDBRANCH   9  25
ENDBRANCH   3   6
ENDBRANCH   1   2
BRANCH   1  28
ATOM     28  C   UNL A   1      43.882  18.435  25.857  1.00  0.00     0.042 C 
BRANCH  28  29
ATOM     29  C   UNL A   1      43.968  19.345  24.638  1.00  0.00     0.118 C 
BRANCH  29  30
ATOM     30  N   UNL A   1      45.306  19.905  24.414  1.00  0.00    -0.352 N 
ATOM     31  C   UNL A   1      45.756  21.190  24.692  1.00  0.00     0.251 C 
ATOM     32  H   UNL A   1      45.967  19.294  24.015  1.00  0.00     0.163 HD
ATOM     33  O   UNL A   1      46.807  21.613  24.272  1.00  0.00    -0.269 OA
BRANCH  31  34
ATOM     34  C   UNL A   1      44.862  22.035  25.507  1.00  0.00     0.039 A 
ATOM     35  C   UNL A   1      45.174  22.266  26.845  1.00  0.00     0.014 A 
ATOM     36  C   UNL A   1      43.919  22.803  24.834  1.00  0.00     0.014 A 
ATOM     37  C   UNL A   1      44.644  23.395  27.464  1.00  0.00     0.010 A 
ATOM     38  C   UNL A   1      43.507  23.990  25.412  1.00  0.00     0.010 A 
ATOM     39  C   UNL A   1      43.870  24.310  26.723  1.00  0.00    -0.014 A 
BRANCH  39  40
ATOM     40  C   UNL A   1      43.605  25.645  27.287  1.00  0.00     0.031 A 
ATOM     41  C   UNL A   1      44.559  26.730  26.889  1.00  0.00     0.074 A 
ATOM     42  C   UNL A   1      42.495  26.015  27.965  1.00  0.00     0.049 A 
ATOM     43  N   UNL A   1      45.360  27.394  27.659  1.00  0.00    -0.248 NA
ATOM     44  C   UNL A   1      44.672  27.092  25.467  1.00  0.00     0.031 C 
ATOM     45  C   UNL A   1      41.273  25.238  28.187  1.00  0.00     0.029 A 
ATOM     46  N   UNL A   1      42.190  27.228  28.531  1.00  0.00    -0.354 N 
ATOM     47  C   UNL A   1      45.943  28.380  26.863  1.00  0.00     0.074 A 
ATOM     48  C   UNL A   1      45.586  28.068  25.504  1.00  0.00     0.031 C 
ATOM     49  C   UNL A   1      40.285  26.054  28.610  1.00  0.00     0.029 A 
ATOM     50  C   UNL A   1      40.862  27.352  28.904  1.00  0.00     0.049 A 
ATOM     51  H   UNL A   1      42.854  27.943  28.661  1.00  0.00     0.167 HD
ATOM     52  C   UNL A   1      46.461  29.510  27.423  1.00  0.00     0.037 A 
ATOM     53  C   UNL A   1      40.242  28.408  29.475  1.00  0.00     0.037 A 
ATOM     54  C   UNL A   1      46.602  29.378  28.847  1.00  0.00     0.049 A 
ATOM     55  C   UNL A   1      41.245  29.225  30.184  1.00  0.00     0.074 A 
ATOM     56  C   UNL A   1      47.518  28.881  29.745  1.00  0.00     0.029 A 
ATOM     57  N   UNL A   1      45.442  29.597  29.531  1.00  0.00    -0.354 N 
ATOM     58  N   UNL A   1      41.903  28.811  31.232  1.00  0.00    -0.248 NA
ATOM     59  C   UNL A   1      41.734  30.461  29.584  1.00  0.00     0.031 C 
ATOM     60  C   UNL A   1      46.820  28.697  30.980  1.00  0.00     0.029 A 
ATOM     61  C   UNL A   1      45.501  29.099  30.804  1.00  0.00     0.049 A 
ATOM     62  H   UNL A   1      44.658  30.058  29.155  1.00  0.00     0.167 HD
ATOM     63  C   UNL A   1      43.104  29.479  31.157  1.00  0.00     0.074 A 
ATOM     64  C   UNL A   1      42.875  30.604  30.263  1.00  0.00     0.031 C 
ATOM     65  C   UNL A   1      44.267  28.868  31.514  1.00  0.00     0.037 A 
BRANCH  52  66
ATOM     66  C   UNL A   1      46.410  30.897  26.811  1.00  0.00     0.064 A 
ATOM     67  C   UNL A   1      47.576  31.695  26.816  1.00  0.00     0.173 A 
ATOM     68  C   UNL A   1      45.207  31.586  26.548  1.00  0.00     0.173 A 
ATOM     69  F   UNL A   1      48.776  31.153  27.075  1.00  0.00    -0.203 F 
ATOM     70  C   UNL A   1      47.528  33.084  26.642  1.00  0.00     0.198 A 
ATOM     71  C   UNL A   1      45.170  32.965  26.325  1.00  0.00     0.198 A 
ATOM     72  F   UNL A   1      44.017  30.979  26.615  1.00  0.00    -0.203 F 
ATOM     73  F   UNL A   1      48.645  33.812  26.775  1.00  0.00    -0.200 F 
ATOM     74  C   UNL A   1      46.324  33.717  26.402  1.00  0.00     0.200 A 
ATOM     75  F   UNL A   1      43.990  33.566  26.118  1.00  0.00    -0.200 F 
ATOM     76  F   UNL A   1      46.265  35.051  26.294  1.00  0.00    -0.200 F 
ENDBRANCH  52  66
BRANCH  53  77
ATOM     77  C   UNL A   1      38.823  28.795  29.378  1.00  0.00     0.064 A 
ATOM     78  C   UNL A   1      38.018  28.925  30.517  1.00  0.00     0.173 A 
ATOM     79  C   UNL A   1      38.303  29.295  28.169  1.00  0.00     0.173 A 
ATOM     80  F   UNL A   1      38.459  28.496  31.708  1.00  0.00    -0.203 F 
ATOM     81  C   UNL A   1      36.772  29.553  30.459  1.00  0.00     0.198 A 
ATOM     82  C   UNL A   1      37.058  29.918  28.111  1.00  0.00     0.198 A 
ATOM     83  F   UNL A   1      39.037  29.264  27.046  1.00  0.00    -0.203 F 
ATOM     84  F   UNL A   1      36.054  29.716  31.578  1.00  0.00    -0.200 F 
ATOM     85  C   UNL A   1      36.299  30.062  29.259  1.00  0.00     0.200 A 
ATOM     86  F   UNL A   1      36.625  30.432  26.950  1.00  0.00    -0.200 F 
ATOM     87  F   UNL A   1      35.135  30.722  29.216  1.00  0.00    -0.200 F 
ENDBRANCH  53  77
BRANCH  65  88
ATOM     88  C   UNL A   1      44.198  27.777  32.530  1.00  0.00     0.064 A 
ATOM     89  C   UNL A   1      44.070  27.984  33.911  1.00  0.00     0.173 A 
ATOM     90  C   UNL A   1      44.231  26.453  32.071  1.00  0.00     0.173 A 
ATOM     91  F   UNL A   1      43.955  29.220  34.415  1.00  0.00    -0.203 F 
ATOM     92  C   UNL A   1      44.029  26.909  34.798  1.00  0.00     0.198 A 
ATOM     93  C   UNL A   1      44.157  25.380  32.955  1.00  0.00     0.198 A 
ATOM     94  F   UNL A   1      44.315  26.198  30.756  1.00  0.00    -0.203 F 
ATOM     95  F   UNL A   1      43.935  27.128  36.118  1.00  0.00    -0.200 F 
ATOM     96  C   UNL A   1      44.071  25.609  34.318  1.00  0.00     0.200 A 
ATOM     97  F   UNL A   1      44.162  24.127  32.482  1.00  0.00    -0.200 F 
ATOM     98  F   UNL A   1      44.011  24.574  35.168  1.00  0.00    -0.200 F 
ENDBRANCH  65  88
ENDBRANCH  39  40
ENDBRANCH  31  34
ENDBRANCH  29  30
ENDBRANCH  28  29
ENDBRANCH   1  28
TORSDOF 15
ENDMDL
MODEL 3
REMARK VINA RESULT:     -12.1      5.689     10.351
REMARK SMILES CN(C)S(=O)(=O)Nc1ccc(-n2nnc(C(=O)NCCCNC(=O)c3ccc(-c4c5nc(c(-c6c(F)c(F)c(F)c(F)c6F)c6ccc([nH]6)c(-c6c(F)c(F)c(F)c(F)c6F)c6nc(c(-c7c(F)c(F)c(F)c(F)c7F)c7ccc4[nH]7)C=C6)C=C5)cc3)c2N)cc1
REMARK SMILES IDX 19 1 18 2 16 3 17 4 15 6 12 7 13 8 88 9 14 10 11 11 8 12
REMARK SMILES IDX 9 13 91 14 10 15 90 16 7 17 4 19 5 20 6 21 2 22 1 23 3 24
REMARK SMILES IDX 89 25 20 28 21 29 22 30 23 31 24 33 25 34 26 35 87 36 27 37
REMARK SMILES IDX 86 38 28 39 29 40 30 41 80 42 31 43 85 44 79 45 81 46 32 47
REMARK SMILES IDX 84 48 78 49 77 50 33 52 65 53 45 54 64 55 46 56 49 57 63 58
REMARK SMILES IDX 82 59 47 60 48 61 62 63 83 64 50 65 34 66 35 67 43 68 36 69
REMARK SMILES IDX 37 70 41 71 44 72 38 73 39 74 42 75 40 76 66 77 67 78 75 79
REMARK SMILES IDX 68 80 69 81 73 82 76 83 70 84 71 85 74 86 72 87 51 88 52 89
REMARK SMILES IDX 60 90 53 91 54 92 58 93 61 94 55 95 56 96 59 97 57 98
REMARK H PARENT 18 5 7 18 89 26 89 27 22 32 81 51 49 62
REMARK Flexibility Score: inf
ROOT
ATOM      1  C   UNL A   1      37.010  22.551  24.918  1.00  0.00     0.118 C 
ENDROOT
BRANCH   1   2
ATOM      2  N   UNL A   1      35.716  21.928  25.131  1.00  0.00    -0.350 N 
ATOM      3  C   UNL A   1      34.443  22.180  24.660  1.00  0.00     0.275 C 
ATOM      4  O   UNL A   1      33.572  21.376  25.000  1.00  0.00    -0.267 OA
ATOM      5  H   UNL A   1      35.756  21.158  25.744  1.00  0.00     0.163 HD
BRANCH   3   6
ATOM      6  C   UNL A   1      34.125  23.362  23.874  1.00  0.00     0.194 A 
ATOM      7  N   UNL A   1      33.354  25.242  23.026  1.00  0.00    -0.197 N 
ATOM      8  N   UNL A   1      33.843  24.490  22.011  1.00  0.00    -0.059 NA
ATOM      9  C   UNL A   1      33.622  24.599  24.249  1.00  0.00     0.161 A 
ATOM     10  N   UNL A   1      34.321  23.362  22.513  1.00  0.00    -0.122 NA
BRANCH   7  11
ATOM     11  C   UNL A   1      32.665  26.462  22.765  1.00  0.00     0.069 A 
ATOM     12  C   UNL A   1      31.356  28.897  22.239  1.00  0.00     0.050 A 
ATOM     13  C   UNL A   1      30.625  27.708  22.322  1.00  0.00     0.029 A 
ATOM     14  C   UNL A   1      32.693  28.874  22.574  1.00  0.00     0.029 A 
ATOM     15  C   UNL A   1      31.273  26.490  22.600  1.00  0.00     0.031 A 
ATOM     16  C   UNL A   1      33.357  27.667  22.712  1.00  0.00     0.031 A 
BRANCH  12  17
ATOM     17  N   UNL A   1      30.696  30.089  21.830  1.00  0.00    -0.271 N 
ATOM     18  H   UNL A   1      31.175  30.708  21.233  1.00  0.00     0.181 HD
BRANCH  17  19
ATOM     19  S   UNL A   1      29.136  30.493  22.318  1.00  0.00     0.301 S 
ATOM     20  O   UNL A   1      29.043  30.380  23.751  1.00  0.00    -0.189 OA
ATOM     21  O   UNL A   1      28.273  29.693  21.471  1.00  0.00    -0.189 OA
BRANCH  19  22
ATOM     22  N   UNL A   1      28.977  32.125  21.867  1.00  0.00    -0.191 NA
ATOM     23  C   UNL A   1      28.098  32.357  20.705  1.00  0.00     0.125 C 
ATOM     24  C   UNL A   1      28.748  33.140  22.921  1.00  0.00     0.125 C 
ENDBRANCH  19  22
ENDBRANCH  17  19
ENDBRANCH  12  17
ENDBRANCH   7  11
BRANCH   9  25
ATOM     25  N   UNL A   1      33.392  25.130  25.480  1.00  0.00    -0.382 N 
ATOM     26  H   UNL A   1      32.478  25.145  25.847  1.00  0.00     0.158 HD
ATOM     27  H   UNL A   1      34.139  25.500  26.004  1.00  0.00     0.158 HD
ENDBRANCH   9  25
ENDBRANCH   3   6
ENDBRANCH   1   2
BRANCH   1  28
ATOM     28  C   UNL A   1      37.144  23.996  25.393  1.00  0.00     0.042 C 
BRANCH  28  29
ATOM     29  C   UNL A   1      37.975  24.082  26.667  1.00  0.00     0.118 C 
BRANCH  29  30
ATOM     30  N   UNL A   1      38.852  22.924  26.879  1.00  0.00    -0.352 N 
ATOM     31  C   UNL A   1      40.238  22.906  26.980  1.00  0.00     0.251 C 
ATOM     32  H   UNL A   1      38.402  22.052  26.958  1.00  0.00     0.163 HD
ATOM     33  O   UNL A   1      40.875  21.880  26.937  1.00  0.00    -0.269 OA
BRANCH  31  34
ATOM     34  C   UNL A   1      40.903  24.216  27.110  1.00  0.00     0.039 A 
ATOM     35  C   UNL A   1      40.569  25.241  26.227  1.00  0.00     0.014 A 
ATOM     36  C   UNL A   1      41.604  24.464  28.285  1.00  0.00     0.014 A 
ATOM     37  C   UNL A   1      40.805  26.556  26.618  1.00  0.00     0.010 A 
ATOM     38  C   UNL A   1      41.711  25.772  28.721  1.00  0.00     0.010 A 
ATOM     39  C   UNL A   1      41.304  26.832  27.906  1.00  0.00    -0.014 A 
BRANCH  39  40
ATOM     40  C   UNL A   1      41.230  28.210  28.422  1.00  0.00     0.031 A 
ATOM     41  C   UNL A   1      42.331  29.134  28.000  1.00  0.00     0.074 A 
ATOM     42  C   UNL A   1      40.179  28.759  29.073  1.00  0.00     0.049 A 
ATOM     43  N   UNL A   1      43.213  29.702  28.757  1.00  0.00    -0.248 NA
ATOM     44  C   UNL A   1      42.506  29.426  26.568  1.00  0.00     0.031 C 
ATOM     45  C   UNL A   1      38.856  28.172  29.306  1.00  0.00     0.029 A 
ATOM     46  N   UNL A   1      40.046  30.021  29.595  1.00  0.00    -0.354 N 
ATOM     47  C   UNL A   1      43.938  30.567  27.936  1.00  0.00     0.074 A 
ATOM     48  C   UNL A   1      43.550  30.262  26.584  1.00  0.00     0.031 C 
ATOM     49  C   UNL A   1      37.992  29.134  29.689  1.00  0.00     0.029 A 
ATOM     50  C   UNL A   1      38.746  30.346  29.947  1.00  0.00     0.049 A 
ATOM     51  H   UNL A   1      40.804  30.638  29.709  1.00  0.00     0.167 HD
ATOM     52  C   UNL A   1      44.608  31.630  28.464  1.00  0.00     0.037 A 
ATOM     53  C   UNL A   1      38.280  31.499  30.475  1.00  0.00     0.037 A 
ATOM     54  C   UNL A   1      44.717  31.529  29.894  1.00  0.00     0.049 A 
ATOM     55  C   UNL A   1      39.384  32.188  31.169  1.00  0.00     0.074 A 
ATOM     56  C   UNL A   1      45.546  30.938  30.819  1.00  0.00     0.029 A 
ATOM     57  N   UNL A   1      43.596  31.936  30.556  1.00  0.00    -0.354 N 
ATOM     58  N   UNL A   1      39.968  31.722  32.238  1.00  0.00    -0.248 NA
ATOM     59  C   UNL A   1      40.049  33.321  30.534  1.00  0.00     0.031 C 
ATOM     60  C   UNL A   1      44.820  30.899  32.051  1.00  0.00     0.029 A 
ATOM     61  C   UNL A   1      43.573  31.479  31.845  1.00  0.00     0.049 A 
ATOM     62  H   UNL A   1      42.889  32.490  30.155  1.00  0.00     0.167 HD
ATOM     63  C   UNL A   1      41.253  32.209  32.156  1.00  0.00     0.074 A 
ATOM     64  C   UNL A   1      41.193  33.323  31.221  1.00  0.00     0.031 C 
ATOM     65  C   UNL A   1      42.314  31.451  32.548  1.00  0.00     0.037 A 
BRANCH  52  66
ATOM     66  C   UNL A   1      44.760  32.989  27.806  1.00  0.00     0.064 A 
ATOM     67  C   UNL A   1      46.023  33.372  27.301  1.00  0.00     0.173 A 
ATOM     68  C   UNL A   1      43.830  34.037  27.964  1.00  0.00     0.173 A 
ATOM     69  F   UNL A   1      46.995  32.463  27.129  1.00  0.00    -0.203 F 
ATOM     70  C   UNL A   1      46.348  34.709  27.045  1.00  0.00     0.198 A 
ATOM     71  C   UNL A   1      44.141  35.364  27.659  1.00  0.00     0.198 A 
ATOM     72  F   UNL A   1      42.633  33.840  28.528  1.00  0.00    -0.203 F 
ATOM     73  F   UNL A   1      47.596  35.036  26.683  1.00  0.00    -0.200 F 
ATOM     74  C   UNL A   1      45.407  35.705  27.229  1.00  0.00     0.200 A 
ATOM     75  F   UNL A   1      43.225  36.320  27.868  1.00  0.00    -0.200 F 
ATOM     76  F   UNL A   1      45.730  36.991  27.043  1.00  0.00    -0.200 F 
ENDBRANCH  52  66
BRANCH  53  77
ATOM     77  C   UNL A   1      36.931  32.081  30.347  1.00  0.00     0.064 A 
ATOM     78  C   UNL A   1      35.988  31.982  31.379  1.00  0.00     0.173 A 
ATOM     79  C   UNL A   1      36.638  32.973  29.298  1.00  0.00     0.173 A 
ATOM     80  F   UNL A   1      36.213  31.173  32.424  1.00  0.00    -0.203 F 
ATOM     81  C   UNL A   1      34.828  32.758  31.379  1.00  0.00     0.198 A 
ATOM     82  C   UNL A   1      35.477  33.745  29.298  1.00  0.00     0.198 A 
ATOM     83  F   UNL A   1      37.518  33.171  28.305  1.00  0.00    -0.203 F 
ATOM     84  F   UNL A   1      33.977  32.684  32.411  1.00  0.00    -0.200 F 
ATOM     85  C   UNL A   1      34.580  33.649  30.346  1.00  0.00     0.200 A 
ATOM     86  F   UNL A   1      35.264  34.624  28.308  1.00  0.00    -0.200 F 
ATOM     87  F   UNL A   1      33.500  34.442  30.380  1.00  0.00    -0.200 F 
ENDBRANCH  53  77
BRANCH  65  88
ATOM     88  C   UNL A   1      42.081  30.416  33.598  1.00  0.00     0.064 A 
ATOM     89  C   UNL A   1      41.704  29.091  33.336  1.00  0.00     0.173 A 
ATOM     90  C   UNL A   1      42.283  30.784  34.935  1.00  0.00     0.173 A 
ATOM     91  F   UNL A   1      41.567  28.648  32.079  1.00  0.00    -0.203 F 
ATOM     92  C   UNL A   1      41.488  28.187  34.376  1.00  0.00     0.198 A 
ATOM     93  C   UNL A   1      42.099  29.871  35.970  1.00  0.00     0.198 A 
ATOM     94  F   UNL A   1      42.680  32.029  35.238  1.00  0.00    -0.203 F 
ATOM     95  F   UNL A   1      41.100  26.932  34.107  1.00  0.00    -0.200 F 
ATOM     96  C   UNL A   1      41.688  28.579  35.691  1.00  0.00     0.200 A 
ATOM     97  F   UNL A   1      42.329  30.245  37.235  1.00  0.00    -0.200 F 
ATOM     98  F   UNL A   1      41.501  27.704  36.690  1.00  0.00    -0.200 F 
ENDBRANCH  65  88
ENDBRANCH  39  40
ENDBRANCH  31  34
ENDBRANCH  29  30
ENDBRANCH  28  29
ENDBRANCH   1  28
TORSDOF 15
ENDMDL
