MODEL 1
REMARK VINA RESULT:     -13.7      0.000      0.000
REMARK SMILES Cc1cc(/C=C2\C(=O)N(Cc3ccco3)C(=O)[NH+]=C2NCCCNC(=O)c2ccc(-c3c4nc(c(-c5c(F)c(F)c(F)c(F)c5F)c5ccc([nH]5)c(-c5c(F)c(F)c(F)c(F)c5F)c5nc(c(-c6c(F)c(F)c(F)c(F)c6F)c6ccc3[nH]6)C=C5)C=C4)cc2)c(C)n1-c1ccc(Cl)c(C(=O)[O-])c1
REMARK SMILES IDX 22 1 21 2 20 3 5 4 6 5 7 6 19 7 8 8 9 9 18 10 16 11 17 14
REMARK SMILES IDX 4 15 1 16 2 17 3 18 92 19 90 20 91 21 93 22 94 23 102 24
REMARK SMILES IDX 95 25 98 26 96 27 97 28 99 29 100 30 101 31 10 32 11 33
REMARK SMILES IDX 12 34 15 35 13 36 14 37 23 38 24 39 25 40 26 42 27 43 28 44
REMARK SMILES IDX 89 45 29 46 88 47 30 48 31 49 32 50 82 51 33 52 87 53 81 54
REMARK SMILES IDX 83 55 34 56 86 57 80 58 79 59 35 61 67 62 47 63 66 64 48 65
REMARK SMILES IDX 51 66 65 67 84 68 49 69 50 70 64 72 85 73 52 74 36 75 37 76
REMARK SMILES IDX 45 77 38 78 39 79 43 80 46 81 40 82 41 83 44 84 42 85 68 86
REMARK SMILES IDX 69 87 77 88 70 89 71 90 75 91 78 92 72 93 73 94 76 95 74 96
REMARK SMILES IDX 53 97 54 98 62 99 55 100 56 101 60 102 63 103 57 104 58 105
REMARK SMILES IDX 61 106 59 107
REMARK H PARENT 18 12 20 13 24 41 83 60 51 71
REMARK Flexibility Score: inf
ROOT
ATOM      1  C   UNL A   1      39.902  22.553  26.752  1.00  0.00     0.059 C 
ENDROOT
BRANCH   1   2
ATOM      2  C   UNL A   1      38.492  23.002  26.346  1.00  0.00     0.195 C 
BRANCH   2   3
ATOM      3  N   UNL A   1      37.682  21.941  25.796  1.00  0.00    -0.305 N 
ATOM      4  C   UNL A   1      35.429  24.081  25.236  1.00  0.00     0.032 C 
ATOM      5  C   UNL A   1      35.239  22.795  25.588  1.00  0.00     0.129 C 
ATOM      6  C   UNL A   1      33.900  22.215  25.831  1.00  0.00     0.323 C 
ATOM      7  C   UNL A   1      36.332  21.779  25.587  1.00  0.00     0.236 C 
ATOM      8  O   UNL A   1      33.089  22.705  26.610  1.00  0.00    -0.250 OA
ATOM      9  N   UNL A   1      33.713  21.048  25.129  1.00  0.00    -0.182 N 
ATOM     10  N   UNL A   1      36.022  20.526  25.379  1.00  0.00    -0.210 N 
ATOM     11  C   UNL A   1      34.732  20.115  25.143  1.00  0.00     0.444 C 
ATOM     12  H   UNL A   1      36.739  19.852  25.392  1.00  0.00     0.270 HD
ATOM     13  H   UNL A   1      38.212  21.163  25.508  1.00  0.00     0.256 HD
ATOM     14  O   UNL A   1      34.495  18.916  25.022  1.00  0.00    -0.212 OA
BRANCH   4  15
ATOM     15  C   UNL A   1      34.502  25.173  25.125  1.00  0.00    -0.003 A 
ATOM     16  C   UNL A   1      32.799  28.226  26.445  1.00  0.00     0.065 C 
ATOM     17  C   UNL A   1      33.350  27.051  25.715  1.00  0.00     0.020 A 
ATOM     18  C   UNL A   1      34.266  26.114  26.164  1.00  0.00     0.031 A 
ATOM     19  N   UNL A   1      32.963  26.662  24.448  1.00  0.00    -0.318 N 
ATOM     20  C   UNL A   1      33.784  25.617  24.027  1.00  0.00     0.027 A 
ATOM     21  C   UNL A   1      33.813  25.218  22.586  1.00  0.00     0.065 C 
BRANCH  19  22
ATOM     22  C   UNL A   1      32.025  27.290  23.593  1.00  0.00     0.046 A 
ATOM     23  C   UNL A   1      32.427  28.423  22.880  1.00  0.00     0.028 A 
ATOM     24  C   UNL A   1      30.672  26.969  23.732  1.00  0.00     0.038 A 
ATOM     25  C   UNL A   1      31.460  29.261  22.332  1.00  0.00     0.023 A 
ATOM     26  C   UNL A   1      29.690  27.836  23.214  1.00  0.00     0.018 A 
ATOM     27  C   UNL A   1      30.095  28.988  22.514  1.00  0.00     0.050 A 
ATOM     28  Cl  UNL A   1      29.006  30.174  21.887  1.00  0.00    -0.084 Cl
BRANCH  26  29
ATOM     29  C   UNL A   1      28.250  27.558  23.502  1.00  0.00     0.073 C 
ATOM     30  O   UNL A   1      27.296  28.277  23.336  1.00  0.00    -0.545 OA
ATOM     31  O   UNL A   1      28.074  26.330  24.038  1.00  0.00    -0.545 OA
ENDBRANCH  26  29
ENDBRANCH  19  22
ENDBRANCH   4  15
BRANCH   9  32
ATOM     32  C   UNL A   1      32.352  20.605  24.848  1.00  0.00     0.285 C 
BRANCH  32  33
ATOM     33  C   UNL A   1      32.149  20.296  23.393  1.00  0.00     0.138 A 
ATOM     34  C   UNL A   1      31.921  21.083  22.281  1.00  0.00     0.049 A 
ATOM     35  O   UNL A   1      32.278  18.989  23.003  1.00  0.00    -0.466 OA
ATOM     36  C   UNL A   1      31.915  20.223  21.158  1.00  0.00     0.042 A 
ATOM     37  C   UNL A   1      32.142  18.960  21.649  1.00  0.00     0.195 A 
ENDBRANCH  32  33
ENDBRANCH   9  32
ENDBRANCH   2   3
ENDBRANCH   1   2
BRANCH   1  38
ATOM     38  C   UNL A   1      40.593  21.491  25.874  1.00  0.00     0.119 C 
BRANCH  38  39
ATOM     39  N   UNL A   1      42.024  21.369  26.061  1.00  0.00    -0.352 N 
ATOM     40  C   UNL A   1      42.937  22.359  26.376  1.00  0.00     0.251 C 
ATOM     41  H   UNL A   1      42.394  20.464  25.948  1.00  0.00     0.163 HD
ATOM     42  O   UNL A   1      44.127  22.039  26.408  1.00  0.00    -0.269 OA
BRANCH  40  43
ATOM     43  C   UNL A   1      42.567  23.820  26.515  1.00  0.00     0.039 A 
ATOM     44  C   UNL A   1      42.425  24.254  27.809  1.00  0.00     0.014 A 
ATOM     45  C   UNL A   1      42.241  24.775  25.530  1.00  0.00     0.014 A 
ATOM     46  C   UNL A   1      42.052  25.597  28.079  1.00  0.00     0.010 A 
ATOM     47  C   UNL A   1      41.744  26.147  25.841  1.00  0.00     0.010 A 
ATOM     48  C   UNL A   1      41.611  26.628  27.155  1.00  0.00    -0.014 A 
BRANCH  48  49
ATOM     49  C   UNL A   1      40.883  27.998  27.833  1.00  0.00     0.031 A 
ATOM     50  C   UNL A   1      41.998  28.981  27.775  1.00  0.00     0.074 A 
ATOM     51  C   UNL A   1      39.821  28.549  28.590  1.00  0.00     0.049 A 
ATOM     52  N   UNL A   1      43.055  28.664  28.468  1.00  0.00    -0.248 NA
ATOM     53  C   UNL A   1      42.238  29.956  26.709  1.00  0.00     0.031 C 
ATOM     54  C   UNL A   1      38.695  27.861  29.251  1.00  0.00     0.029 A 
ATOM     55  N   UNL A   1      39.505  29.910  29.008  1.00  0.00    -0.354 N 
ATOM     56  C   UNL A   1      44.066  29.499  28.087  1.00  0.00     0.074 A 
ATOM     57  C   UNL A   1      43.549  30.182  26.902  1.00  0.00     0.031 C 
ATOM     58  C   UNL A   1      37.790  28.735  29.800  1.00  0.00     0.029 A 
ATOM     59  C   UNL A   1      38.208  30.133  29.643  1.00  0.00     0.049 A 
ATOM     60  H   UNL A   1      40.139  30.649  28.866  1.00  0.00     0.167 HD
ATOM     61  C   UNL A   1      44.803  29.964  29.133  1.00  0.00     0.037 A 
ATOM     62  C   UNL A   1      37.570  31.304  30.107  1.00  0.00     0.037 A 
ATOM     63  C   UNL A   1      44.271  31.227  29.564  1.00  0.00     0.049 A 
ATOM     64  C   UNL A   1      38.668  32.159  30.557  1.00  0.00     0.074 A 
ATOM     65  C   UNL A   1      43.796  32.315  28.854  1.00  0.00     0.029 A 
ATOM     66  N   UNL A   1      43.658  31.260  30.793  1.00  0.00    -0.354 N 
ATOM     67  N   UNL A   1      39.242  31.954  31.703  1.00  0.00    -0.248 NA
ATOM     68  C   UNL A   1      39.071  33.369  29.852  1.00  0.00     0.031 C 
ATOM     69  C   UNL A   1      42.536  32.570  29.434  1.00  0.00     0.029 A 
ATOM     70  C   UNL A   1      42.506  32.005  30.701  1.00  0.00     0.049 A 
ATOM     71  H   UNL A   1      43.990  30.821  31.609  1.00  0.00     0.167 HD
ATOM     72  C   UNL A   1      40.400  32.642  31.577  1.00  0.00     0.074 A 
ATOM     73  C   UNL A   1      40.127  33.686  30.604  1.00  0.00     0.031 C 
ATOM     74  C   UNL A   1      41.519  31.898  31.740  1.00  0.00     0.037 A 
BRANCH  61  75
ATOM     75  C   UNL A   1      45.233  28.833  30.053  1.00  0.00     0.064 A 
ATOM     76  C   UNL A   1      46.558  28.397  30.003  1.00  0.00     0.173 A 
ATOM     77  C   UNL A   1      44.330  28.044  30.809  1.00  0.00     0.173 A 
ATOM     78  F   UNL A   1      47.481  29.129  29.360  1.00  0.00    -0.203 F 
ATOM     79  C   UNL A   1      46.946  27.197  30.605  1.00  0.00     0.198 A 
ATOM     80  C   UNL A   1      44.698  26.806  31.329  1.00  0.00     0.198 A 
ATOM     81  F   UNL A   1      43.075  28.462  31.042  1.00  0.00    -0.203 F 
ATOM     82  F   UNL A   1      48.232  26.819  30.571  1.00  0.00    -0.200 F 
ATOM     83  C   UNL A   1      46.009  26.381  31.223  1.00  0.00     0.200 A 
ATOM     84  F   UNL A   1      43.783  26.030  31.925  1.00  0.00    -0.200 F 
ATOM     85  F   UNL A   1      46.374  25.200  31.742  1.00  0.00    -0.200 F 
ENDBRANCH  61  75
BRANCH  62  86
ATOM     86  C   UNL A   1      36.231  32.005  30.608  1.00  0.00     0.064 A 
ATOM     87  C   UNL A   1      35.868  32.047  32.013  1.00  0.00     0.173 A 
ATOM     88  C   UNL A   1      35.563  32.986  29.861  1.00  0.00     0.173 A 
ATOM     89  F   UNL A   1      36.342  31.157  32.896  1.00  0.00    -0.203 F 
ATOM     90  C   UNL A   1      35.060  33.039  32.607  1.00  0.00     0.198 A 
ATOM     91  C   UNL A   1      34.711  33.964  30.460  1.00  0.00     0.198 A 
ATOM     92  F   UNL A   1      35.781  33.082  28.544  1.00  0.00    -0.203 F 
ATOM     93  F   UNL A   1      34.900  33.074  33.942  1.00  0.00    -0.200 F 
ATOM     94  C   UNL A   1      34.498  34.016  31.830  1.00  0.00     0.200 A 
ATOM     95  F   UNL A   1      34.147  34.914  29.699  1.00  0.00    -0.200 F 
ATOM     96  F   UNL A   1      33.789  35.008  32.393  1.00  0.00    -0.200 F 
ENDBRANCH  62  86
BRANCH  74  97
ATOM     97  C   UNL A   1      41.543  30.926  32.909  1.00  0.00     0.064 A 
ATOM     98  C   UNL A   1      41.081  29.587  32.930  1.00  0.00     0.173 A 
ATOM     99  C   UNL A   1      42.003  31.431  34.135  1.00  0.00     0.173 A 
ATOM    100  F   UNL A   1      40.729  28.929  31.816  1.00  0.00    -0.203 F 
ATOM    101  C   UNL A   1      40.995  28.856  34.120  1.00  0.00     0.198 A 
ATOM    102  C   UNL A   1      41.976  30.677  35.306  1.00  0.00     0.198 A 
ATOM    103  F   UNL A   1      42.506  32.672  34.201  1.00  0.00    -0.203 F 
ATOM    104  F   UNL A   1      40.480  27.616  34.114  1.00  0.00    -0.200 F 
ATOM    105  C   UNL A   1      41.443  29.403  35.307  1.00  0.00     0.200 A 
ATOM    106  F   UNL A   1      42.472  31.199  36.436  1.00  0.00    -0.200 F 
ATOM    107  F   UNL A   1      41.378  28.699  36.446  1.00  0.00    -0.200 F 
ENDBRANCH  74  97
ENDBRANCH  48  49
ENDBRANCH  40  43
ENDBRANCH  38  39
ENDBRANCH   1  38
TORSDOF 14
ENDMDL
MODEL 2
REMARK VINA RESULT:     -13.5      1.644      2.117
REMARK SMILES Cc1cc(/C=C2\C(=O)N(Cc3ccco3)C(=O)[NH+]=C2NCCCNC(=O)c2ccc(-c3c4nc(c(-c5c(F)c(F)c(F)c(F)c5F)c5ccc([nH]5)c(-c5c(F)c(F)c(F)c(F)c5F)c5nc(c(-c6c(F)c(F)c(F)c(F)c6F)c6ccc3[nH]6)C=C5)C=C4)cc2)c(C)n1-c1ccc(Cl)c(C(=O)[O-])c1
REMARK SMILES IDX 22 1 21 2 20 3 5 4 6 5 7 6 19 7 8 8 9 9 18 10 16 11 17 14
REMARK SMILES IDX 4 15 1 16 2 17 3 18 92 19 90 20 91 21 93 22 94 23 102 24
REMARK SMILES IDX 95 25 98 26 96 27 97 28 99 29 100 30 101 31 10 32 11 33
REMARK SMILES IDX 12 34 15 35 13 36 14 37 23 38 24 39 25 40 26 42 27 43 28 44
REMARK SMILES IDX 89 45 29 46 88 47 30 48 31 49 32 50 82 51 33 52 87 53 81 54
REMARK SMILES IDX 83 55 34 56 86 57 80 58 79 59 35 61 67 62 47 63 66 64 48 65
REMARK SMILES IDX 51 66 65 67 84 68 49 69 50 70 64 72 85 73 52 74 36 75 37 76
REMARK SMILES IDX 45 77 38 78 39 79 43 80 46 81 40 82 41 83 44 84 42 85 68 86
REMARK SMILES IDX 69 87 77 88 70 89 71 90 75 91 78 92 72 93 73 94 76 95 74 96
REMARK SMILES IDX 53 97 54 98 62 99 55 100 56 101 60 102 63 103 57 104 58 105
REMARK SMILES IDX 61 106 59 107
REMARK H PARENT 18 12 20 13 24 41 83 60 51 71
REMARK Flexibility Score: inf
ROOT
ATOM      1  C   UNL A   1      40.403  20.607  26.483  1.00  0.00     0.059 C 
ENDROOT
BRANCH   1   2
ATOM      2  C   UNL A   1      39.194  21.070  25.660  1.00  0.00     0.195 C 
BRANCH   2   3
ATOM      3  N   UNL A   1      38.350  19.988  25.212  1.00  0.00    -0.305 N 
ATOM      4  C   UNL A   1      36.163  22.136  24.454  1.00  0.00     0.032 C 
ATOM      5  C   UNL A   1      35.934  20.895  24.925  1.00  0.00     0.129 C 
ATOM      6  C   UNL A   1      34.578  20.383  25.221  1.00  0.00     0.323 C 
ATOM      7  C   UNL A   1      36.994  19.850  25.019  1.00  0.00     0.236 C 
ATOM      8  O   UNL A   1      33.785  20.969  25.951  1.00  0.00    -0.250 OA
ATOM      9  N   UNL A   1      34.353  19.162  24.631  1.00  0.00    -0.182 N 
ATOM     10  N   UNL A   1      36.644  18.593  24.929  1.00  0.00    -0.210 N 
ATOM     11  C   UNL A   1      35.342  18.202  24.733  1.00  0.00     0.444 C 
ATOM     12  H   UNL A   1      37.341  17.901  25.006  1.00  0.00     0.270 HD
ATOM     13  H   UNL A   1      38.854  19.170  24.998  1.00  0.00     0.256 HD
ATOM     14  O   UNL A   1      35.067  17.005  24.725  1.00  0.00    -0.212 OA
BRANCH   4  15
ATOM     15  C   UNL A   1      35.270  23.241  24.242  1.00  0.00    -0.003 A 
ATOM     16  C   UNL A   1      33.138  25.417  22.076  1.00  0.00     0.065 C 
ATOM     17  C   UNL A   1      33.907  24.688  23.123  1.00  0.00     0.020 A 
ATOM     18  C   UNL A   1      34.763  23.612  22.966  1.00  0.00     0.031 A 
ATOM     19  N   UNL A   1      33.934  25.033  24.460  1.00  0.00    -0.318 N 
ATOM     20  C   UNL A   1      34.632  24.053  25.165  1.00  0.00     0.027 A 
ATOM     21  C   UNL A   1      34.542  23.992  26.656  1.00  0.00     0.065 C 
BRANCH  19  22
ATOM     22  C   UNL A   1      33.240  26.088  25.102  1.00  0.00     0.046 A 
ATOM     23  C   UNL A   1      31.913  26.331  24.736  1.00  0.00     0.028 A 
ATOM     24  C   UNL A   1      33.975  27.036  25.819  1.00  0.00     0.038 A 
ATOM     25  C   UNL A   1      31.330  27.552  25.063  1.00  0.00     0.023 A 
ATOM     26  C   UNL A   1      33.402  28.289  26.115  1.00  0.00     0.018 A 
ATOM     27  C   UNL A   1      32.073  28.541  25.728  1.00  0.00     0.050 A 
ATOM     28  Cl  UNL A   1      31.265  30.051  25.962  1.00  0.00    -0.084 Cl
BRANCH  26  29
ATOM     29  C   UNL A   1      34.250  29.345  26.747  1.00  0.00     0.073 C 
ATOM     30  O   UNL A   1      34.057  30.533  26.800  1.00  0.00    -0.545 OA
ATOM     31  O   UNL A   1      35.374  28.827  27.289  1.00  0.00    -0.545 OA
ENDBRANCH  26  29
ENDBRANCH  19  22
ENDBRANCH   4  15
BRANCH   9  32
ATOM     32  C   UNL A   1      32.977  18.737  24.393  1.00  0.00     0.285 C 
BRANCH  32  33
ATOM     33  C   UNL A   1      32.461  19.217  23.069  1.00  0.00     0.138 A 
ATOM     34  C   UNL A   1      32.106  20.462  22.586  1.00  0.00     0.049 A 
ATOM     35  O   UNL A   1      32.368  18.297  22.058  1.00  0.00    -0.466 OA
ATOM     36  C   UNL A   1      31.786  20.300  21.217  1.00  0.00     0.042 A 
ATOM     37  C   UNL A   1      31.967  18.966  20.942  1.00  0.00     0.195 A 
ENDBRANCH  32  33
ENDBRANCH   9  32
ENDBRANCH   2   3
ENDBRANCH   1   2
BRANCH   1  38
ATOM     38  C   UNL A   1      41.576  21.593  26.643  1.00  0.00     0.119 C 
BRANCH  38  39
ATOM     39  N   UNL A   1      42.470  21.681  25.507  1.00  0.00    -0.352 N 
ATOM     40  C   UNL A   1      43.127  22.794  25.014  1.00  0.00     0.251 C 
ATOM     41  H   UNL A   1      42.629  20.840  25.021  1.00  0.00     0.163 HD
ATOM     42  O   UNL A   1      43.781  22.652  23.979  1.00  0.00    -0.269 OA
BRANCH  40  43
ATOM     43  C   UNL A   1      42.948  24.186  25.582  1.00  0.00     0.039 A 
ATOM     44  C   UNL A   1      42.078  24.266  26.640  1.00  0.00     0.014 A 
ATOM     45  C   UNL A   1      43.450  25.425  25.131  1.00  0.00     0.014 A 
ATOM     46  C   UNL A   1      41.799  25.518  27.247  1.00  0.00     0.010 A 
ATOM     47  C   UNL A   1      43.054  26.738  25.717  1.00  0.00     0.010 A 
ATOM     48  C   UNL A   1      42.183  26.851  26.815  1.00  0.00    -0.014 A 
BRANCH  48  49
ATOM     49  C   UNL A   1      41.379  28.151  27.544  1.00  0.00     0.031 A 
ATOM     50  C   UNL A   1      42.476  29.150  27.653  1.00  0.00     0.074 A 
ATOM     51  C   UNL A   1      40.253  28.623  28.260  1.00  0.00     0.049 A 
ATOM     52  N   UNL A   1      43.484  28.791  28.396  1.00  0.00    -0.248 NA
ATOM     53  C   UNL A   1      42.776  30.213  26.691  1.00  0.00     0.031 C 
ATOM     54  C   UNL A   1      39.094  27.866  28.775  1.00  0.00     0.029 A 
ATOM     55  N   UNL A   1      39.880  29.940  28.762  1.00  0.00    -0.354 N 
ATOM     56  C   UNL A   1      44.504  29.668  28.163  1.00  0.00     0.074 A 
ATOM     57  C   UNL A   1      44.064  30.440  27.002  1.00  0.00     0.031 C 
ATOM     58  C   UNL A   1      38.134  28.680  29.323  1.00  0.00     0.029 A 
ATOM     59  C   UNL A   1      38.534  30.091  29.312  1.00  0.00     0.049 A 
ATOM     60  H   UNL A   1      40.508  30.696  28.730  1.00  0.00     0.167 HD
ATOM     61  C   UNL A   1      45.151  30.055  29.296  1.00  0.00     0.037 A 
ATOM     62  C   UNL A   1      37.840  31.211  29.820  1.00  0.00     0.037 A 
ATOM     63  C   UNL A   1      44.563  31.271  29.787  1.00  0.00     0.049 A 
ATOM     64  C   UNL A   1      38.884  32.041  30.421  1.00  0.00     0.074 A 
ATOM     65  C   UNL A   1      44.121  32.407  29.134  1.00  0.00     0.029 A 
ATOM     66  N   UNL A   1      43.859  31.194  30.965  1.00  0.00    -0.354 N 
ATOM     67  N   UNL A   1      39.374  31.750  31.587  1.00  0.00    -0.248 NA
ATOM     68  C   UNL A   1      39.315  33.310  29.850  1.00  0.00     0.031 C 
ATOM     69  C   UNL A   1      42.816  32.596  29.634  1.00  0.00     0.029 A 
ATOM     70  C   UNL A   1      42.703  31.928  30.846  1.00  0.00     0.049 A 
ATOM     71  H   UNL A   1      44.138  30.693  31.765  1.00  0.00     0.167 HD
ATOM     72  C   UNL A   1      40.524  32.462  31.606  1.00  0.00     0.074 A 
ATOM     73  C   UNL A   1      40.305  33.579  30.704  1.00  0.00     0.031 C 
ATOM     74  C   UNL A   1      41.642  31.722  31.793  1.00  0.00     0.037 A 
BRANCH  61  75
ATOM     75  C   UNL A   1      45.533  28.858  30.151  1.00  0.00     0.064 A 
ATOM     76  C   UNL A   1      46.844  28.382  30.088  1.00  0.00     0.173 A 
ATOM     77  C   UNL A   1      44.596  28.056  30.849  1.00  0.00     0.173 A 
ATOM     78  F   UNL A   1      47.797  29.120  29.500  1.00  0.00    -0.203 F 
ATOM     79  C   UNL A   1      47.186  27.136  30.622  1.00  0.00     0.198 A 
ATOM     80  C   UNL A   1      44.918  26.778  31.298  1.00  0.00     0.198 A 
ATOM     81  F   UNL A   1      43.352  28.500  31.095  1.00  0.00    -0.203 F 
ATOM     82  F   UNL A   1      48.459  26.718  30.578  1.00  0.00    -0.200 F 
ATOM     83  C   UNL A   1      46.215  26.316  31.181  1.00  0.00     0.200 A 
ATOM     84  F   UNL A   1      43.970  25.998  31.838  1.00  0.00    -0.200 F 
ATOM     85  F   UNL A   1      46.535  25.095  31.632  1.00  0.00    -0.200 F 
ENDBRANCH  61  75
BRANCH  62  86
ATOM     86  C   UNL A   1      36.454  31.850  30.273  1.00  0.00     0.064 A 
ATOM     87  C   UNL A   1      35.993  31.785  31.648  1.00  0.00     0.173 A 
ATOM     88  C   UNL A   1      35.816  32.870  29.551  1.00  0.00     0.173 A 
ATOM     89  F   UNL A   1      36.425  30.843  32.497  1.00  0.00    -0.203 F 
ATOM     90  C   UNL A   1      35.123  32.717  32.251  1.00  0.00     0.198 A 
ATOM     91  C   UNL A   1      34.903  33.786  30.154  1.00  0.00     0.198 A 
ATOM     92  F   UNL A   1      36.123  33.064  28.263  1.00  0.00    -0.203 F 
ATOM     93  F   UNL A   1      34.870  32.653  33.570  1.00  0.00    -0.200 F 
ATOM     94  C   UNL A   1      34.593  33.736  31.506  1.00  0.00     0.200 A 
ATOM     95  F   UNL A   1      34.371  34.778  29.424  1.00  0.00    -0.200 F 
ATOM     96  F   UNL A   1      33.824  34.672  32.086  1.00  0.00    -0.200 F 
ENDBRANCH  62  86
BRANCH  74  97
ATOM     97  C   UNL A   1      41.598  30.657  32.878  1.00  0.00     0.064 A 
ATOM     98  C   UNL A   1      41.062  29.349  32.784  1.00  0.00     0.173 A 
ATOM     99  C   UNL A   1      42.070  31.032  34.145  1.00  0.00     0.173 A 
ATOM    100  F   UNL A   1      40.688  28.806  31.617  1.00  0.00    -0.203 F 
ATOM    101  C   UNL A   1      40.921  28.528  33.908  1.00  0.00     0.198 A 
ATOM    102  C   UNL A   1      41.987  30.187  35.249  1.00  0.00     0.198 A 
ATOM    103  F   UNL A   1      42.641  32.233  34.318  1.00  0.00    -0.203 F 
ATOM    104  F   UNL A   1      40.338  27.324  33.795  1.00  0.00    -0.200 F 
ATOM    105  C   UNL A   1      41.384  28.949  35.140  1.00  0.00     0.200 A 
ATOM    106  F   UNL A   1      42.496  30.585  36.423  1.00  0.00    -0.200 F 
ATOM    107  F   UNL A   1      41.265  28.159  36.216  1.00  0.00    -0.200 F 
ENDBRANCH  74  97
ENDBRANCH  48  49
ENDBRANCH  40  43
ENDBRANCH  38  39
ENDBRANCH   1  38
TORSDOF 14
ENDMDL
MODEL 3
REMARK VINA RESULT:     -13.2      9.455     14.619
REMARK SMILES Cc1cc(/C=C2\C(=O)N(Cc3ccco3)C(=O)[NH+]=C2NCCCNC(=O)c2ccc(-c3c4nc(c(-c5c(F)c(F)c(F)c(F)c5F)c5ccc([nH]5)c(-c5c(F)c(F)c(F)c(F)c5F)c5nc(c(-c6c(F)c(F)c(F)c(F)c6F)c6ccc3[nH]6)C=C5)C=C4)cc2)c(C)n1-c1ccc(Cl)c(C(=O)[O-])c1
REMARK SMILES IDX 22 1 21 2 20 3 5 4 6 5 7 6 19 7 8 8 9 9 18 10 16 11 17 14
REMARK SMILES IDX 4 15 1 16 2 17 3 18 92 19 90 20 91 21 93 22 94 23 102 24
REMARK SMILES IDX 95 25 98 26 96 27 97 28 99 29 100 30 101 31 10 32 11 33
REMARK SMILES IDX 12 34 15 35 13 36 14 37 23 38 24 39 25 40 26 42 27 43 28 44
REMARK SMILES IDX 89 45 29 46 88 47 30 48 31 49 32 50 82 51 33 52 87 53 81 54
REMARK SMILES IDX 83 55 34 56 86 57 80 58 79 59 35 61 67 62 47 63 66 64 48 65
REMARK SMILES IDX 51 66 65 67 84 68 49 69 50 70 64 72 85 73 52 74 36 75 37 76
REMARK SMILES IDX 45 77 38 78 39 79 43 80 46 81 40 82 41 83 44 84 42 85 68 86
REMARK SMILES IDX 69 87 77 88 70 89 71 90 75 91 78 92 72 93 73 94 76 95 74 96
REMARK SMILES IDX 53 97 54 98 62 99 55 100 56 101 60 102 63 103 57 104 58 105
REMARK SMILES IDX 61 106 59 107
REMARK H PARENT 18 12 20 13 24 41 83 60 51 71
REMARK Flexibility Score: inf
ROOT
ATOM      1  C   UNL A   1      47.195  38.862  27.067  1.00  0.00     0.059 C 
ENDROOT
BRANCH   1   2
ATOM      2  C   UNL A   1      46.335  40.105  27.331  1.00  0.00     0.195 C 
BRANCH   2   3
ATOM      3  N   UNL A   1      45.005  40.018  26.776  1.00  0.00    -0.305 N 
ATOM      4  C   UNL A   1      45.953  41.930  24.450  1.00  0.00     0.032 C 
ATOM      5  C   UNL A   1      44.728  41.897  25.007  1.00  0.00     0.129 C 
ATOM      6  C   UNL A   1      43.646  42.834  24.631  1.00  0.00     0.323 C 
ATOM      7  C   UNL A   1      44.274  40.806  25.917  1.00  0.00     0.236 C 
ATOM      8  O   UNL A   1      43.782  44.053  24.640  1.00  0.00    -0.250 OA
ATOM      9  N   UNL A   1      42.477  42.173  24.335  1.00  0.00    -0.182 N 
ATOM     10  N   UNL A   1      43.000  40.517  25.963  1.00  0.00    -0.210 N 
ATOM     11  C   UNL A   1      42.068  41.169  25.191  1.00  0.00     0.444 C 
ATOM     12  H   UNL A   1      42.696  39.807  26.573  1.00  0.00     0.270 HD
ATOM     13  H   UNL A   1      44.513  39.221  27.081  1.00  0.00     0.256 HD
ATOM     14  O   UNL A   1      40.877  40.899  25.329  1.00  0.00    -0.212 OA
BRANCH   4  15
ATOM     15  C   UNL A   1      46.540  42.857  23.522  1.00  0.00    -0.003 A 
ATOM     16  C   UNL A   1      48.489  45.935  22.690  1.00  0.00     0.065 C 
ATOM     17  C   UNL A   1      47.704  44.673  22.780  1.00  0.00     0.020 A 
ATOM     18  C   UNL A   1      47.236  44.032  23.915  1.00  0.00     0.031 A 
ATOM     19  N   UNL A   1      47.247  43.953  21.694  1.00  0.00    -0.318 N 
ATOM     20  C   UNL A   1      46.681  42.762  22.147  1.00  0.00     0.027 A 
ATOM     21  C   UNL A   1      46.403  41.650  21.187  1.00  0.00     0.065 C 
BRANCH  19  22
ATOM     22  C   UNL A   1      47.447  44.231  20.319  1.00  0.00     0.046 A 
ATOM     23  C   UNL A   1      48.730  44.079  19.789  1.00  0.00     0.028 A 
ATOM     24  C   UNL A   1      46.462  44.943  19.629  1.00  0.00     0.038 A 
ATOM     25  C   UNL A   1      49.039  44.677  18.570  1.00  0.00     0.023 A 
ATOM     26  C   UNL A   1      46.782  45.585  18.416  1.00  0.00     0.018 A 
ATOM     27  C   UNL A   1      48.081  45.448  17.893  1.00  0.00     0.050 A 
ATOM     28  Cl  UNL A   1      48.634  46.233  16.455  1.00  0.00    -0.084 Cl
BRANCH  26  29
ATOM     29  C   UNL A   1      45.763  46.466  17.769  1.00  0.00     0.073 C 
ATOM     30  O   UNL A   1      45.452  47.594  18.056  1.00  0.00    -0.545 OA
ATOM     31  O   UNL A   1      45.132  45.839  16.751  1.00  0.00    -0.545 OA
ENDBRANCH  26  29
ENDBRANCH  19  22
ENDBRANCH   4  15
BRANCH   9  32
ATOM     32  C   UNL A   1      41.484  42.838  23.498  1.00  0.00     0.285 C 
BRANCH  32  33
ATOM     33  C   UNL A   1      41.892  42.866  22.054  1.00  0.00     0.138 A 
ATOM     34  C   UNL A   1      42.773  42.111  21.304  1.00  0.00     0.049 A 
ATOM     35  O   UNL A   1      41.242  43.750  21.234  1.00  0.00    -0.466 OA
ATOM     36  C   UNL A   1      42.655  42.547  19.964  1.00  0.00     0.042 A 
ATOM     37  C   UNL A   1      41.706  43.541  19.972  1.00  0.00     0.195 A 
ENDBRANCH  32  33
ENDBRANCH   9  32
ENDBRANCH   2   3
ENDBRANCH   1   2
BRANCH   1  38
ATOM     38  C   UNL A   1      46.600  37.762  26.167  1.00  0.00     0.119 C 
BRANCH  38  39
ATOM     39  N   UNL A   1      47.384  36.547  26.075  1.00  0.00    -0.352 N 
ATOM     40  C   UNL A   1      47.242  35.376  26.797  1.00  0.00     0.251 C 
ATOM     41  H   UNL A   1      48.113  36.557  25.413  1.00  0.00     0.163 HD
ATOM     42  O   UNL A   1      48.078  34.490  26.606  1.00  0.00    -0.269 OA
BRANCH  40  43
ATOM     43  C   UNL A   1      46.227  35.199  27.906  1.00  0.00     0.039 A 
ATOM     44  C   UNL A   1      45.302  34.210  27.685  1.00  0.00     0.014 A 
ATOM     45  C   UNL A   1      46.017  35.957  29.077  1.00  0.00     0.014 A 
ATOM     46  C   UNL A   1      44.278  33.959  28.635  1.00  0.00     0.010 A 
ATOM     47  C   UNL A   1      44.866  35.745  30.002  1.00  0.00     0.010 A 
ATOM     48  C   UNL A   1      43.916  34.725  29.816  1.00  0.00    -0.014 A 
BRANCH  48  49
ATOM     49  C   UNL A   1      42.419  34.376  30.523  1.00  0.00     0.031 A 
ATOM     50  C   UNL A   1      42.834  33.582  31.711  1.00  0.00     0.074 A 
ATOM     51  C   UNL A   1      41.010  34.310  30.393  1.00  0.00     0.049 A 
ATOM     52  N   UNL A   1      43.459  32.470  31.446  1.00  0.00    -0.248 NA
ATOM     53  C   UNL A   1      43.058  34.100  33.062  1.00  0.00     0.031 C 
ATOM     54  C   UNL A   1      40.171  34.582  29.209  1.00  0.00     0.029 A 
ATOM     55  N   UNL A   1      39.948  33.921  31.314  1.00  0.00    -0.354 N 
ATOM     56  C   UNL A   1      44.013  32.019  32.609  1.00  0.00     0.074 A 
ATOM     57  C   UNL A   1      43.855  33.132  33.545  1.00  0.00     0.031 C 
ATOM     58  C   UNL A   1      38.828  34.528  29.490  1.00  0.00     0.029 A 
ATOM     59  C   UNL A   1      38.571  34.150  30.884  1.00  0.00     0.049 A 
ATOM     60  H   UNL A   1      40.151  33.523  32.191  1.00  0.00     0.167 HD
ATOM     61  C   UNL A   1      43.871  30.677  32.789  1.00  0.00     0.037 A 
ATOM     62  C   UNL A   1      37.332  33.951  31.531  1.00  0.00     0.037 A 
ATOM     63  C   UNL A   1      42.685  30.424  33.559  1.00  0.00     0.049 A 
ATOM     64  C   UNL A   1      37.557  32.792  32.395  1.00  0.00     0.074 A 
ATOM     65  C   UNL A   1      42.151  31.065  34.662  1.00  0.00     0.029 A 
ATOM     66  N   UNL A   1      41.637  29.816  32.911  1.00  0.00    -0.354 N 
ATOM     67  N   UNL A   1      37.556  31.590  31.906  1.00  0.00    -0.248 NA
ATOM     68  C   UNL A   1      37.629  32.888  33.847  1.00  0.00     0.031 C 
ATOM     69  C   UNL A   1      40.812  31.310  34.293  1.00  0.00     0.029 A 
ATOM     70  C   UNL A   1      40.464  30.435  33.273  1.00  0.00     0.049 A 
ATOM     71  H   UNL A   1      41.714  29.058  32.287  1.00  0.00     0.167 HD
ATOM     72  C   UNL A   1      38.172  30.879  32.878  1.00  0.00     0.074 A 
ATOM     73  C   UNL A   1      37.933  31.614  34.108  1.00  0.00     0.031 C 
ATOM     74  C   UNL A   1      39.286  30.223  32.478  1.00  0.00     0.037 A 
BRANCH  61  75
ATOM     75  C   UNL A   1      44.293  29.906  31.549  1.00  0.00     0.064 A 
ATOM     76  C   UNL A   1      45.531  29.260  31.552  1.00  0.00     0.173 A 
ATOM     77  C   UNL A   1      43.612  29.972  30.308  1.00  0.00     0.173 A 
ATOM     78  F   UNL A   1      46.202  29.102  32.703  1.00  0.00    -0.203 F 
ATOM     79  C   UNL A   1      46.097  28.778  30.369  1.00  0.00     0.198 A 
ATOM     80  C   UNL A   1      44.217  29.574  29.119  1.00  0.00     0.198 A 
ATOM     81  F   UNL A   1      42.353  30.435  30.234  1.00  0.00    -0.203 F 
ATOM     82  F   UNL A   1      47.271  28.131  30.406  1.00  0.00    -0.200 F 
ATOM     83  C   UNL A   1      45.464  28.978  29.150  1.00  0.00     0.200 A 
ATOM     84  F   UNL A   1      43.592  29.772  27.949  1.00  0.00    -0.200 F 
ATOM     85  F   UNL A   1      46.040  28.572  28.010  1.00  0.00    -0.200 F 
ENDBRANCH  61  75
BRANCH  62  86
ATOM     86  C   UNL A   1      35.763  34.222  31.560  1.00  0.00     0.064 A 
ATOM     87  C   UNL A   1      35.152  35.084  32.556  1.00  0.00     0.173 A 
ATOM     88  C   UNL A   1      34.943  34.056  30.433  1.00  0.00     0.173 A 
ATOM     89  F   UNL A   1      35.737  35.326  33.737  1.00  0.00    -0.203 F 
ATOM     90  C   UNL A   1      33.950  35.799  32.375  1.00  0.00     0.198 A 
ATOM     91  C   UNL A   1      33.706  34.749  30.271  1.00  0.00     0.198 A 
ATOM     92  F   UNL A   1      35.356  33.285  29.419  1.00  0.00    -0.203 F 
ATOM     93  F   UNL A   1      33.542  36.683  33.302  1.00  0.00    -0.200 F 
ATOM     94  C   UNL A   1      33.235  35.648  31.217  1.00  0.00     0.200 A 
ATOM     95  F   UNL A   1      32.995  34.593  29.144  1.00  0.00    -0.200 F 
ATOM     96  F   UNL A   1      32.129  36.380  31.002  1.00  0.00    -0.200 F 
ENDBRANCH  62  86
BRANCH  74  97
ATOM     97  C   UNL A   1      39.213  29.467  31.161  1.00  0.00     0.064 A 
ATOM     98  C   UNL A   1      39.302  30.001  29.851  1.00  0.00     0.173 A 
ATOM     99  C   UNL A   1      38.949  28.091  31.241  1.00  0.00     0.173 A 
ATOM    100  F   UNL A   1      39.670  31.267  29.614  1.00  0.00    -0.203 F 
ATOM    101  C   UNL A   1      39.039  29.222  28.719  1.00  0.00     0.198 A 
ATOM    102  C   UNL A   1      38.751  27.305  30.108  1.00  0.00     0.198 A 
ATOM    103  F   UNL A   1      38.897  27.488  32.438  1.00  0.00    -0.203 F 
ATOM    104  F   UNL A   1      39.056  29.780  27.498  1.00  0.00    -0.200 F 
ATOM    105  C   UNL A   1      38.764  27.874  28.849  1.00  0.00     0.200 A 
ATOM    106  F   UNL A   1      38.548  25.988  30.248  1.00  0.00    -0.200 F 
ATOM    107  F   UNL A   1      38.528  27.121  27.766  1.00  0.00    -0.200 F 
ENDBRANCH  74  97
ENDBRANCH  48  49
ENDBRANCH  40  43
ENDBRANCH  38  39
ENDBRANCH   1  38
TORSDOF 14
ENDMDL
