MODEL 1
REMARK VINA RESULT:     -14.1      0.000      0.000
REMARK SMILES Cc1nn(C)c2c1NC(=O)[C@@H](CCC(=O)NCCCNC(=O)c1ccc(-c3c4nc(c(-c5c(F)c(F)c(F)c(F)c5F)c5ccc([nH]5)c(-c5c(F)c(F)c(F)c(F)c5F)c5nc(c(-c6c(F)c(F)c(F)c(F)c6F)c6ccc3[nH]6)C=C5)C=C4)cc1)N2
REMARK SMILES IDX 18 1 17 2 16 3 14 4 15 5 13 7 12 8 11 9 1 10 2 11 3 12 7 13
REMARK SMILES IDX 4 14 6 15 8 16 5 17 86 18 9 19 10 22 19 23 20 24 21 25 22 27
REMARK SMILES IDX 23 28 24 29 85 30 25 31 84 32 26 33 27 34 28 35 78 36 29 37
REMARK SMILES IDX 83 38 77 39 79 40 30 41 82 42 76 43 75 44 31 46 63 47 43 48
REMARK SMILES IDX 62 49 44 50 47 51 61 52 80 53 45 54 46 55 60 57 81 58 48 59
REMARK SMILES IDX 32 60 33 61 41 62 34 63 35 64 39 65 42 66 36 67 37 68 40 69
REMARK SMILES IDX 38 70 64 71 65 72 73 73 66 74 67 75 71 76 74 77 68 78 69 79
REMARK SMILES IDX 72 80 70 81 49 82 50 83 58 84 51 85 52 86 56 87 59 88 53 89
REMARK SMILES IDX 54 90 57 91 55 92
REMARK H PARENT 16 6 8 20 86 21 20 26 79 45 47 56
REMARK Flexibility Score: inf
ROOT
ATOM      1  C   UNL A   1      37.279  21.399  24.579  1.00  0.00     0.042 C 
ENDROOT
BRANCH   1   2
ATOM      2  C   UNL A   1      36.537  19.881  24.936  1.00  0.00     0.117 C 
BRANCH   2   3
ATOM      3  N   UNL A   1      34.580  19.296  25.241  1.00  0.00    -0.356 N 
ATOM      4  C   UNL A   1      33.223  19.201  24.932  1.00  0.00     0.220 C 
ATOM      5  O   UNL A   1      32.511  18.535  25.684  1.00  0.00    -0.275 OA
ATOM      6  H   UNL A   1      34.638  18.802  26.090  1.00  0.00     0.163 HD
BRANCH   4   7
ATOM      7  C   UNL A   1      32.685  19.816  23.695  1.00  0.00     0.102 C 
BRANCH   7   8
ATOM      8  C   UNL A   1      32.320  21.205  24.110  1.00  0.00     0.045 C 
BRANCH   8   9
ATOM      9  C   UNL A   1      33.587  22.049  23.941  1.00  0.00     0.171 C 
ATOM     10  C   UNL A   1      33.189  27.779  25.447  1.00  0.00     0.071 C 
ATOM     11  C   UNL A   1      33.560  26.943  24.278  1.00  0.00     0.085 A 
ATOM     12  N   UNL A   1      33.132  27.265  23.041  1.00  0.00    -0.174 NA
ATOM     13  C   UNL A   1      34.046  25.626  24.352  1.00  0.00     0.107 A 
ATOM     14  N   UNL A   1      33.105  26.127  22.287  1.00  0.00    -0.251 N 
ATOM     15  C   UNL A   1      33.543  25.011  22.938  1.00  0.00     0.149 A 
ATOM     16  N   UNL A   1      34.345  24.616  25.752  1.00  0.00    -0.320 N 
ATOM     17  C   UNL A   1      32.627  26.187  20.930  1.00  0.00     0.176 C 
ATOM     18  N   UNL A   1      33.265  23.384  22.583  1.00  0.00    -0.357 N 
ATOM     19  C   UNL A   1      34.181  22.841  25.717  1.00  0.00     0.247 C 
ATOM     20  H   UNL A   1      34.615  25.048  26.595  1.00  0.00     0.170 HD
ATOM     21  H   UNL A   1      32.942  23.117  21.691  1.00  0.00     0.163 HD
ATOM     22  O   UNL A   1      34.413  22.175  26.728  1.00  0.00    -0.272 OA
ENDBRANCH   8   9
ENDBRANCH   7   8
ENDBRANCH   4   7
ENDBRANCH   2   3
ENDBRANCH   1   2
BRANCH   1  23
ATOM     23  C   UNL A   1      37.884  22.299  25.693  1.00  0.00     0.118 C 
BRANCH  23  24
ATOM     24  N   UNL A   1      38.918  21.641  26.476  1.00  0.00    -0.352 N 
ATOM     25  C   UNL A   1      40.068  22.125  27.048  1.00  0.00     0.251 C 
ATOM     26  H   UNL A   1      38.766  20.679  26.622  1.00  0.00     0.163 HD
ATOM     27  O   UNL A   1      40.909  21.317  27.442  1.00  0.00    -0.269 OA
BRANCH  25  28
ATOM     28  C   UNL A   1      40.353  23.570  27.240  1.00  0.00     0.039 A 
ATOM     29  C   UNL A   1      41.607  24.046  26.825  1.00  0.00     0.014 A 
ATOM     30  C   UNL A   1      39.530  24.399  28.009  1.00  0.00     0.014 A 
ATOM     31  C   UNL A   1      42.030  25.336  27.163  1.00  0.00     0.010 A 
ATOM     32  C   UNL A   1      39.959  25.693  28.351  1.00  0.00     0.010 A 
ATOM     33  C   UNL A   1      41.209  26.172  27.930  1.00  0.00    -0.014 A 
BRANCH  33  34
ATOM     34  C   UNL A   1      41.640  27.581  28.091  1.00  0.00     0.031 A 
ATOM     35  C   UNL A   1      40.526  28.570  27.873  1.00  0.00     0.074 A 
ATOM     36  C   UNL A   1      42.688  27.947  28.867  1.00  0.00     0.049 A 
ATOM     37  N   UNL A   1      39.671  28.913  28.795  1.00  0.00    -0.248 NA
ATOM     38  C   UNL A   1      40.123  28.991  26.530  1.00  0.00     0.031 C 
ATOM     39  C   UNL A   1      43.011  27.367  30.172  1.00  0.00     0.029 A 
ATOM     40  N   UNL A   1      43.575  29.012  28.729  1.00  0.00    -0.354 N 
ATOM     41  C   UNL A   1      38.622  29.577  28.174  1.00  0.00     0.074 A 
ATOM     42  C   UNL A   1      38.944  29.591  26.765  1.00  0.00     0.031 C 
ATOM     43  C   UNL A   1      43.921  28.153  30.786  1.00  0.00     0.029 A 
ATOM     44  C   UNL A   1      44.352  29.228  29.884  1.00  0.00     0.049 A 
ATOM     45  H   UNL A   1      43.650  29.555  27.911  1.00  0.00     0.167 HD
ATOM     46  C   UNL A   1      37.566  30.086  28.869  1.00  0.00     0.037 A 
ATOM     47  C   UNL A   1      44.683  30.480  30.325  1.00  0.00     0.037 A 
ATOM     48  C   UNL A   1      37.639  29.908  30.289  1.00  0.00     0.049 A 
ATOM     49  C   UNL A   1      43.347  31.000  30.786  1.00  0.00     0.074 A 
ATOM     50  C   UNL A   1      37.078  29.112  31.261  1.00  0.00     0.029 A 
ATOM     51  N   UNL A   1      38.503  30.728  30.971  1.00  0.00    -0.354 N 
ATOM     52  N   UNL A   1      42.748  30.662  31.896  1.00  0.00    -0.248 NA
ATOM     53  C   UNL A   1      42.477  31.603  29.776  1.00  0.00     0.031 C 
ATOM     54  C   UNL A   1      37.991  29.168  32.364  1.00  0.00     0.029 A 
ATOM     55  C   UNL A   1      39.051  29.991  31.984  1.00  0.00     0.049 A 
ATOM     56  H   UNL A   1      38.691  31.674  30.770  1.00  0.00     0.167 HD
ATOM     57  C   UNL A   1      41.384  30.747  31.618  1.00  0.00     0.074 A 
ATOM     58  C   UNL A   1      41.288  31.341  30.300  1.00  0.00     0.031 C 
ATOM     59  C   UNL A   1      40.426  30.156  32.390  1.00  0.00     0.037 A 
BRANCH  46  60
ATOM     60  C   UNL A   1      36.503  30.983  28.355  1.00  0.00     0.064 A 
ATOM     61  C   UNL A   1      36.710  32.366  28.514  1.00  0.00     0.173 A 
ATOM     62  C   UNL A   1      35.217  30.550  28.020  1.00  0.00     0.173 A 
ATOM     63  F   UNL A   1      37.928  32.826  28.845  1.00  0.00    -0.203 F 
ATOM     64  C   UNL A   1      35.662  33.273  28.417  1.00  0.00     0.198 A 
ATOM     65  C   UNL A   1      34.169  31.469  27.899  1.00  0.00     0.198 A 
ATOM     66  F   UNL A   1      34.957  29.243  27.877  1.00  0.00    -0.203 F 
ATOM     67  F   UNL A   1      35.882  34.572  28.661  1.00  0.00    -0.200 F 
ATOM     68  C   UNL A   1      34.388  32.823  28.119  1.00  0.00     0.200 A 
ATOM     69  F   UNL A   1      32.931  31.039  27.613  1.00  0.00    -0.200 F 
ATOM     70  F   UNL A   1      33.368  33.692  28.066  1.00  0.00    -0.200 F 
ENDBRANCH  46  60
BRANCH  47  71
ATOM     71  C   UNL A   1      45.631  31.276  29.476  1.00  0.00     0.064 A 
ATOM     72  C   UNL A   1      46.876  31.637  30.028  1.00  0.00     0.173 A 
ATOM     73  C   UNL A   1      45.397  31.714  28.161  1.00  0.00     0.173 A 
ATOM     74  F   UNL A   1      47.139  31.379  31.320  1.00  0.00    -0.203 F 
ATOM     75  C   UNL A   1      47.873  32.257  29.274  1.00  0.00     0.198 A 
ATOM     76  C   UNL A   1      46.405  32.310  27.395  1.00  0.00     0.198 A 
ATOM     77  F   UNL A   1      44.198  31.568  27.583  1.00  0.00    -0.203 F 
ATOM     78  F   UNL A   1      49.059  32.534  29.834  1.00  0.00    -0.200 F 
ATOM     79  C   UNL A   1      47.650  32.559  27.944  1.00  0.00     0.200 A 
ATOM     80  F   UNL A   1      46.170  32.619  26.111  1.00  0.00    -0.200 F 
ATOM     81  F   UNL A   1      48.627  33.089  27.196  1.00  0.00    -0.200 F 
ENDBRANCH  47  71
BRANCH  59  82
ATOM     82  C   UNL A   1      40.927  29.454  33.605  1.00  0.00     0.064 A 
ATOM     83  C   UNL A   1      41.124  28.068  33.600  1.00  0.00     0.173 A 
ATOM     84  C   UNL A   1      41.230  30.159  34.782  1.00  0.00     0.173 A 
ATOM     85  F   UNL A   1      40.860  27.349  32.497  1.00  0.00    -0.203 F 
ATOM     86  C   UNL A   1      41.614  27.413  34.726  1.00  0.00     0.198 A 
ATOM     87  C   UNL A   1      41.757  29.505  35.891  1.00  0.00     0.198 A 
ATOM     88  F   UNL A   1      41.033  31.485  34.862  1.00  0.00    -0.203 F 
ATOM     89  F   UNL A   1      41.784  26.084  34.703  1.00  0.00    -0.200 F 
ATOM     90  C   UNL A   1      41.945  28.134  35.863  1.00  0.00     0.200 A 
ATOM     91  F   UNL A   1      42.096  30.207  36.983  1.00  0.00    -0.200 F 
ATOM     92  F   UNL A   1      42.459  27.505  36.930  1.00  0.00    -0.200 F 
ENDBRANCH  59  82
ENDBRANCH  33  34
ENDBRANCH  25  28
ENDBRANCH  23  24
ENDBRANCH   1  23
TORSDOF 12
ENDMDL
MODEL 2
REMARK VINA RESULT:     -13.8      0.896      1.853
REMARK SMILES Cc1nn(C)c2c1NC(=O)[C@@H](CCC(=O)NCCCNC(=O)c1ccc(-c3c4nc(c(-c5c(F)c(F)c(F)c(F)c5F)c5ccc([nH]5)c(-c5c(F)c(F)c(F)c(F)c5F)c5nc(c(-c6c(F)c(F)c(F)c(F)c6F)c6ccc3[nH]6)C=C5)C=C4)cc1)N2
REMARK SMILES IDX 18 1 17 2 16 3 14 4 15 5 13 7 12 8 11 9 1 10 2 11 3 12 7 13
REMARK SMILES IDX 4 14 6 15 8 16 5 17 86 18 9 19 10 22 19 23 20 24 21 25 22 27
REMARK SMILES IDX 23 28 24 29 85 30 25 31 84 32 26 33 27 34 28 35 78 36 29 37
REMARK SMILES IDX 83 38 77 39 79 40 30 41 82 42 76 43 75 44 31 46 63 47 43 48
REMARK SMILES IDX 62 49 44 50 47 51 61 52 80 53 45 54 46 55 60 57 81 58 48 59
REMARK SMILES IDX 32 60 33 61 41 62 34 63 35 64 39 65 42 66 36 67 37 68 40 69
REMARK SMILES IDX 38 70 64 71 65 72 73 73 66 74 67 75 71 76 74 77 68 78 69 79
REMARK SMILES IDX 72 80 70 81 49 82 50 83 58 84 51 85 52 86 56 87 59 88 53 89
REMARK SMILES IDX 54 90 57 91 55 92
REMARK H PARENT 16 6 8 20 86 21 20 26 79 45 47 56
REMARK Flexibility Score: inf
ROOT
ATOM      1  C   UNL A   1      37.163  21.647  24.554  1.00  0.00     0.042 C 
ENDROOT
BRANCH   1   2
ATOM      2  C   UNL A   1      36.297  20.226  25.015  1.00  0.00     0.117 C 
BRANCH   2   3
ATOM      3  N   UNL A   1      34.288  19.752  25.092  1.00  0.00    -0.356 N 
ATOM      4  C   UNL A   1      32.958  19.800  24.676  1.00  0.00     0.220 C 
ATOM      5  O   UNL A   1      32.146  19.094  25.273  1.00  0.00    -0.275 OA
ATOM      6  H   UNL A   1      34.245  19.145  25.866  1.00  0.00     0.163 HD
BRANCH   4   7
ATOM      7  C   UNL A   1      32.564  20.615  23.502  1.00  0.00     0.102 C 
BRANCH   7   8
ATOM      8  C   UNL A   1      31.941  21.835  24.100  1.00  0.00     0.045 C 
BRANCH   8   9
ATOM      9  C   UNL A   1      32.988  22.948  23.989  1.00  0.00     0.171 C 
ATOM     10  C   UNL A   1      31.938  27.909  27.078  1.00  0.00     0.071 C 
ATOM     11  C   UNL A   1      32.204  27.485  25.680  1.00  0.00     0.085 A 
ATOM     12  N   UNL A   1      31.491  28.001  24.659  1.00  0.00    -0.174 NA
ATOM     13  C   UNL A   1      32.910  26.327  25.311  1.00  0.00     0.107 A 
ATOM     14  N   UNL A   1      31.507  27.104  23.630  1.00  0.00    -0.251 N 
ATOM     15  C   UNL A   1      32.247  25.984  23.872  1.00  0.00     0.149 A 
ATOM     16  N   UNL A   1      33.648  25.094  26.314  1.00  0.00    -0.320 N 
ATOM     17  C   UNL A   1      30.764  27.390  22.429  1.00  0.00     0.176 C 
ATOM     18  N   UNL A   1      32.182  24.472  23.121  1.00  0.00    -0.357 N 
ATOM     19  C   UNL A   1      33.781  23.389  25.808  1.00  0.00     0.247 C 
ATOM     20  H   UNL A   1      34.004  25.354  27.194  1.00  0.00     0.170 HD
ATOM     21  H   UNL A   1      31.738  24.369  22.247  1.00  0.00     0.163 HD
ATOM     22  O   UNL A   1      34.319  22.562  26.548  1.00  0.00    -0.272 OA
ENDBRANCH   8   9
ENDBRANCH   7   8
ENDBRANCH   4   7
ENDBRANCH   2   3
ENDBRANCH   1   2
BRANCH   1  23
ATOM     23  C   UNL A   1      37.775  22.613  25.608  1.00  0.00     0.118 C 
BRANCH  23  24
ATOM     24  N   UNL A   1      38.755  21.981  26.477  1.00  0.00    -0.352 N 
ATOM     25  C   UNL A   1      39.844  22.492  27.138  1.00  0.00     0.251 C 
ATOM     26  H   UNL A   1      38.612  21.017  26.617  1.00  0.00     0.163 HD
ATOM     27  O   UNL A   1      40.667  21.705  27.606  1.00  0.00    -0.269 OA
BRANCH  25  28
ATOM     28  C   UNL A   1      40.083  23.944  27.343  1.00  0.00     0.039 A 
ATOM     29  C   UNL A   1      41.310  24.469  26.910  1.00  0.00     0.014 A 
ATOM     30  C   UNL A   1      39.246  24.734  28.138  1.00  0.00     0.014 A 
ATOM     31  C   UNL A   1      41.695  25.768  27.255  1.00  0.00     0.010 A 
ATOM     32  C   UNL A   1      39.637  26.039  28.488  1.00  0.00     0.010 A 
ATOM     33  C   UNL A   1      40.861  26.566  28.049  1.00  0.00    -0.014 A 
BRANCH  33  34
ATOM     34  C   UNL A   1      41.245  27.987  28.220  1.00  0.00     0.031 A 
ATOM     35  C   UNL A   1      40.068  28.925  28.210  1.00  0.00     0.074 A 
ATOM     36  C   UNL A   1      42.375  28.373  28.860  1.00  0.00     0.049 A 
ATOM     37  N   UNL A   1      39.337  29.182  29.258  1.00  0.00    -0.248 NA
ATOM     38  C   UNL A   1      39.460  29.383  26.959  1.00  0.00     0.031 C 
ATOM     39  C   UNL A   1      42.906  27.755  30.076  1.00  0.00     0.029 A 
ATOM     40  N   UNL A   1      43.184  29.488  28.654  1.00  0.00    -0.354 N 
ATOM     41  C   UNL A   1      38.181  29.817  28.824  1.00  0.00     0.074 A 
ATOM     42  C   UNL A   1      38.300  29.909  27.387  1.00  0.00     0.031 C 
ATOM     43  C   UNL A   1      43.857  28.560  30.596  1.00  0.00     0.029 A 
ATOM     44  C   UNL A   1      44.106  29.694  29.698  1.00  0.00     0.049 A 
ATOM     45  H   UNL A   1      43.117  30.070  27.862  1.00  0.00     0.167 HD
ATOM     46  C   UNL A   1      37.213  30.239  29.684  1.00  0.00     0.037 A 
ATOM     47  C   UNL A   1      44.439  30.942  30.151  1.00  0.00     0.037 A 
ATOM     48  C   UNL A   1      37.494  30.003  31.069  1.00  0.00     0.049 A 
ATOM     49  C   UNL A   1      43.159  31.370  30.820  1.00  0.00     0.074 A 
ATOM     50  C   UNL A   1      37.114  29.137  32.069  1.00  0.00     0.029 A 
ATOM     51  N   UNL A   1      38.408  30.837  31.665  1.00  0.00    -0.354 N 
ATOM     52  N   UNL A   1      42.740  30.953  31.984  1.00  0.00    -0.248 NA
ATOM     53  C   UNL A   1      42.129  31.970  29.973  1.00  0.00     0.031 C 
ATOM     54  C   UNL A   1      38.171  29.193  33.035  1.00  0.00     0.029 A 
ATOM     55  C   UNL A   1      39.127  30.086  32.553  1.00  0.00     0.049 A 
ATOM     56  H   UNL A   1      38.522  31.799  31.488  1.00  0.00     0.167 HD
ATOM     57  C   UNL A   1      41.348  30.978  31.904  1.00  0.00     0.074 A 
ATOM     58  C   UNL A   1      41.038  31.624  30.644  1.00  0.00     0.031 C 
ATOM     59  C   UNL A   1      40.537  30.304  32.771  1.00  0.00     0.037 A 
BRANCH  46  60
ATOM     60  C   UNL A   1      36.048  31.101  29.370  1.00  0.00     0.064 A 
ATOM     61  C   UNL A   1      35.081  30.565  28.499  1.00  0.00     0.173 A 
ATOM     62  C   UNL A   1      36.009  32.475  29.621  1.00  0.00     0.173 A 
ATOM     63  F   UNL A   1      35.087  29.250  28.221  1.00  0.00    -0.203 F 
ATOM     64  C   UNL A   1      34.159  31.376  27.849  1.00  0.00     0.198 A 
ATOM     65  C   UNL A   1      35.063  33.286  28.984  1.00  0.00     0.198 A 
ATOM     66  F   UNL A   1      36.918  33.045  30.426  1.00  0.00    -0.203 F 
ATOM     67  F   UNL A   1      33.311  30.840  26.961  1.00  0.00    -0.200 F 
ATOM     68  C   UNL A   1      34.157  32.740  28.083  1.00  0.00     0.200 A 
ATOM     69  F   UNL A   1      35.058  34.608  29.204  1.00  0.00    -0.200 F 
ATOM     70  F   UNL A   1      33.296  33.530  27.425  1.00  0.00    -0.200 F 
ENDBRANCH  46  60
BRANCH  47  71
ATOM     71  C   UNL A   1      45.219  31.822  29.220  1.00  0.00     0.064 A 
ATOM     72  C   UNL A   1      46.413  32.402  29.696  1.00  0.00     0.173 A 
ATOM     73  C   UNL A   1      44.872  32.141  27.896  1.00  0.00     0.173 A 
ATOM     74  F   UNL A   1      46.760  32.263  30.986  1.00  0.00    -0.203 F 
ATOM     75  C   UNL A   1      47.272  33.122  28.866  1.00  0.00     0.198 A 
ATOM     76  C   UNL A   1      45.746  32.839  27.055  1.00  0.00     0.198 A 
ATOM     77  F   UNL A   1      43.690  31.780  27.381  1.00  0.00    -0.203 F 
ATOM     78  F   UNL A   1      48.420  33.611  29.356  1.00  0.00    -0.200 F 
ATOM     79  C   UNL A   1      46.956  33.308  27.533  1.00  0.00     0.200 A 
ATOM     80  F   UNL A   1      45.419  33.033  25.769  1.00  0.00    -0.200 F 
ATOM     81  F   UNL A   1      47.811  33.937  26.715  1.00  0.00    -0.200 F 
ENDBRANCH  47  71
BRANCH  59  82
ATOM     82  C   UNL A   1      41.237  29.577  33.867  1.00  0.00     0.064 A 
ATOM     83  C   UNL A   1      41.632  30.247  35.031  1.00  0.00     0.173 A 
ATOM     84  C   UNL A   1      41.510  28.202  33.773  1.00  0.00     0.173 A 
ATOM     85  F   UNL A   1      41.385  31.559  35.176  1.00  0.00    -0.203 F 
ATOM     86  C   UNL A   1      42.265  29.566  36.066  1.00  0.00     0.198 A 
ATOM     87  C   UNL A   1      42.107  27.518  34.827  1.00  0.00     0.198 A 
ATOM     88  F   UNL A   1      41.186  27.509  32.670  1.00  0.00    -0.203 F 
ATOM     89  F   UNL A   1      42.644  30.229  37.167  1.00  0.00    -0.200 F 
ATOM     90  C   UNL A   1      42.487  28.201  35.970  1.00  0.00     0.200 A 
ATOM     91  F   UNL A   1      42.303  26.194  34.740  1.00  0.00    -0.200 F 
ATOM     92  F   UNL A   1      43.058  27.540  36.987  1.00  0.00    -0.200 F 
ENDBRANCH  59  82
ENDBRANCH  33  34
ENDBRANCH  25  28
ENDBRANCH  23  24
ENDBRANCH   1  23
TORSDOF 12
ENDMDL
MODEL 3
REMARK VINA RESULT:     -13.5      1.280      1.911
REMARK SMILES Cc1nn(C)c2c1NC(=O)[C@@H](CCC(=O)NCCCNC(=O)c1ccc(-c3c4nc(c(-c5c(F)c(F)c(F)c(F)c5F)c5ccc([nH]5)c(-c5c(F)c(F)c(F)c(F)c5F)c5nc(c(-c6c(F)c(F)c(F)c(F)c6F)c6ccc3[nH]6)C=C5)C=C4)cc1)N2
REMARK SMILES IDX 18 1 17 2 16 3 14 4 15 5 13 7 12 8 11 9 1 10 2 11 3 12 7 13
REMARK SMILES IDX 4 14 6 15 8 16 5 17 86 18 9 19 10 22 19 23 20 24 21 25 22 27
REMARK SMILES IDX 23 28 24 29 85 30 25 31 84 32 26 33 27 34 28 35 78 36 29 37
REMARK SMILES IDX 83 38 77 39 79 40 30 41 82 42 76 43 75 44 31 46 63 47 43 48
REMARK SMILES IDX 62 49 44 50 47 51 61 52 80 53 45 54 46 55 60 57 81 58 48 59
REMARK SMILES IDX 32 60 33 61 41 62 34 63 35 64 39 65 42 66 36 67 37 68 40 69
REMARK SMILES IDX 38 70 64 71 65 72 73 73 66 74 67 75 71 76 74 77 68 78 69 79
REMARK SMILES IDX 72 80 70 81 49 82 50 83 58 84 51 85 52 86 56 87 59 88 53 89
REMARK SMILES IDX 54 90 57 91 55 92
REMARK H PARENT 16 6 8 20 86 21 20 26 79 45 47 56
REMARK Flexibility Score: inf
ROOT
ATOM      1  C   UNL A   1      36.816  21.885  25.791  1.00  0.00     0.042 C 
ENDROOT
BRANCH   1   2
ATOM      2  C   UNL A   1      35.942  20.627  24.993  1.00  0.00     0.117 C 
BRANCH   2   3
ATOM      3  N   UNL A   1      33.933  20.303  24.636  1.00  0.00    -0.356 N 
ATOM      4  C   UNL A   1      32.578  20.631  24.634  1.00  0.00     0.220 C 
ATOM      5  O   UNL A   1      31.795  19.824  24.132  1.00  0.00    -0.275 OA
ATOM      6  H   UNL A   1      33.933  19.401  24.242  1.00  0.00     0.163 HD
BRANCH   4   7
ATOM      7  C   UNL A   1      32.117  21.943  25.148  1.00  0.00     0.102 C 
BRANCH   7   8
ATOM      8  C   UNL A   1      32.821  22.087  26.459  1.00  0.00     0.045 C 
BRANCH   8   9
ATOM      9  C   UNL A   1      32.312  23.393  27.076  1.00  0.00     0.171 C 
ATOM     10  C   UNL A   1      28.976  26.859  23.596  1.00  0.00     0.071 C 
ATOM     11  C   UNL A   1      30.220  26.934  24.402  1.00  0.00     0.085 A 
ATOM     12  N   UNL A   1      31.318  27.545  23.915  1.00  0.00    -0.174 NA
ATOM     13  C   UNL A   1      30.505  26.128  25.519  1.00  0.00     0.107 A 
ATOM     14  N   UNL A   1      32.414  27.016  24.534  1.00  0.00    -0.251 N 
ATOM     15  C   UNL A   1      32.125  26.076  25.480  1.00  0.00     0.149 A 
ATOM     16  N   UNL A   1      29.550  24.862  26.263  1.00  0.00    -0.320 N 
ATOM     17  C   UNL A   1      33.729  27.460  24.150  1.00  0.00     0.176 C 
ATOM     18  N   UNL A   1      33.116  24.876  26.137  1.00  0.00    -0.357 N 
ATOM     19  C   UNL A   1      30.280  23.457  27.083  1.00  0.00     0.247 C 
ATOM     20  H   UNL A   1      28.568  24.928  26.226  1.00  0.00     0.170 HD
ATOM     21  H   UNL A   1      34.095  24.932  26.042  1.00  0.00     0.163 HD
ATOM     22  O   UNL A   1      29.562  22.597  27.599  1.00  0.00    -0.272 OA
ENDBRANCH   8   9
ENDBRANCH   7   8
ENDBRANCH   4   7
ENDBRANCH   2   3
ENDBRANCH   1   2
BRANCH   1  23
ATOM     23  C   UNL A   1      38.323  22.143  25.508  1.00  0.00     0.118 C 
BRANCH  23  24
ATOM     24  N   UNL A   1      39.212  21.531  26.482  1.00  0.00    -0.352 N 
ATOM     25  C   UNL A   1      40.262  22.046  27.201  1.00  0.00     0.251 C 
ATOM     26  H   UNL A   1      39.028  20.579  26.658  1.00  0.00     0.163 HD
ATOM     27  O   UNL A   1      41.021  21.261  27.771  1.00  0.00    -0.269 OA
BRANCH  25  28
ATOM     28  C   UNL A   1      40.529  23.499  27.352  1.00  0.00     0.039 A 
ATOM     29  C   UNL A   1      41.810  23.964  27.015  1.00  0.00     0.014 A 
ATOM     30  C   UNL A   1      39.647  24.356  28.018  1.00  0.00     0.014 A 
ATOM     31  C   UNL A   1      42.204  25.269  27.328  1.00  0.00     0.010 A 
ATOM     32  C   UNL A   1      40.045  25.666  28.336  1.00  0.00     0.010 A 
ATOM     33  C   UNL A   1      41.324  26.133  27.993  1.00  0.00    -0.014 A 
BRANCH  33  34
ATOM     34  C   UNL A   1      41.738  27.550  28.126  1.00  0.00     0.031 A 
ATOM     35  C   UNL A   1      40.611  28.520  27.900  1.00  0.00     0.074 A 
ATOM     36  C   UNL A   1      42.788  27.942  28.887  1.00  0.00     0.049 A 
ATOM     37  N   UNL A   1      39.759  28.869  28.822  1.00  0.00    -0.248 NA
ATOM     38  C   UNL A   1      40.192  28.913  26.553  1.00  0.00     0.031 C 
ATOM     39  C   UNL A   1      43.129  27.389  30.199  1.00  0.00     0.029 A 
ATOM     40  N   UNL A   1      43.660  29.015  28.723  1.00  0.00    -0.354 N 
ATOM     41  C   UNL A   1      38.696  29.509  28.199  1.00  0.00     0.074 A 
ATOM     42  C   UNL A   1      39.007  29.503  26.788  1.00  0.00     0.031 C 
ATOM     43  C   UNL A   1      44.033  28.197  30.792  1.00  0.00     0.029 A 
ATOM     44  C   UNL A   1      44.444  29.261  29.868  1.00  0.00     0.049 A 
ATOM     45  H   UNL A   1      43.722  29.545  27.896  1.00  0.00     0.167 HD
ATOM     46  C   UNL A   1      37.640  30.018  28.893  1.00  0.00     0.037 A 
ATOM     47  C   UNL A   1      44.763  30.525  30.284  1.00  0.00     0.037 A 
ATOM     48  C   UNL A   1      37.726  29.865  30.316  1.00  0.00     0.049 A 
ATOM     49  C   UNL A   1      43.424  31.037  30.746  1.00  0.00     0.074 A 
ATOM     50  C   UNL A   1      37.183  29.079  31.306  1.00  0.00     0.029 A 
ATOM     51  N   UNL A   1      38.585  30.708  30.977  1.00  0.00    -0.354 N 
ATOM     52  N   UNL A   1      42.838  30.710  31.868  1.00  0.00    -0.248 NA
ATOM     53  C   UNL A   1      42.539  31.611  29.733  1.00  0.00     0.031 C 
ATOM     54  C   UNL A   1      38.104  29.166  32.401  1.00  0.00     0.029 A 
ATOM     55  C   UNL A   1      39.151  29.995  31.998  1.00  0.00     0.049 A 
ATOM     56  H   UNL A   1      38.760  31.652  30.757  1.00  0.00     0.167 HD
ATOM     57  C   UNL A   1      41.471  30.774  31.600  1.00  0.00     0.074 A 
ATOM     58  C   UNL A   1      41.357  31.343  30.272  1.00  0.00     0.031 C 
ATOM     59  C   UNL A   1      40.526  30.184  32.389  1.00  0.00     0.037 A 
BRANCH  46  60
ATOM     60  C   UNL A   1      36.562  30.892  28.373  1.00  0.00     0.064 A 
ATOM     61  C   UNL A   1      36.756  32.280  28.498  1.00  0.00     0.173 A 
ATOM     62  C   UNL A   1      35.277  30.439  28.063  1.00  0.00     0.173 A 
ATOM     63  F   UNL A   1      37.974  32.759  28.804  1.00  0.00    -0.203 F 
ATOM     64  C   UNL A   1      35.698  33.174  28.394  1.00  0.00     0.198 A 
ATOM     65  C   UNL A   1      34.217  31.344  27.934  1.00  0.00     0.198 A 
ATOM     66  F   UNL A   1      35.027  29.126  27.952  1.00  0.00    -0.203 F 
ATOM     67  F   UNL A   1      35.908  34.481  28.606  1.00  0.00    -0.200 F 
ATOM     68  C   UNL A   1      34.425  32.705  28.122  1.00  0.00     0.200 A 
ATOM     69  F   UNL A   1      32.981  30.896  27.674  1.00  0.00    -0.200 F 
ATOM     70  F   UNL A   1      33.395  33.562  28.062  1.00  0.00    -0.200 F 
ENDBRANCH  46  60
BRANCH  47  71
ATOM     71  C   UNL A   1      45.693  31.317  29.413  1.00  0.00     0.064 A 
ATOM     72  C   UNL A   1      46.957  31.665  29.933  1.00  0.00     0.173 A 
ATOM     73  C   UNL A   1      45.428  31.765  28.108  1.00  0.00     0.173 A 
ATOM     74  F   UNL A   1      47.253  31.397  31.216  1.00  0.00    -0.203 F 
ATOM     75  C   UNL A   1      47.938  32.280  29.155  1.00  0.00     0.198 A 
ATOM     76  C   UNL A   1      46.419  32.356  27.318  1.00  0.00     0.198 A 
ATOM     77  F   UNL A   1      44.212  31.633  27.563  1.00  0.00    -0.203 F 
ATOM     78  F   UNL A   1      49.141  32.544  29.684  1.00  0.00    -0.200 F 
ATOM     79  C   UNL A   1      47.681  32.592  27.833  1.00  0.00     0.200 A 
ATOM     80  F   UNL A   1      46.152  32.675  26.043  1.00  0.00    -0.200 F 
ATOM     81  F   UNL A   1      48.642  33.117  27.062  1.00  0.00    -0.200 F 
ENDBRANCH  47  71
BRANCH  59  82
ATOM     82  C   UNL A   1      41.046  29.510  33.612  1.00  0.00     0.064 A 
ATOM     83  C   UNL A   1      41.323  30.245  34.771  1.00  0.00     0.173 A 
ATOM     84  C   UNL A   1      41.261  28.122  33.645  1.00  0.00     0.173 A 
ATOM     85  F   UNL A   1      41.125  31.573  34.796  1.00  0.00    -0.203 F 
ATOM     86  C   UNL A   1      41.787  29.615  35.922  1.00  0.00     0.198 A 
ATOM     87  C   UNL A   1      41.687  27.492  34.810  1.00  0.00     0.198 A 
ATOM     88  F   UNL A   1      41.045  27.365  32.557  1.00  0.00    -0.203 F 
ATOM     89  F   UNL A   1      42.056  30.340  37.016  1.00  0.00    -0.200 F 
ATOM     90  C   UNL A   1      41.952  28.239  35.945  1.00  0.00     0.200 A 
ATOM     91  F   UNL A   1      41.826  26.158  34.837  1.00  0.00    -0.200 F 
ATOM     92  F   UNL A   1      42.357  27.630  37.069  1.00  0.00    -0.200 F 
ENDBRANCH  59  82
ENDBRANCH  33  34
ENDBRANCH  25  28
ENDBRANCH  23  24
ENDBRANCH   1  23
TORSDOF 12
ENDMDL
