MODEL 1
REMARK VINA RESULT:     -11.4      0.000      0.000
REMARK SMILES O=C(C[C@H](c1ccsc1)n1cccc1)NCCCNC(=O)c1ccc(-c2c3nc(c(-c4c(F)c(F)c(F)c(F)c4F)c4ccc([nH]4)c(-c4c(F)c(F)c(F)c(F)c4F)c4nc(c(-c5c(F)c(F)c(F)c(F)c5F)c5ccc2[nH]5)C=C4)C=C3)cc1
REMARK SMILES IDX 17 1 16 2 15 3 1 4 2 5 3 7 4 8 10 9 11 10 14 11 12 12 13 13
REMARK SMILES IDX 5 14 6 15 9 16 7 17 8 18 18 19 19 20 20 21 21 23 22 24 23 25
REMARK SMILES IDX 84 26 24 27 83 28 25 29 26 30 27 31 77 32 28 33 82 34 76 35
REMARK SMILES IDX 78 36 29 37 81 38 75 39 74 40 30 42 62 43 42 44 61 45 43 46
REMARK SMILES IDX 46 47 60 48 79 49 44 50 45 51 59 53 80 54 47 55 31 56 32 57
REMARK SMILES IDX 40 58 33 59 34 60 38 61 41 62 35 63 36 64 39 65 37 66 63 67
REMARK SMILES IDX 64 68 72 69 65 70 66 71 70 72 73 73 67 74 68 75 71 76 69 77
REMARK SMILES IDX 48 78 49 79 57 80 50 81 51 82 55 83 58 84 52 85 53 86 56 87
REMARK SMILES IDX 54 88
REMARK H PARENT 15 6 19 22 78 41 46 52
REMARK Flexibility Score: inf
ROOT
ATOM      1  C   UNL A   1      35.907  23.364  26.141  1.00  0.00     0.042 C 
ENDROOT
BRANCH   1   2
ATOM      2  C   UNL A   1      34.919  23.575  24.995  1.00  0.00     0.117 C 
BRANCH   2   3
ATOM      3  N   UNL A   1      34.556  24.967  24.792  1.00  0.00    -0.356 N 
ATOM      4  O   UNL A   1      33.993  24.735  22.583  1.00  0.00    -0.275 OA
ATOM      5  C   UNL A   1      34.014  25.408  23.606  1.00  0.00     0.222 C 
ATOM      6  H   UNL A   1      34.700  25.612  25.522  1.00  0.00     0.163 HD
BRANCH   5   7
ATOM      7  C   UNL A   1      33.449  26.812  23.657  1.00  0.00     0.130 C 
BRANCH   7   8
ATOM      8  C   UNL A   1      32.421  27.025  24.786  1.00  0.00     0.127 C 
BRANCH   8   9
ATOM      9  N   UNL A   1      32.772  28.097  25.739  1.00  0.00    -0.346 N 
ATOM     10  C   UNL A   1      34.063  28.537  25.949  1.00  0.00     0.086 A 
ATOM     11  C   UNL A   1      31.952  28.759  26.620  1.00  0.00     0.086 A 
ATOM     12  C   UNL A   1      34.035  29.558  26.872  1.00  0.00     0.019 A 
ATOM     13  C   UNL A   1      32.698  29.702  27.293  1.00  0.00     0.019 A 
ENDBRANCH   8   9
BRANCH   8  14
ATOM     14  C   UNL A   1      30.986  27.084  24.265  1.00  0.00    -0.014 A 
ATOM     15  C   UNL A   1      30.437  28.065  23.365  1.00  0.00     0.017 A 
ATOM     16  C   UNL A   1      30.009  26.160  24.602  1.00  0.00     0.070 A 
ATOM     17  C   UNL A   1      29.099  27.874  23.105  1.00  0.00     0.065 A 
ATOM     18  S   UNL A   1      28.494  26.480  23.878  1.00  0.00    -0.152 S 
ENDBRANCH   8  14
ENDBRANCH   7   8
ENDBRANCH   5   7
ENDBRANCH   2   3
ENDBRANCH   1   2
BRANCH   1  19
ATOM     19  C   UNL A   1      37.237  24.092  25.964  1.00  0.00     0.118 C 
BRANCH  19  20
ATOM     20  N   UNL A   1      38.360  23.366  26.535  1.00  0.00    -0.352 N 
ATOM     21  C   UNL A   1      39.534  23.849  27.065  1.00  0.00     0.251 C 
ATOM     22  H   UNL A   1      38.267  22.385  26.544  1.00  0.00     0.163 HD
ATOM     23  O   UNL A   1      40.495  23.097  27.173  1.00  0.00    -0.269 OA
BRANCH  21  24
ATOM     24  C   UNL A   1      39.667  25.256  27.514  1.00  0.00     0.039 A 
ATOM     25  C   UNL A   1      39.228  25.590  28.803  1.00  0.00     0.014 A 
ATOM     26  C   UNL A   1      40.111  26.263  26.653  1.00  0.00     0.014 A 
ATOM     27  C   UNL A   1      39.282  26.913  29.237  1.00  0.00     0.010 A 
ATOM     28  C   UNL A   1      40.178  27.581  27.079  1.00  0.00     0.010 A 
ATOM     29  C   UNL A   1      39.777  27.900  28.377  1.00  0.00    -0.014 A 
BRANCH  29  30
ATOM     30  C   UNL A   1      40.047  29.257  28.892  1.00  0.00     0.031 A 
ATOM     31  C   UNL A   1      38.737  30.066  29.063  1.00  0.00     0.074 A 
ATOM     32  C   UNL A   1      41.358  29.545  29.162  1.00  0.00     0.049 A 
ATOM     33  N   UNL A   1      38.543  31.348  29.150  1.00  0.00    -0.248 NA
ATOM     34  C   UNL A   1      37.437  29.336  29.113  1.00  0.00     0.031 C 
ATOM     35  C   UNL A   1      42.481  28.594  28.987  1.00  0.00     0.029 A 
ATOM     36  N   UNL A   1      42.026  30.659  29.634  1.00  0.00    -0.354 N 
ATOM     37  C   UNL A   1      37.177  31.559  29.461  1.00  0.00     0.074 A 
ATOM     38  C   UNL A   1      36.529  30.293  29.318  1.00  0.00     0.031 C 
ATOM     39  C   UNL A   1      43.665  29.181  29.259  1.00  0.00     0.029 A 
ATOM     40  C   UNL A   1      43.446  30.559  29.655  1.00  0.00     0.049 A 
ATOM     41  H   UNL A   1      41.551  31.467  29.937  1.00  0.00     0.167 HD
ATOM     42  C   UNL A   1      36.697  32.742  29.953  1.00  0.00     0.037 A 
ATOM     43  C   UNL A   1      44.375  31.530  29.925  1.00  0.00     0.037 A 
ATOM     44  C   UNL A   1      37.747  33.698  30.006  1.00  0.00     0.049 A 
ATOM     45  C   UNL A   1      43.588  32.673  30.405  1.00  0.00     0.074 A 
ATOM     46  C   UNL A   1      38.416  34.381  29.026  1.00  0.00     0.029 A 
ATOM     47  N   UNL A   1      38.464  33.764  31.173  1.00  0.00    -0.354 N 
ATOM     48  N   UNL A   1      43.017  32.737  31.570  1.00  0.00    -0.248 NA
ATOM     49  C   UNL A   1      43.331  33.784  29.482  1.00  0.00     0.031 C 
ATOM     50  C   UNL A   1      39.742  34.403  29.502  1.00  0.00     0.029 A 
ATOM     51  C   UNL A   1      39.777  33.953  30.828  1.00  0.00     0.049 A 
ATOM     52  H   UNL A   1      38.104  33.690  32.088  1.00  0.00     0.167 HD
ATOM     53  C   UNL A   1      42.081  33.722  31.375  1.00  0.00     0.074 A 
ATOM     54  C   UNL A   1      42.532  34.514  30.253  1.00  0.00     0.031 C 
ATOM     55  C   UNL A   1      40.795  33.498  31.742  1.00  0.00     0.037 A 
BRANCH  42  56
ATOM     56  C   UNL A   1      35.410  33.126  30.637  1.00  0.00     0.064 A 
ATOM     57  C   UNL A   1      34.620  34.147  30.045  1.00  0.00     0.173 A 
ATOM     58  C   UNL A   1      35.128  32.831  31.976  1.00  0.00     0.173 A 
ATOM     59  F   UNL A   1      34.771  34.471  28.751  1.00  0.00    -0.203 F 
ATOM     60  C   UNL A   1      33.728  34.921  30.786  1.00  0.00     0.198 A 
ATOM     61  C   UNL A   1      34.192  33.577  32.704  1.00  0.00     0.198 A 
ATOM     62  F   UNL A   1      35.817  31.893  32.638  1.00  0.00    -0.203 F 
ATOM     63  F   UNL A   1      33.123  35.973  30.218  1.00  0.00    -0.200 F 
ATOM     64  C   UNL A   1      33.531  34.648  32.124  1.00  0.00     0.200 A 
ATOM     65  F   UNL A   1      33.994  33.303  34.001  1.00  0.00    -0.200 F 
ATOM     66  F   UNL A   1      32.734  35.433  32.861  1.00  0.00    -0.200 F 
ENDBRANCH  42  56
BRANCH  43  67
ATOM     67  C   UNL A   1      45.870  31.757  29.789  1.00  0.00     0.064 A 
ATOM     68  C   UNL A   1      46.814  31.718  30.822  1.00  0.00     0.173 A 
ATOM     69  C   UNL A   1      46.445  31.940  28.494  1.00  0.00     0.173 A 
ATOM     70  F   UNL A   1      46.436  31.693  32.103  1.00  0.00    -0.203 F 
ATOM     71  C   UNL A   1      48.202  31.724  30.569  1.00  0.00     0.198 A 
ATOM     72  C   UNL A   1      47.814  31.890  28.237  1.00  0.00     0.198 A 
ATOM     73  F   UNL A   1      45.690  32.170  27.412  1.00  0.00    -0.203 F 
ATOM     74  F   UNL A   1      49.064  31.674  31.593  1.00  0.00    -0.200 F 
ATOM     75  C   UNL A   1      48.698  31.762  29.278  1.00  0.00     0.200 A 
ATOM     76  F   UNL A   1      48.254  31.946  26.971  1.00  0.00    -0.200 F 
ATOM     77  F   UNL A   1      50.014  31.691  29.038  1.00  0.00    -0.200 F 
ENDBRANCH  43  67
BRANCH  55  78
ATOM     78  C   UNL A   1      40.626  32.461  32.837  1.00  0.00     0.064 A 
ATOM     79  C   UNL A   1      41.082  32.737  34.135  1.00  0.00     0.173 A 
ATOM     80  C   UNL A   1      40.127  31.165  32.627  1.00  0.00     0.173 A 
ATOM     81  F   UNL A   1      41.557  33.956  34.430  1.00  0.00    -0.203 F 
ATOM     82  C   UNL A   1      41.052  31.772  35.147  1.00  0.00     0.198 A 
ATOM     83  C   UNL A   1      40.090  30.199  33.635  1.00  0.00     0.198 A 
ATOM     84  F   UNL A   1      39.657  30.804  31.437  1.00  0.00    -0.203 F 
ATOM     85  F   UNL A   1      41.496  32.078  36.374  1.00  0.00    -0.200 F 
ATOM     86  C   UNL A   1      40.557  30.503  34.897  1.00  0.00     0.200 A 
ATOM     87  F   UNL A   1      39.591  28.978  33.379  1.00  0.00    -0.200 F 
ATOM     88  F   UNL A   1      40.513  29.583  35.871  1.00  0.00    -0.200 F 
ENDBRANCH  55  78
ENDBRANCH  29  30
ENDBRANCH  21  24
ENDBRANCH  19  20
ENDBRANCH   1  19
TORSDOF 13
ENDMDL
MODEL 2
REMARK VINA RESULT:     -11.4      4.596      9.384
REMARK SMILES O=C(C[C@H](c1ccsc1)n1cccc1)NCCCNC(=O)c1ccc(-c2c3nc(c(-c4c(F)c(F)c(F)c(F)c4F)c4ccc([nH]4)c(-c4c(F)c(F)c(F)c(F)c4F)c4nc(c(-c5c(F)c(F)c(F)c(F)c5F)c5ccc2[nH]5)C=C4)C=C3)cc1
REMARK SMILES IDX 17 1 16 2 15 3 1 4 2 5 3 7 4 8 10 9 11 10 14 11 12 12 13 13
REMARK SMILES IDX 5 14 6 15 9 16 7 17 8 18 18 19 19 20 20 21 21 23 22 24 23 25
REMARK SMILES IDX 84 26 24 27 83 28 25 29 26 30 27 31 77 32 28 33 82 34 76 35
REMARK SMILES IDX 78 36 29 37 81 38 75 39 74 40 30 42 62 43 42 44 61 45 43 46
REMARK SMILES IDX 46 47 60 48 79 49 44 50 45 51 59 53 80 54 47 55 31 56 32 57
REMARK SMILES IDX 40 58 33 59 34 60 38 61 41 62 35 63 36 64 39 65 37 66 63 67
REMARK SMILES IDX 64 68 72 69 65 70 66 71 70 72 73 73 67 74 68 75 71 76 69 77
REMARK SMILES IDX 48 78 49 79 57 80 50 81 51 82 55 83 58 84 52 85 53 86 56 87
REMARK SMILES IDX 54 88
REMARK H PARENT 15 6 19 22 78 41 46 52
REMARK Flexibility Score: inf
ROOT
ATOM      1  C   UNL A   1      33.755  28.400  25.775  1.00  0.00     0.042 C 
ENDROOT
BRANCH   1   2
ATOM      2  C   UNL A   1      32.505  27.647  26.229  1.00  0.00     0.117 C 
BRANCH   2   3
ATOM      3  N   UNL A   1      32.721  26.222  26.410  1.00  0.00    -0.356 N 
ATOM      4  O   UNL A   1      31.223  25.561  24.807  1.00  0.00    -0.275 OA
ATOM      5  C   UNL A   1      32.124  25.290  25.591  1.00  0.00     0.222 C 
ATOM      6  H   UNL A   1      33.310  25.914  27.137  1.00  0.00     0.163 HD
BRANCH   5   7
ATOM      7  C   UNL A   1      32.663  23.883  25.744  1.00  0.00     0.130 C 
BRANCH   7   8
ATOM      8  C   UNL A   1      33.517  23.414  24.549  1.00  0.00     0.127 C 
BRANCH   8   9
ATOM      9  N   UNL A   1      34.974  23.461  24.784  1.00  0.00    -0.346 N 
ATOM     10  C   UNL A   1      35.912  23.173  23.814  1.00  0.00     0.086 A 
ATOM     11  C   UNL A   1      35.642  23.688  25.963  1.00  0.00     0.086 A 
ATOM     12  C   UNL A   1      37.167  23.340  24.353  1.00  0.00     0.019 A 
ATOM     13  C   UNL A   1      36.997  23.671  25.712  1.00  0.00     0.019 A 
ENDBRANCH   8   9
BRANCH   8  14
ATOM     14  C   UNL A   1      33.012  22.102  23.951  1.00  0.00    -0.014 A 
ATOM     15  C   UNL A   1      32.414  21.921  22.653  1.00  0.00     0.017 A 
ATOM     16  C   UNL A   1      33.079  20.883  24.610  1.00  0.00     0.070 A 
ATOM     17  C   UNL A   1      32.026  20.623  22.411  1.00  0.00     0.065 A 
ATOM     18  S   UNL A   1      32.430  19.586  23.703  1.00  0.00    -0.152 S 
ENDBRANCH   8  14
ENDBRANCH   7   8
ENDBRANCH   5   7
ENDBRANCH   2   3
ENDBRANCH   1   2
BRANCH   1  19
ATOM     19  C   UNL A   1      34.795  28.607  26.873  1.00  0.00     0.118 C 
BRANCH  19  20
ATOM     20  N   UNL A   1      35.174  30.002  27.038  1.00  0.00    -0.352 N 
ATOM     21  C   UNL A   1      36.241  30.542  27.717  1.00  0.00     0.251 C 
ATOM     22  H   UNL A   1      34.580  30.654  26.599  1.00  0.00     0.163 HD
ATOM     23  O   UNL A   1      36.206  31.723  28.041  1.00  0.00    -0.269 OA
BRANCH  21  24
ATOM     24  C   UNL A   1      37.435  29.735  28.065  1.00  0.00     0.039 A 
ATOM     25  C   UNL A   1      38.507  29.706  27.163  1.00  0.00     0.014 A 
ATOM     26  C   UNL A   1      37.468  28.926  29.205  1.00  0.00     0.014 A 
ATOM     27  C   UNL A   1      39.621  28.912  27.428  1.00  0.00     0.010 A 
ATOM     28  C   UNL A   1      38.576  28.140  29.483  1.00  0.00     0.010 A 
ATOM     29  C   UNL A   1      39.657  28.147  28.600  1.00  0.00    -0.014 A 
BRANCH  29  30
ATOM     30  C   UNL A   1      40.909  27.478  29.005  1.00  0.00     0.031 A 
ATOM     31  C   UNL A   1      41.000  26.048  28.415  1.00  0.00     0.074 A 
ATOM     32  C   UNL A   1      41.767  28.223  29.768  1.00  0.00     0.049 A 
ATOM     33  N   UNL A   1      41.723  25.031  28.777  1.00  0.00    -0.248 NA
ATOM     34  C   UNL A   1      40.127  25.684  27.260  1.00  0.00     0.031 C 
ATOM     35  C   UNL A   1      41.521  29.624  30.184  1.00  0.00     0.029 A 
ATOM     36  N   UNL A   1      43.000  27.988  30.346  1.00  0.00    -0.354 N 
ATOM     37  C   UNL A   1      41.553  24.011  27.808  1.00  0.00     0.074 A 
ATOM     38  C   UNL A   1      40.480  24.432  26.963  1.00  0.00     0.031 C 
ATOM     39  C   UNL A   1      42.503  30.073  30.993  1.00  0.00     0.029 A 
ATOM     40  C   UNL A   1      43.495  29.032  31.178  1.00  0.00     0.049 A 
ATOM     41  H   UNL A   1      43.503  27.155  30.192  1.00  0.00     0.167 HD
ATOM     42  C   UNL A   1      42.405  22.949  27.685  1.00  0.00     0.037 A 
ATOM     43  C   UNL A   1      44.599  29.036  31.992  1.00  0.00     0.037 A 
ATOM     44  C   UNL A   1      43.388  23.002  28.710  1.00  0.00     0.049 A 
ATOM     45  C   UNL A   1      45.303  27.789  31.668  1.00  0.00     0.074 A 
ATOM     46  C   UNL A   1      43.318  22.785  30.060  1.00  0.00     0.029 A 
ATOM     47  N   UNL A   1      44.547  23.676  28.420  1.00  0.00    -0.354 N 
ATOM     48  N   UNL A   1      45.972  27.585  30.573  1.00  0.00    -0.248 NA
ATOM     49  C   UNL A   1      45.168  26.649  32.581  1.00  0.00     0.031 C 
ATOM     50  C   UNL A   1      44.179  23.768  30.586  1.00  0.00     0.029 A 
ATOM     51  C   UNL A   1      44.900  24.370  29.547  1.00  0.00     0.049 A 
ATOM     52  H   UNL A   1      45.034  23.663  27.564  1.00  0.00     0.167 HD
ATOM     53  C   UNL A   1      46.039  26.214  30.532  1.00  0.00     0.074 A 
ATOM     54  C   UNL A   1      45.845  25.743  31.884  1.00  0.00     0.031 C 
ATOM     55  C   UNL A   1      45.691  25.566  29.392  1.00  0.00     0.037 A 
BRANCH  42  56
ATOM     56  C   UNL A   1      42.636  21.934  26.593  1.00  0.00     0.064 A 
ATOM     57  C   UNL A   1      42.102  20.630  26.771  1.00  0.00     0.173 A 
ATOM     58  C   UNL A   1      43.632  22.061  25.618  1.00  0.00     0.173 A 
ATOM     59  F   UNL A   1      41.105  20.408  27.642  1.00  0.00    -0.203 F 
ATOM     60  C   UNL A   1      42.639  19.513  26.134  1.00  0.00     0.198 A 
ATOM     61  C   UNL A   1      44.134  20.943  24.941  1.00  0.00     0.198 A 
ATOM     62  F   UNL A   1      44.214  23.242  25.372  1.00  0.00    -0.203 F 
ATOM     63  F   UNL A   1      42.204  18.287  26.453  1.00  0.00    -0.200 F 
ATOM     64  C   UNL A   1      43.672  19.669  25.232  1.00  0.00     0.200 A 
ATOM     65  F   UNL A   1      45.130  21.097  24.057  1.00  0.00    -0.200 F 
ATOM     66  F   UNL A   1      44.246  18.595  24.673  1.00  0.00    -0.200 F 
ENDBRANCH  42  56
BRANCH  43  67
ATOM     67  C   UNL A   1      45.195  29.870  33.112  1.00  0.00     0.064 A 
ATOM     68  C   UNL A   1      46.236  30.798  32.993  1.00  0.00     0.173 A 
ATOM     69  C   UNL A   1      44.621  29.817  34.418  1.00  0.00     0.173 A 
ATOM     70  F   UNL A   1      46.971  30.873  31.880  1.00  0.00    -0.203 F 
ATOM     71  C   UNL A   1      46.575  31.681  34.040  1.00  0.00     0.198 A 
ATOM     72  C   UNL A   1      44.915  30.725  35.435  1.00  0.00     0.198 A 
ATOM     73  F   UNL A   1      43.733  28.875  34.763  1.00  0.00    -0.203 F 
ATOM     74  F   UNL A   1      47.574  32.559  33.871  1.00  0.00    -0.200 F 
ATOM     75  C   UNL A   1      45.885  31.675  35.239  1.00  0.00     0.200 A 
ATOM     76  F   UNL A   1      44.233  30.674  36.589  1.00  0.00    -0.200 F 
ATOM     77  F   UNL A   1      46.159  32.565  36.202  1.00  0.00    -0.200 F 
ENDBRANCH  43  67
BRANCH  55  78
ATOM     78  C   UNL A   1      45.832  26.396  28.130  1.00  0.00     0.064 A 
ATOM     79  C   UNL A   1      47.106  26.786  27.690  1.00  0.00     0.173 A 
ATOM     80  C   UNL A   1      44.749  26.912  27.398  1.00  0.00     0.173 A 
ATOM     81  F   UNL A   1      48.199  26.325  28.317  1.00  0.00    -0.203 F 
ATOM     82  C   UNL A   1      47.279  27.645  26.599  1.00  0.00     0.198 A 
ATOM     83  C   UNL A   1      44.915  27.766  26.306  1.00  0.00     0.198 A 
ATOM     84  F   UNL A   1      43.499  26.596  27.723  1.00  0.00    -0.203 F 
ATOM     85  F   UNL A   1      48.514  27.989  26.210  1.00  0.00    -0.200 F 
ATOM     86  C   UNL A   1      46.183  28.136  25.909  1.00  0.00     0.200 A 
ATOM     87  F   UNL A   1      43.842  28.220  25.637  1.00  0.00    -0.200 F 
ATOM     88  F   UNL A   1      46.349  28.947  24.853  1.00  0.00    -0.200 F 
ENDBRANCH  55  78
ENDBRANCH  29  30
ENDBRANCH  21  24
ENDBRANCH  19  20
ENDBRANCH   1  19
TORSDOF 13
ENDMDL
MODEL 3
REMARK VINA RESULT:     -11.3      1.210      2.210
REMARK SMILES O=C(C[C@H](c1ccsc1)n1cccc1)NCCCNC(=O)c1ccc(-c2c3nc(c(-c4c(F)c(F)c(F)c(F)c4F)c4ccc([nH]4)c(-c4c(F)c(F)c(F)c(F)c4F)c4nc(c(-c5c(F)c(F)c(F)c(F)c5F)c5ccc2[nH]5)C=C4)C=C3)cc1
REMARK SMILES IDX 17 1 16 2 15 3 1 4 2 5 3 7 4 8 10 9 11 10 14 11 12 12 13 13
REMARK SMILES IDX 5 14 6 15 9 16 7 17 8 18 18 19 19 20 20 21 21 23 22 24 23 25
REMARK SMILES IDX 84 26 24 27 83 28 25 29 26 30 27 31 77 32 28 33 82 34 76 35
REMARK SMILES IDX 78 36 29 37 81 38 75 39 74 40 30 42 62 43 42 44 61 45 43 46
REMARK SMILES IDX 46 47 60 48 79 49 44 50 45 51 59 53 80 54 47 55 31 56 32 57
REMARK SMILES IDX 40 58 33 59 34 60 38 61 41 62 35 63 36 64 39 65 37 66 63 67
REMARK SMILES IDX 64 68 72 69 65 70 66 71 70 72 73 73 67 74 68 75 71 76 69 77
REMARK SMILES IDX 48 78 49 79 57 80 50 81 51 82 55 83 58 84 52 85 53 86 56 87
REMARK SMILES IDX 54 88
REMARK H PARENT 15 6 19 22 78 41 46 52
REMARK Flexibility Score: inf
ROOT
ATOM      1  C   UNL A   1      36.888  23.387  24.791  1.00  0.00     0.042 C 
ENDROOT
BRANCH   1   2
ATOM      2  C   UNL A   1      35.534  22.685  24.878  1.00  0.00     0.117 C 
BRANCH   2   3
ATOM      3  N   UNL A   1      34.410  23.601  24.965  1.00  0.00    -0.356 N 
ATOM      4  O   UNL A   1      33.832  23.049  27.113  1.00  0.00    -0.275 OA
ATOM      5  C   UNL A   1      33.710  23.780  26.137  1.00  0.00     0.222 C 
ATOM      6  H   UNL A   1      34.141  24.109  24.165  1.00  0.00     0.163 HD
BRANCH   5   7
ATOM      7  C   UNL A   1      32.756  24.956  26.126  1.00  0.00     0.130 C 
BRANCH   7   8
ATOM      8  C   UNL A   1      33.265  26.158  25.306  1.00  0.00     0.127 C 
BRANCH   8   9
ATOM      9  N   UNL A   1      32.842  26.154  23.890  1.00  0.00    -0.346 N 
ATOM     10  C   UNL A   1      33.652  26.567  22.852  1.00  0.00     0.086 A 
ATOM     11  C   UNL A   1      31.607  25.855  23.369  1.00  0.00     0.086 A 
ATOM     12  C   UNL A   1      32.965  26.409  21.670  1.00  0.00     0.019 A 
ATOM     13  C   UNL A   1      31.672  25.953  21.997  1.00  0.00     0.019 A 
ENDBRANCH   8   9
BRANCH   8  14
ATOM     14  C   UNL A   1      33.055  27.488  26.028  1.00  0.00    -0.014 A 
ATOM     15  C   UNL A   1      31.861  27.918  26.709  1.00  0.00     0.017 A 
ATOM     16  C   UNL A   1      34.028  28.471  26.124  1.00  0.00     0.070 A 
ATOM     17  C   UNL A   1      31.963  29.186  27.234  1.00  0.00     0.065 A 
ATOM     18  S   UNL A   1      33.510  29.856  26.981  1.00  0.00    -0.152 S 
ENDBRANCH   8  14
ENDBRANCH   7   8
ENDBRANCH   5   7
ENDBRANCH   2   3
ENDBRANCH   1   2
BRANCH   1  19
ATOM     19  C   UNL A   1      37.347  24.026  26.099  1.00  0.00     0.118 C 
BRANCH  19  20
ATOM     20  N   UNL A   1      38.469  23.328  26.706  1.00  0.00    -0.352 N 
ATOM     21  C   UNL A   1      39.629  23.839  27.241  1.00  0.00     0.251 C 
ATOM     22  H   UNL A   1      38.387  22.347  26.739  1.00  0.00     0.163 HD
ATOM     23  O   UNL A   1      40.596  23.101  27.384  1.00  0.00    -0.269 OA
BRANCH  21  24
ATOM     24  C   UNL A   1      39.739  25.258  27.656  1.00  0.00     0.039 A 
ATOM     25  C   UNL A   1      39.282  25.619  28.931  1.00  0.00     0.014 A 
ATOM     26  C   UNL A   1      40.179  26.249  26.774  1.00  0.00     0.014 A 
ATOM     27  C   UNL A   1      39.314  26.952  29.333  1.00  0.00     0.010 A 
ATOM     28  C   UNL A   1      40.225  27.578  27.168  1.00  0.00     0.010 A 
ATOM     29  C   UNL A   1      39.806  27.924  28.453  1.00  0.00    -0.014 A 
BRANCH  29  30
ATOM     30  C   UNL A   1      40.053  29.298  28.936  1.00  0.00     0.031 A 
ATOM     31  C   UNL A   1      38.728  30.084  29.100  1.00  0.00     0.074 A 
ATOM     32  C   UNL A   1      41.360  29.617  29.189  1.00  0.00     0.049 A 
ATOM     33  N   UNL A   1      38.510  31.363  29.161  1.00  0.00    -0.248 NA
ATOM     34  C   UNL A   1      37.443  29.329  29.176  1.00  0.00     0.031 C 
ATOM     35  C   UNL A   1      42.500  28.685  29.025  1.00  0.00     0.029 A 
ATOM     36  N   UNL A   1      42.008  30.754  29.632  1.00  0.00    -0.354 N 
ATOM     37  C   UNL A   1      37.142  31.555  29.479  1.00  0.00     0.074 A 
ATOM     38  C   UNL A   1      36.518  30.273  29.368  1.00  0.00     0.031 C 
ATOM     39  C   UNL A   1      43.674  29.301  29.276  1.00  0.00     0.029 A 
ATOM     40  C   UNL A   1      43.430  30.682  29.643  1.00  0.00     0.049 A 
ATOM     41  H   UNL A   1      41.520  31.559  29.921  1.00  0.00     0.167 HD
ATOM     42  C   UNL A   1      36.642  32.738  29.948  1.00  0.00     0.037 A 
ATOM     43  C   UNL A   1      44.343  31.677  29.884  1.00  0.00     0.037 A 
ATOM     44  C   UNL A   1      37.673  33.716  29.972  1.00  0.00     0.049 A 
ATOM     45  C   UNL A   1      43.537  32.815  30.346  1.00  0.00     0.074 A 
ATOM     46  C   UNL A   1      38.321  34.390  28.972  1.00  0.00     0.029 A 
ATOM     47  N   UNL A   1      38.398  33.821  31.132  1.00  0.00    -0.354 N 
ATOM     48  N   UNL A   1      42.973  32.893  31.514  1.00  0.00    -0.248 NA
ATOM     49  C   UNL A   1      43.250  33.900  29.401  1.00  0.00     0.031 C 
ATOM     50  C   UNL A   1      39.650  34.448  29.437  1.00  0.00     0.029 A 
ATOM     51  C   UNL A   1      39.704  34.028  30.772  1.00  0.00     0.049 A 
ATOM     52  H   UNL A   1      38.046  33.760  32.050  1.00  0.00     0.167 HD
ATOM     53  C   UNL A   1      42.017  33.855  31.305  1.00  0.00     0.074 A 
ATOM     54  C   UNL A   1      42.443  34.631  30.162  1.00  0.00     0.031 C 
ATOM     55  C   UNL A   1      40.738  33.613  31.687  1.00  0.00     0.037 A 
BRANCH  42  56
ATOM     56  C   UNL A   1      35.353  33.112  30.634  1.00  0.00     0.064 A 
ATOM     57  C   UNL A   1      34.551  34.123  30.041  1.00  0.00     0.173 A 
ATOM     58  C   UNL A   1      35.077  32.818  31.975  1.00  0.00     0.173 A 
ATOM     59  F   UNL A   1      34.696  34.444  28.745  1.00  0.00    -0.203 F 
ATOM     60  C   UNL A   1      33.653  34.890  30.781  1.00  0.00     0.198 A 
ATOM     61  C   UNL A   1      34.136  33.558  32.702  1.00  0.00     0.198 A 
ATOM     62  F   UNL A   1      35.778  31.890  32.638  1.00  0.00    -0.203 F 
ATOM     63  F   UNL A   1      33.036  35.934  30.211  1.00  0.00    -0.200 F 
ATOM     64  C   UNL A   1      33.462  34.619  32.121  1.00  0.00     0.200 A 
ATOM     65  F   UNL A   1      33.944  33.286  34.001  1.00  0.00    -0.200 F 
ATOM     66  F   UNL A   1      32.660  35.399  32.857  1.00  0.00    -0.200 F 
ENDBRANCH  42  56
BRANCH  43  67
ATOM     67  C   UNL A   1      45.831  31.930  29.731  1.00  0.00     0.064 A 
ATOM     68  C   UNL A   1      46.518  32.150  28.532  1.00  0.00     0.173 A 
ATOM     69  C   UNL A   1      46.651  32.062  30.893  1.00  0.00     0.173 A 
ATOM     70  F   UNL A   1      45.934  31.929  27.350  1.00  0.00    -0.203 F 
ATOM     71  C   UNL A   1      47.858  32.592  28.506  1.00  0.00     0.198 A 
ATOM     72  C   UNL A   1      47.957  32.553  30.873  1.00  0.00     0.198 A 
ATOM     73  F   UNL A   1      46.210  31.724  32.112  1.00  0.00    -0.203 F 
ATOM     74  F   UNL A   1      48.467  32.798  27.329  1.00  0.00    -0.200 F 
ATOM     75  C   UNL A   1      48.558  32.837  29.674  1.00  0.00     0.200 A 
ATOM     76  F   UNL A   1      48.606  32.761  32.029  1.00  0.00    -0.200 F 
ATOM     77  F   UNL A   1      49.803  33.329  29.645  1.00  0.00    -0.200 F 
ENDBRANCH  43  67
BRANCH  55  78
ATOM     78  C   UNL A   1      40.598  32.598  32.805  1.00  0.00     0.064 A 
ATOM     79  C   UNL A   1      41.071  32.905  34.090  1.00  0.00     0.173 A 
ATOM     80  C   UNL A   1      40.111  31.291  32.630  1.00  0.00     0.173 A 
ATOM     81  F   UNL A   1      41.535  34.136  34.354  1.00  0.00    -0.203 F 
ATOM     82  C   UNL A   1      41.067  31.961  35.123  1.00  0.00     0.198 A 
ATOM     83  C   UNL A   1      40.101  30.346  33.659  1.00  0.00     0.198 A 
ATOM     84  F   UNL A   1      39.628  30.900  31.455  1.00  0.00    -0.203 F 
ATOM     85  F   UNL A   1      41.526  32.298  36.336  1.00  0.00    -0.200 F 
ATOM     86  C   UNL A   1      40.584  30.682  34.906  1.00  0.00     0.200 A 
ATOM     87  F   UNL A   1      39.613  29.115  33.435  1.00  0.00    -0.200 F 
ATOM     88  F   UNL A   1      40.566  29.781  35.900  1.00  0.00    -0.200 F 
ENDBRANCH  55  78
ENDBRANCH  29  30
ENDBRANCH  21  24
ENDBRANCH  19  20
ENDBRANCH   1  19
TORSDOF 13
ENDMDL
