MODEL 1
REMARK VINA RESULT:     -11.8      0.000      0.000
REMARK SMILES CC(C)(C)OC(=O)N[C@H](Cc1ccc(N=[N+]=[N-])cc1)C(=O)NCCCNC(=O)c1ccc(-c2c3nc(c(-c4c(F)c(F)c(F)c(F)c4F)c4ccc([nH]4)c(-c4c(F)c(F)c(F)c(F)c4F)c4nc(c(-c5c(F)c(F)c(F)c(F)c5F)c5ccc2[nH]5)C=C4)C=C3)cc1
REMARK SMILES IDX 23 1 22 2 20 3 21 4 9 6 8 7 6 8 7 9 5 11 2 12 1 13 3 14 4 15
REMARK SMILES IDX 10 16 11 17 12 18 19 19 13 20 18 21 14 22 15 23 16 24 17 25
REMARK SMILES IDX 24 26 25 27 26 28 27 29 28 31 29 32 30 33 91 34 31 35 90 36
REMARK SMILES IDX 32 37 33 38 34 39 84 40 35 41 89 42 83 43 85 44 36 45 88 46
REMARK SMILES IDX 82 47 81 48 37 50 69 51 49 52 68 53 50 54 53 55 67 56 86 57
REMARK SMILES IDX 51 58 52 59 66 61 87 62 54 63 38 64 39 65 47 66 40 67 41 68
REMARK SMILES IDX 45 69 48 70 42 71 43 72 46 73 44 74 70 75 71 76 79 77 72 78
REMARK SMILES IDX 73 79 77 80 80 81 74 82 75 83 78 84 76 85 55 86 56 87 64 88
REMARK SMILES IDX 57 89 58 90 62 91 65 92 59 93 60 94 63 95 61 96
REMARK H PARENT 22 5 8 10 26 30 85 49 53 60
REMARK Flexibility Score: inf
ROOT
ATOM      1  C   UNL A   1      34.171  24.060  25.400  1.00  0.00     0.117 C 
ENDROOT
BRANCH   1   2
ATOM      2  N   UNL A   1      33.023  23.571  26.140  1.00  0.00    -0.354 N 
ATOM      3  C   UNL A   1      31.820  24.165  26.387  1.00  0.00     0.243 C 
ATOM      4  O   UNL A   1      31.121  23.672  27.277  1.00  0.00    -0.273 OA
ATOM      5  H   UNL A   1      33.129  22.670  26.524  1.00  0.00     0.163 HD
BRANCH   3   6
ATOM      6  C   UNL A   1      31.415  25.488  25.700  1.00  0.00     0.179 C 
BRANCH   6   7
ATOM      7  N   UNL A   1      30.926  26.456  26.680  1.00  0.00    -0.309 N 
ATOM      8  C   UNL A   1      31.614  27.507  27.200  1.00  0.00     0.408 C 
ATOM      9  O   UNL A   1      31.063  28.282  27.969  1.00  0.00    -0.225 OA
ATOM     10  H   UNL A   1      30.001  26.334  26.997  1.00  0.00     0.167 HD
BRANCH   8  11
ATOM     11  O   UNL A   1      32.907  27.552  26.807  1.00  0.00    -0.444 OA
BRANCH  11  12
ATOM     12  C   UNL A   1      33.350  28.593  25.895  1.00  0.00     0.106 C 
ATOM     13  C   UNL A   1      34.440  29.366  26.653  1.00  0.00     0.056 C 
ATOM     14  C   UNL A   1      32.212  29.569  25.566  1.00  0.00     0.056 C 
ATOM     15  C   UNL A   1      33.974  27.993  24.629  1.00  0.00     0.056 C 
ENDBRANCH  11  12
ENDBRANCH   8  11
ENDBRANCH   6   7
BRANCH   6  16
ATOM     16  C   UNL A   1      30.445  25.187  24.519  1.00  0.00     0.070 C 
BRANCH  16  17
ATOM     17  C   UNL A   1      29.846  26.382  23.806  1.00  0.00    -0.045 A 
ATOM     18  C   UNL A   1      28.480  26.667  23.900  1.00  0.00     0.004 A 
ATOM     19  C   UNL A   1      30.658  27.264  23.084  1.00  0.00     0.004 A 
ATOM     20  C   UNL A   1      27.959  27.851  23.372  1.00  0.00     0.010 A 
ATOM     21  C   UNL A   1      30.128  28.444  22.545  1.00  0.00     0.010 A 
ATOM     22  C   UNL A   1      28.772  28.765  22.699  1.00  0.00     0.038 A 
BRANCH  22  23
ATOM     23  N   UNL A   1      28.150  29.942  22.239  1.00  0.00    -0.061 NA
ATOM     24  N   UNL A   1      27.640  30.674  23.101  1.00  0.00     0.005 N 
ATOM     25  N   UNL A   1      27.168  31.359  23.885  1.00  0.00    -0.003 NA
ENDBRANCH  22  23
ENDBRANCH  16  17
ENDBRANCH   6  16
ENDBRANCH   3   6
ENDBRANCH   1   2
BRANCH   1  26
ATOM     26  C   UNL A   1      35.466  23.765  26.149  1.00  0.00     0.042 C 
BRANCH  26  27
ATOM     27  C   UNL A   1      36.707  23.824  25.274  1.00  0.00     0.118 C 
BRANCH  27  28
ATOM     28  N   UNL A   1      37.656  22.773  25.604  1.00  0.00    -0.352 N 
ATOM     29  C   UNL A   1      38.902  22.850  26.172  1.00  0.00     0.251 C 
ATOM     30  H   UNL A   1      37.356  21.861  25.386  1.00  0.00     0.163 HD
ATOM     31  O   UNL A   1      39.639  21.869  26.144  1.00  0.00    -0.269 OA
BRANCH  29  32
ATOM     32  C   UNL A   1      39.373  24.104  26.804  1.00  0.00     0.039 A 
ATOM     33  C   UNL A   1      40.070  25.028  26.022  1.00  0.00     0.014 A 
ATOM     34  C   UNL A   1      39.172  24.355  28.162  1.00  0.00     0.014 A 
ATOM     35  C   UNL A   1      40.516  26.223  26.591  1.00  0.00     0.010 A 
ATOM     36  C   UNL A   1      39.528  25.587  28.705  1.00  0.00     0.010 A 
ATOM     37  C   UNL A   1      40.217  26.529  27.928  1.00  0.00    -0.014 A 
BRANCH  37  38
ATOM     38  C   UNL A   1      40.627  27.824  28.531  1.00  0.00     0.031 A 
ATOM     39  C   UNL A   1      42.042  28.027  29.004  1.00  0.00     0.074 A 
ATOM     40  C   UNL A   1      39.709  28.795  28.708  1.00  0.00     0.049 A 
ATOM     41  N   UNL A   1      42.572  29.060  29.611  1.00  0.00    -0.248 NA
ATOM     42  C   UNL A   1      42.981  26.914  28.792  1.00  0.00     0.031 C 
ATOM     43  C   UNL A   1      38.295  28.698  28.341  1.00  0.00     0.029 A 
ATOM     44  N   UNL A   1      39.823  30.049  29.255  1.00  0.00    -0.354 N 
ATOM     45  C   UNL A   1      43.891  28.711  29.870  1.00  0.00     0.074 A 
ATOM     46  C   UNL A   1      44.072  27.356  29.402  1.00  0.00     0.031 C 
ATOM     47  C   UNL A   1      37.678  29.849  28.653  1.00  0.00     0.029 A 
ATOM     48  C   UNL A   1      38.639  30.747  29.286  1.00  0.00     0.049 A 
ATOM     49  H   UNL A   1      40.673  30.415  29.592  1.00  0.00     0.167 HD
ATOM     50  C   UNL A   1      44.867  29.462  30.434  1.00  0.00     0.037 A 
ATOM     51  C   UNL A   1      38.356  31.966  29.784  1.00  0.00     0.037 A 
ATOM     52  C   UNL A   1      44.689  30.823  30.868  1.00  0.00     0.049 A 
ATOM     53  C   UNL A   1      39.464  32.777  30.403  1.00  0.00     0.074 A 
ATOM     54  C   UNL A   1      45.638  31.698  31.369  1.00  0.00     0.029 A 
ATOM     55  N   UNL A   1      43.481  31.504  30.860  1.00  0.00    -0.354 N 
ATOM     56  N   UNL A   1      40.729  32.471  30.558  1.00  0.00    -0.248 NA
ATOM     57  C   UNL A   1      39.106  34.111  30.908  1.00  0.00     0.031 C 
ATOM     58  C   UNL A   1      44.991  32.882  31.734  1.00  0.00     0.029 A 
ATOM     59  C   UNL A   1      43.654  32.776  31.387  1.00  0.00     0.049 A 
ATOM     60  H   UNL A   1      42.628  31.141  30.531  1.00  0.00     0.167 HD
ATOM     61  C   UNL A   1      41.322  33.580  31.147  1.00  0.00     0.074 A 
ATOM     62  C   UNL A   1      40.283  34.575  31.302  1.00  0.00     0.031 C 
ATOM     63  C   UNL A   1      42.611  33.759  31.527  1.00  0.00     0.037 A 
BRANCH  50  64
ATOM     64  C   UNL A   1      46.219  28.837  30.625  1.00  0.00     0.064 A 
ATOM     65  C   UNL A   1      47.219  28.914  29.645  1.00  0.00     0.173 A 
ATOM     66  C   UNL A   1      46.542  28.215  31.842  1.00  0.00     0.173 A 
ATOM     67  F   UNL A   1      46.961  29.489  28.460  1.00  0.00    -0.203 F 
ATOM     68  C   UNL A   1      48.484  28.373  29.866  1.00  0.00     0.198 A 
ATOM     69  C   UNL A   1      47.817  27.706  32.073  1.00  0.00     0.198 A 
ATOM     70  F   UNL A   1      45.626  28.118  32.817  1.00  0.00    -0.203 F 
ATOM     71  F   UNL A   1      49.410  28.423  28.899  1.00  0.00    -0.200 F 
ATOM     72  C   UNL A   1      48.785  27.781  31.083  1.00  0.00     0.200 A 
ATOM     73  F   UNL A   1      48.111  27.149  33.256  1.00  0.00    -0.200 F 
ATOM     74  F   UNL A   1      50.009  27.279  31.302  1.00  0.00    -0.200 F 
ENDBRANCH  50  64
BRANCH  51  75
ATOM     75  C   UNL A   1      36.966  32.495  29.729  1.00  0.00     0.064 A 
ATOM     76  C   UNL A   1      36.506  33.215  28.617  1.00  0.00     0.173 A 
ATOM     77  C   UNL A   1      36.079  32.322  30.802  1.00  0.00     0.173 A 
ATOM     78  F   UNL A   1      37.320  33.424  27.572  1.00  0.00    -0.203 F 
ATOM     79  C   UNL A   1      35.230  33.775  28.598  1.00  0.00     0.198 A 
ATOM     80  C   UNL A   1      34.790  32.850  30.765  1.00  0.00     0.198 A 
ATOM     81  F   UNL A   1      36.463  31.634  31.887  1.00  0.00    -0.203 F 
ATOM     82  F   UNL A   1      34.843  34.518  27.552  1.00  0.00    -0.200 F 
ATOM     83  C   UNL A   1      34.372  33.589  29.670  1.00  0.00     0.200 A 
ATOM     84  F   UNL A   1      33.958  32.650  31.797  1.00  0.00    -0.200 F 
ATOM     85  F   UNL A   1      33.146  34.131  29.654  1.00  0.00    -0.200 F 
ENDBRANCH  51  75
BRANCH  63  86
ATOM     86  C   UNL A   1      42.982  35.095  32.105  1.00  0.00     0.064 A 
ATOM     87  C   UNL A   1      42.827  35.381  33.470  1.00  0.00     0.173 A 
ATOM     88  C   UNL A   1      43.538  36.091  31.286  1.00  0.00     0.173 A 
ATOM     89  F   UNL A   1      42.288  34.469  34.295  1.00  0.00    -0.203 F 
ATOM     90  C   UNL A   1      43.182  36.625  33.986  1.00  0.00     0.198 A 
ATOM     91  C   UNL A   1      43.928  37.319  31.813  1.00  0.00     0.198 A 
ATOM     92  F   UNL A   1      43.718  35.867  29.976  1.00  0.00    -0.203 F 
ATOM     93  F   UNL A   1      42.969  36.895  35.281  1.00  0.00    -0.200 F 
ATOM     94  C   UNL A   1      43.740  37.588  33.159  1.00  0.00     0.200 A 
ATOM     95  F   UNL A   1      44.486  38.240  31.016  1.00  0.00    -0.200 F 
ATOM     96  F   UNL A   1      44.090  38.781  33.660  1.00  0.00    -0.200 F 
ENDBRANCH  63  86
ENDBRANCH  37  38
ENDBRANCH  29  32
ENDBRANCH  27  28
ENDBRANCH  26  27
ENDBRANCH   1  26
TORSDOF 16
ENDMDL
MODEL 2
REMARK VINA RESULT:     -11.2      3.506      8.936
REMARK SMILES CC(C)(C)OC(=O)N[C@H](Cc1ccc(N=[N+]=[N-])cc1)C(=O)NCCCNC(=O)c1ccc(-c2c3nc(c(-c4c(F)c(F)c(F)c(F)c4F)c4ccc([nH]4)c(-c4c(F)c(F)c(F)c(F)c4F)c4nc(c(-c5c(F)c(F)c(F)c(F)c5F)c5ccc2[nH]5)C=C4)C=C3)cc1
REMARK SMILES IDX 23 1 22 2 20 3 21 4 9 6 8 7 6 8 7 9 5 11 2 12 1 13 3 14 4 15
REMARK SMILES IDX 10 16 11 17 12 18 19 19 13 20 18 21 14 22 15 23 16 24 17 25
REMARK SMILES IDX 24 26 25 27 26 28 27 29 28 31 29 32 30 33 91 34 31 35 90 36
REMARK SMILES IDX 32 37 33 38 34 39 84 40 35 41 89 42 83 43 85 44 36 45 88 46
REMARK SMILES IDX 82 47 81 48 37 50 69 51 49 52 68 53 50 54 53 55 67 56 86 57
REMARK SMILES IDX 51 58 52 59 66 61 87 62 54 63 38 64 39 65 47 66 40 67 41 68
REMARK SMILES IDX 45 69 48 70 42 71 43 72 46 73 44 74 70 75 71 76 79 77 72 78
REMARK SMILES IDX 73 79 77 80 80 81 74 82 75 83 78 84 76 85 55 86 56 87 64 88
REMARK SMILES IDX 57 89 58 90 62 91 65 92 59 93 60 94 63 95 61 96
REMARK H PARENT 22 5 8 10 26 30 85 49 53 60
REMARK Flexibility Score: inf
ROOT
ATOM      1  C   UNL A   1      33.592  26.756  24.812  1.00  0.00     0.117 C 
ENDROOT
BRANCH   1   2
ATOM      2  N   UNL A   1      32.769  26.519  23.640  1.00  0.00    -0.354 N 
ATOM      3  C   UNL A   1      32.532  25.365  22.953  1.00  0.00     0.243 C 
ATOM      4  O   UNL A   1      32.032  25.471  21.829  1.00  0.00    -0.273 OA
ATOM      5  H   UNL A   1      32.311  27.316  23.287  1.00  0.00     0.163 HD
BRANCH   3   6
ATOM      6  C   UNL A   1      33.012  23.995  23.482  1.00  0.00     0.179 C 
BRANCH   6   7
ATOM      7  N   UNL A   1      34.168  23.519  22.725  1.00  0.00    -0.309 N 
ATOM      8  C   UNL A   1      35.447  23.413  23.174  1.00  0.00     0.408 C 
ATOM      9  O   UNL A   1      36.313  22.937  22.453  1.00  0.00    -0.225 OA
ATOM     10  H   UNL A   1      34.003  23.247  21.793  1.00  0.00     0.167 HD
BRANCH   8  11
ATOM     11  O   UNL A   1      35.623  23.902  24.421  1.00  0.00    -0.444 OA
BRANCH  11  12
ATOM     12  C   UNL A   1      35.907  22.996  25.521  1.00  0.00     0.106 C 
ATOM     13  C   UNL A   1      37.266  23.444  26.081  1.00  0.00     0.056 C 
ATOM     14  C   UNL A   1      36.044  21.549  25.031  1.00  0.00     0.056 C 
ATOM     15  C   UNL A   1      34.859  23.127  26.634  1.00  0.00     0.056 C 
ENDBRANCH  11  12
ENDBRANCH   8  11
ENDBRANCH   6   7
BRANCH   6  16
ATOM     16  C   UNL A   1      31.807  23.010  23.548  1.00  0.00     0.070 C 
BRANCH  16  17
ATOM     17  C   UNL A   1      32.135  21.535  23.663  1.00  0.00    -0.045 A 
ATOM     18  C   UNL A   1      32.416  20.955  24.905  1.00  0.00     0.004 A 
ATOM     19  C   UNL A   1      32.107  20.707  22.536  1.00  0.00     0.004 A 
ATOM     20  C   UNL A   1      32.565  19.571  25.028  1.00  0.00     0.010 A 
ATOM     21  C   UNL A   1      32.270  19.321  22.663  1.00  0.00     0.010 A 
ATOM     22  C   UNL A   1      32.482  18.729  23.917  1.00  0.00     0.038 A 
BRANCH  22  23
ATOM     23  N   UNL A   1      32.612  17.348  24.162  1.00  0.00    -0.061 NA
ATOM     24  N   UNL A   1      33.499  16.754  23.531  1.00  0.00     0.005 N 
ATOM     25  N   UNL A   1      34.315  16.194  22.958  1.00  0.00    -0.003 NA
ENDBRANCH  22  23
ENDBRANCH  16  17
ENDBRANCH   6  16
ENDBRANCH   3   6
ENDBRANCH   1   2
BRANCH   1  26
ATOM     26  C   UNL A   1      33.474  28.203  25.275  1.00  0.00     0.042 C 
BRANCH  26  27
ATOM     27  C   UNL A   1      33.856  28.413  26.731  1.00  0.00     0.118 C 
BRANCH  27  28
ATOM     28  N   UNL A   1      33.741  29.806  27.129  1.00  0.00    -0.352 N 
ATOM     29  C   UNL A   1      34.567  30.577  27.906  1.00  0.00     0.251 C 
ATOM     30  H   UNL A   1      32.945  30.271  26.785  1.00  0.00     0.163 HD
ATOM     31  O   UNL A   1      34.167  31.662  28.321  1.00  0.00    -0.269 OA
BRANCH  29  32
ATOM     32  C   UNL A   1      35.927  30.112  28.262  1.00  0.00     0.039 A 
ATOM     33  C   UNL A   1      36.931  30.169  27.292  1.00  0.00     0.014 A 
ATOM     34  C   UNL A   1      36.210  29.583  29.523  1.00  0.00     0.014 A 
ATOM     35  C   UNL A   1      38.225  29.747  27.605  1.00  0.00     0.010 A 
ATOM     36  C   UNL A   1      37.519  29.255  29.866  1.00  0.00     0.010 A 
ATOM     37  C   UNL A   1      38.539  29.320  28.905  1.00  0.00    -0.014 A 
BRANCH  37  38
ATOM     38  C   UNL A   1      39.924  28.928  29.274  1.00  0.00     0.031 A 
ATOM     39  C   UNL A   1      40.784  29.857  30.089  1.00  0.00     0.074 A 
ATOM     40  C   UNL A   1      40.428  27.763  28.823  1.00  0.00     0.049 A 
ATOM     41  N   UNL A   1      42.034  29.721  30.455  1.00  0.00    -0.248 NA
ATOM     42  C   UNL A   1      40.169  31.121  30.528  1.00  0.00     0.031 C 
ATOM     43  C   UNL A   1      39.712  26.802  27.981  1.00  0.00     0.029 A 
ATOM     44  N   UNL A   1      41.665  27.192  28.996  1.00  0.00    -0.354 N 
ATOM     45  C   UNL A   1      42.356  30.884  31.144  1.00  0.00     0.074 A 
ATOM     46  C   UNL A   1      41.191  31.737  31.105  1.00  0.00     0.031 C 
ATOM     47  C   UNL A   1      40.512  25.754  27.728  1.00  0.00     0.029 A 
ATOM     48  C   UNL A   1      41.812  25.989  28.349  1.00  0.00     0.049 A 
ATOM     49  H   UNL A   1      42.378  27.605  29.535  1.00  0.00     0.167 HD
ATOM     50  C   UNL A   1      43.516  31.201  31.767  1.00  0.00     0.037 A 
ATOM     51  C   UNL A   1      42.881  25.175  28.250  1.00  0.00     0.037 A 
ATOM     52  C   UNL A   1      44.662  30.331  31.831  1.00  0.00     0.049 A 
ATOM     53  C   UNL A   1      44.156  25.555  28.956  1.00  0.00     0.074 A 
ATOM     54  C   UNL A   1      45.851  30.524  32.513  1.00  0.00     0.029 A 
ATOM     55  N   UNL A   1      44.765  29.110  31.183  1.00  0.00    -0.354 N 
ATOM     56  N   UNL A   1      44.417  26.615  29.682  1.00  0.00    -0.248 NA
ATOM     57  C   UNL A   1      45.284  24.620  28.837  1.00  0.00     0.031 C 
ATOM     58  C   UNL A   1      46.702  29.455  32.218  1.00  0.00     0.029 A 
ATOM     59  C   UNL A   1      46.016  28.557  31.417  1.00  0.00     0.049 A 
ATOM     60  H   UNL A   1      44.058  28.696  30.638  1.00  0.00     0.167 HD
ATOM     61  C   UNL A   1      45.723  26.459  30.131  1.00  0.00     0.074 A 
ATOM     62  C   UNL A   1      46.193  25.192  29.613  1.00  0.00     0.031 C 
ATOM     63  C   UNL A   1      46.467  27.290  30.901  1.00  0.00     0.037 A 
BRANCH  50  64
ATOM     64  C   UNL A   1      43.619  32.545  32.429  1.00  0.00     0.064 A 
ATOM     65  C   UNL A   1      44.069  33.680  31.739  1.00  0.00     0.173 A 
ATOM     66  C   UNL A   1      43.188  32.713  33.754  1.00  0.00     0.173 A 
ATOM     67  F   UNL A   1      44.501  33.575  30.473  1.00  0.00    -0.203 F 
ATOM     68  C   UNL A   1      44.104  34.929  32.357  1.00  0.00     0.198 A 
ATOM     69  C   UNL A   1      43.194  33.967  34.358  1.00  0.00     0.198 A 
ATOM     70  F   UNL A   1      42.743  31.663  34.460  1.00  0.00    -0.203 F 
ATOM     71  F   UNL A   1      44.576  35.991  31.691  1.00  0.00    -0.200 F 
ATOM     72  C   UNL A   1      43.656  35.073  33.661  1.00  0.00     0.200 A 
ATOM     73  F   UNL A   1      42.743  34.107  35.613  1.00  0.00    -0.200 F 
ATOM     74  F   UNL A   1      43.672  36.278  34.248  1.00  0.00    -0.200 F 
ENDBRANCH  50  64
BRANCH  51  75
ATOM     75  C   UNL A   1      42.801  23.924  27.447  1.00  0.00     0.064 A 
ATOM     76  C   UNL A   1      42.400  22.712  28.028  1.00  0.00     0.173 A 
ATOM     77  C   UNL A   1      43.157  23.907  26.090  1.00  0.00     0.173 A 
ATOM     78  F   UNL A   1      42.067  22.670  29.326  1.00  0.00    -0.203 F 
ATOM     79  C   UNL A   1      42.398  21.527  27.295  1.00  0.00     0.198 A 
ATOM     80  C   UNL A   1      43.117  22.728  25.349  1.00  0.00     0.198 A 
ATOM     81  F   UNL A   1      43.539  25.039  25.481  1.00  0.00    -0.203 F 
ATOM     82  F   UNL A   1      42.079  20.373  27.895  1.00  0.00    -0.200 F 
ATOM     83  C   UNL A   1      42.753  21.537  25.955  1.00  0.00     0.200 A 
ATOM     84  F   UNL A   1      43.442  22.747  24.048  1.00  0.00    -0.200 F 
ATOM     85  F   UNL A   1      42.755  20.396  25.251  1.00  0.00    -0.200 F 
ENDBRANCH  51  75
BRANCH  63  86
ATOM     86  C   UNL A   1      47.850  26.837  31.271  1.00  0.00     0.064 A 
ATOM     87  C   UNL A   1      48.090  26.025  32.390  1.00  0.00     0.173 A 
ATOM     88  C   UNL A   1      48.949  27.191  30.470  1.00  0.00     0.173 A 
ATOM     89  F   UNL A   1      47.077  25.669  33.196  1.00  0.00    -0.203 F 
ATOM     90  C   UNL A   1      49.380  25.613  32.712  1.00  0.00     0.198 A 
ATOM     91  C   UNL A   1      50.232  26.744  30.775  1.00  0.00     0.198 A 
ATOM     92  F   UNL A   1      48.775  27.957  29.384  1.00  0.00    -0.203 F 
ATOM     93  F   UNL A   1      49.592  24.887  33.819  1.00  0.00    -0.200 F 
ATOM     94  C   UNL A   1      50.447  25.965  31.900  1.00  0.00     0.200 A 
ATOM     95  F   UNL A   1      51.258  27.069  29.976  1.00  0.00    -0.200 F 
ATOM     96  F   UNL A   1      51.687  25.559  32.207  1.00  0.00    -0.200 F 
ENDBRANCH  63  86
ENDBRANCH  37  38
ENDBRANCH  29  32
ENDBRANCH  27  28
ENDBRANCH  26  27
ENDBRANCH   1  26
TORSDOF 16
ENDMDL
MODEL 3
REMARK VINA RESULT:     -11.2      3.923      8.969
REMARK SMILES CC(C)(C)OC(=O)N[C@H](Cc1ccc(N=[N+]=[N-])cc1)C(=O)NCCCNC(=O)c1ccc(-c2c3nc(c(-c4c(F)c(F)c(F)c(F)c4F)c4ccc([nH]4)c(-c4c(F)c(F)c(F)c(F)c4F)c4nc(c(-c5c(F)c(F)c(F)c(F)c5F)c5ccc2[nH]5)C=C4)C=C3)cc1
REMARK SMILES IDX 23 1 22 2 20 3 21 4 9 6 8 7 6 8 7 9 5 11 2 12 1 13 3 14 4 15
REMARK SMILES IDX 10 16 11 17 12 18 19 19 13 20 18 21 14 22 15 23 16 24 17 25
REMARK SMILES IDX 24 26 25 27 26 28 27 29 28 31 29 32 30 33 91 34 31 35 90 36
REMARK SMILES IDX 32 37 33 38 34 39 84 40 35 41 89 42 83 43 85 44 36 45 88 46
REMARK SMILES IDX 82 47 81 48 37 50 69 51 49 52 68 53 50 54 53 55 67 56 86 57
REMARK SMILES IDX 51 58 52 59 66 61 87 62 54 63 38 64 39 65 47 66 40 67 41 68
REMARK SMILES IDX 45 69 48 70 42 71 43 72 46 73 44 74 70 75 71 76 79 77 72 78
REMARK SMILES IDX 73 79 77 80 80 81 74 82 75 83 78 84 76 85 55 86 56 87 64 88
REMARK SMILES IDX 57 89 58 90 62 91 65 92 59 93 60 94 63 95 61 96
REMARK H PARENT 22 5 8 10 26 30 85 49 53 60
REMARK Flexibility Score: inf
ROOT
ATOM      1  C   UNL A   1      32.125  28.584  23.129  1.00  0.00     0.117 C 
ENDROOT
BRANCH   1   2
ATOM      2  N   UNL A   1      32.586  27.638  22.129  1.00  0.00    -0.354 N 
ATOM      3  C   UNL A   1      32.963  26.334  22.264  1.00  0.00     0.243 C 
ATOM      4  O   UNL A   1      33.587  25.828  21.326  1.00  0.00    -0.273 OA
ATOM      5  H   UNL A   1      32.636  27.994  21.212  1.00  0.00     0.163 HD
BRANCH   3   6
ATOM      6  C   UNL A   1      32.762  25.566  23.589  1.00  0.00     0.179 C 
BRANCH   6   7
ATOM      7  N   UNL A   1      31.506  25.951  24.229  1.00  0.00    -0.309 N 
ATOM      8  C   UNL A   1      30.621  25.125  24.848  1.00  0.00     0.408 C 
ATOM      9  O   UNL A   1      29.633  25.586  25.401  1.00  0.00    -0.225 OA
ATOM     10  H   UNL A   1      31.276  26.908  24.210  1.00  0.00     0.167 HD
BRANCH   8  11
ATOM     11  O   UNL A   1      30.942  23.815  24.744  1.00  0.00    -0.444 OA
BRANCH  11  12
ATOM     12  C   UNL A   1      31.210  23.038  25.942  1.00  0.00     0.106 C 
ATOM     13  C   UNL A   1      31.929  21.770  25.457  1.00  0.00     0.056 C 
ATOM     14  C   UNL A   1      29.908  22.615  26.635  1.00  0.00     0.056 C 
ATOM     15  C   UNL A   1      32.147  23.791  26.895  1.00  0.00     0.056 C 
ENDBRANCH  11  12
ENDBRANCH   8  11
ENDBRANCH   6   7
BRANCH   6  16
ATOM     16  C   UNL A   1      34.035  25.715  24.476  1.00  0.00     0.070 C 
BRANCH  16  17
ATOM     17  C   UNL A   1      34.901  24.482  24.640  1.00  0.00    -0.045 A 
ATOM     18  C   UNL A   1      34.739  23.372  23.805  1.00  0.00     0.004 A 
ATOM     19  C   UNL A   1      35.924  24.451  25.594  1.00  0.00     0.004 A 
ATOM     20  C   UNL A   1      35.638  22.303  23.856  1.00  0.00     0.010 A 
ATOM     21  C   UNL A   1      36.815  23.370  25.650  1.00  0.00     0.010 A 
ATOM     22  C   UNL A   1      36.697  22.288  24.767  1.00  0.00     0.038 A 
BRANCH  22  23
ATOM     23  N   UNL A   1      37.563  21.179  24.708  1.00  0.00    -0.061 NA
ATOM     24  N   UNL A   1      38.557  21.210  25.448  1.00  0.00     0.005 N 
ATOM     25  N   UNL A   1      39.476  21.225  26.128  1.00  0.00    -0.003 NA
ENDBRANCH  22  23
ENDBRANCH  16  17
ENDBRANCH   6  16
ENDBRANCH   3   6
ENDBRANCH   1   2
BRANCH   1  26
ATOM     26  C   UNL A   1      33.302  29.246  23.834  1.00  0.00     0.042 C 
BRANCH  26  27
ATOM     27  C   UNL A   1      33.164  29.291  25.347  1.00  0.00     0.118 C 
BRANCH  27  28
ATOM     28  N   UNL A   1      32.808  30.618  25.822  1.00  0.00    -0.352 N 
ATOM     29  C   UNL A   1      33.274  31.329  26.898  1.00  0.00     0.251 C 
ATOM     30  H   UNL A   1      32.123  31.080  25.286  1.00  0.00     0.163 HD
ATOM     31  O   UNL A   1      32.670  32.333  27.266  1.00  0.00    -0.269 OA
BRANCH  29  32
ATOM     32  C   UNL A   1      34.487  30.894  27.628  1.00  0.00     0.039 A 
ATOM     33  C   UNL A   1      35.491  31.833  27.881  1.00  0.00     0.014 A 
ATOM     34  C   UNL A   1      34.663  29.567  28.024  1.00  0.00     0.014 A 
ATOM     35  C   UNL A   1      36.640  31.452  28.577  1.00  0.00     0.010 A 
ATOM     36  C   UNL A   1      35.760  29.210  28.802  1.00  0.00     0.010 A 
ATOM     37  C   UNL A   1      36.769  30.145  29.075  1.00  0.00    -0.014 A 
BRANCH  37  38
ATOM     38  C   UNL A   1      37.955  29.740  29.873  1.00  0.00     0.031 A 
ATOM     39  C   UNL A   1      38.149  30.271  31.268  1.00  0.00     0.074 A 
ATOM     40  C   UNL A   1      38.887  28.940  29.319  1.00  0.00     0.049 A 
ATOM     41  N   UNL A   1      39.147  30.083  32.095  1.00  0.00    -0.248 NA
ATOM     42  C   UNL A   1      37.096  31.154  31.798  1.00  0.00     0.031 C 
ATOM     43  C   UNL A   1      38.839  28.404  27.958  1.00  0.00     0.029 A 
ATOM     44  N   UNL A   1      40.066  28.450  29.825  1.00  0.00    -0.354 N 
ATOM     45  C   UNL A   1      38.852  30.837  33.224  1.00  0.00     0.074 A 
ATOM     46  C   UNL A   1      37.609  31.526  32.962  1.00  0.00     0.031 C 
ATOM     47  C   UNL A   1      39.925  27.644  27.744  1.00  0.00     0.029 A 
ATOM     48  C   UNL A   1      40.770  27.678  28.934  1.00  0.00     0.049 A 
ATOM     49  H   UNL A   1      40.376  28.633  30.742  1.00  0.00     0.167 HD
ATOM     50  C   UNL A   1      39.550  30.932  34.380  1.00  0.00     0.037 A 
ATOM     51  C   UNL A   1      41.971  27.079  29.054  1.00  0.00     0.037 A 
ATOM     52  C   UNL A   1      40.771  30.217  34.648  1.00  0.00     0.049 A 
ATOM     53  C   UNL A   1      42.721  27.202  30.354  1.00  0.00     0.074 A 
ATOM     54  C   UNL A   1      41.505  30.178  35.821  1.00  0.00     0.029 A 
ATOM     55  N   UNL A   1      41.441  29.425  33.728  1.00  0.00    -0.354 N 
ATOM     56  N   UNL A   1      42.386  27.843  31.447  1.00  0.00    -0.248 NA
ATOM     57  C   UNL A   1      44.014  26.508  30.441  1.00  0.00     0.031 C 
ATOM     58  C   UNL A   1      42.658  29.421  35.588  1.00  0.00     0.029 A 
ATOM     59  C   UNL A   1      42.604  28.925  34.296  1.00  0.00     0.049 A 
ATOM     60  H   UNL A   1      41.139  29.245  32.809  1.00  0.00     0.167 HD
ATOM     61  C   UNL A   1      43.406  27.605  32.359  1.00  0.00     0.074 A 
ATOM     62  C   UNL A   1      44.363  26.743  31.698  1.00  0.00     0.031 C 
ATOM     63  C   UNL A   1      43.542  28.060  33.628  1.00  0.00     0.037 A 
BRANCH  50  64
ATOM     64  C   UNL A   1      39.023  31.844  35.451  1.00  0.00     0.064 A 
ATOM     65  C   UNL A   1      38.236  31.370  36.510  1.00  0.00     0.173 A 
ATOM     66  C   UNL A   1      39.375  33.203  35.456  1.00  0.00     0.173 A 
ATOM     67  F   UNL A   1      37.862  30.081  36.551  1.00  0.00    -0.203 F 
ATOM     68  C   UNL A   1      37.803  32.224  37.522  1.00  0.00     0.198 A 
ATOM     69  C   UNL A   1      38.969  34.047  36.486  1.00  0.00     0.198 A 
ATOM     70  F   UNL A   1      40.131  33.710  34.470  1.00  0.00    -0.203 F 
ATOM     71  F   UNL A   1      37.018  31.756  38.502  1.00  0.00    -0.200 F 
ATOM     72  C   UNL A   1      38.180  33.558  37.516  1.00  0.00     0.200 A 
ATOM     73  F   UNL A   1      39.349  35.332  36.486  1.00  0.00    -0.200 F 
ATOM     74  F   UNL A   1      37.779  34.375  38.500  1.00  0.00    -0.200 F 
ENDBRANCH  50  64
BRANCH  51  75
ATOM     75  C   UNL A   1      42.547  26.316  27.914  1.00  0.00     0.064 A 
ATOM     76  C   UNL A   1      43.422  26.923  27.001  1.00  0.00     0.173 A 
ATOM     77  C   UNL A   1      42.208  24.973  27.692  1.00  0.00     0.173 A 
ATOM     78  F   UNL A   1      43.765  28.210  27.157  1.00  0.00    -0.203 F 
ATOM     79  C   UNL A   1      43.902  26.230  25.891  1.00  0.00     0.198 A 
ATOM     80  C   UNL A   1      42.719  24.269  26.603  1.00  0.00     0.198 A 
ATOM     81  F   UNL A   1      41.382  24.340  28.538  1.00  0.00    -0.203 F 
ATOM     82  F   UNL A   1      44.679  26.856  24.998  1.00  0.00    -0.200 F 
ATOM     83  C   UNL A   1      43.553  24.903  25.696  1.00  0.00     0.200 A 
ATOM     84  F   UNL A   1      42.394  22.980  26.429  1.00  0.00    -0.200 F 
ATOM     85  F   UNL A   1      44.010  24.237  24.626  1.00  0.00    -0.200 F 
ENDBRANCH  51  75
BRANCH  63  86
ATOM     86  C   UNL A   1      44.742  27.599  34.404  1.00  0.00     0.064 A 
ATOM     87  C   UNL A   1      44.733  26.407  35.145  1.00  0.00     0.173 A 
ATOM     88  C   UNL A   1      45.933  28.343  34.376  1.00  0.00     0.173 A 
ATOM     89  F   UNL A   1      43.617  25.665  35.216  1.00  0.00    -0.203 F 
ATOM     90  C   UNL A   1      45.858  25.995  35.854  1.00  0.00     0.198 A 
ATOM     91  C   UNL A   1      47.068  27.908  35.054  1.00  0.00     0.198 A 
ATOM     92  F   UNL A   1      46.000  29.485  33.676  1.00  0.00    -0.203 F 
ATOM     93  F   UNL A   1      45.807  24.884  36.601  1.00  0.00    -0.200 F 
ATOM     94  C   UNL A   1      47.026  26.741  35.800  1.00  0.00     0.200 A 
ATOM     95  F   UNL A   1      48.201  28.619  34.984  1.00  0.00    -0.200 F 
ATOM     96  F   UNL A   1      48.111  26.338  36.476  1.00  0.00    -0.200 F 
ENDBRANCH  63  86
ENDBRANCH  37  38
ENDBRANCH  29  32
ENDBRANCH  27  28
ENDBRANCH  26  27
ENDBRANCH   1  26
TORSDOF 16
ENDMDL
