MODEL 1
REMARK VINA RESULT:     -10.7      0.000      0.000
REMARK SMILES CC(=O)c1cc(C(=O)NC[C@H]2CC[C@H](C(=O)NCCCNC(=O)c3ccc(-c4c5nc(c(-c6c(F)c(F)c(F)c(F)c6F)c6ccc([nH]6)c(-c6c(F)c(F)c(F)c(F)c6F)c6nc(c(-c7c(F)c(F)c(F)c(F)c7F)c7ccc4[nH]7)C=C6)C=C5)cc3)O2)n(C)c1
REMARK SMILES IDX 18 1 17 2 15 3 16 4 14 6 11 7 12 8 87 9 13 10 10 11 9 12
REMARK SMILES IDX 7 13 8 14 6 16 4 17 5 18 90 19 88 20 89 21 2 22 1 23 3 24
REMARK SMILES IDX 19 25 20 26 21 27 22 28 23 30 24 31 25 32 86 33 26 34 85 35
REMARK SMILES IDX 27 36 28 37 29 38 79 39 30 40 84 41 78 42 80 43 31 44 83 45
REMARK SMILES IDX 77 46 76 47 32 49 64 50 44 51 63 52 45 53 48 54 62 55 81 56
REMARK SMILES IDX 46 57 47 58 61 60 82 61 49 62 33 63 34 64 42 65 35 66 36 67
REMARK SMILES IDX 40 68 43 69 37 70 38 71 41 72 39 73 65 74 66 75 74 76 67 77
REMARK SMILES IDX 68 78 72 79 75 80 69 81 70 82 73 83 71 84 50 85 51 86 59 87
REMARK SMILES IDX 52 88 53 89 57 90 60 91 54 92 55 93 58 94 56 95
REMARK H PARENT 17 5 9 15 21 29 80 48 48 59
REMARK Flexibility Score: inf
ROOT
ATOM      1  C   UNL A   1      34.133  35.003  28.724  1.00  0.00     0.117 C 
ENDROOT
BRANCH   1   2
ATOM      2  N   UNL A   1      33.344  35.326  29.893  1.00  0.00    -0.354 N 
ATOM      3  C   UNL A   1      33.579  35.047  31.206  1.00  0.00     0.249 C 
ATOM      4  O   UNL A   1      32.724  35.389  32.028  1.00  0.00    -0.272 OA
ATOM      5  H   UNL A   1      32.513  35.821  29.714  1.00  0.00     0.163 HD
BRANCH   3   6
ATOM      6  C   UNL A   1      34.829  34.265  31.654  1.00  0.00     0.207 C 
ATOM      7  C   UNL A   1      35.360  32.611  33.228  1.00  0.00     0.138 C 
ATOM      8  C   UNL A   1      35.526  33.947  33.929  1.00  0.00     0.037 C 
ATOM      9  O   UNL A   1      34.632  32.901  32.021  1.00  0.00    -0.363 OA
ATOM     10  C   UNL A   1      35.553  34.955  32.804  1.00  0.00     0.045 C 
BRANCH   7  11
ATOM     11  C   UNL A   1      36.693  31.982  32.813  1.00  0.00     0.148 C 
BRANCH  11  12
ATOM     12  N   UNL A   1      36.721  30.543  32.913  1.00  0.00    -0.348 N 
ATOM     13  C   UNL A   1      37.688  29.622  33.200  1.00  0.00     0.268 C 
ATOM     14  O   UNL A   1      37.267  28.459  33.200  1.00  0.00    -0.268 OA
ATOM     15  H   UNL A   1      35.845  30.130  32.733  1.00  0.00     0.163 HD
BRANCH  13  16
ATOM     16  C   UNL A   1      39.104  29.894  33.435  1.00  0.00     0.107 A 
ATOM     17  C   UNL A   1      41.379  29.460  33.349  1.00  0.00     0.036 A 
ATOM     18  C   UNL A   1      40.091  29.003  32.984  1.00  0.00     0.045 A 
ATOM     19  C   UNL A   1      41.163  30.657  33.989  1.00  0.00     0.097 A 
ATOM     20  N   UNL A   1      39.809  30.861  34.133  1.00  0.00    -0.346 N 
ATOM     21  C   UNL A   1      39.354  31.886  35.045  1.00  0.00     0.150 C 
BRANCH  17  22
ATOM     22  C   UNL A   1      42.694  28.855  33.152  1.00  0.00     0.161 C 
ATOM     23  C   UNL A   1      42.812  27.672  32.227  1.00  0.00     0.093 C 
ATOM     24  O   UNL A   1      43.696  29.311  33.706  1.00  0.00    -0.294 OA
ENDBRANCH  17  22
ENDBRANCH  13  16
ENDBRANCH  11  12
ENDBRANCH   7  11
ENDBRANCH   3   6
ENDBRANCH   1   2
BRANCH   1  25
ATOM     25  C   UNL A   1      33.677  33.695  28.094  1.00  0.00     0.042 C 
BRANCH  25  26
ATOM     26  C   UNL A   1      34.591  32.539  28.463  1.00  0.00     0.118 C 
BRANCH  26  27
ATOM     27  N   UNL A   1      33.967  31.254  28.175  1.00  0.00    -0.352 N 
ATOM     28  C   UNL A   1      34.536  30.034  27.921  1.00  0.00     0.251 C 
ATOM     29  H   UNL A   1      32.983  31.264  28.160  1.00  0.00     0.163 HD
ATOM     30  O   UNL A   1      33.853  29.128  27.459  1.00  0.00    -0.269 OA
BRANCH  28  31
ATOM     31  C   UNL A   1      35.969  29.815  28.195  1.00  0.00     0.039 A 
ATOM     32  C   UNL A   1      36.353  29.384  29.467  1.00  0.00     0.014 A 
ATOM     33  C   UNL A   1      36.933  30.062  27.215  1.00  0.00     0.014 A 
ATOM     34  C   UNL A   1      37.701  29.159  29.740  1.00  0.00     0.010 A 
ATOM     35  C   UNL A   1      38.263  29.745  27.457  1.00  0.00     0.010 A 
ATOM     36  C   UNL A   1      38.662  29.310  28.728  1.00  0.00    -0.014 A 
BRANCH  36  37
ATOM     37  C   UNL A   1      40.098  29.051  28.983  1.00  0.00     0.031 A 
ATOM     38  C   UNL A   1      40.943  30.111  29.631  1.00  0.00     0.074 A 
ATOM     39  C   UNL A   1      40.646  27.893  28.566  1.00  0.00     0.049 A 
ATOM     40  N   UNL A   1      42.232  30.120  29.855  1.00  0.00    -0.248 NA
ATOM     41  C   UNL A   1      40.255  31.344  30.052  1.00  0.00     0.031 C 
ATOM     42  C   UNL A   1      39.931  26.818  27.876  1.00  0.00     0.029 A 
ATOM     43  N   UNL A   1      41.936  27.435  28.648  1.00  0.00    -0.354 N 
ATOM     44  C   UNL A   1      42.509  31.360  30.417  1.00  0.00     0.074 A 
ATOM     45  C   UNL A   1      41.267  32.098  30.454  1.00  0.00     0.031 C 
ATOM     46  C   UNL A   1      40.788  25.817  27.616  1.00  0.00     0.029 A 
ATOM     47  C   UNL A   1      42.117  26.196  28.081  1.00  0.00     0.049 A 
ATOM     48  H   UNL A   1      42.663  27.945  29.073  1.00  0.00     0.167 HD
ATOM     49  C   UNL A   1      43.690  31.826  30.884  1.00  0.00     0.037 A 
ATOM     50  C   UNL A   1      43.235  25.459  27.947  1.00  0.00     0.037 A 
ATOM     51  C   UNL A   1      44.910  31.064  30.884  1.00  0.00     0.049 A 
ATOM     52  C   UNL A   1      44.530  25.996  28.494  1.00  0.00     0.074 A 
ATOM     53  C   UNL A   1      46.143  31.412  31.404  1.00  0.00     0.029 A 
ATOM     54  N   UNL A   1      45.046  29.796  30.340  1.00  0.00    -0.354 N 
ATOM     55  N   UNL A   1      44.764  27.138  29.095  1.00  0.00    -0.248 NA
ATOM     56  C   UNL A   1      45.714  25.140  28.355  1.00  0.00     0.031 C 
ATOM     57  C   UNL A   1      47.039  30.373  31.133  1.00  0.00     0.029 A 
ATOM     58  C   UNL A   1      46.350  29.355  30.492  1.00  0.00     0.049 A 
ATOM     59  H   UNL A   1      44.323  29.283  29.909  1.00  0.00     0.167 HD
ATOM     60  C   UNL A   1      46.110  27.124  29.432  1.00  0.00     0.074 A 
ATOM     61  C   UNL A   1      46.638  25.852  28.984  1.00  0.00     0.031 C 
ATOM     62  C   UNL A   1      46.847  28.077  30.053  1.00  0.00     0.037 A 
BRANCH  49  63
ATOM     63  C   UNL A   1      43.725  33.217  31.443  1.00  0.00     0.064 A 
ATOM     64  C   UNL A   1      43.750  34.347  30.611  1.00  0.00     0.173 A 
ATOM     65  C   UNL A   1      43.670  33.426  32.831  1.00  0.00     0.173 A 
ATOM     66  F   UNL A   1      43.816  34.203  29.280  1.00  0.00    -0.203 F 
ATOM     67  C   UNL A   1      43.738  35.632  31.146  1.00  0.00     0.198 A 
ATOM     68  C   UNL A   1      43.628  34.713  33.361  1.00  0.00     0.198 A 
ATOM     69  F   UNL A   1      43.643  32.381  33.671  1.00  0.00    -0.203 F 
ATOM     70  F   UNL A   1      43.801  36.695  30.333  1.00  0.00    -0.200 F 
ATOM     71  C   UNL A   1      43.666  35.814  32.519  1.00  0.00     0.200 A 
ATOM     72  F   UNL A   1      43.545  34.887  34.687  1.00  0.00    -0.200 F 
ATOM     73  F   UNL A   1      43.638  37.053  33.032  1.00  0.00    -0.200 F 
ENDBRANCH  49  63
BRANCH  50  74
ATOM     74  C   UNL A   1      43.181  24.132  27.278  1.00  0.00     0.064 A 
ATOM     75  C   UNL A   1      43.524  23.992  25.926  1.00  0.00     0.173 A 
ATOM     76  C   UNL A   1      42.767  22.983  27.967  1.00  0.00     0.173 A 
ATOM     77  F   UNL A   1      43.913  25.064  25.219  1.00  0.00    -0.203 F 
ATOM     78  C   UNL A   1      43.421  22.761  25.279  1.00  0.00     0.198 A 
ATOM     79  C   UNL A   1      42.694  21.747  27.328  1.00  0.00     0.198 A 
ATOM     80  F   UNL A   1      42.438  23.060  29.264  1.00  0.00    -0.203 F 
ATOM     81  F   UNL A   1      43.698  22.669  23.972  1.00  0.00    -0.200 F 
ATOM     82  C   UNL A   1      43.009  21.640  25.982  1.00  0.00     0.200 A 
ATOM     83  F   UNL A   1      42.313  20.662  28.015  1.00  0.00    -0.200 F 
ATOM     84  F   UNL A   1      42.907  20.457  25.360  1.00  0.00    -0.200 F 
ENDBRANCH  50  74
BRANCH  62  85
ATOM     85  C   UNL A   1      48.289  27.764  30.320  1.00  0.00     0.064 A 
ATOM     86  C   UNL A   1      48.704  27.164  31.517  1.00  0.00     0.173 A 
ATOM     87  C   UNL A   1      49.263  28.028  29.344  1.00  0.00     0.173 A 
ATOM     88  F   UNL A   1      47.813  26.905  32.486  1.00  0.00    -0.203 F 
ATOM     89  C   UNL A   1      50.044  26.864  31.739  1.00  0.00     0.198 A 
ATOM     90  C   UNL A   1      50.596  27.697  29.556  1.00  0.00     0.198 A 
ATOM     91  F   UNL A   1      48.915  28.594  28.177  1.00  0.00    -0.203 F 
ATOM     92  F   UNL A   1      50.425  26.336  32.910  1.00  0.00    -0.200 F 
ATOM     93  C   UNL A   1      50.988  27.124  30.756  1.00  0.00     0.200 A 
ATOM     94  F   UNL A   1      51.504  27.934  28.599  1.00  0.00    -0.200 F 
ATOM     95  F   UNL A   1      52.277  26.827  30.968  1.00  0.00    -0.200 F 
ENDBRANCH  62  85
ENDBRANCH  36  37
ENDBRANCH  28  31
ENDBRANCH  26  27
ENDBRANCH  25  26
ENDBRANCH   1  25
TORSDOF 14
ENDMDL
MODEL 2
REMARK VINA RESULT:     -10.5      4.257     10.888
REMARK SMILES CC(=O)c1cc(C(=O)NC[C@H]2CC[C@H](C(=O)NCCCNC(=O)c3ccc(-c4c5nc(c(-c6c(F)c(F)c(F)c(F)c6F)c6ccc([nH]6)c(-c6c(F)c(F)c(F)c(F)c6F)c6nc(c(-c7c(F)c(F)c(F)c(F)c7F)c7ccc4[nH]7)C=C6)C=C5)cc3)O2)n(C)c1
REMARK SMILES IDX 18 1 17 2 15 3 16 4 14 6 11 7 12 8 87 9 13 10 10 11 9 12
REMARK SMILES IDX 7 13 8 14 6 16 4 17 5 18 90 19 88 20 89 21 2 22 1 23 3 24
REMARK SMILES IDX 19 25 20 26 21 27 22 28 23 30 24 31 25 32 86 33 26 34 85 35
REMARK SMILES IDX 27 36 28 37 29 38 79 39 30 40 84 41 78 42 80 43 31 44 83 45
REMARK SMILES IDX 77 46 76 47 32 49 64 50 44 51 63 52 45 53 48 54 62 55 81 56
REMARK SMILES IDX 46 57 47 58 61 60 82 61 49 62 33 63 34 64 42 65 35 66 36 67
REMARK SMILES IDX 40 68 43 69 37 70 38 71 41 72 39 73 65 74 66 75 74 76 67 77
REMARK SMILES IDX 68 78 72 79 75 80 69 81 70 82 73 83 71 84 50 85 51 86 59 87
REMARK SMILES IDX 52 88 53 89 57 90 60 91 54 92 55 93 58 94 56 95
REMARK H PARENT 17 5 9 15 21 29 80 48 48 59
REMARK Flexibility Score: inf
ROOT
ATOM      1  C   UNL A   1      31.501  30.689  26.233  1.00  0.00     0.117 C 
ENDROOT
BRANCH   1   2
ATOM      2  N   UNL A   1      32.617  30.119  26.957  1.00  0.00    -0.354 N 
ATOM      3  C   UNL A   1      33.179  28.882  26.856  1.00  0.00     0.249 C 
ATOM      4  O   UNL A   1      34.106  28.607  27.624  1.00  0.00    -0.272 OA
ATOM      5  H   UNL A   1      33.034  30.713  27.621  1.00  0.00     0.163 HD
BRANCH   3   6
ATOM      6  C   UNL A   1      32.636  27.826  25.873  1.00  0.00     0.207 C 
ATOM      7  C   UNL A   1      31.520  25.768  25.992  1.00  0.00     0.138 C 
ATOM      8  C   UNL A   1      33.006  25.460  26.034  1.00  0.00     0.037 C 
ATOM      9  O   UNL A   1      31.416  27.182  26.237  1.00  0.00    -0.363 OA
ATOM     10  C   UNL A   1      33.663  26.740  25.575  1.00  0.00     0.045 C 
BRANCH   7  11
ATOM     11  C   UNL A   1      30.890  25.499  24.623  1.00  0.00     0.148 C 
BRANCH  11  12
ATOM     12  N   UNL A   1      29.469  25.744  24.570  1.00  0.00    -0.348 N 
ATOM     13  C   UNL A   1      28.682  26.700  23.992  1.00  0.00     0.268 C 
ATOM     14  O   UNL A   1      27.474  26.517  24.183  1.00  0.00    -0.268 OA
ATOM     15  H   UNL A   1      28.947  25.070  25.064  1.00  0.00     0.163 HD
BRANCH  13  16
ATOM     16  C   UNL A   1      29.144  27.878  23.260  1.00  0.00     0.107 A 
ATOM     17  C   UNL A   1      28.972  30.012  22.372  1.00  0.00     0.036 A 
ATOM     18  C   UNL A   1      28.328  29.015  23.143  1.00  0.00     0.045 A 
ATOM     19  C   UNL A   1      30.200  29.481  22.060  1.00  0.00     0.097 A 
ATOM     20  N   UNL A   1      30.260  28.176  22.496  1.00  0.00    -0.346 N 
ATOM     21  C   UNL A   1      31.322  27.327  22.005  1.00  0.00     0.150 C 
BRANCH  17  22
ATOM     22  C   UNL A   1      28.507  31.327  21.938  1.00  0.00     0.161 C 
ATOM     23  C   UNL A   1      28.021  32.299  22.982  1.00  0.00     0.093 C 
ATOM     24  O   UNL A   1      28.530  31.653  20.750  1.00  0.00    -0.294 OA
ENDBRANCH  17  22
ENDBRANCH  13  16
ENDBRANCH  11  12
ENDBRANCH   7  11
ENDBRANCH   3   6
ENDBRANCH   1   2
BRANCH   1  25
ATOM     25  C   UNL A   1      31.383  32.185  26.490  1.00  0.00     0.042 C 
BRANCH  25  26
ATOM     26  C   UNL A   1      32.660  32.760  27.078  1.00  0.00     0.118 C 
BRANCH  26  27
ATOM     27  N   UNL A   1      32.461  34.125  27.550  1.00  0.00    -0.352 N 
ATOM     28  C   UNL A   1      33.014  34.777  28.620  1.00  0.00     0.251 C 
ATOM     29  H   UNL A   1      31.829  34.660  27.018  1.00  0.00     0.163 HD
ATOM     30  O   UNL A   1      32.536  35.841  28.998  1.00  0.00    -0.269 OA
BRANCH  28  31
ATOM     31  C   UNL A   1      34.176  34.199  29.319  1.00  0.00     0.039 A 
ATOM     32  C   UNL A   1      33.957  33.409  30.450  1.00  0.00     0.014 A 
ATOM     33  C   UNL A   1      35.478  34.459  28.884  1.00  0.00     0.014 A 
ATOM     34  C   UNL A   1      35.044  32.843  31.116  1.00  0.00     0.010 A 
ATOM     35  C   UNL A   1      36.551  33.818  29.488  1.00  0.00     0.010 A 
ATOM     36  C   UNL A   1      36.345  33.020  30.623  1.00  0.00    -0.014 A 
BRANCH  36  37
ATOM     37  C   UNL A   1      37.515  32.408  31.294  1.00  0.00     0.031 A 
ATOM     38  C   UNL A   1      38.234  31.262  30.640  1.00  0.00     0.074 A 
ATOM     39  C   UNL A   1      37.877  32.839  32.518  1.00  0.00     0.049 A 
ATOM     40  N   UNL A   1      39.216  30.529  31.101  1.00  0.00    -0.248 NA
ATOM     41  C   UNL A   1      37.766  30.860  29.302  1.00  0.00     0.031 C 
ATOM     42  C   UNL A   1      37.214  33.906  33.270  1.00  0.00     0.029 A 
ATOM     43  N   UNL A   1      38.883  32.421  33.352  1.00  0.00    -0.354 N 
ATOM     44  C   UNL A   1      39.462  29.572  30.125  1.00  0.00     0.074 A 
ATOM     45  C   UNL A   1      38.497  29.781  29.069  1.00  0.00     0.031 C 
ATOM     46  C   UNL A   1      37.843  34.072  34.445  1.00  0.00     0.029 A 
ATOM     47  C   UNL A   1      38.924  33.098  34.546  1.00  0.00     0.049 A 
ATOM     48  H   UNL A   1      39.515  31.704  33.115  1.00  0.00     0.167 HD
ATOM     49  C   UNL A   1      40.426  28.623  30.103  1.00  0.00     0.037 A 
ATOM     50  C   UNL A   1      39.740  32.939  35.606  1.00  0.00     0.037 A 
ATOM     51  C   UNL A   1      41.410  28.455  31.138  1.00  0.00     0.049 A 
ATOM     52  C   UNL A   1      40.815  31.888  35.543  1.00  0.00     0.074 A 
ATOM     53  C   UNL A   1      42.478  27.577  31.178  1.00  0.00     0.029 A 
ATOM     54  N   UNL A   1      41.448  29.188  32.315  1.00  0.00    -0.354 N 
ATOM     55  N   UNL A   1      41.089  31.040  34.580  1.00  0.00    -0.248 NA
ATOM     56  C   UNL A   1      41.702  31.777  36.707  1.00  0.00     0.031 C 
ATOM     57  C   UNL A   1      43.135  27.745  32.401  1.00  0.00     0.029 A 
ATOM     58  C   UNL A   1      42.509  28.766  33.099  1.00  0.00     0.049 A 
ATOM     59  H   UNL A   1      40.815  29.902  32.558  1.00  0.00     0.167 HD
ATOM     60  C   UNL A   1      42.194  30.319  35.009  1.00  0.00     0.074 A 
ATOM     61  C   UNL A   1      42.552  30.841  36.312  1.00  0.00     0.031 C 
ATOM     62  C   UNL A   1      42.854  29.313  34.385  1.00  0.00     0.037 A 
BRANCH  49  63
ATOM     63  C   UNL A   1      40.476  27.698  28.923  1.00  0.00     0.064 A 
ATOM     64  C   UNL A   1      39.694  26.534  28.864  1.00  0.00     0.173 A 
ATOM     65  C   UNL A   1      41.270  28.012  27.808  1.00  0.00     0.173 A 
ATOM     66  F   UNL A   1      38.929  26.182  29.908  1.00  0.00    -0.203 F 
ATOM     67  C   UNL A   1      39.719  25.709  27.743  1.00  0.00     0.198 A 
ATOM     68  C   UNL A   1      41.269  27.200  26.677  1.00  0.00     0.198 A 
ATOM     69  F   UNL A   1      42.034  29.114  27.811  1.00  0.00    -0.203 F 
ATOM     70  F   UNL A   1      38.993  24.583  27.726  1.00  0.00    -0.200 F 
ATOM     71  C   UNL A   1      40.497  26.049  26.646  1.00  0.00     0.200 A 
ATOM     72  F   UNL A   1      42.011  27.536  25.613  1.00  0.00    -0.200 F 
ATOM     73  F   UNL A   1      40.508  25.262  25.561  1.00  0.00    -0.200 F 
ENDBRANCH  49  63
BRANCH  50  74
ATOM     74  C   UNL A   1      39.582  33.799  36.808  1.00  0.00     0.064 A 
ATOM     75  C   UNL A   1      38.802  33.381  37.895  1.00  0.00     0.173 A 
ATOM     76  C   UNL A   1      40.187  35.061  36.888  1.00  0.00     0.173 A 
ATOM     77  F   UNL A   1      38.190  32.188  37.861  1.00  0.00    -0.203 F 
ATOM     78  C   UNL A   1      38.604  34.207  39.001  1.00  0.00     0.198 A 
ATOM     79  C   UNL A   1      40.015  35.873  38.007  1.00  0.00     0.198 A 
ATOM     80  F   UNL A   1      40.952  35.504  35.880  1.00  0.00    -0.203 F 
ATOM     81  F   UNL A   1      37.806  33.806  39.999  1.00  0.00    -0.200 F 
ATOM     82  C   UNL A   1      39.213  35.451  39.057  1.00  0.00     0.200 A 
ATOM     83  F   UNL A   1      40.620  37.067  38.065  1.00  0.00    -0.200 F 
ATOM     84  F   UNL A   1      39.022  36.246  40.118  1.00  0.00    -0.200 F 
ENDBRANCH  50  74
BRANCH  62  85
ATOM     85  C   UNL A   1      44.051  28.740  35.084  1.00  0.00     0.064 A 
ATOM     86  C   UNL A   1      45.332  29.287  34.921  1.00  0.00     0.173 A 
ATOM     87  C   UNL A   1      43.905  27.657  35.965  1.00  0.00     0.173 A 
ATOM     88  F   UNL A   1      45.525  30.315  34.080  1.00  0.00    -0.203 F 
ATOM     89  C   UNL A   1      46.427  28.753  35.592  1.00  0.00     0.198 A 
ATOM     90  C   UNL A   1      44.997  27.147  36.659  1.00  0.00     0.198 A 
ATOM     91  F   UNL A   1      42.699  27.103  36.162  1.00  0.00    -0.203 F 
ATOM     92  F   UNL A   1      47.650  29.260  35.383  1.00  0.00    -0.200 F 
ATOM     93  C   UNL A   1      46.259  27.690  36.466  1.00  0.00     0.200 A 
ATOM     94  F   UNL A   1      44.829  26.129  37.514  1.00  0.00    -0.200 F 
ATOM     95  F   UNL A   1      47.313  27.182  37.118  1.00  0.00    -0.200 F 
ENDBRANCH  62  85
ENDBRANCH  36  37
ENDBRANCH  28  31
ENDBRANCH  26  27
ENDBRANCH  25  26
ENDBRANCH   1  25
TORSDOF 14
ENDMDL
MODEL 3
REMARK VINA RESULT:     -10.4      4.484     10.485
REMARK SMILES CC(=O)c1cc(C(=O)NC[C@H]2CC[C@H](C(=O)NCCCNC(=O)c3ccc(-c4c5nc(c(-c6c(F)c(F)c(F)c(F)c6F)c6ccc([nH]6)c(-c6c(F)c(F)c(F)c(F)c6F)c6nc(c(-c7c(F)c(F)c(F)c(F)c7F)c7ccc4[nH]7)C=C6)C=C5)cc3)O2)n(C)c1
REMARK SMILES IDX 18 1 17 2 15 3 16 4 14 6 11 7 12 8 87 9 13 10 10 11 9 12
REMARK SMILES IDX 7 13 8 14 6 16 4 17 5 18 90 19 88 20 89 21 2 22 1 23 3 24
REMARK SMILES IDX 19 25 20 26 21 27 22 28 23 30 24 31 25 32 86 33 26 34 85 35
REMARK SMILES IDX 27 36 28 37 29 38 79 39 30 40 84 41 78 42 80 43 31 44 83 45
REMARK SMILES IDX 77 46 76 47 32 49 64 50 44 51 63 52 45 53 48 54 62 55 81 56
REMARK SMILES IDX 46 57 47 58 61 60 82 61 49 62 33 63 34 64 42 65 35 66 36 67
REMARK SMILES IDX 40 68 43 69 37 70 38 71 41 72 39 73 65 74 66 75 74 76 67 77
REMARK SMILES IDX 68 78 72 79 75 80 69 81 70 82 73 83 71 84 50 85 51 86 59 87
REMARK SMILES IDX 52 88 53 89 57 90 60 91 54 92 55 93 58 94 56 95
REMARK H PARENT 17 5 9 15 21 29 80 48 48 59
REMARK Flexibility Score: inf
ROOT
ATOM      1  C   UNL A   1      31.574  30.835  26.498  1.00  0.00     0.117 C 
ENDROOT
BRANCH   1   2
ATOM      2  N   UNL A   1      32.929  30.411  26.781  1.00  0.00    -0.354 N 
ATOM      3  C   UNL A   1      33.570  29.259  26.438  1.00  0.00     0.249 C 
ATOM      4  O   UNL A   1      34.727  29.104  26.840  1.00  0.00    -0.272 OA
ATOM      5  H   UNL A   1      33.469  31.052  27.298  1.00  0.00     0.163 HD
BRANCH   3   6
ATOM      6  C   UNL A   1      32.861  28.147  25.640  1.00  0.00     0.207 C 
ATOM      7  C   UNL A   1      33.422  26.081  24.685  1.00  0.00     0.138 C 
ATOM      8  C   UNL A   1      33.693  27.136  23.629  1.00  0.00     0.037 C 
ATOM      9  O   UNL A   1      33.263  26.807  25.918  1.00  0.00    -0.363 OA
ATOM     10  C   UNL A   1      32.973  28.363  24.136  1.00  0.00     0.045 C 
BRANCH   7  11
ATOM     11  C   UNL A   1      32.121  25.310  24.444  1.00  0.00     0.148 C 
BRANCH  11  12
ATOM     12  N   UNL A   1      31.555  24.723  25.634  1.00  0.00    -0.348 N 
ATOM     13  C   UNL A   1      31.748  23.551  26.308  1.00  0.00     0.268 C 
ATOM     14  O   UNL A   1      31.049  23.453  27.324  1.00  0.00    -0.268 OA
ATOM     15  H   UNL A   1      30.874  25.296  26.056  1.00  0.00     0.163 HD
BRANCH  13  16
ATOM     16  C   UNL A   1      32.626  22.453  25.907  1.00  0.00     0.107 A 
ATOM     17  C   UNL A   1      33.134  20.282  25.273  1.00  0.00     0.036 A 
ATOM     18  C   UNL A   1      32.098  21.186  25.608  1.00  0.00     0.045 A 
ATOM     19  C   UNL A   1      34.288  21.026  25.333  1.00  0.00     0.097 A 
ATOM     20  N   UNL A   1      33.997  22.285  25.811  1.00  0.00    -0.346 N 
ATOM     21  C   UNL A   1      35.084  23.128  26.253  1.00  0.00     0.150 C 
BRANCH  17  22
ATOM     22  C   UNL A   1      33.086  18.859  24.946  1.00  0.00     0.161 C 
ATOM     23  C   UNL A   1      34.328  18.204  24.401  1.00  0.00     0.093 C 
ATOM     24  O   UNL A   1      32.065  18.195  25.130  1.00  0.00    -0.294 OA
ENDBRANCH  17  22
ENDBRANCH  13  16
ENDBRANCH  11  12
ENDBRANCH   7  11
ENDBRANCH   3   6
ENDBRANCH   1   2
BRANCH   1  25
ATOM     25  C   UNL A   1      31.399  32.327  26.741  1.00  0.00     0.042 C 
BRANCH  25  26
ATOM     26  C   UNL A   1      32.710  32.995  27.121  1.00  0.00     0.118 C 
BRANCH  26  27
ATOM     27  N   UNL A   1      32.492  34.342  27.633  1.00  0.00    -0.352 N 
ATOM     28  C   UNL A   1      33.029  34.969  28.726  1.00  0.00     0.251 C 
ATOM     29  H   UNL A   1      31.858  34.887  27.112  1.00  0.00     0.163 HD
ATOM     30  O   UNL A   1      32.536  36.015  29.131  1.00  0.00    -0.269 OA
BRANCH  28  31
ATOM     31  C   UNL A   1      34.193  34.382  29.417  1.00  0.00     0.039 A 
ATOM     32  C   UNL A   1      33.979  33.622  30.569  1.00  0.00     0.014 A 
ATOM     33  C   UNL A   1      35.491  34.606  28.953  1.00  0.00     0.014 A 
ATOM     34  C   UNL A   1      35.066  33.048  31.228  1.00  0.00     0.010 A 
ATOM     35  C   UNL A   1      36.562  33.957  29.552  1.00  0.00     0.010 A 
ATOM     36  C   UNL A   1      36.361  33.188  30.708  1.00  0.00    -0.014 A 
BRANCH  36  37
ATOM     37  C   UNL A   1      37.530  32.567  31.371  1.00  0.00     0.031 A 
ATOM     38  C   UNL A   1      38.241  31.420  30.709  1.00  0.00     0.074 A 
ATOM     39  C   UNL A   1      37.899  32.991  32.596  1.00  0.00     0.049 A 
ATOM     40  N   UNL A   1      39.221  30.681  31.163  1.00  0.00    -0.248 NA
ATOM     41  C   UNL A   1      37.766  31.028  29.372  1.00  0.00     0.031 C 
ATOM     42  C   UNL A   1      37.245  34.058  33.355  1.00  0.00     0.029 A 
ATOM     43  N   UNL A   1      38.907  32.564  33.423  1.00  0.00    -0.354 N 
ATOM     44  C   UNL A   1      39.459  29.727  30.181  1.00  0.00     0.074 A 
ATOM     45  C   UNL A   1      38.491  29.945  29.131  1.00  0.00     0.031 C 
ATOM     46  C   UNL A   1      37.880  34.215  34.528  1.00  0.00     0.029 A 
ATOM     47  C   UNL A   1      38.957  33.236  34.621  1.00  0.00     0.049 A 
ATOM     48  H   UNL A   1      39.534  31.845  33.181  1.00  0.00     0.167 HD
ATOM     49  C   UNL A   1      40.418  28.773  30.151  1.00  0.00     0.037 A 
ATOM     50  C   UNL A   1      39.776  33.068  35.676  1.00  0.00     0.037 A 
ATOM     51  C   UNL A   1      41.405  28.596  31.182  1.00  0.00     0.049 A 
ATOM     52  C   UNL A   1      40.845  32.012  35.604  1.00  0.00     0.074 A 
ATOM     53  C   UNL A   1      42.469  27.713  31.213  1.00  0.00     0.029 A 
ATOM     54  N   UNL A   1      41.451  29.323  32.362  1.00  0.00    -0.354 N 
ATOM     55  N   UNL A   1      41.111  31.167  34.637  1.00  0.00    -0.248 NA
ATOM     56  C   UNL A   1      41.736  31.891  36.764  1.00  0.00     0.031 C 
ATOM     57  C   UNL A   1      43.132  27.872  32.434  1.00  0.00     0.029 A 
ATOM     58  C   UNL A   1      42.513  28.892  33.139  1.00  0.00     0.049 A 
ATOM     59  H   UNL A   1      40.823  30.040  32.610  1.00  0.00     0.167 HD
ATOM     60  C   UNL A   1      42.215  30.439  35.058  1.00  0.00     0.074 A 
ATOM     61  C   UNL A   1      42.580  30.953  36.361  1.00  0.00     0.031 C 
ATOM     62  C   UNL A   1      42.867  29.432  34.427  1.00  0.00     0.037 A 
BRANCH  49  63
ATOM     63  C   UNL A   1      40.458  27.854  28.967  1.00  0.00     0.064 A 
ATOM     64  C   UNL A   1      41.273  28.118  27.855  1.00  0.00     0.173 A 
ATOM     65  C   UNL A   1      39.719  26.660  28.969  1.00  0.00     0.173 A 
ATOM     66  F   UNL A   1      41.989  29.251  27.797  1.00  0.00    -0.203 F 
ATOM     67  C   UNL A   1      41.332  27.233  26.782  1.00  0.00     0.198 A 
ATOM     68  C   UNL A   1      39.804  25.763  27.908  1.00  0.00     0.198 A 
ATOM     69  F   UNL A   1      38.926  26.358  30.008  1.00  0.00    -0.203 F 
ATOM     70  F   UNL A   1      42.088  27.525  25.715  1.00  0.00    -0.200 F 
ATOM     71  C   UNL A   1      40.607  26.051  26.815  1.00  0.00     0.200 A 
ATOM     72  F   UNL A   1      39.113  24.615  27.946  1.00  0.00    -0.200 F 
ATOM     73  F   UNL A   1      40.677  25.191  25.789  1.00  0.00    -0.200 F 
ENDBRANCH  49  63
BRANCH  50  74
ATOM     74  C   UNL A   1      39.627  33.923  36.883  1.00  0.00     0.064 A 
ATOM     75  C   UNL A   1      38.843  33.508  37.968  1.00  0.00     0.173 A 
ATOM     76  C   UNL A   1      40.245  35.179  36.969  1.00  0.00     0.173 A 
ATOM     77  F   UNL A   1      38.219  32.321  37.928  1.00  0.00    -0.203 F 
ATOM     78  C   UNL A   1      38.654  34.330  39.078  1.00  0.00     0.198 A 
ATOM     79  C   UNL A   1      40.081  35.987  38.092  1.00  0.00     0.198 A 
ATOM     80  F   UNL A   1      41.014  35.620  35.962  1.00  0.00    -0.203 F 
ATOM     81  F   UNL A   1      37.852  33.933  40.074  1.00  0.00    -0.200 F 
ATOM     82  C   UNL A   1      39.276  35.567  39.140  1.00  0.00     0.200 A 
ATOM     83  F   UNL A   1      40.698  37.174  38.156  1.00  0.00    -0.200 F 
ATOM     84  F   UNL A   1      39.093  36.359  40.205  1.00  0.00    -0.200 F 
ENDBRANCH  50  74
BRANCH  62  85
ATOM     85  C   UNL A   1      44.064  28.851  35.118  1.00  0.00     0.064 A 
ATOM     86  C   UNL A   1      45.348  29.385  34.943  1.00  0.00     0.173 A 
ATOM     87  C   UNL A   1      43.915  27.771  36.003  1.00  0.00     0.173 A 
ATOM     88  F   UNL A   1      45.544  30.408  34.098  1.00  0.00    -0.203 F 
ATOM     89  C   UNL A   1      46.444  28.843  35.608  1.00  0.00     0.198 A 
ATOM     90  C   UNL A   1      45.007  27.253  36.690  1.00  0.00     0.198 A 
ATOM     91  F   UNL A   1      42.705  27.230  36.211  1.00  0.00    -0.203 F 
ATOM     92  F   UNL A   1      47.670  29.338  35.388  1.00  0.00    -0.200 F 
ATOM     93  C   UNL A   1      46.272  27.784  36.486  1.00  0.00     0.200 A 
ATOM     94  F   UNL A   1      44.836  26.239  37.550  1.00  0.00    -0.200 F 
ATOM     95  F   UNL A   1      47.327  27.268  37.132  1.00  0.00    -0.200 F 
ENDBRANCH  62  85
ENDBRANCH  36  37
ENDBRANCH  28  31
ENDBRANCH  26  27
ENDBRANCH  25  26
ENDBRANCH   1  25
TORSDOF 14
ENDMDL
