MODEL 1
REMARK VINA RESULT:     -13.0      0.000      0.000
REMARK SMILES CN(C)C(=O)CCNC(=O)NC[C@H]1CC[C@@H](C(=O)NCCCNC(=O)c2ccc(-c3c4nc(c(-c5c(F)c(F)c(F)c(F)c5F)c5ccc([nH]5)c(-c5c(F)c(F)c(F)c(F)c5F)c5nc(c(-c6c(F)c(F)c(F)c(F)c6F)c6ccc3[nH]6)C=C5)C=C4)cc2)CC1
REMARK SMILES IDX 17 1 18 2 19 3 16 5 13 6 14 7 90 8 15 9 89 10 12 11 11 12
REMARK SMILES IDX 8 13 9 14 10 16 7 18 6 19 4 20 1 21 2 22 3 23 5 24 20 25
REMARK SMILES IDX 21 26 22 27 23 28 24 29 25 31 26 32 27 33 88 34 28 35 87 36
REMARK SMILES IDX 29 37 30 38 31 39 81 40 32 41 86 42 80 43 82 44 33 45 85 46
REMARK SMILES IDX 79 47 78 48 34 50 66 51 46 52 65 53 47 54 50 55 64 56 83 57
REMARK SMILES IDX 48 58 49 59 63 61 84 62 51 63 35 64 36 65 44 66 37 67 38 68
REMARK SMILES IDX 42 69 45 70 39 71 40 72 43 73 41 74 67 75 68 76 76 77 69 78
REMARK SMILES IDX 70 79 74 80 77 81 71 82 72 83 75 84 73 85 52 86 53 87 61 88
REMARK SMILES IDX 54 89 55 90 59 91 62 92 56 93 57 94 60 95 58 96
REMARK H PARENT 19 4 8 15 11 17 23 30 82 49 50 60
REMARK Flexibility Score: inf
ROOT
ATOM      1  C   UNL A   1      30.424  29.319  22.993  1.00  0.00     0.223 C 
ATOM      2  O   UNL A   1      29.816  30.264  22.471  1.00  0.00    -0.275 OA
ATOM      3  N   UNL A   1      31.366  29.673  23.897  1.00  0.00    -0.356 N 
ATOM      4  H   UNL A   1      31.470  30.648  23.990  1.00  0.00     0.163 HD
ENDROOT
BRANCH   1   5
ATOM      5  C   UNL A   1      30.042  27.883  22.598  1.00  0.00     0.078 C 
ATOM      6  C   UNL A   1      30.740  25.466  24.294  1.00  0.00     0.008 C 
ATOM      7  C   UNL A   1      29.508  26.352  24.594  1.00  0.00     0.006 C 
ATOM      8  C   UNL A   1      31.730  26.037  23.267  1.00  0.00     0.006 C 
ATOM      9  C   UNL A   1      28.981  27.211  23.460  1.00  0.00     0.014 C 
ATOM     10  C   UNL A   1      31.159  26.936  22.181  1.00  0.00     0.014 C 
BRANCH   6  11
ATOM     11  C   UNL A   1      31.409  25.166  25.665  1.00  0.00     0.121 C 
BRANCH  11  12
ATOM     12  N   UNL A   1      30.606  24.489  26.657  1.00  0.00    -0.338 N 
ATOM     13  N   UNL A   1      30.875  22.169  26.204  1.00  0.00    -0.338 N 
ATOM     14  C   UNL A   1      30.313  23.195  26.860  1.00  0.00     0.314 C 
ATOM     15  H   UNL A   1      30.409  21.321  26.391  1.00  0.00     0.165 HD
ATOM     16  O   UNL A   1      29.448  22.921  27.695  1.00  0.00    -0.249 OA
ATOM     17  H   UNL A   1      30.191  25.096  27.313  1.00  0.00     0.165 HD
BRANCH  13  18
ATOM     18  C   UNL A   1      31.997  21.975  25.287  1.00  0.00     0.127 C 
BRANCH  18  19
ATOM     19  C   UNL A   1      32.493  20.538  25.224  1.00  0.00     0.121 C 
BRANCH  19  20
ATOM     20  C   UNL A   1      32.376  19.934  23.843  1.00  0.00     0.223 C 
ATOM     21  C   UNL A   1      32.362  18.005  22.355  1.00  0.00     0.146 C 
ATOM     22  N   UNL A   1      32.463  18.557  23.701  1.00  0.00    -0.349 N 
ATOM     23  C   UNL A   1      32.667  17.615  24.791  1.00  0.00     0.146 C 
ATOM     24  O   UNL A   1      32.209  20.684  22.878  1.00  0.00    -0.275 OA
ENDBRANCH  19  20
ENDBRANCH  18  19
ENDBRANCH  13  18
ENDBRANCH  11  12
ENDBRANCH   6  11
ENDBRANCH   1   5
BRANCH   3  25
ATOM     25  C   UNL A   1      32.253  28.919  24.752  1.00  0.00     0.117 C 
BRANCH  25  26
ATOM     26  C   UNL A   1      31.756  28.819  26.194  1.00  0.00     0.042 C 
BRANCH  26  27
ATOM     27  C   UNL A   1      32.690  29.427  27.230  1.00  0.00     0.118 C 
BRANCH  27  28
ATOM     28  N   UNL A   1      32.681  30.875  27.209  1.00  0.00    -0.352 N 
ATOM     29  C   UNL A   1      33.623  31.790  27.582  1.00  0.00     0.251 C 
ATOM     30  H   UNL A   1      31.848  31.270  26.863  1.00  0.00     0.163 HD
ATOM     31  O   UNL A   1      33.317  32.978  27.611  1.00  0.00    -0.269 OA
BRANCH  29  32
ATOM     32  C   UNL A   1      34.996  31.407  27.972  1.00  0.00     0.039 A 
ATOM     33  C   UNL A   1      35.166  30.098  28.424  1.00  0.00     0.014 A 
ATOM     34  C   UNL A   1      36.043  32.319  28.092  1.00  0.00     0.014 A 
ATOM     35  C   UNL A   1      36.351  29.693  29.026  1.00  0.00     0.010 A 
ATOM     36  C   UNL A   1      37.256  31.909  28.659  1.00  0.00     0.010 A 
ATOM     37  C   UNL A   1      37.400  30.604  29.166  1.00  0.00    -0.014 A 
BRANCH  37  38
ATOM     38  C   UNL A   1      38.555  30.254  30.025  1.00  0.00     0.031 A 
ATOM     39  C   UNL A   1      39.636  29.388  29.443  1.00  0.00     0.074 A 
ATOM     40  C   UNL A   1      38.685  30.773  31.259  1.00  0.00     0.049 A 
ATOM     41  N   UNL A   1      40.643  28.797  30.032  1.00  0.00    -0.248 NA
ATOM     42  C   UNL A   1      39.571  29.159  27.990  1.00  0.00     0.031 C 
ATOM     43  C   UNL A   1      37.772  31.738  31.867  1.00  0.00     0.029 A 
ATOM     44  N   UNL A   1      39.649  30.573  32.215  1.00  0.00    -0.354 N 
ATOM     45  C   UNL A   1      41.294  28.082  29.033  1.00  0.00     0.074 A 
ATOM     46  C   UNL A   1      40.581  28.325  27.800  1.00  0.00     0.031 C 
ATOM     47  C   UNL A   1      38.227  32.060  33.089  1.00  0.00     0.029 A 
ATOM     48  C   UNL A   1      39.413  31.259  33.380  1.00  0.00     0.049 A 
ATOM     49  H   UNL A   1      40.432  29.992  32.079  1.00  0.00     0.167 HD
ATOM     50  C   UNL A   1      42.379  27.282  29.150  1.00  0.00     0.037 A 
ATOM     51  C   UNL A   1      40.057  31.201  34.562  1.00  0.00     0.037 A 
ATOM     52  C   UNL A   1      43.081  27.079  30.391  1.00  0.00     0.049 A 
ATOM     53  C   UNL A   1      41.220  30.250  34.692  1.00  0.00     0.074 A 
ATOM     54  C   UNL A   1      44.146  26.242  30.665  1.00  0.00     0.029 A 
ATOM     55  N   UNL A   1      42.783  27.750  31.572  1.00  0.00    -0.354 N 
ATOM     56  N   UNL A   1      41.761  29.472  33.783  1.00  0.00    -0.248 NA
ATOM     57  C   UNL A   1      41.847  30.148  36.016  1.00  0.00     0.031 C 
ATOM     58  C   UNL A   1      44.466  26.377  32.022  1.00  0.00     0.029 A 
ATOM     59  C   UNL A   1      43.637  27.339  32.580  1.00  0.00     0.049 A 
ATOM     60  H   UNL A   1      42.069  28.420  31.676  1.00  0.00     0.167 HD
ATOM     61  C   UNL A   1      42.790  28.793  34.419  1.00  0.00     0.074 A 
ATOM     62  C   UNL A   1      42.820  29.278  35.785  1.00  0.00     0.031 C 
ATOM     63  C   UNL A   1      43.630  27.846  33.930  1.00  0.00     0.037 A 
BRANCH  50  64
ATOM     64  C   UNL A   1      42.799  26.510  27.932  1.00  0.00     0.064 A 
ATOM     65  C   UNL A   1      43.722  27.015  27.003  1.00  0.00     0.173 A 
ATOM     66  C   UNL A   1      42.231  25.253  27.669  1.00  0.00     0.173 A 
ATOM     67  F   UNL A   1      44.275  28.223  27.191  1.00  0.00    -0.203 F 
ATOM     68  C   UNL A   1      44.030  26.310  25.841  1.00  0.00     0.198 A 
ATOM     69  C   UNL A   1      42.564  24.537  26.522  1.00  0.00     0.198 A 
ATOM     70  F   UNL A   1      41.340  24.723  28.520  1.00  0.00    -0.203 F 
ATOM     71  F   UNL A   1      44.862  26.842  24.936  1.00  0.00    -0.200 F 
ATOM     72  C   UNL A   1      43.454  25.071  25.603  1.00  0.00     0.200 A 
ATOM     73  F   UNL A   1      42.009  23.338  26.299  1.00  0.00    -0.200 F 
ATOM     74  F   UNL A   1      43.743  24.398  24.480  1.00  0.00    -0.200 F 
ENDBRANCH  50  64
BRANCH  51  75
ATOM     75  C   UNL A   1      39.582  32.009  35.720  1.00  0.00     0.064 A 
ATOM     76  C   UNL A   1      40.132  33.265  36.009  1.00  0.00     0.173 A 
ATOM     77  C   UNL A   1      38.569  31.536  36.571  1.00  0.00     0.173 A 
ATOM     78  F   UNL A   1      41.124  33.753  35.249  1.00  0.00    -0.203 F 
ATOM     79  C   UNL A   1      39.694  34.013  37.103  1.00  0.00     0.198 A 
ATOM     80  C   UNL A   1      38.107  32.299  37.641  1.00  0.00     0.198 A 
ATOM     81  F   UNL A   1      38.013  30.336  36.352  1.00  0.00    -0.203 F 
ATOM     82  F   UNL A   1      40.271  35.190  37.381  1.00  0.00    -0.200 F 
ATOM     83  C   UNL A   1      38.675  33.533  37.912  1.00  0.00     0.200 A 
ATOM     84  F   UNL A   1      37.112  31.836  38.411  1.00  0.00    -0.200 F 
ATOM     85  F   UNL A   1      38.248  34.256  38.956  1.00  0.00    -0.200 F 
ENDBRANCH  51  75
BRANCH  63  86
ATOM     86  C   UNL A   1      44.657  27.301  34.878  1.00  0.00     0.064 A 
ATOM     87  C   UNL A   1      45.910  27.911  35.033  1.00  0.00     0.173 A 
ATOM     88  C   UNL A   1      44.373  26.168  35.654  1.00  0.00     0.173 A 
ATOM     89  F   UNL A   1      46.232  28.988  34.301  1.00  0.00    -0.203 F 
ATOM     90  C   UNL A   1      46.856  27.383  35.906  1.00  0.00     0.198 A 
ATOM     91  C   UNL A   1      45.309  25.661  36.550  1.00  0.00     0.198 A 
ATOM     92  F   UNL A   1      43.183  25.556  35.548  1.00  0.00    -0.203 F 
ATOM     93  F   UNL A   1      48.069  27.945  35.996  1.00  0.00    -0.200 F 
ATOM     94  C   UNL A   1      46.554  26.263  36.667  1.00  0.00     0.200 A 
ATOM     95  F   UNL A   1      45.011  24.587  37.293  1.00  0.00    -0.200 F 
ATOM     96  F   UNL A   1      47.467  25.756  37.507  1.00  0.00    -0.200 F 
ENDBRANCH  63  86
ENDBRANCH  37  38
ENDBRANCH  29  32
ENDBRANCH  27  28
ENDBRANCH  26  27
ENDBRANCH  25  26
ENDBRANCH   3  25
TORSDOF 15
ENDMDL
MODEL 2
REMARK VINA RESULT:     -13.0      2.260      8.260
REMARK SMILES CN(C)C(=O)CCNC(=O)NC[C@H]1CC[C@@H](C(=O)NCCCNC(=O)c2ccc(-c3c4nc(c(-c5c(F)c(F)c(F)c(F)c5F)c5ccc([nH]5)c(-c5c(F)c(F)c(F)c(F)c5F)c5nc(c(-c6c(F)c(F)c(F)c(F)c6F)c6ccc3[nH]6)C=C5)C=C4)cc2)CC1
REMARK SMILES IDX 17 1 18 2 19 3 16 5 13 6 14 7 90 8 15 9 89 10 12 11 11 12
REMARK SMILES IDX 8 13 9 14 10 16 7 18 6 19 4 20 1 21 2 22 3 23 5 24 20 25
REMARK SMILES IDX 21 26 22 27 23 28 24 29 25 31 26 32 27 33 88 34 28 35 87 36
REMARK SMILES IDX 29 37 30 38 31 39 81 40 32 41 86 42 80 43 82 44 33 45 85 46
REMARK SMILES IDX 79 47 78 48 34 50 66 51 46 52 65 53 47 54 50 55 64 56 83 57
REMARK SMILES IDX 48 58 49 59 63 61 84 62 51 63 35 64 36 65 44 66 37 67 38 68
REMARK SMILES IDX 42 69 45 70 39 71 40 72 43 73 41 74 67 75 68 76 76 77 69 78
REMARK SMILES IDX 70 79 74 80 77 81 71 82 72 83 75 84 73 85 52 86 53 87 61 88
REMARK SMILES IDX 54 89 55 90 59 91 62 92 56 93 57 94 60 95 58 96
REMARK H PARENT 19 4 8 15 11 17 23 30 82 49 50 60
REMARK Flexibility Score: inf
ROOT
ATOM      1  C   UNL A   1      33.003  28.855  25.401  1.00  0.00     0.223 C 
ATOM      2  O   UNL A   1      33.519  28.835  24.274  1.00  0.00    -0.275 OA
ATOM      3  N   UNL A   1      32.659  30.084  25.851  1.00  0.00    -0.356 N 
ATOM      4  H   UNL A   1      32.904  30.809  25.231  1.00  0.00     0.163 HD
ENDROOT
BRANCH   1   5
ATOM      5  C   UNL A   1      32.785  27.525  26.141  1.00  0.00     0.078 C 
ATOM      6  C   UNL A   1      31.614  25.068  24.801  1.00  0.00     0.008 C 
ATOM      7  C   UNL A   1      33.109  25.442  24.668  1.00  0.00     0.006 C 
ATOM      8  C   UNL A   1      30.714  26.151  25.415  1.00  0.00     0.006 C 
ATOM      9  C   UNL A   1      33.685  26.370  25.719  1.00  0.00     0.014 C 
ATOM     10  C   UNL A   1      31.353  27.092  26.425  1.00  0.00     0.014 C 
BRANCH   6  11
ATOM     11  C   UNL A   1      31.142  24.633  23.385  1.00  0.00     0.121 C 
BRANCH  11  12
ATOM     12  N   UNL A   1      32.069  24.824  22.293  1.00  0.00    -0.338 N 
ATOM     13  N   UNL A   1      31.602  27.000  21.449  1.00  0.00    -0.338 N 
ATOM     14  C   UNL A   1      32.234  25.818  21.405  1.00  0.00     0.314 C 
ATOM     15  H   UNL A   1      31.746  27.518  20.624  1.00  0.00     0.165 HD
ATOM     16  O   UNL A   1      33.006  25.628  20.461  1.00  0.00    -0.249 OA
ATOM     17  H   UNL A   1      32.704  24.081  22.177  1.00  0.00     0.165 HD
BRANCH  13  18
ATOM     18  C   UNL A   1      30.760  27.723  22.399  1.00  0.00     0.127 C 
BRANCH  18  19
ATOM     19  C   UNL A   1      30.604  29.202  22.075  1.00  0.00     0.121 C 
BRANCH  19  20
ATOM     20  C   UNL A   1      29.718  29.932  23.058  1.00  0.00     0.223 C 
ATOM     21  C   UNL A   1      27.725  31.236  23.570  1.00  0.00     0.146 C 
ATOM     22  N   UNL A   1      28.551  30.526  22.600  1.00  0.00    -0.349 N 
ATOM     23  C   UNL A   1      28.092  30.513  21.220  1.00  0.00     0.146 C 
ATOM     24  O   UNL A   1      30.060  29.983  24.242  1.00  0.00    -0.275 OA
ENDBRANCH  19  20
ENDBRANCH  18  19
ENDBRANCH  13  18
ENDBRANCH  11  12
ENDBRANCH   6  11
ENDBRANCH   1   5
BRANCH   3  25
ATOM     25  C   UNL A   1      32.010  30.554  27.053  1.00  0.00     0.117 C 
BRANCH  25  26
ATOM     26  C   UNL A   1      31.439  31.965  26.915  1.00  0.00     0.042 C 
BRANCH  26  27
ATOM     27  C   UNL A   1      32.473  33.040  26.613  1.00  0.00     0.118 C 
BRANCH  27  28
ATOM     28  N   UNL A   1      32.515  34.074  27.627  1.00  0.00    -0.352 N 
ATOM     29  C   UNL A   1      33.376  34.287  28.665  1.00  0.00     0.251 C 
ATOM     30  H   UNL A   1      31.795  34.741  27.555  1.00  0.00     0.163 HD
ATOM     31  O   UNL A   1      33.109  35.158  29.488  1.00  0.00    -0.269 OA
BRANCH  29  32
ATOM     32  C   UNL A   1      34.612  33.499  28.850  1.00  0.00     0.039 A 
ATOM     33  C   UNL A   1      34.443  32.144  29.139  1.00  0.00     0.014 A 
ATOM     34  C   UNL A   1      35.881  34.070  28.942  1.00  0.00     0.014 A 
ATOM     35  C   UNL A   1      35.511  31.358  29.553  1.00  0.00     0.010 A 
ATOM     36  C   UNL A   1      36.971  33.275  29.316  1.00  0.00     0.010 A 
ATOM     37  C   UNL A   1      36.783  31.925  29.664  1.00  0.00    -0.014 A 
BRANCH  37  38
ATOM     38  C   UNL A   1      37.859  31.165  30.341  1.00  0.00     0.031 A 
ATOM     39  C   UNL A   1      38.059  31.376  31.815  1.00  0.00     0.074 A 
ATOM     40  C   UNL A   1      38.577  30.239  29.680  1.00  0.00     0.049 A 
ATOM     41  N   UNL A   1      39.032  30.978  32.593  1.00  0.00    -0.248 NA
ATOM     42  C   UNL A   1      37.010  32.142  32.508  1.00  0.00     0.031 C 
ATOM     43  C   UNL A   1      38.369  29.850  28.287  1.00  0.00     0.029 A 
ATOM     44  N   UNL A   1      39.615  29.447  30.100  1.00  0.00    -0.354 N 
ATOM     45  C   UNL A   1      38.741  31.496  33.850  1.00  0.00     0.074 A 
ATOM     46  C   UNL A   1      37.495  32.220  33.737  1.00  0.00     0.031 C 
ATOM     47  C   UNL A   1      39.241  28.879  27.970  1.00  0.00     0.029 A 
ATOM     48  C   UNL A   1      40.123  28.642  29.110  1.00  0.00     0.049 A 
ATOM     49  H   UNL A   1      39.962  29.455  31.020  1.00  0.00     0.167 HD
ATOM     50  C   UNL A   1      39.466  31.385  34.988  1.00  0.00     0.037 A 
ATOM     51  C   UNL A   1      41.210  27.847  29.116  1.00  0.00     0.037 A 
ATOM     52  C   UNL A   1      40.693  30.636  35.073  1.00  0.00     0.049 A 
ATOM     53  C   UNL A   1      42.045  27.794  30.371  1.00  0.00     0.074 A 
ATOM     54  C   UNL A   1      41.562  30.503  36.139  1.00  0.00     0.029 A 
ATOM     55  N   UNL A   1      41.212  29.874  34.033  1.00  0.00    -0.354 N 
ATOM     56  N   UNL A   1      41.844  28.385  31.526  1.00  0.00    -0.248 NA
ATOM     57  C   UNL A   1      43.268  26.984  30.318  1.00  0.00     0.031 C 
ATOM     58  C   UNL A   1      42.629  29.692  35.730  1.00  0.00     0.029 A 
ATOM     59  C   UNL A   1      42.396  29.275  34.428  1.00  0.00     0.049 A 
ATOM     60  H   UNL A   1      40.799  29.774  33.145  1.00  0.00     0.167 HD
ATOM     61  C   UNL A   1      42.909  28.019  32.337  1.00  0.00     0.074 A 
ATOM     62  C   UNL A   1      43.736  27.125  31.550  1.00  0.00     0.031 C 
ATOM     63  C   UNL A   1      43.191  28.393  33.610  1.00  0.00     0.037 A 
BRANCH  50  64
ATOM     64  C   UNL A   1      38.994  32.163  36.183  1.00  0.00     0.064 A 
ATOM     65  C   UNL A   1      39.423  33.473  36.445  1.00  0.00     0.173 A 
ATOM     66  C   UNL A   1      38.123  31.565  37.108  1.00  0.00     0.173 A 
ATOM     67  F   UNL A   1      40.277  34.083  35.609  1.00  0.00    -0.203 F 
ATOM     68  C   UNL A   1      39.030  34.139  37.605  1.00  0.00     0.198 A 
ATOM     69  C   UNL A   1      37.707  32.244  38.250  1.00  0.00     0.198 A 
ATOM     70  F   UNL A   1      37.683  30.313  36.910  1.00  0.00    -0.203 F 
ATOM     71  F   UNL A   1      39.506  35.363  37.869  1.00  0.00    -0.200 F 
ATOM     72  C   UNL A   1      38.170  33.525  38.504  1.00  0.00     0.200 A 
ATOM     73  F   UNL A   1      36.872  31.650  39.114  1.00  0.00    -0.200 F 
ATOM     74  F   UNL A   1      37.800  34.163  39.624  1.00  0.00    -0.200 F 
ENDBRANCH  50  64
BRANCH  51  75
ATOM     75  C   UNL A   1      41.604  27.099  27.890  1.00  0.00     0.064 A 
ATOM     76  C   UNL A   1      41.244  25.758  27.704  1.00  0.00     0.173 A 
ATOM     77  C   UNL A   1      42.360  27.711  26.875  1.00  0.00     0.173 A 
ATOM     78  F   UNL A   1      40.549  25.113  28.654  1.00  0.00    -0.203 F 
ATOM     79  C   UNL A   1      41.628  25.056  26.560  1.00  0.00     0.198 A 
ATOM     80  C   UNL A   1      42.711  27.021  25.717  1.00  0.00     0.198 A 
ATOM     81  F   UNL A   1      42.745  28.989  27.001  1.00  0.00    -0.203 F 
ATOM     82  F   UNL A   1      41.307  23.762  26.433  1.00  0.00    -0.200 F 
ATOM     83  C   UNL A   1      42.352  25.692  25.564  1.00  0.00     0.200 A 
ATOM     84  F   UNL A   1      43.400  27.645  24.750  1.00  0.00    -0.200 F 
ATOM     85  F   UNL A   1      42.711  25.020  24.460  1.00  0.00    -0.200 F 
ENDBRANCH  51  75
BRANCH  63  86
ATOM     86  C   UNL A   1      44.430  27.811  34.224  1.00  0.00     0.064 A 
ATOM     87  C   UNL A   1      45.663  28.475  34.159  1.00  0.00     0.173 A 
ATOM     88  C   UNL A   1      44.375  26.584  34.901  1.00  0.00     0.173 A 
ATOM     89  F   UNL A   1      45.768  29.644  33.509  1.00  0.00    -0.203 F 
ATOM     90  C   UNL A   1      46.806  27.913  34.720  1.00  0.00     0.198 A 
ATOM     91  C   UNL A   1      45.513  26.040  35.489  1.00  0.00     0.198 A 
ATOM     92  F   UNL A   1      43.216  25.916  34.998  1.00  0.00    -0.203 F 
ATOM     93  F   UNL A   1      47.986  28.535  34.596  1.00  0.00    -0.200 F 
ATOM     94  C   UNL A   1      46.729  26.700  35.388  1.00  0.00     0.200 A 
ATOM     95  F   UNL A   1      45.435  24.875  36.145  1.00  0.00    -0.200 F 
ATOM     96  F   UNL A   1      47.831  26.160  35.928  1.00  0.00    -0.200 F 
ENDBRANCH  63  86
ENDBRANCH  37  38
ENDBRANCH  29  32
ENDBRANCH  27  28
ENDBRANCH  26  27
ENDBRANCH  25  26
ENDBRANCH   3  25
TORSDOF 15
ENDMDL
MODEL 3
REMARK VINA RESULT:     -12.8      2.389      4.460
REMARK SMILES CN(C)C(=O)CCNC(=O)NC[C@H]1CC[C@@H](C(=O)NCCCNC(=O)c2ccc(-c3c4nc(c(-c5c(F)c(F)c(F)c(F)c5F)c5ccc([nH]5)c(-c5c(F)c(F)c(F)c(F)c5F)c5nc(c(-c6c(F)c(F)c(F)c(F)c6F)c6ccc3[nH]6)C=C5)C=C4)cc2)CC1
REMARK SMILES IDX 17 1 18 2 19 3 16 5 13 6 14 7 90 8 15 9 89 10 12 11 11 12
REMARK SMILES IDX 8 13 9 14 10 16 7 18 6 19 4 20 1 21 2 22 3 23 5 24 20 25
REMARK SMILES IDX 21 26 22 27 23 28 24 29 25 31 26 32 27 33 88 34 28 35 87 36
REMARK SMILES IDX 29 37 30 38 31 39 81 40 32 41 86 42 80 43 82 44 33 45 85 46
REMARK SMILES IDX 79 47 78 48 34 50 66 51 46 52 65 53 47 54 50 55 64 56 83 57
REMARK SMILES IDX 48 58 49 59 63 61 84 62 51 63 35 64 36 65 44 66 37 67 38 68
REMARK SMILES IDX 42 69 45 70 39 71 40 72 43 73 41 74 67 75 68 76 76 77 69 78
REMARK SMILES IDX 70 79 74 80 77 81 71 82 72 83 75 84 73 85 52 86 53 87 61 88
REMARK SMILES IDX 54 89 55 90 59 91 62 92 56 93 57 94 60 95 58 96
REMARK H PARENT 19 4 8 15 11 17 23 30 82 49 50 60
REMARK Flexibility Score: inf
ROOT
ATOM      1  C   UNL A   1      33.123  28.761  25.389  1.00  0.00     0.223 C 
ATOM      2  O   UNL A   1      33.499  28.715  24.208  1.00  0.00    -0.275 OA
ATOM      3  N   UNL A   1      32.971  30.006  25.893  1.00  0.00    -0.356 N 
ATOM      4  H   UNL A   1      33.220  30.717  25.258  1.00  0.00     0.163 HD
ENDROOT
BRANCH   1   5
ATOM      5  C   UNL A   1      32.849  27.442  26.131  1.00  0.00     0.078 C 
ATOM      6  C   UNL A   1      31.577  25.034  24.794  1.00  0.00     0.008 C 
ATOM      7  C   UNL A   1      33.087  25.344  24.662  1.00  0.00     0.006 C 
ATOM      8  C   UNL A   1      30.722  26.155  25.405  1.00  0.00     0.006 C 
ATOM      9  C   UNL A   1      33.700  26.250  25.712  1.00  0.00     0.014 C 
ATOM     10  C   UNL A   1      31.400  27.070  26.414  1.00  0.00     0.014 C 
BRANCH   6  11
ATOM     11  C   UNL A   1      31.089  24.617  23.378  1.00  0.00     0.121 C 
BRANCH  11  12
ATOM     12  N   UNL A   1      32.017  24.788  22.283  1.00  0.00    -0.338 N 
ATOM     13  N   UNL A   1      31.598  26.975  21.445  1.00  0.00    -0.338 N 
ATOM     14  C   UNL A   1      32.201  25.779  21.396  1.00  0.00     0.314 C 
ATOM     15  H   UNL A   1      31.751  27.492  20.621  1.00  0.00     0.165 HD
ATOM     16  O   UNL A   1      32.966  25.573  20.450  1.00  0.00    -0.249 OA
ATOM     17  H   UNL A   1      32.634  24.030  22.164  1.00  0.00     0.165 HD
BRANCH  13  18
ATOM     18  C   UNL A   1      30.776  27.717  22.399  1.00  0.00     0.127 C 
BRANCH  18  19
ATOM     19  C   UNL A   1      30.663  29.201  22.085  1.00  0.00     0.121 C 
BRANCH  19  20
ATOM     20  C   UNL A   1      29.813  29.954  23.083  1.00  0.00     0.223 C 
ATOM     21  C   UNL A   1      27.845  31.280  23.636  1.00  0.00     0.146 C 
ATOM     22  N   UNL A   1      28.636  30.548  22.652  1.00  0.00    -0.349 N 
ATOM     23  C   UNL A   1      28.134  30.516  21.287  1.00  0.00     0.146 C 
ATOM     24  O   UNL A   1      30.192  30.021  24.255  1.00  0.00    -0.275 OA
ENDBRANCH  19  20
ENDBRANCH  18  19
ENDBRANCH  13  18
ENDBRANCH  11  12
ENDBRANCH   6  11
ENDBRANCH   1   5
BRANCH   3  25
ATOM     25  C   UNL A   1      32.520  30.511  27.169  1.00  0.00     0.117 C 
BRANCH  25  26
ATOM     26  C   UNL A   1      31.636  31.751  27.047  1.00  0.00     0.042 C 
BRANCH  26  27
ATOM     27  C   UNL A   1      32.367  33.008  26.595  1.00  0.00     0.118 C 
BRANCH  27  28
ATOM     28  N   UNL A   1      32.287  34.080  27.567  1.00  0.00    -0.352 N 
ATOM     29  C   UNL A   1      33.073  34.385  28.641  1.00  0.00     0.251 C 
ATOM     30  H   UNL A   1      31.533  34.697  27.428  1.00  0.00     0.163 HD
ATOM     31  O   UNL A   1      32.706  35.267  29.411  1.00  0.00    -0.269 OA
BRANCH  29  32
ATOM     32  C   UNL A   1      34.341  33.683  28.926  1.00  0.00     0.039 A 
ATOM     33  C   UNL A   1      34.246  32.530  29.707  1.00  0.00     0.014 A 
ATOM     34  C   UNL A   1      35.596  34.212  28.629  1.00  0.00     0.014 A 
ATOM     35  C   UNL A   1      35.381  31.917  30.225  1.00  0.00     0.010 A 
ATOM     36  C   UNL A   1      36.747  33.577  29.112  1.00  0.00     0.010 A 
ATOM     37  C   UNL A   1      36.641  32.450  29.947  1.00  0.00    -0.014 A 
BRANCH  37  38
ATOM     38  C   UNL A   1      37.819  31.956  30.698  1.00  0.00     0.031 A 
ATOM     39  C   UNL A   1      38.710  30.944  30.035  1.00  0.00     0.074 A 
ATOM     40  C   UNL A   1      38.140  32.467  31.899  1.00  0.00     0.049 A 
ATOM     41  N   UNL A   1      39.683  30.230  30.537  1.00  0.00    -0.248 NA
ATOM     42  C   UNL A   1      38.470  30.710  28.602  1.00  0.00     0.031 C 
ATOM     43  C   UNL A   1      37.430  33.554  32.569  1.00  0.00     0.029 A 
ATOM     44  N   UNL A   1      39.159  32.149  32.761  1.00  0.00    -0.354 N 
ATOM     45  C   UNL A   1      40.129  29.421  29.498  1.00  0.00     0.074 A 
ATOM     46  C   UNL A   1      39.334  29.744  28.334  1.00  0.00     0.031 C 
ATOM     47  C   UNL A   1      38.045  33.826  33.732  1.00  0.00     0.029 A 
ATOM     48  C   UNL A   1      39.136  32.875  33.927  1.00  0.00     0.049 A 
ATOM     49  H   UNL A   1      39.840  31.467  32.564  1.00  0.00     0.167 HD
ATOM     50  C   UNL A   1      41.103  28.482  29.529  1.00  0.00     0.037 A 
ATOM     51  C   UNL A   1      39.881  32.744  35.041  1.00  0.00     0.037 A 
ATOM     52  C   UNL A   1      41.893  28.201  30.700  1.00  0.00     0.049 A 
ATOM     53  C   UNL A   1      40.913  31.645  35.081  1.00  0.00     0.074 A 
ATOM     54  C   UNL A   1      42.858  27.230  30.890  1.00  0.00     0.029 A 
ATOM     55  N   UNL A   1      41.807  28.919  31.887  1.00  0.00    -0.354 N 
ATOM     56  N   UNL A   1      41.251  30.790  34.143  1.00  0.00    -0.248 NA
ATOM     57  C   UNL A   1      41.650  31.475  36.339  1.00  0.00     0.031 C 
ATOM     58  C   UNL A   1      43.327  27.336  32.205  1.00  0.00     0.029 A 
ATOM     59  C   UNL A   1      42.695  28.408  32.817  1.00  0.00     0.049 A 
ATOM     60  H   UNL A   1      41.203  29.681  32.043  1.00  0.00     0.167 HD
ATOM     61  C   UNL A   1      42.239  29.985  34.693  1.00  0.00     0.074 A 
ATOM     62  C   UNL A   1      42.470  30.478  36.037  1.00  0.00     0.031 C 
ATOM     63  C   UNL A   1      42.891  28.927  34.148  1.00  0.00     0.037 A 
BRANCH  50  64
ATOM     64  C   UNL A   1      41.292  27.646  28.295  1.00  0.00     0.064 A 
ATOM     65  C   UNL A   1      40.580  26.457  28.076  1.00  0.00     0.173 A 
ATOM     66  C   UNL A   1      42.239  28.026  27.330  1.00  0.00     0.173 A 
ATOM     67  F   UNL A   1      39.682  26.032  28.979  1.00  0.00    -0.203 F 
ATOM     68  C   UNL A   1      40.836  25.662  26.960  1.00  0.00     0.198 A 
ATOM     69  C   UNL A   1      42.471  27.246  26.201  1.00  0.00     0.198 A 
ATOM     70  F   UNL A   1      42.951  29.151  27.490  1.00  0.00    -0.203 F 
ATOM     71  F   UNL A   1      40.192  24.496  26.807  1.00  0.00    -0.200 F 
ATOM     72  C   UNL A   1      41.778  26.058  26.023  1.00  0.00     0.200 A 
ATOM     73  F   UNL A   1      43.378  27.634  25.294  1.00  0.00    -0.200 F 
ATOM     74  F   UNL A   1      42.031  25.288  24.955  1.00  0.00    -0.200 F 
ENDBRANCH  50  64
BRANCH  51  75
ATOM     75  C   UNL A   1      39.637  33.622  36.219  1.00  0.00     0.064 A 
ATOM     76  C   UNL A   1      38.772  33.236  37.252  1.00  0.00     0.173 A 
ATOM     77  C   UNL A   1      40.261  34.876  36.334  1.00  0.00     0.173 A 
ATOM     78  F   UNL A   1      38.125  32.063  37.180  1.00  0.00    -0.203 F 
ATOM     79  C   UNL A   1      38.535  34.068  38.347  1.00  0.00     0.198 A 
ATOM     80  C   UNL A   1      40.052  35.690  37.445  1.00  0.00     0.198 A 
ATOM     81  F   UNL A   1      41.090  35.306  35.372  1.00  0.00    -0.203 F 
ATOM     82  F   UNL A   1      37.667  33.691  39.296  1.00  0.00    -0.200 F 
ATOM     83  C   UNL A   1      39.183  35.289  38.447  1.00  0.00     0.200 A 
ATOM     84  F   UNL A   1      40.692  36.864  37.544  1.00  0.00    -0.200 F 
ATOM     85  F   UNL A   1      38.963  36.083  39.504  1.00  0.00    -0.200 F 
ENDBRANCH  51  75
BRANCH  63  86
ATOM     86  C   UNL A   1      43.925  28.260  35.005  1.00  0.00     0.064 A 
ATOM     87  C   UNL A   1      43.603  27.177  35.836  1.00  0.00     0.173 A 
ATOM     88  C   UNL A   1      45.257  28.698  34.978  1.00  0.00     0.173 A 
ATOM     89  F   UNL A   1      42.339  26.733  35.906  1.00  0.00    -0.203 F 
ATOM     90  C   UNL A   1      44.572  26.580  36.637  1.00  0.00     0.198 A 
ATOM     91  C   UNL A   1      46.230  28.079  35.755  1.00  0.00     0.198 A 
ATOM     92  F   UNL A   1      45.616  29.724  34.191  1.00  0.00    -0.203 F 
ATOM     93  F   UNL A   1      44.232  25.585  37.467  1.00  0.00    -0.200 F 
ATOM     94  C   UNL A   1      45.884  27.027  36.592  1.00  0.00     0.200 A 
ATOM     95  F   UNL A   1      47.500  28.503  35.702  1.00  0.00    -0.200 F 
ATOM     96  F   UNL A   1      46.816  26.451  37.364  1.00  0.00    -0.200 F 
ENDBRANCH  63  86
ENDBRANCH  37  38
ENDBRANCH  29  32
ENDBRANCH  27  28
ENDBRANCH  26  27
ENDBRANCH  25  26
ENDBRANCH   3  25
TORSDOF 15
ENDMDL
