MODEL 1
REMARK VINA RESULT:     -12.9      0.000      0.000
REMARK SMILES O=C(NCCCNC(=O)[C@]1([NH2+]C2CC2)CCC[C@@H](n2cc(Br)cn2)C1)c1ccc(-c2c3nc(c(-c4c(F)c(F)c(F)c(F)c4F)c4ccc([nH]4)c(-c4c(F)c(F)c(F)c(F)c4F)c4nc(c(-c5c(F)c(F)c(F)c(F)c5F)c5ccc2[nH]5)C=C4)C=C3)cc1
REMARK SMILES IDX 5 1 4 2 3 3 1 4 2 5 26 7 27 8 88 9 28 10 87 11 29 12 30 13
REMARK SMILES IDX 31 14 81 15 32 16 86 17 80 18 82 19 33 20 85 21 79 22 78 23
REMARK SMILES IDX 34 25 66 26 46 27 65 28 47 29 50 30 64 31 83 32 48 33 49 34
REMARK SMILES IDX 63 36 84 37 51 38 35 39 36 40 44 41 37 42 38 43 42 44 45 45
REMARK SMILES IDX 39 46 40 47 43 48 41 49 67 50 68 51 76 52 69 53 70 54 74 55
REMARK SMILES IDX 77 56 71 57 72 58 75 59 73 60 52 61 53 62 61 63 54 64 55 65
REMARK SMILES IDX 59 66 62 67 56 68 57 69 60 70 58 71 6 72 7 73 8 74 9 76
REMARK SMILES IDX 10 77 15 78 25 79 16 80 18 81 17 82 11 83 12 86 13 87 14 88
REMARK SMILES IDX 19 89 20 90 24 91 21 92 23 93 22 94
REMARK H PARENT 3 6 82 24 50 35 7 75 11 84 11 85
REMARK Flexibility Score: inf
ROOT
ATOM      1  C   UNL A   1      32.215  29.154  27.228  1.00  0.00     0.042 C 
ENDROOT
BRANCH   1   2
ATOM      2  C   UNL A   1      33.337  30.069  26.757  1.00  0.00     0.118 C 
BRANCH   2   3
ATOM      3  N   UNL A   1      33.591  31.225  27.593  1.00  0.00    -0.352 N 
ATOM      4  O   UNL A   1      34.590  32.885  28.655  1.00  0.00    -0.269 OA
ATOM      5  C   UNL A   1      34.702  31.741  28.198  1.00  0.00     0.251 C 
ATOM      6  H   UNL A   1      32.782  31.758  27.764  1.00  0.00     0.163 HD
BRANCH   5   7
ATOM      7  C   UNL A   1      35.980  31.013  28.418  1.00  0.00     0.039 A 
ATOM      8  C   UNL A   1      36.172  29.635  28.313  1.00  0.00     0.014 A 
ATOM      9  C   UNL A   1      37.077  31.818  28.785  1.00  0.00     0.014 A 
ATOM     10  C   UNL A   1      37.400  29.067  28.658  1.00  0.00     0.010 A 
ATOM     11  C   UNL A   1      38.306  31.260  29.115  1.00  0.00     0.010 A 
ATOM     12  C   UNL A   1      38.458  29.878  29.081  1.00  0.00    -0.014 A 
BRANCH  12  13
ATOM     13  C   UNL A   1      39.779  29.277  29.269  1.00  0.00     0.031 A 
ATOM     14  C   UNL A   1      40.169  29.123  30.701  1.00  0.00     0.074 A 
ATOM     15  C   UNL A   1      40.511  28.731  28.275  1.00  0.00     0.049 A 
ATOM     16  N   UNL A   1      41.200  29.615  31.307  1.00  0.00    -0.248 NA
ATOM     17  C   UNL A   1      39.235  28.418  31.596  1.00  0.00     0.031 C 
ATOM     18  C   UNL A   1      40.112  28.542  26.880  1.00  0.00     0.029 A 
ATOM     19  N   UNL A   1      41.737  28.127  28.325  1.00  0.00    -0.354 N 
ATOM     20  C   UNL A   1      41.143  29.134  32.615  1.00  0.00     0.074 A 
ATOM     21  C   UNL A   1      39.843  28.541  32.775  1.00  0.00     0.031 C 
ATOM     22  C   UNL A   1      40.969  27.683  26.280  1.00  0.00     0.029 A 
ATOM     23  C   UNL A   1      42.043  27.359  27.205  1.00  0.00     0.049 A 
ATOM     24  H   UNL A   1      42.350  28.226  29.089  1.00  0.00     0.167 HD
ATOM     25  C   UNL A   1      42.267  29.040  33.379  1.00  0.00     0.037 A 
ATOM     26  C   UNL A   1      43.068  26.477  27.067  1.00  0.00     0.037 A 
ATOM     27  C   UNL A   1      43.310  29.894  32.870  1.00  0.00     0.049 A 
ATOM     28  C   UNL A   1      44.073  26.789  28.109  1.00  0.00     0.074 A 
ATOM     29  C   UNL A   1      43.455  31.251  32.660  1.00  0.00     0.029 A 
ATOM     30  N   UNL A   1      44.326  29.299  32.168  1.00  0.00    -0.354 N 
ATOM     31  N   UNL A   1      44.815  27.858  28.115  1.00  0.00    -0.248 NA
ATOM     32  C   UNL A   1      43.975  26.086  29.379  1.00  0.00     0.031 C 
ATOM     33  C   UNL A   1      44.249  31.362  31.479  1.00  0.00     0.029 A 
ATOM     34  C   UNL A   1      44.590  30.071  31.072  1.00  0.00     0.049 A 
ATOM     35  H   UNL A   1      44.786  28.464  32.412  1.00  0.00     0.167 HD
ATOM     36  C   UNL A   1      44.893  28.214  29.451  1.00  0.00     0.074 A 
ATOM     37  C   UNL A   1      44.464  27.030  30.187  1.00  0.00     0.031 C 
ATOM     38  C   UNL A   1      45.020  29.525  29.809  1.00  0.00     0.037 A 
BRANCH  25  39
ATOM     39  C   UNL A   1      42.574  27.871  34.296  1.00  0.00     0.064 A 
ATOM     40  C   UNL A   1      43.058  26.673  33.727  1.00  0.00     0.173 A 
ATOM     41  C   UNL A   1      42.100  27.758  35.621  1.00  0.00     0.173 A 
ATOM     42  F   UNL A   1      43.532  26.655  32.472  1.00  0.00    -0.203 F 
ATOM     43  C   UNL A   1      42.956  25.445  34.387  1.00  0.00     0.198 A 
ATOM     44  C   UNL A   1      42.051  26.539  36.297  1.00  0.00     0.198 A 
ATOM     45  F   UNL A   1      41.559  28.787  36.282  1.00  0.00    -0.203 F 
ATOM     46  F   UNL A   1      43.284  24.316  33.744  1.00  0.00    -0.200 F 
ATOM     47  C   UNL A   1      42.440  25.378  35.667  1.00  0.00     0.200 A 
ATOM     48  F   UNL A   1      41.533  26.493  37.533  1.00  0.00    -0.200 F 
ATOM     49  F   UNL A   1      42.269  24.195  36.272  1.00  0.00    -0.200 F 
ENDBRANCH  25  39
BRANCH  26  50
ATOM     50  C   UNL A   1      43.133  25.213  26.289  1.00  0.00     0.064 A 
ATOM     51  C   UNL A   1      44.145  24.995  25.337  1.00  0.00     0.173 A 
ATOM     52  C   UNL A   1      42.388  24.083  26.673  1.00  0.00     0.173 A 
ATOM     53  F   UNL A   1      44.936  26.006  24.947  1.00  0.00    -0.203 F 
ATOM     54  C   UNL A   1      44.416  23.719  24.828  1.00  0.00     0.198 A 
ATOM     55  C   UNL A   1      42.654  22.812  26.158  1.00  0.00     0.198 A 
ATOM     56  F   UNL A   1      41.455  24.168  27.631  1.00  0.00    -0.203 F 
ATOM     57  F   UNL A   1      45.436  23.541  23.975  1.00  0.00    -0.200 F 
ATOM     58  C   UNL A   1      43.677  22.627  25.247  1.00  0.00     0.200 A 
ATOM     59  F   UNL A   1      41.956  21.757  26.603  1.00  0.00    -0.200 F 
ATOM     60  F   UNL A   1      43.977  21.395  24.813  1.00  0.00    -0.200 F 
ENDBRANCH  26  50
BRANCH  38  61
ATOM     61  C   UNL A   1      45.421  30.504  28.744  1.00  0.00     0.064 A 
ATOM     62  C   UNL A   1      44.530  31.106  27.839  1.00  0.00     0.173 A 
ATOM     63  C   UNL A   1      46.754  30.933  28.721  1.00  0.00     0.173 A 
ATOM     64  F   UNL A   1      43.220  30.826  27.863  1.00  0.00    -0.203 F 
ATOM     65  C   UNL A   1      44.971  32.058  26.921  1.00  0.00     0.198 A 
ATOM     66  C   UNL A   1      47.183  31.912  27.832  1.00  0.00     0.198 A 
ATOM     67  F   UNL A   1      47.638  30.429  29.598  1.00  0.00    -0.203 F 
ATOM     68  F   UNL A   1      44.108  32.606  26.053  1.00  0.00    -0.200 F 
ATOM     69  C   UNL A   1      46.295  32.465  26.924  1.00  0.00     0.200 A 
ATOM     70  F   UNL A   1      48.452  32.339  27.874  1.00  0.00    -0.200 F 
ATOM     71  F   UNL A   1      46.711  33.410  26.070  1.00  0.00    -0.200 F 
ENDBRANCH  38  61
ENDBRANCH  12  13
ENDBRANCH   5   7
ENDBRANCH   2   3
ENDBRANCH   1   2
BRANCH   1  72
ATOM     72  C   UNL A   1      32.433  27.657  27.023  1.00  0.00     0.118 C 
BRANCH  72  73
ATOM     73  N   UNL A   1      31.220  26.883  26.837  1.00  0.00    -0.351 N 
ATOM     74  C   UNL A   1      30.737  26.180  25.769  1.00  0.00     0.281 C 
ATOM     75  H   UNL A   1      30.635  26.859  27.629  1.00  0.00     0.163 HD
ATOM     76  O   UNL A   1      29.669  25.586  25.958  1.00  0.00    -0.268 OA
BRANCH  74  77
ATOM     77  C   UNL A   1      31.482  26.102  24.390  1.00  0.00     0.177 C 
ATOM     78  C   UNL A   1      30.712  25.193  23.382  1.00  0.00     0.079 C 
ATOM     79  C   UNL A   1      32.904  25.501  24.541  1.00  0.00     0.106 C 
ATOM     80  C   UNL A   1      30.738  23.698  23.715  1.00  0.00     0.009 C 
ATOM     81  C   UNL A   1      32.869  24.039  25.022  1.00  0.00     0.114 C 
ATOM     82  C   UNL A   1      32.142  23.177  23.980  1.00  0.00     0.028 C 
BRANCH  77  83
ATOM     83  N   UNL A   1      31.587  27.493  23.836  1.00  0.00    -0.331 N 
ATOM     84  H   UNL A   1      32.090  27.443  22.951  1.00  0.00     0.347 HD
ATOM     85  H   UNL A   1      32.069  28.047  24.544  1.00  0.00     0.347 HD
BRANCH  83  86
ATOM     86  C   UNL A   1      30.293  28.165  23.592  1.00  0.00     0.183 C 
ATOM     87  C   UNL A   1      30.140  29.643  23.799  1.00  0.00     0.071 C 
ATOM     88  C   UNL A   1      30.172  29.083  22.409  1.00  0.00     0.071 C 
ENDBRANCH  83  86
ENDBRANCH  77  83
BRANCH  81  89
ATOM     89  N   UNL A   1      34.213  23.558  25.348  1.00  0.00    -0.268 N 
ATOM     90  C   UNL A   1      35.325  24.343  25.521  1.00  0.00     0.124 A 
ATOM     91  N   UNL A   1      34.459  22.245  25.552  1.00  0.00    -0.180 NA
ATOM     92  C   UNL A   1      36.335  23.479  25.846  1.00  0.00     0.055 A 
ATOM     93  C   UNL A   1      35.757  22.206  25.871  1.00  0.00     0.150 A 
ATOM     94  Br  UNL A   1      38.123  23.874  26.199  1.00  0.00    -0.047 Br
ENDBRANCH  81  89
ENDBRANCH  74  77
ENDBRANCH  72  73
ENDBRANCH   1  72
TORSDOF 13
ENDMDL
MODEL 2
REMARK VINA RESULT:     -12.9      2.995      8.296
REMARK SMILES O=C(NCCCNC(=O)[C@]1([NH2+]C2CC2)CCC[C@@H](n2cc(Br)cn2)C1)c1ccc(-c2c3nc(c(-c4c(F)c(F)c(F)c(F)c4F)c4ccc([nH]4)c(-c4c(F)c(F)c(F)c(F)c4F)c4nc(c(-c5c(F)c(F)c(F)c(F)c5F)c5ccc2[nH]5)C=C4)C=C3)cc1
REMARK SMILES IDX 5 1 4 2 3 3 1 4 2 5 26 7 27 8 88 9 28 10 87 11 29 12 30 13
REMARK SMILES IDX 31 14 81 15 32 16 86 17 80 18 82 19 33 20 85 21 79 22 78 23
REMARK SMILES IDX 34 25 66 26 46 27 65 28 47 29 50 30 64 31 83 32 48 33 49 34
REMARK SMILES IDX 63 36 84 37 51 38 35 39 36 40 44 41 37 42 38 43 42 44 45 45
REMARK SMILES IDX 39 46 40 47 43 48 41 49 67 50 68 51 76 52 69 53 70 54 74 55
REMARK SMILES IDX 77 56 71 57 72 58 75 59 73 60 52 61 53 62 61 63 54 64 55 65
REMARK SMILES IDX 59 66 62 67 56 68 57 69 60 70 58 71 6 72 7 73 8 74 9 76
REMARK SMILES IDX 10 77 15 78 25 79 16 80 18 81 17 82 11 83 12 86 13 87 14 88
REMARK SMILES IDX 19 89 20 90 24 91 21 92 23 93 22 94
REMARK H PARENT 3 6 82 24 50 35 7 75 11 84 11 85
REMARK Flexibility Score: inf
ROOT
ATOM      1  C   UNL A   1      36.775  22.629  24.324  1.00  0.00     0.042 C 
ENDROOT
BRANCH   1   2
ATOM      2  C   UNL A   1      37.114  22.031  25.683  1.00  0.00     0.118 C 
BRANCH   2   3
ATOM      3  N   UNL A   1      38.439  21.457  25.799  1.00  0.00    -0.352 N 
ATOM      4  O   UNL A   1      40.476  20.971  26.505  1.00  0.00    -0.269 OA
ATOM      5  C   UNL A   1      39.589  21.830  26.435  1.00  0.00     0.251 C 
ATOM      6  H   UNL A   1      38.533  20.609  25.309  1.00  0.00     0.163 HD
BRANCH   5   7
ATOM      7  C   UNL A   1      39.879  23.190  26.964  1.00  0.00     0.039 A 
ATOM      8  C   UNL A   1      39.156  24.352  26.693  1.00  0.00     0.014 A 
ATOM      9  C   UNL A   1      41.010  23.283  27.799  1.00  0.00     0.014 A 
ATOM     10  C   UNL A   1      39.604  25.588  27.163  1.00  0.00     0.010 A 
ATOM     11  C   UNL A   1      41.453  24.508  28.284  1.00  0.00     0.010 A 
ATOM     12  C   UNL A   1      40.766  25.667  27.939  1.00  0.00    -0.014 A 
BRANCH  12  13
ATOM     13  C   UNL A   1      41.115  26.944  28.561  1.00  0.00     0.031 A 
ATOM     14  C   UNL A   1      42.344  27.571  27.993  1.00  0.00     0.074 A 
ATOM     15  C   UNL A   1      40.320  27.607  29.427  1.00  0.00     0.049 A 
ATOM     16  N   UNL A   1      43.433  27.898  28.609  1.00  0.00    -0.248 NA
ATOM     17  C   UNL A   1      42.407  27.762  26.534  1.00  0.00     0.031 C 
ATOM     18  C   UNL A   1      38.958  27.254  29.832  1.00  0.00     0.029 A 
ATOM     19  N   UNL A   1      40.522  28.805  30.056  1.00  0.00    -0.354 N 
ATOM     20  C   UNL A   1      44.250  28.500  27.653  1.00  0.00     0.074 A 
ATOM     21  C   UNL A   1      43.638  28.247  26.376  1.00  0.00     0.031 C 
ATOM     22  C   UNL A   1      38.383  28.313  30.447  1.00  0.00     0.029 A 
ATOM     23  C   UNL A   1      39.369  29.372  30.592  1.00  0.00     0.049 A 
ATOM     24  H   UNL A   1      41.407  29.231  30.122  1.00  0.00     0.167 HD
ATOM     25  C   UNL A   1      45.230  29.374  28.015  1.00  0.00     0.037 A 
ATOM     26  C   UNL A   1      39.218  30.637  31.066  1.00  0.00     0.037 A 
ATOM     27  C   UNL A   1      45.588  29.203  29.400  1.00  0.00     0.049 A 
ATOM     28  C   UNL A   1      40.568  31.176  31.349  1.00  0.00     0.074 A 
ATOM     29  C   UNL A   1      46.098  28.173  30.164  1.00  0.00     0.029 A 
ATOM     30  N   UNL A   1      45.110  30.126  30.293  1.00  0.00    -0.354 N 
ATOM     31  N   UNL A   1      41.334  30.761  32.316  1.00  0.00    -0.248 NA
ATOM     32  C   UNL A   1      41.236  31.922  30.295  1.00  0.00     0.031 C 
ATOM     33  C   UNL A   1      45.477  28.315  31.441  1.00  0.00     0.029 A 
ATOM     34  C   UNL A   1      44.673  29.454  31.401  1.00  0.00     0.049 A 
ATOM     35  H   UNL A   1      45.086  31.101  30.161  1.00  0.00     0.167 HD
ATOM     36  C   UNL A   1      42.609  30.784  31.776  1.00  0.00     0.074 A 
ATOM     37  C   UNL A   1      42.503  31.616  30.583  1.00  0.00     0.031 C 
ATOM     38  C   UNL A   1      43.551  29.890  32.195  1.00  0.00     0.037 A 
BRANCH  25  39
ATOM     39  C   UNL A   1      45.543  30.656  27.265  1.00  0.00     0.064 A 
ATOM     40  C   UNL A   1      46.893  30.963  26.987  1.00  0.00     0.173 A 
ATOM     41  C   UNL A   1      44.640  31.730  27.121  1.00  0.00     0.173 A 
ATOM     42  F   UNL A   1      47.845  30.024  27.092  1.00  0.00    -0.203 F 
ATOM     43  C   UNL A   1      47.313  32.268  26.711  1.00  0.00     0.198 A 
ATOM     44  C   UNL A   1      45.057  33.020  26.792  1.00  0.00     0.198 A 
ATOM     45  F   UNL A   1      43.337  31.618  27.401  1.00  0.00    -0.203 F 
ATOM     46  F   UNL A   1      48.622  32.536  26.609  1.00  0.00    -0.200 F 
ATOM     47  C   UNL A   1      46.396  33.297  26.627  1.00  0.00     0.200 A 
ATOM     48  F   UNL A   1      44.152  34.008  26.730  1.00  0.00    -0.200 F 
ATOM     49  F   UNL A   1      46.802  34.560  26.441  1.00  0.00    -0.200 F 
ENDBRANCH  25  39
BRANCH  26  50
ATOM     50  C   UNL A   1      38.026  31.524  31.038  1.00  0.00     0.064 A 
ATOM     51  C   UNL A   1      37.503  32.001  29.822  1.00  0.00     0.173 A 
ATOM     52  C   UNL A   1      37.204  31.676  32.170  1.00  0.00     0.173 A 
ATOM     53  F   UNL A   1      38.197  31.856  28.683  1.00  0.00    -0.203 F 
ATOM     54  C   UNL A   1      36.224  32.564  29.740  1.00  0.00     0.198 A 
ATOM     55  C   UNL A   1      35.931  32.246  32.088  1.00  0.00     0.198 A 
ATOM     56  F   UNL A   1      37.575  31.184  33.359  1.00  0.00    -0.203 F 
ATOM     57  F   UNL A   1      35.732  32.942  28.550  1.00  0.00    -0.200 F 
ATOM     58  C   UNL A   1      35.435  32.676  30.872  1.00  0.00     0.200 A 
ATOM     59  F   UNL A   1      35.163  32.312  33.185  1.00  0.00    -0.200 F 
ATOM     60  F   UNL A   1      34.185  33.153  30.785  1.00  0.00    -0.200 F 
ENDBRANCH  26  50
BRANCH  38  61
ATOM     61  C   UNL A   1      43.286  29.140  33.467  1.00  0.00     0.064 A 
ATOM     62  C   UNL A   1      42.511  27.971  33.557  1.00  0.00     0.173 A 
ATOM     63  C   UNL A   1      43.946  29.568  34.627  1.00  0.00     0.173 A 
ATOM     64  F   UNL A   1      41.928  27.440  32.474  1.00  0.00    -0.203 F 
ATOM     65  C   UNL A   1      42.366  27.295  34.768  1.00  0.00     0.198 A 
ATOM     66  C   UNL A   1      43.833  28.868  35.823  1.00  0.00     0.198 A 
ATOM     67  F   UNL A   1      44.742  30.650  34.587  1.00  0.00    -0.203 F 
ATOM     68  F   UNL A   1      41.605  26.192  34.835  1.00  0.00    -0.200 F 
ATOM     69  C   UNL A   1      43.033  27.740  35.897  1.00  0.00     0.200 A 
ATOM     70  F   UNL A   1      44.521  29.274  36.899  1.00  0.00    -0.200 F 
ATOM     71  F   UNL A   1      42.928  27.066  37.050  1.00  0.00    -0.200 F 
ENDBRANCH  38  61
ENDBRANCH  12  13
ENDBRANCH   5   7
ENDBRANCH   2   3
ENDBRANCH   1   2
BRANCH   1  72
ATOM     72  C   UNL A   1      35.810  23.811  24.328  1.00  0.00     0.118 C 
BRANCH  72  73
ATOM     73  N   UNL A   1      34.809  23.786  23.277  1.00  0.00    -0.351 N 
ATOM     74  C   UNL A   1      33.453  23.618  23.307  1.00  0.00     0.281 C 
ATOM     75  H   UNL A   1      35.176  23.914  22.372  1.00  0.00     0.163 HD
ATOM     76  O   UNL A   1      32.881  23.693  22.214  1.00  0.00    -0.268 OA
BRANCH  74  77
ATOM     77  C   UNL A   1      32.653  23.367  24.633  1.00  0.00     0.177 C 
ATOM     78  C   UNL A   1      31.122  23.249  24.355  1.00  0.00     0.079 C 
ATOM     79  C   UNL A   1      32.837  24.530  25.643  1.00  0.00     0.106 C 
ATOM     80  C   UNL A   1      30.440  24.558  23.949  1.00  0.00     0.009 C 
ATOM     81  C   UNL A   1      32.262  25.856  25.113  1.00  0.00     0.114 C 
ATOM     82  C   UNL A   1      30.750  25.706  24.897  1.00  0.00     0.028 C 
BRANCH  77  83
ATOM     83  N   UNL A   1      33.154  22.093  25.247  1.00  0.00    -0.331 N 
ATOM     84  H   UNL A   1      32.583  21.891  26.067  1.00  0.00     0.347 HD
ATOM     85  H   UNL A   1      34.137  22.250  25.469  1.00  0.00     0.347 HD
BRANCH  83  86
ATOM     86  C   UNL A   1      33.112  20.914  24.355  1.00  0.00     0.183 C 
ATOM     87  C   UNL A   1      34.034  19.750  24.572  1.00  0.00     0.071 C 
ATOM     88  C   UNL A   1      32.577  19.619  24.901  1.00  0.00     0.071 C 
ENDBRANCH  83  86
ENDBRANCH  77  83
BRANCH  81  89
ATOM     89  N   UNL A   1      32.622  26.975  25.987  1.00  0.00    -0.268 N 
ATOM     90  C   UNL A   1      33.884  27.486  26.155  1.00  0.00     0.124 A 
ATOM     91  N   UNL A   1      31.686  27.643  26.695  1.00  0.00    -0.180 NA
ATOM     92  C   UNL A   1      33.742  28.533  27.024  1.00  0.00     0.055 A 
ATOM     93  C   UNL A   1      32.376  28.605  27.316  1.00  0.00     0.150 A 
ATOM     94  Br  UNL A   1      35.064  29.662  27.699  1.00  0.00    -0.047 Br
ENDBRANCH  81  89
ENDBRANCH  74  77
ENDBRANCH  72  73
ENDBRANCH   1  72
TORSDOF 13
ENDMDL
MODEL 3
REMARK VINA RESULT:     -12.8      3.939      7.030
REMARK SMILES O=C(NCCCNC(=O)[C@]1([NH2+]C2CC2)CCC[C@@H](n2cc(Br)cn2)C1)c1ccc(-c2c3nc(c(-c4c(F)c(F)c(F)c(F)c4F)c4ccc([nH]4)c(-c4c(F)c(F)c(F)c(F)c4F)c4nc(c(-c5c(F)c(F)c(F)c(F)c5F)c5ccc2[nH]5)C=C4)C=C3)cc1
REMARK SMILES IDX 5 1 4 2 3 3 1 4 2 5 26 7 27 8 88 9 28 10 87 11 29 12 30 13
REMARK SMILES IDX 31 14 81 15 32 16 86 17 80 18 82 19 33 20 85 21 79 22 78 23
REMARK SMILES IDX 34 25 66 26 46 27 65 28 47 29 50 30 64 31 83 32 48 33 49 34
REMARK SMILES IDX 63 36 84 37 51 38 35 39 36 40 44 41 37 42 38 43 42 44 45 45
REMARK SMILES IDX 39 46 40 47 43 48 41 49 67 50 68 51 76 52 69 53 70 54 74 55
REMARK SMILES IDX 77 56 71 57 72 58 75 59 73 60 52 61 53 62 61 63 54 64 55 65
REMARK SMILES IDX 59 66 62 67 56 68 57 69 60 70 58 71 6 72 7 73 8 74 9 76
REMARK SMILES IDX 10 77 15 78 25 79 16 80 18 81 17 82 11 83 12 86 13 87 14 88
REMARK SMILES IDX 19 89 20 90 24 91 21 92 23 93 22 94
REMARK H PARENT 3 6 82 24 50 35 7 75 11 84 11 85
REMARK Flexibility Score: inf
ROOT
ATOM      1  C   UNL A   1      33.637  34.466  29.438  1.00  0.00     0.042 C 
ENDROOT
BRANCH   1   2
ATOM      2  C   UNL A   1      34.099  34.027  28.054  1.00  0.00     0.118 C 
BRANCH   2   3
ATOM      3  N   UNL A   1      33.639  32.721  27.628  1.00  0.00    -0.352 N 
ATOM      4  O   UNL A   1      33.337  30.539  27.462  1.00  0.00    -0.269 OA
ATOM      5  C   UNL A   1      34.119  31.450  27.761  1.00  0.00     0.251 C 
ATOM      6  H   UNL A   1      32.791  32.758  27.130  1.00  0.00     0.163 HD
BRANCH   5   7
ATOM      7  C   UNL A   1      35.509  31.089  28.148  1.00  0.00     0.039 A 
ATOM      8  C   UNL A   1      36.519  31.978  28.516  1.00  0.00     0.014 A 
ATOM      9  C   UNL A   1      35.808  29.712  28.110  1.00  0.00     0.014 A 
ATOM     10  C   UNL A   1      37.817  31.515  28.746  1.00  0.00     0.010 A 
ATOM     11  C   UNL A   1      37.093  29.243  28.353  1.00  0.00     0.010 A 
ATOM     12  C   UNL A   1      38.107  30.151  28.642  1.00  0.00    -0.014 A 
BRANCH  12  13
ATOM     13  C   UNL A   1      39.427  29.675  29.056  1.00  0.00     0.031 A 
ATOM     14  C   UNL A   1      39.682  29.812  30.520  1.00  0.00     0.074 A 
ATOM     15  C   UNL A   1      40.275  28.999  28.252  1.00  0.00     0.049 A 
ATOM     16  N   UNL A   1      40.627  30.468  31.110  1.00  0.00    -0.248 NA
ATOM     17  C   UNL A   1      38.695  29.230  31.447  1.00  0.00     0.031 C 
ATOM     18  C   UNL A   1      40.023  28.532  26.888  1.00  0.00     0.029 A 
ATOM     19  N   UNL A   1      41.515  28.490  28.523  1.00  0.00    -0.354 N 
ATOM     20  C   UNL A   1      40.463  30.235  32.475  1.00  0.00     0.074 A 
ATOM     21  C   UNL A   1      39.180  29.605  32.630  1.00  0.00     0.031 C 
ATOM     22  C   UNL A   1      40.970  27.631  26.539  1.00  0.00     0.029 A 
ATOM     23  C   UNL A   1      41.961  27.548  27.600  1.00  0.00     0.049 A 
ATOM     24  H   UNL A   1      42.046  28.765  29.305  1.00  0.00     0.167 HD
ATOM     25  C   UNL A   1      41.510  30.351  33.338  1.00  0.00     0.037 A 
ATOM     26  C   UNL A   1      43.032  26.719  27.722  1.00  0.00     0.037 A 
ATOM     27  C   UNL A   1      42.560  31.158  32.770  1.00  0.00     0.049 A 
ATOM     28  C   UNL A   1      43.915  27.277  28.771  1.00  0.00     0.074 A 
ATOM     29  C   UNL A   1      42.668  32.458  32.321  1.00  0.00     0.029 A 
ATOM     30  N   UNL A   1      43.665  30.505  32.286  1.00  0.00    -0.354 N 
ATOM     31  N   UNL A   1      44.608  28.372  28.639  1.00  0.00    -0.248 NA
ATOM     32  C   UNL A   1      43.724  26.817  30.137  1.00  0.00     0.031 C 
ATOM     33  C   UNL A   1      43.567  32.396  31.215  1.00  0.00     0.029 A 
ATOM     34  C   UNL A   1      44.001  31.076  31.091  1.00  0.00     0.049 A 
ATOM     35  H   UNL A   1      44.133  29.759  32.724  1.00  0.00     0.167 HD
ATOM     36  C   UNL A   1      44.539  28.973  29.885  1.00  0.00     0.074 A 
ATOM     37  C   UNL A   1      44.091  27.921  30.791  1.00  0.00     0.031 C 
ATOM     38  C   UNL A   1      44.575  30.332  29.997  1.00  0.00     0.037 A 
BRANCH  25  39
ATOM     39  C   UNL A   1      41.775  29.393  34.484  1.00  0.00     0.064 A 
ATOM     40  C   UNL A   1      42.361  29.898  35.666  1.00  0.00     0.173 A 
ATOM     41  C   UNL A   1      41.804  27.988  34.352  1.00  0.00     0.173 A 
ATOM     42  F   UNL A   1      42.397  31.218  35.902  1.00  0.00    -0.203 F 
ATOM     43  C   UNL A   1      43.029  29.070  36.573  1.00  0.00     0.198 A 
ATOM     44  C   UNL A   1      42.425  27.161  35.287  1.00  0.00     0.198 A 
ATOM     45  F   UNL A   1      41.341  27.358  33.267  1.00  0.00    -0.203 F 
ATOM     46  F   UNL A   1      43.703  29.613  37.596  1.00  0.00    -0.200 F 
ATOM     47  C   UNL A   1      43.072  27.704  36.376  1.00  0.00     0.200 A 
ATOM     48  F   UNL A   1      42.468  25.839  35.070  1.00  0.00    -0.200 F 
ATOM     49  F   UNL A   1      43.776  26.916  37.200  1.00  0.00    -0.200 F 
ENDBRANCH  25  39
BRANCH  26  50
ATOM     50  C   UNL A   1      43.225  25.339  27.207  1.00  0.00     0.064 A 
ATOM     51  C   UNL A   1      42.445  24.269  27.683  1.00  0.00     0.173 A 
ATOM     52  C   UNL A   1      43.965  25.095  26.035  1.00  0.00     0.173 A 
ATOM     53  F   UNL A   1      41.671  24.425  28.767  1.00  0.00    -0.203 F 
ATOM     54  C   UNL A   1      42.383  23.044  27.007  1.00  0.00     0.198 A 
ATOM     55  C   UNL A   1      43.909  23.870  25.367  1.00  0.00     0.198 A 
ATOM     56  F   UNL A   1      44.676  26.072  25.457  1.00  0.00    -0.203 F 
ATOM     57  F   UNL A   1      41.572  22.073  27.453  1.00  0.00    -0.200 F 
ATOM     58  C   UNL A   1      43.107  22.849  25.844  1.00  0.00     0.200 A 
ATOM     59  F   UNL A   1      44.584  23.708  24.220  1.00  0.00    -0.200 F 
ATOM     60  F   UNL A   1      42.998  21.703  25.159  1.00  0.00    -0.200 F 
ENDBRANCH  26  50
BRANCH  38  61
ATOM     61  C   UNL A   1      45.036  31.120  28.806  1.00  0.00     0.064 A 
ATOM     62  C   UNL A   1      44.218  31.471  27.718  1.00  0.00     0.173 A 
ATOM     63  C   UNL A   1      46.338  31.637  28.829  1.00  0.00     0.173 A 
ATOM     64  F   UNL A   1      42.932  31.101  27.668  1.00  0.00    -0.203 F 
ATOM     65  C   UNL A   1      44.705  32.263  26.678  1.00  0.00     0.198 A 
ATOM     66  C   UNL A   1      46.807  32.460  27.812  1.00  0.00     0.198 A 
ATOM     67  F   UNL A   1      47.146  31.376  29.870  1.00  0.00    -0.203 F 
ATOM     68  F   UNL A   1      43.914  32.570  25.640  1.00  0.00    -0.200 F 
ATOM     69  C   UNL A   1      45.996  32.762  26.730  1.00  0.00     0.200 A 
ATOM     70  F   UNL A   1      48.039  32.982  27.893  1.00  0.00    -0.200 F 
ATOM     71  F   UNL A   1      46.450  33.557  25.752  1.00  0.00    -0.200 F 
ENDBRANCH  38  61
ENDBRANCH  12  13
ENDBRANCH   5   7
ENDBRANCH   2   3
ENDBRANCH   1   2
BRANCH   1  72
ATOM     72  C   UNL A   1      34.296  33.766  30.623  1.00  0.00     0.118 C 
BRANCH  72  73
ATOM     73  N   UNL A   1      34.540  34.615  31.775  1.00  0.00    -0.351 N 
ATOM     74  C   UNL A   1      35.667  34.862  32.508  1.00  0.00     0.281 C 
ATOM     75  H   UNL A   1      33.745  35.105  32.087  1.00  0.00     0.163 HD
ATOM     76  O   UNL A   1      35.541  35.687  33.420  1.00  0.00    -0.268 OA
BRANCH  74  77
ATOM     77  C   UNL A   1      37.045  34.171  32.216  1.00  0.00     0.177 C 
ATOM     78  C   UNL A   1      36.914  32.616  32.239  1.00  0.00     0.079 C 
ATOM     79  C   UNL A   1      38.111  34.547  33.278  1.00  0.00     0.106 C 
ATOM     80  C   UNL A   1      36.670  32.013  33.625  1.00  0.00     0.009 C 
ATOM     81  C   UNL A   1      37.736  34.039  34.683  1.00  0.00     0.114 C 
ATOM     82  C   UNL A   1      37.662  32.506  34.667  1.00  0.00     0.028 C 
BRANCH  77  83
ATOM     83  N   UNL A   1      37.514  34.618  30.863  1.00  0.00    -0.331 N 
ATOM     84  H   UNL A   1      37.031  35.485  30.630  1.00  0.00     0.347 HD
ATOM     85  H   UNL A   1      37.303  33.854  30.220  1.00  0.00     0.347 HD
BRANCH  83  86
ATOM     86  C   UNL A   1      38.969  34.860  30.758  1.00  0.00     0.183 C 
ATOM     87  C   UNL A   1      39.899  33.779  30.291  1.00  0.00     0.071 C 
ATOM     88  C   UNL A   1      39.588  34.936  29.390  1.00  0.00     0.071 C 
ENDBRANCH  83  86
ENDBRANCH  77  83
BRANCH  81  89
ATOM     89  N   UNL A   1      38.646  34.573  35.698  1.00  0.00    -0.268 N 
ATOM     90  C   UNL A   1      38.960  33.970  36.890  1.00  0.00     0.124 A 
ATOM     91  N   UNL A   1      39.306  35.736  35.507  1.00  0.00    -0.180 NA
ATOM     92  C   UNL A   1      39.865  34.801  37.492  1.00  0.00     0.055 A 
ATOM     93  C   UNL A   1      40.062  35.863  36.604  1.00  0.00     0.150 A 
ATOM     94  Br  UNL A   1      40.694  34.596  39.150  1.00  0.00    -0.047 Br
ENDBRANCH  81  89
ENDBRANCH  74  77
ENDBRANCH  72  73
ENDBRANCH   1  72
TORSDOF 13
ENDMDL
