MODEL 1
REMARK VINA RESULT:     -13.2      0.000      0.000
REMARK SMILES CCc1ccc(NC(=O)c2c(C(=O)NCCCNC(=O)c3ccc(-c4c5nc(c(-c6c(F)c(F)c(F)c(F)c6F)c6ccc([nH]6)c(-c6c(F)c(F)c(F)c(F)c6F)c6nc(c(-c7c(F)c(F)c(F)c(F)c7F)c7ccc4[nH]7)C=C6)C=C5)cc3)cnn2C)cc1
REMARK SMILES IDX 15 1 14 2 12 3 13 4 11 6 10 7 86 8 84 9 85 10 87 11 8 12
REMARK SMILES IDX 7 13 9 15 6 16 3 17 4 18 89 19 5 20 88 21 2 22 1 23 16 24
REMARK SMILES IDX 17 25 18 26 19 27 20 29 21 30 22 31 83 32 23 33 82 34 24 35
REMARK SMILES IDX 25 36 26 37 76 38 27 39 81 40 75 41 77 42 28 43 80 44 74 45
REMARK SMILES IDX 73 46 29 48 61 49 41 50 60 51 42 52 45 53 59 54 78 55 43 56
REMARK SMILES IDX 44 57 58 59 79 60 46 61 30 62 31 63 39 64 32 65 33 66 37 67
REMARK SMILES IDX 40 68 34 69 35 70 38 71 36 72 62 73 63 74 71 75 64 76 65 77
REMARK SMILES IDX 69 78 72 79 66 80 67 81 70 82 68 83 47 84 48 85 56 86 49 87
REMARK SMILES IDX 50 88 54 89 57 90 51 91 52 92 55 93 53 94
REMARK H PARENT 14 5 7 14 18 28 77 47 45 58
REMARK Flexibility Score: inf
ROOT
ATOM      1  C   UNL A   1      31.673  30.803  26.034  1.00  0.00     0.118 C 
ENDROOT
BRANCH   1   2
ATOM      2  N   UNL A   1      31.487  29.736  26.980  1.00  0.00    -0.352 N 
ATOM      3  C   UNL A   1      31.713  28.387  26.914  1.00  0.00     0.255 C 
ATOM      4  O   UNL A   1      31.450  27.782  27.961  1.00  0.00    -0.269 OA
ATOM      5  H   UNL A   1      31.127  30.035  27.845  1.00  0.00     0.163 HD
BRANCH   3   6
ATOM      6  C   UNL A   1      32.185  27.633  25.751  1.00  0.00     0.090 A 
ATOM      7  C   UNL A   1      31.740  26.561  24.969  1.00  0.00     0.138 A 
ATOM      8  N   UNL A   1      32.686  26.387  23.983  1.00  0.00    -0.262 N 
ATOM      9  C   UNL A   1      33.434  27.962  25.142  1.00  0.00     0.149 A 
ATOM     10  N   UNL A   1      33.748  27.196  24.102  1.00  0.00    -0.180 NA
ATOM     11  C   UNL A   1      32.693  25.406  22.918  1.00  0.00     0.174 C 
BRANCH   7  12
ATOM     12  C   UNL A   1      30.553  25.758  25.002  1.00  0.00     0.274 C 
ATOM     13  N   UNL A   1      29.420  26.143  24.308  1.00  0.00    -0.321 N 
ATOM     14  H   UNL A   1      28.708  25.461  24.308  1.00  0.00     0.170 HD
ATOM     15  O   UNL A   1      30.498  24.706  25.639  1.00  0.00    -0.267 OA
BRANCH  13  16
ATOM     16  C   UNL A   1      29.078  27.313  23.603  1.00  0.00     0.041 A 
ATOM     17  C   UNL A   1      28.201  29.881  22.845  1.00  0.00    -0.048 A 
ATOM     18  C   UNL A   1      29.552  29.528  22.753  1.00  0.00     0.006 A 
ATOM     19  C   UNL A   1      27.277  28.871  23.126  1.00  0.00     0.006 A 
ATOM     20  C   UNL A   1      29.981  28.246  23.103  1.00  0.00     0.026 A 
ATOM     21  C   UNL A   1      27.713  27.595  23.501  1.00  0.00     0.026 A 
BRANCH  17  22
ATOM     22  C   UNL A   1      27.810  31.324  22.640  1.00  0.00     0.032 C 
ATOM     23  C   UNL A   1      28.778  32.342  23.232  1.00  0.00     0.009 C 
ENDBRANCH  17  22
ENDBRANCH  13  16
ENDBRANCH   7  12
ENDBRANCH   3   6
ENDBRANCH   1   2
BRANCH   1  24
ATOM     24  C   UNL A   1      31.423  32.189  26.587  1.00  0.00     0.042 C 
BRANCH  24  25
ATOM     25  C   UNL A   1      32.623  32.802  27.274  1.00  0.00     0.118 C 
BRANCH  25  26
ATOM     26  N   UNL A   1      32.418  34.203  27.625  1.00  0.00    -0.352 N 
ATOM     27  C   UNL A   1      32.995  34.991  28.594  1.00  0.00     0.251 C 
ATOM     28  H   UNL A   1      31.748  34.665  27.072  1.00  0.00     0.163 HD
ATOM     29  O   UNL A   1      32.528  36.099  28.831  1.00  0.00    -0.269 OA
BRANCH  27  30
ATOM     30  C   UNL A   1      34.153  34.503  29.374  1.00  0.00     0.039 A 
ATOM     31  C   UNL A   1      33.939  33.967  30.649  1.00  0.00     0.014 A 
ATOM     32  C   UNL A   1      35.448  34.574  28.866  1.00  0.00     0.014 A 
ATOM     33  C   UNL A   1      35.009  33.423  31.363  1.00  0.00     0.010 A 
ATOM     34  C   UNL A   1      36.485  33.916  29.513  1.00  0.00     0.010 A 
ATOM     35  C   UNL A   1      36.282  33.345  30.775  1.00  0.00    -0.014 A 
BRANCH  35  36
ATOM     36  C   UNL A   1      37.423  32.687  31.462  1.00  0.00     0.031 A 
ATOM     37  C   UNL A   1      38.131  31.534  30.805  1.00  0.00     0.074 A 
ATOM     38  C   UNL A   1      37.765  33.072  32.707  1.00  0.00     0.049 A 
ATOM     39  N   UNL A   1      39.079  30.764  31.277  1.00  0.00    -0.248 NA
ATOM     40  C   UNL A   1      37.686  31.168  29.450  1.00  0.00     0.031 C 
ATOM     41  C   UNL A   1      37.118  34.139  33.472  1.00  0.00     0.029 A 
ATOM     42  N   UNL A   1      38.736  32.601  33.554  1.00  0.00    -0.354 N 
ATOM     43  C   UNL A   1      39.326  29.820  30.289  1.00  0.00     0.074 A 
ATOM     44  C   UNL A   1      38.381  30.065  29.223  1.00  0.00     0.031 C 
ATOM     45  C   UNL A   1      37.730  34.264  34.660  1.00  0.00     0.029 A 
ATOM     46  C   UNL A   1      38.779  33.254  34.761  1.00  0.00     0.049 A 
ATOM     47  H   UNL A   1      39.345  31.863  33.319  1.00  0.00     0.167 HD
ATOM     48  C   UNL A   1      40.275  28.854  30.260  1.00  0.00     0.037 A 
ATOM     49  C   UNL A   1      39.570  33.056  35.833  1.00  0.00     0.037 A 
ATOM     50  C   UNL A   1      41.231  28.635  31.313  1.00  0.00     0.049 A 
ATOM     51  C   UNL A   1      40.610  31.969  35.781  1.00  0.00     0.074 A 
ATOM     52  C   UNL A   1      42.276  27.730  31.355  1.00  0.00     0.029 A 
ATOM     53  N   UNL A   1      41.252  29.329  32.514  1.00  0.00    -0.354 N 
ATOM     54  N   UNL A   1      40.885  31.131  34.811  1.00  0.00    -0.248 NA
ATOM     55  C   UNL A   1      41.452  31.803  36.973  1.00  0.00     0.031 C 
ATOM     56  C   UNL A   1      42.893  27.835  32.605  1.00  0.00     0.029 A 
ATOM     57  C   UNL A   1      42.275  28.850  33.318  1.00  0.00     0.049 A 
ATOM     58  H   UNL A   1      40.632  30.054  32.760  1.00  0.00     0.167 HD
ATOM     59  C   UNL A   1      41.947  30.360  35.261  1.00  0.00     0.074 A 
ATOM     60  C   UNL A   1      42.278  30.841  36.586  1.00  0.00     0.031 C 
ATOM     61  C   UNL A   1      42.592  29.345  34.634  1.00  0.00     0.037 A 
BRANCH  48  62
ATOM     62  C   UNL A   1      40.325  27.967  29.047  1.00  0.00     0.064 A 
ATOM     63  C   UNL A   1      41.073  28.310  27.910  1.00  0.00     0.173 A 
ATOM     64  C   UNL A   1      39.631  26.748  29.029  1.00  0.00     0.173 A 
ATOM     65  F   UNL A   1      41.746  29.471  27.869  1.00  0.00    -0.203 F 
ATOM     66  C   UNL A   1      41.092  27.488  26.787  1.00  0.00     0.198 A 
ATOM     67  C   UNL A   1      39.683  25.909  27.918  1.00  0.00     0.198 A 
ATOM     68  F   UNL A   1      38.905  26.366  30.090  1.00  0.00    -0.203 F 
ATOM     69  F   UNL A   1      41.761  27.869  25.690  1.00  0.00    -0.200 F 
ATOM     70  C   UNL A   1      40.403  26.284  26.794  1.00  0.00     0.200 A 
ATOM     71  F   UNL A   1      39.027  24.740  27.933  1.00  0.00    -0.200 F 
ATOM     72  F   UNL A   1      40.425  25.491  25.714  1.00  0.00    -0.200 F 
ENDBRANCH  48  62
BRANCH  49  73
ATOM     73  C   UNL A   1      39.427  33.922  37.032  1.00  0.00     0.064 A 
ATOM     74  C   UNL A   1      40.044  35.181  37.087  1.00  0.00     0.173 A 
ATOM     75  C   UNL A   1      38.671  33.519  38.142  1.00  0.00     0.173 A 
ATOM     76  F   UNL A   1      40.793  35.604  36.059  1.00  0.00    -0.203 F 
ATOM     77  C   UNL A   1      39.928  35.992  38.215  1.00  0.00     0.198 A 
ATOM     78  C   UNL A   1      38.529  34.344  39.256  1.00  0.00     0.198 A 
ATOM     79  F   UNL A   1      38.053  32.329  38.138  1.00  0.00    -0.203 F 
ATOM     80  F   UNL A   1      40.566  37.169  38.258  1.00  0.00    -0.200 F 
ATOM     81  C   UNL A   1      39.165  35.576  39.295  1.00  0.00     0.200 A 
ATOM     82  F   UNL A   1      37.776  33.947  40.290  1.00  0.00    -0.200 F 
ATOM     83  F   UNL A   1      39.046  36.360  40.376  1.00  0.00    -0.200 F 
ENDBRANCH  49  73
BRANCH  61  84
ATOM     84  C   UNL A   1      43.741  28.706  35.360  1.00  0.00     0.064 A 
ATOM     85  C   UNL A   1      43.556  27.623  36.230  1.00  0.00     0.173 A 
ATOM     86  C   UNL A   1      45.053  29.158  35.144  1.00  0.00     0.173 A 
ATOM     87  F   UNL A   1      42.321  27.164  36.483  1.00  0.00    -0.203 F 
ATOM     88  C   UNL A   1      44.637  27.033  36.879  1.00  0.00     0.198 A 
ATOM     89  C   UNL A   1      46.135  28.544  35.767  1.00  0.00     0.198 A 
ATOM     90  F   UNL A   1      45.287  30.187  34.314  1.00  0.00    -0.203 F 
ATOM     91  F   UNL A   1      44.431  26.033  37.748  1.00  0.00    -0.200 F 
ATOM     92  C   UNL A   1      45.926  27.488  36.641  1.00  0.00     0.200 A 
ATOM     93  F   UNL A   1      47.380  28.974  35.521  1.00  0.00    -0.200 F 
ATOM     94  F   UNL A   1      46.966  26.911  37.257  1.00  0.00    -0.200 F 
ENDBRANCH  61  84
ENDBRANCH  35  36
ENDBRANCH  27  30
ENDBRANCH  25  26
ENDBRANCH  24  25
ENDBRANCH   1  24
TORSDOF 13
ENDMDL
MODEL 2
REMARK VINA RESULT:     -13.2      1.550      3.458
REMARK SMILES CCc1ccc(NC(=O)c2c(C(=O)NCCCNC(=O)c3ccc(-c4c5nc(c(-c6c(F)c(F)c(F)c(F)c6F)c6ccc([nH]6)c(-c6c(F)c(F)c(F)c(F)c6F)c6nc(c(-c7c(F)c(F)c(F)c(F)c7F)c7ccc4[nH]7)C=C6)C=C5)cc3)cnn2C)cc1
REMARK SMILES IDX 15 1 14 2 12 3 13 4 11 6 10 7 86 8 84 9 85 10 87 11 8 12
REMARK SMILES IDX 7 13 9 15 6 16 3 17 4 18 89 19 5 20 88 21 2 22 1 23 16 24
REMARK SMILES IDX 17 25 18 26 19 27 20 29 21 30 22 31 83 32 23 33 82 34 24 35
REMARK SMILES IDX 25 36 26 37 76 38 27 39 81 40 75 41 77 42 28 43 80 44 74 45
REMARK SMILES IDX 73 46 29 48 61 49 41 50 60 51 42 52 45 53 59 54 78 55 43 56
REMARK SMILES IDX 44 57 58 59 79 60 46 61 30 62 31 63 39 64 32 65 33 66 37 67
REMARK SMILES IDX 40 68 34 69 35 70 38 71 36 72 62 73 63 74 71 75 64 76 65 77
REMARK SMILES IDX 69 78 72 79 66 80 67 81 70 82 68 83 47 84 48 85 56 86 49 87
REMARK SMILES IDX 50 88 54 89 57 90 51 91 52 92 55 93 53 94
REMARK H PARENT 14 5 7 14 18 28 77 47 45 58
REMARK Flexibility Score: inf
ROOT
ATOM      1  C   UNL A   1      31.699  30.493  25.748  1.00  0.00     0.118 C 
ENDROOT
BRANCH   1   2
ATOM      2  N   UNL A   1      32.769  29.715  26.310  1.00  0.00    -0.352 N 
ATOM      3  C   UNL A   1      33.556  28.715  25.803  1.00  0.00     0.255 C 
ATOM      4  O   UNL A   1      34.407  28.296  26.596  1.00  0.00    -0.269 OA
ATOM      5  H   UNL A   1      32.977  29.947  27.243  1.00  0.00     0.163 HD
BRANCH   3   6
ATOM      6  C   UNL A   1      33.453  28.108  24.475  1.00  0.00     0.090 A 
ATOM      7  C   UNL A   1      32.912  26.946  23.913  1.00  0.00     0.138 A 
ATOM      8  N   UNL A   1      33.150  27.028  22.558  1.00  0.00    -0.262 N 
ATOM      9  C   UNL A   1      34.026  28.761  23.341  1.00  0.00     0.149 A 
ATOM     10  N   UNL A   1      33.870  28.100  22.199  1.00  0.00    -0.180 NA
ATOM     11  C   UNL A   1      32.787  26.076  21.531  1.00  0.00     0.174 C 
BRANCH   7  12
ATOM     12  C   UNL A   1      32.177  25.848  24.466  1.00  0.00     0.274 C 
ATOM     13  N   UNL A   1      32.820  24.679  24.834  1.00  0.00    -0.321 N 
ATOM     14  H   UNL A   1      32.237  24.041  25.307  1.00  0.00     0.170 HD
ATOM     15  O   UNL A   1      30.959  25.902  24.637  1.00  0.00    -0.267 OA
BRANCH  13  16
ATOM     16  C   UNL A   1      34.140  24.219  24.669  1.00  0.00     0.041 A 
ATOM     17  C   UNL A   1      36.589  22.838  24.856  1.00  0.00    -0.048 A 
ATOM     18  C   UNL A   1      35.799  22.745  23.705  1.00  0.00     0.006 A 
ATOM     19  C   UNL A   1      36.234  23.786  25.820  1.00  0.00     0.006 A 
ATOM     20  C   UNL A   1      34.600  23.452  23.603  1.00  0.00     0.026 A 
ATOM     21  C   UNL A   1      35.019  24.472  25.726  1.00  0.00     0.026 A 
BRANCH  17  22
ATOM     22  C   UNL A   1      37.775  21.915  25.002  1.00  0.00     0.032 C 
ATOM     23  C   UNL A   1      37.453  20.431  24.873  1.00  0.00     0.009 C 
ENDBRANCH  17  22
ENDBRANCH  13  16
ENDBRANCH   7  12
ENDBRANCH   3   6
ENDBRANCH   1   2
BRANCH   1  24
ATOM     24  C   UNL A   1      31.403  31.784  26.480  1.00  0.00     0.042 C 
BRANCH  24  25
ATOM     25  C   UNL A   1      32.616  32.416  27.127  1.00  0.00     0.118 C 
BRANCH  25  26
ATOM     26  N   UNL A   1      32.415  33.825  27.447  1.00  0.00    -0.352 N 
ATOM     27  C   UNL A   1      32.994  34.632  28.398  1.00  0.00     0.251 C 
ATOM     28  H   UNL A   1      31.747  34.277  26.883  1.00  0.00     0.163 HD
ATOM     29  O   UNL A   1      32.531  35.747  28.611  1.00  0.00    -0.269 OA
BRANCH  27  30
ATOM     30  C   UNL A   1      34.150  34.158  29.190  1.00  0.00     0.039 A 
ATOM     31  C   UNL A   1      33.921  33.436  30.366  1.00  0.00     0.014 A 
ATOM     32  C   UNL A   1      35.457  34.424  28.788  1.00  0.00     0.014 A 
ATOM     33  C   UNL A   1      35.001  32.907  31.078  1.00  0.00     0.010 A 
ATOM     34  C   UNL A   1      36.520  33.789  29.417  1.00  0.00     0.010 A 
ATOM     35  C   UNL A   1      36.306  33.034  30.577  1.00  0.00    -0.014 A 
BRANCH  35  36
ATOM     36  C   UNL A   1      37.469  32.404  31.252  1.00  0.00     0.031 A 
ATOM     37  C   UNL A   1      38.184  31.252  30.599  1.00  0.00     0.074 A 
ATOM     38  C   UNL A   1      37.826  32.810  32.486  1.00  0.00     0.049 A 
ATOM     39  N   UNL A   1      39.153  30.505  31.065  1.00  0.00    -0.248 NA
ATOM     40  C   UNL A   1      37.722  30.862  29.257  1.00  0.00     0.031 C 
ATOM     41  C   UNL A   1      37.176  33.878  33.248  1.00  0.00     0.029 A 
ATOM     42  N   UNL A   1      38.819  32.366  33.323  1.00  0.00    -0.354 N 
ATOM     43  C   UNL A   1      39.397  29.551  30.085  1.00  0.00     0.074 A 
ATOM     44  C   UNL A   1      38.431  29.766  29.033  1.00  0.00     0.031 C 
ATOM     45  C   UNL A   1      37.805  34.028  34.424  1.00  0.00     0.029 A 
ATOM     46  C   UNL A   1      38.873  33.037  34.520  1.00  0.00     0.049 A 
ATOM     47  H   UNL A   1      39.436  31.635  33.087  1.00  0.00     0.167 HD
ATOM     48  C   UNL A   1      40.361  28.600  30.052  1.00  0.00     0.037 A 
ATOM     49  C   UNL A   1      39.685  32.866  35.581  1.00  0.00     0.037 A 
ATOM     50  C   UNL A   1      41.338  28.410  31.092  1.00  0.00     0.049 A 
ATOM     51  C   UNL A   1      40.741  31.795  35.525  1.00  0.00     0.074 A 
ATOM     52  C   UNL A   1      42.398  27.522  31.127  1.00  0.00     0.029 A 
ATOM     53  N   UNL A   1      41.369  29.120  32.283  1.00  0.00    -0.354 N 
ATOM     54  N   UNL A   1      41.012  30.948  34.562  1.00  0.00    -0.248 NA
ATOM     55  C   UNL A   1      41.606  31.659  36.704  1.00  0.00     0.031 C 
ATOM     56  C   UNL A   1      43.034  27.654  32.366  1.00  0.00     0.029 A 
ATOM     57  C   UNL A   1      42.412  28.668  33.076  1.00  0.00     0.049 A 
ATOM     58  H   UNL A   1      40.742  29.839  32.531  1.00  0.00     0.167 HD
ATOM     59  C   UNL A   1      42.094  30.200  35.004  1.00  0.00     0.074 A 
ATOM     60  C   UNL A   1      42.440  30.705  36.316  1.00  0.00     0.031 C 
ATOM     61  C   UNL A   1      42.744  29.187  34.379  1.00  0.00     0.037 A 
BRANCH  48  62
ATOM     62  C   UNL A   1      40.404  27.697  28.851  1.00  0.00     0.064 A 
ATOM     63  C   UNL A   1      41.190  27.998  27.728  1.00  0.00     0.173 A 
ATOM     64  C   UNL A   1      39.665  26.505  28.830  1.00  0.00     0.173 A 
ATOM     65  F   UNL A   1      41.908  29.132  27.689  1.00  0.00    -0.203 F 
ATOM     66  C   UNL A   1      41.203  27.163  26.614  1.00  0.00     0.198 A 
ATOM     67  C   UNL A   1      39.710  25.652  27.731  1.00  0.00     0.198 A 
ATOM     68  F   UNL A   1      38.901  26.163  29.879  1.00  0.00    -0.203 F 
ATOM     69  F   UNL A   1      41.910  27.505  25.529  1.00  0.00    -0.200 F 
ATOM     70  C   UNL A   1      40.469  25.986  26.619  1.00  0.00     0.200 A 
ATOM     71  F   UNL A   1      39.010  24.509  27.743  1.00  0.00    -0.200 F 
ATOM     72  F   UNL A   1      40.485  25.179  25.549  1.00  0.00    -0.200 F 
ENDBRANCH  48  62
BRANCH  49  73
ATOM     73  C   UNL A   1      39.548  33.746  36.770  1.00  0.00     0.064 A 
ATOM     74  C   UNL A   1      38.750  33.365  37.859  1.00  0.00     0.173 A 
ATOM     75  C   UNL A   1      40.211  34.980  36.850  1.00  0.00     0.173 A 
ATOM     76  F   UNL A   1      38.081  32.203  37.824  1.00  0.00    -0.203 F 
ATOM     77  C   UNL A   1      38.603  34.193  38.970  1.00  0.00     0.198 A 
ATOM     78  C   UNL A   1      40.088  35.792  37.975  1.00  0.00     0.198 A 
ATOM     79  F   UNL A   1      40.993  35.389  35.840  1.00  0.00    -0.203 F 
ATOM     80  F   UNL A   1      37.798  33.823  39.976  1.00  0.00    -0.200 F 
ATOM     81  C   UNL A   1      39.278  35.402  39.030  1.00  0.00     0.200 A 
ATOM     82  F   UNL A   1      40.757  36.951  38.038  1.00  0.00    -0.200 F 
ATOM     83  F   UNL A   1      39.144  36.194  40.103  1.00  0.00    -0.200 F 
ENDBRANCH  49  73
BRANCH  61  84
ATOM     84  C   UNL A   1      43.916  28.576  35.093  1.00  0.00     0.064 A 
ATOM     85  C   UNL A   1      43.764  27.496  35.974  1.00  0.00     0.173 A 
ATOM     86  C   UNL A   1      45.215  29.052  34.856  1.00  0.00     0.173 A 
ATOM     87  F   UNL A   1      42.542  27.014  36.247  1.00  0.00    -0.203 F 
ATOM     88  C   UNL A   1      44.865  26.932  36.612  1.00  0.00     0.198 A 
ATOM     89  C   UNL A   1      46.317  28.464  35.469  1.00  0.00     0.198 A 
ATOM     90  F   UNL A   1      45.417  30.079  34.016  1.00  0.00    -0.203 F 
ATOM     91  F   UNL A   1      44.691  25.935  37.490  1.00  0.00    -0.200 F 
ATOM     92  C   UNL A   1      46.142  27.410  36.352  1.00  0.00     0.200 A 
ATOM     93  F   UNL A   1      47.551  28.916  35.202  1.00  0.00    -0.200 F 
ATOM     94  F   UNL A   1      47.201  26.859  36.958  1.00  0.00    -0.200 F 
ENDBRANCH  61  84
ENDBRANCH  35  36
ENDBRANCH  27  30
ENDBRANCH  25  26
ENDBRANCH  24  25
ENDBRANCH   1  24
TORSDOF 13
ENDMDL
MODEL 3
REMARK VINA RESULT:     -13.1      5.950     11.253
REMARK SMILES CCc1ccc(NC(=O)c2c(C(=O)NCCCNC(=O)c3ccc(-c4c5nc(c(-c6c(F)c(F)c(F)c(F)c6F)c6ccc([nH]6)c(-c6c(F)c(F)c(F)c(F)c6F)c6nc(c(-c7c(F)c(F)c(F)c(F)c7F)c7ccc4[nH]7)C=C6)C=C5)cc3)cnn2C)cc1
REMARK SMILES IDX 15 1 14 2 12 3 13 4 11 6 10 7 86 8 84 9 85 10 87 11 8 12
REMARK SMILES IDX 7 13 9 15 6 16 3 17 4 18 89 19 5 20 88 21 2 22 1 23 16 24
REMARK SMILES IDX 17 25 18 26 19 27 20 29 21 30 22 31 83 32 23 33 82 34 24 35
REMARK SMILES IDX 25 36 26 37 76 38 27 39 81 40 75 41 77 42 28 43 80 44 74 45
REMARK SMILES IDX 73 46 29 48 61 49 41 50 60 51 42 52 45 53 59 54 78 55 43 56
REMARK SMILES IDX 44 57 58 59 79 60 46 61 30 62 31 63 39 64 32 65 33 66 37 67
REMARK SMILES IDX 40 68 34 69 35 70 38 71 36 72 62 73 63 74 71 75 64 76 65 77
REMARK SMILES IDX 69 78 72 79 66 80 67 81 70 82 68 83 47 84 48 85 56 86 49 87
REMARK SMILES IDX 50 88 54 89 57 90 51 91 52 92 55 93 53 94
REMARK H PARENT 14 5 7 14 18 28 77 47 45 58
REMARK Flexibility Score: inf
ROOT
ATOM      1  C   UNL A   1      36.605  20.552  25.188  1.00  0.00     0.118 C 
ENDROOT
BRANCH   1   2
ATOM      2  N   UNL A   1      36.862  21.936  25.475  1.00  0.00    -0.352 N 
ATOM      3  C   UNL A   1      36.086  22.937  25.997  1.00  0.00     0.255 C 
ATOM      4  O   UNL A   1      36.675  24.016  26.123  1.00  0.00    -0.269 OA
ATOM      5  H   UNL A   1      37.778  22.222  25.254  1.00  0.00     0.163 HD
BRANCH   3   6
ATOM      6  C   UNL A   1      34.672  22.845  26.366  1.00  0.00     0.090 A 
ATOM      7  C   UNL A   1      33.436  23.182  25.801  1.00  0.00     0.138 A 
ATOM      8  N   UNL A   1      32.478  22.772  26.703  1.00  0.00    -0.262 N 
ATOM      9  C   UNL A   1      34.294  22.290  27.626  1.00  0.00     0.149 A 
ATOM     10  N   UNL A   1      32.982  22.275  27.840  1.00  0.00    -0.180 NA
ATOM     11  C   UNL A   1      31.040  22.891  26.590  1.00  0.00     0.174 C 
BRANCH   7  12
ATOM     12  C   UNL A   1      33.065  23.760  24.544  1.00  0.00     0.274 C 
ATOM     13  N   UNL A   1      32.795  25.112  24.439  1.00  0.00    -0.321 N 
ATOM     14  H   UNL A   1      32.665  25.418  23.512  1.00  0.00     0.170 HD
ATOM     15  O   UNL A   1      32.976  23.083  23.519  1.00  0.00    -0.267 OA
BRANCH  13  16
ATOM     16  C   UNL A   1      32.669  26.141  25.393  1.00  0.00     0.041 A 
ATOM     17  C   UNL A   1      32.537  28.619  26.727  1.00  0.00    -0.048 A 
ATOM     18  C   UNL A   1      31.401  27.812  26.599  1.00  0.00     0.006 A 
ATOM     19  C   UNL A   1      33.772  28.077  26.359  1.00  0.00     0.006 A 
ATOM     20  C   UNL A   1      31.474  26.572  25.961  1.00  0.00     0.026 A 
ATOM     21  C   UNL A   1      33.837  26.847  25.697  1.00  0.00     0.026 A 
BRANCH  17  22
ATOM     22  C   UNL A   1      32.376  30.026  27.251  1.00  0.00     0.032 C 
ATOM     23  C   UNL A   1      33.652  30.860  27.252  1.00  0.00     0.009 C 
ENDBRANCH  17  22
ENDBRANCH  13  16
ENDBRANCH   7  12
ENDBRANCH   3   6
ENDBRANCH   1   2
BRANCH   1  24
ATOM     24  C   UNL A   1      37.844  19.708  24.977  1.00  0.00     0.042 C 
BRANCH  24  25
ATOM     25  C   UNL A   1      39.052  20.187  25.752  1.00  0.00     0.118 C 
BRANCH  25  26
ATOM     26  N   UNL A   1      40.060  19.146  25.925  1.00  0.00    -0.352 N 
ATOM     27  C   UNL A   1      41.418  19.221  26.125  1.00  0.00     0.251 C 
ATOM     28  H   UNL A   1      39.704  18.229  25.892  1.00  0.00     0.163 HD
ATOM     29  O   UNL A   1      42.098  18.203  26.054  1.00  0.00    -0.269 OA
BRANCH  27  30
ATOM     30  C   UNL A   1      42.073  20.520  26.392  1.00  0.00     0.039 A 
ATOM     31  C   UNL A   1      42.502  21.301  25.314  1.00  0.00     0.014 A 
ATOM     32  C   UNL A   1      42.273  20.972  27.694  1.00  0.00     0.014 A 
ATOM     33  C   UNL A   1      43.043  22.568  25.546  1.00  0.00     0.010 A 
ATOM     34  C   UNL A   1      42.684  22.279  27.919  1.00  0.00     0.010 A 
ATOM     35  C   UNL A   1      43.087  23.088  26.849  1.00  0.00    -0.014 A 
BRANCH  35  36
ATOM     36  C   UNL A   1      43.564  24.467  27.127  1.00  0.00     0.031 A 
ATOM     37  C   UNL A   1      42.604  25.505  27.642  1.00  0.00     0.074 A 
ATOM     38  C   UNL A   1      44.835  24.806  26.836  1.00  0.00     0.049 A 
ATOM     39  N   UNL A   1      42.797  26.783  27.852  1.00  0.00    -0.248 NA
ATOM     40  C   UNL A   1      41.230  25.055  27.921  1.00  0.00     0.031 C 
ATOM     41  C   UNL A   1      45.846  23.905  26.279  1.00  0.00     0.029 A 
ATOM     42  N   UNL A   1      45.493  26.004  26.958  1.00  0.00    -0.354 N 
ATOM     43  C   UNL A   1      41.571  27.286  28.266  1.00  0.00     0.074 A 
ATOM     44  C   UNL A   1      40.624  26.197  28.208  1.00  0.00     0.031 C 
ATOM     45  C   UNL A   1      47.002  24.571  26.139  1.00  0.00     0.029 A 
ATOM     46  C   UNL A   1      46.803  25.958  26.549  1.00  0.00     0.049 A 
ATOM     47  H   UNL A   1      45.066  26.820  27.306  1.00  0.00     0.167 HD
ATOM     48  C   UNL A   1      41.268  28.538  28.685  1.00  0.00     0.037 A 
ATOM     49  C   UNL A   1      47.737  26.927  26.501  1.00  0.00     0.037 A 
ATOM     50  C   UNL A   1      42.223  29.611  28.767  1.00  0.00     0.049 A 
ATOM     51  C   UNL A   1      47.373  28.313  26.962  1.00  0.00     0.074 A 
ATOM     52  C   UNL A   1      42.038  30.897  29.241  1.00  0.00     0.029 A 
ATOM     53  N   UNL A   1      43.546  29.521  28.358  1.00  0.00    -0.354 N 
ATOM     54  N   UNL A   1      46.231  28.760  27.423  1.00  0.00    -0.248 NA
ATOM     55  C   UNL A   1      48.432  29.329  26.899  1.00  0.00     0.031 C 
ATOM     56  C   UNL A   1      43.232  31.602  29.064  1.00  0.00     0.029 A 
ATOM     57  C   UNL A   1      44.181  30.739  28.540  1.00  0.00     0.049 A 
ATOM     58  H   UNL A   1      43.971  28.711  27.991  1.00  0.00     0.167 HD
ATOM     59  C   UNL A   1      46.439  30.097  27.731  1.00  0.00     0.074 A 
ATOM     60  C   UNL A   1      47.824  30.384  27.420  1.00  0.00     0.031 C 
ATOM     61  C   UNL A   1      45.563  31.005  28.228  1.00  0.00     0.037 A 
BRANCH  48  62
ATOM     62  C   UNL A   1      39.846  28.809  29.090  1.00  0.00     0.064 A 
ATOM     63  C   UNL A   1      39.409  28.643  30.414  1.00  0.00     0.173 A 
ATOM     64  C   UNL A   1      38.911  29.260  28.146  1.00  0.00     0.173 A 
ATOM     65  F   UNL A   1      40.258  28.201  31.355  1.00  0.00    -0.203 F 
ATOM     66  C   UNL A   1      38.083  28.877  30.768  1.00  0.00     0.198 A 
ATOM     67  C   UNL A   1      37.595  29.531  28.512  1.00  0.00     0.198 A 
ATOM     68  F   UNL A   1      39.274  29.444  26.868  1.00  0.00    -0.203 F 
ATOM     69  F   UNL A   1      37.676  28.648  32.025  1.00  0.00    -0.200 F 
ATOM     70  C   UNL A   1      37.179  29.329  29.819  1.00  0.00     0.200 A 
ATOM     71  F   UNL A   1      36.726  29.981  27.596  1.00  0.00    -0.200 F 
ATOM     72  F   UNL A   1      35.904  29.560  30.162  1.00  0.00    -0.200 F 
ENDBRANCH  48  62
BRANCH  49  73
ATOM     73  C   UNL A   1      49.109  26.613  26.025  1.00  0.00     0.064 A 
ATOM     74  C   UNL A   1      49.499  26.907  24.710  1.00  0.00     0.173 A 
ATOM     75  C   UNL A   1      50.060  26.019  26.868  1.00  0.00     0.173 A 
ATOM     76  F   UNL A   1      48.621  27.458  23.859  1.00  0.00    -0.203 F 
ATOM     77  C   UNL A   1      50.779  26.600  24.251  1.00  0.00     0.198 A 
ATOM     78  C   UNL A   1      51.349  25.742  26.417  1.00  0.00     0.198 A 
ATOM     79  F   UNL A   1      49.743  25.725  28.137  1.00  0.00    -0.203 F 
ATOM     80  F   UNL A   1      51.108  26.851  22.977  1.00  0.00    -0.200 F 
ATOM     81  C   UNL A   1      51.705  26.024  25.107  1.00  0.00     0.200 A 
ATOM     82  F   UNL A   1      52.247  25.203  27.253  1.00  0.00    -0.200 F 
ATOM     83  F   UNL A   1      52.938  25.737  24.668  1.00  0.00    -0.200 F 
ENDBRANCH  49  73
BRANCH  61  84
ATOM     84  C   UNL A   1      46.083  32.388  28.498  1.00  0.00     0.064 A 
ATOM     85  C   UNL A   1      46.668  32.732  29.724  1.00  0.00     0.173 A 
ATOM     86  C   UNL A   1      46.035  33.370  27.495  1.00  0.00     0.173 A 
ATOM     87  F   UNL A   1      46.725  31.835  30.721  1.00  0.00    -0.203 F 
ATOM     88  C   UNL A   1      47.161  34.015  29.948  1.00  0.00     0.198 A 
ATOM     89  C   UNL A   1      46.559  34.640  27.710  1.00  0.00     0.198 A 
ATOM     90  F   UNL A   1      45.492  33.091  26.300  1.00  0.00    -0.203 F 
ATOM     91  F   UNL A   1      47.668  34.336  31.146  1.00  0.00    -0.200 F 
ATOM     92  C   UNL A   1      47.114  34.965  28.938  1.00  0.00     0.200 A 
ATOM     93  F   UNL A   1      46.529  35.551  26.726  1.00  0.00    -0.200 F 
ATOM     94  F   UNL A   1      47.599  36.195  29.151  1.00  0.00    -0.200 F 
ENDBRANCH  61  84
ENDBRANCH  35  36
ENDBRANCH  27  30
ENDBRANCH  25  26
ENDBRANCH  24  25
ENDBRANCH   1  24
TORSDOF 13
ENDMDL
