MODEL 1
REMARK VINA RESULT:     -14.9      0.000      0.000
REMARK SMILES Cc1ccccc1C(=O)Nc1ccc(OCC(=O)NCCCNC(=O)c2ccc(-c3c4nc(c(-c5c(F)c(F)c(F)c(F)c5F)c5ccc([nH]5)c(-c5c(F)c(F)c(F)c(F)c5F)c5nc(c(-c6c(F)c(F)c(F)c(F)c6F)c6ccc3[nH]6)C=C5)C=C4)cc2)c(-c2nc3ccccc3s2)c1
REMARK SMILES IDX 20 1 19 2 17 3 18 4 16 6 15 7 14 8 11 9 12 10 99 11 13 12
REMARK SMILES IDX 89 13 10 14 8 15 9 16 7 18 1 19 2 20 3 21 4 22 6 23 5 24
REMARK SMILES IDX 90 25 91 26 98 27 92 28 97 29 93 30 96 31 94 32 95 33 21 34
REMARK SMILES IDX 22 35 23 36 24 37 25 39 26 40 27 41 88 42 28 43 87 44 29 45
REMARK SMILES IDX 30 46 31 47 81 48 32 49 86 50 80 51 82 52 33 53 85 54 79 55
REMARK SMILES IDX 78 56 34 58 66 59 46 60 65 61 47 62 50 63 64 64 83 65 48 66
REMARK SMILES IDX 49 67 63 69 84 70 51 71 35 72 36 73 44 74 37 75 38 76 42 77
REMARK SMILES IDX 45 78 39 79 40 80 43 81 41 82 67 83 68 84 76 85 69 86 70 87
REMARK SMILES IDX 74 88 77 89 71 90 72 91 75 92 73 93 52 94 53 95 61 96 54 97
REMARK SMILES IDX 55 98 59 99 62 100 56 101 57 102 60 103 58 104
REMARK H PARENT 19 5 10 17 23 38 82 57 50 68
REMARK Flexibility Score: inf
ROOT
ATOM      1  C   UNL A   1      31.788  30.252  26.123  1.00  0.00     0.117 C 
ENDROOT
BRANCH   1   2
ATOM      2  N   UNL A   1      32.556  29.714  25.019  1.00  0.00    -0.353 N 
ATOM      3  C   UNL A   1      33.273  28.547  24.984  1.00  0.00     0.257 C 
ATOM      4  O   UNL A   1      34.039  28.396  24.035  1.00  0.00    -0.271 OA
ATOM      5  H   UNL A   1      32.566  30.252  24.194  1.00  0.00     0.163 HD
BRANCH   3   6
ATOM      6  C   UNL A   1      33.049  27.501  26.118  1.00  0.00     0.329 C 
BRANCH   6   7
ATOM      7  O   UNL A   1      31.779  26.955  26.458  1.00  0.00    -0.483 OA
BRANCH   7   8
ATOM      8  C   UNL A   1      31.606  25.662  26.047  1.00  0.00     0.130 A 
ATOM      9  C   UNL A   1      31.462  22.998  25.237  1.00  0.00     0.042 A 
ATOM     10  C   UNL A   1      32.023  23.314  26.474  1.00  0.00     0.030 A 
ATOM     11  C   UNL A   1      30.843  23.999  24.484  1.00  0.00     0.041 A 
ATOM     12  C   UNL A   1      32.128  24.648  26.862  1.00  0.00     0.049 A 
ATOM     13  C   UNL A   1      30.863  25.352  24.892  1.00  0.00     0.055 A 
BRANCH   9  14
ATOM     14  N   UNL A   1      31.598  21.676  24.792  1.00  0.00    -0.322 N 
ATOM     15  C   UNL A   1      32.662  21.032  24.198  1.00  0.00     0.255 C 
ATOM     16  O   UNL A   1      32.476  19.910  23.721  1.00  0.00    -0.269 OA
ATOM     17  H   UNL A   1      30.800  21.116  24.925  1.00  0.00     0.170 HD
BRANCH  15  18
ATOM     18  C   UNL A   1      34.051  21.581  24.191  1.00  0.00     0.043 A 
ATOM     19  C   UNL A   1      33.679  23.355  22.352  1.00  0.00     0.045 C 
ATOM     20  C   UNL A   1      34.521  22.611  23.349  1.00  0.00    -0.038 A 
ATOM     21  C   UNL A   1      35.868  23.009  23.450  1.00  0.00     0.004 A 
ATOM     22  C   UNL A   1      36.701  22.490  24.440  1.00  0.00     0.000 A 
ATOM     23  C   UNL A   1      34.895  21.093  25.208  1.00  0.00     0.014 A 
ATOM     24  C   UNL A   1      36.206  21.554  25.339  1.00  0.00     0.001 A 
ENDBRANCH  15  18
ENDBRANCH   9  14
BRANCH  13  25
ATOM     25  C   UNL A   1      30.170  26.336  24.021  1.00  0.00     0.128 A 
ATOM     26  N   UNL A   1      30.810  27.224  23.278  1.00  0.00    -0.236 NA
ATOM     27  S   UNL A   1      28.453  26.457  23.894  1.00  0.00    -0.114 S 
ATOM     28  C   UNL A   1      29.935  28.208  22.851  1.00  0.00     0.082 A 
ATOM     29  C   UNL A   1      28.604  28.011  23.203  1.00  0.00     0.055 A 
ATOM     30  C   UNL A   1      30.280  29.379  22.153  1.00  0.00     0.030 A 
ATOM     31  C   UNL A   1      27.613  28.978  22.977  1.00  0.00     0.021 A 
ATOM     32  C   UNL A   1      29.303  30.350  21.911  1.00  0.00     0.002 A 
ATOM     33  C   UNL A   1      27.993  30.162  22.343  1.00  0.00     0.002 A 
ENDBRANCH  13  25
ENDBRANCH   7   8
ENDBRANCH   6   7
ENDBRANCH   3   6
ENDBRANCH   1   2
BRANCH   1  34
ATOM     34  C   UNL A   1      32.601  31.300  26.877  1.00  0.00     0.042 C 
BRANCH  34  35
ATOM     35  C   UNL A   1      33.838  30.710  27.543  1.00  0.00     0.118 C 
BRANCH  35  36
ATOM     36  N   UNL A   1      34.474  31.616  28.489  1.00  0.00    -0.352 N 
ATOM     37  C   UNL A   1      35.607  31.445  29.266  1.00  0.00     0.251 C 
ATOM     38  H   UNL A   1      34.030  32.487  28.593  1.00  0.00     0.163 HD
ATOM     39  O   UNL A   1      35.940  32.316  30.048  1.00  0.00    -0.269 OA
BRANCH  37  40
ATOM     40  C   UNL A   1      36.487  30.271  29.040  1.00  0.00     0.039 A 
ATOM     41  C   UNL A   1      36.750  29.432  30.133  1.00  0.00     0.014 A 
ATOM     42  C   UNL A   1      37.180  30.097  27.846  1.00  0.00     0.014 A 
ATOM     43  C   UNL A   1      37.866  28.598  30.104  1.00  0.00     0.010 A 
ATOM     44  C   UNL A   1      38.342  29.355  27.851  1.00  0.00     0.010 A 
ATOM     45  C   UNL A   1      38.715  28.656  29.001  1.00  0.00    -0.014 A 
BRANCH  45  46
ATOM     46  C   UNL A   1      40.061  28.105  28.993  1.00  0.00     0.031 A 
ATOM     47  C   UNL A   1      40.286  26.690  28.640  1.00  0.00     0.074 A 
ATOM     48  C   UNL A   1      41.107  28.937  29.187  1.00  0.00     0.049 A 
ATOM     49  N   UNL A   1      41.328  26.017  28.991  1.00  0.00    -0.248 NA
ATOM     50  C   UNL A   1      39.323  25.902  27.881  1.00  0.00     0.031 C 
ATOM     51  C   UNL A   1      42.516  28.664  28.919  1.00  0.00     0.029 A 
ATOM     52  N   UNL A   1      41.112  30.176  29.854  1.00  0.00    -0.354 N 
ATOM     53  C   UNL A   1      41.314  24.828  28.297  1.00  0.00     0.074 A 
ATOM     54  C   UNL A   1      40.014  24.779  27.667  1.00  0.00     0.031 C 
ATOM     55  C   UNL A   1      43.266  29.507  29.646  1.00  0.00     0.029 A 
ATOM     56  C   UNL A   1      42.362  30.244  30.512  1.00  0.00     0.049 A 
ATOM     57  H   UNL A   1      40.396  30.853  29.860  1.00  0.00     0.167 HD
ATOM     58  C   UNL A   1      42.456  24.085  28.227  1.00  0.00     0.037 A 
ATOM     59  C   UNL A   1      42.452  30.290  31.872  1.00  0.00     0.037 A 
ATOM     60  C   UNL A   1      43.534  24.711  28.987  1.00  0.00     0.049 A 
ATOM     61  C   UNL A   1      43.248  29.155  32.467  1.00  0.00     0.074 A 
ATOM     62  C   UNL A   1      44.579  25.539  28.608  1.00  0.00     0.029 A 
ATOM     63  N   UNL A   1      43.447  24.793  30.372  1.00  0.00    -0.354 N 
ATOM     64  N   UNL A   1      43.449  28.018  31.862  1.00  0.00    -0.248 NA
ATOM     65  C   UNL A   1      43.862  29.202  33.790  1.00  0.00     0.031 C 
ATOM     66  C   UNL A   1      45.103  26.148  29.772  1.00  0.00     0.029 A 
ATOM     67  C   UNL A   1      44.389  25.677  30.861  1.00  0.00     0.049 A 
ATOM     68  H   UNL A   1      42.807  24.291  30.926  1.00  0.00     0.167 HD
ATOM     69  C   UNL A   1      44.184  27.193  32.674  1.00  0.00     0.074 A 
ATOM     70  C   UNL A   1      44.429  27.986  33.863  1.00  0.00     0.031 C 
ATOM     71  C   UNL A   1      44.522  25.926  32.287  1.00  0.00     0.037 A 
BRANCH  58  72
ATOM     72  C   UNL A   1      42.684  22.966  27.233  1.00  0.00     0.064 A 
ATOM     73  C   UNL A   1      42.045  21.715  27.390  1.00  0.00     0.173 A 
ATOM     74  C   UNL A   1      43.555  23.046  26.131  1.00  0.00     0.173 A 
ATOM     75  F   UNL A   1      41.100  21.520  28.317  1.00  0.00    -0.203 F 
ATOM     76  C   UNL A   1      42.354  20.608  26.595  1.00  0.00     0.198 A 
ATOM     77  C   UNL A   1      43.906  21.924  25.370  1.00  0.00     0.198 A 
ATOM     78  F   UNL A   1      44.047  24.220  25.720  1.00  0.00    -0.203 F 
ATOM     79  F   UNL A   1      41.720  19.445  26.801  1.00  0.00    -0.200 F 
ATOM     80  C   UNL A   1      43.316  20.700  25.612  1.00  0.00     0.200 A 
ATOM     81  F   UNL A   1      44.819  22.042  24.395  1.00  0.00    -0.200 F 
ATOM     82  F   UNL A   1      43.646  19.628  24.881  1.00  0.00    -0.200 F 
ENDBRANCH  58  72
BRANCH  59  83
ATOM     83  C   UNL A   1      41.284  30.946  32.515  1.00  0.00     0.064 A 
ATOM     84  C   UNL A   1      41.196  32.350  32.452  1.00  0.00     0.173 A 
ATOM     85  C   UNL A   1      40.115  30.235  32.807  1.00  0.00     0.173 A 
ATOM     86  F   UNL A   1      42.289  33.078  32.172  1.00  0.00    -0.203 F 
ATOM     87  C   UNL A   1      39.970  33.004  32.551  1.00  0.00     0.198 A 
ATOM     88  C   UNL A   1      38.889  30.896  32.920  1.00  0.00     0.198 A 
ATOM     89  F   UNL A   1      40.131  28.896  32.865  1.00  0.00    -0.203 F 
ATOM     90  F   UNL A   1      39.903  34.330  32.365  1.00  0.00    -0.200 F 
ATOM     91  C   UNL A   1      38.813  32.273  32.755  1.00  0.00     0.200 A 
ATOM     92  F   UNL A   1      37.763  30.188  33.093  1.00  0.00    -0.200 F 
ATOM     93  F   UNL A   1      37.621  32.887  32.750  1.00  0.00    -0.200 F 
ENDBRANCH  59  83
BRANCH  71  94
ATOM     94  C   UNL A   1      45.105  24.837  33.160  1.00  0.00     0.064 A 
ATOM     95  C   UNL A   1      44.408  23.684  33.554  1.00  0.00     0.173 A 
ATOM     96  C   UNL A   1      46.481  24.859  33.508  1.00  0.00     0.173 A 
ATOM     97  F   UNL A   1      43.137  23.476  33.189  1.00  0.00    -0.203 F 
ATOM     98  C   UNL A   1      45.019  22.664  34.293  1.00  0.00     0.198 A 
ATOM     99  C   UNL A   1      47.100  23.812  34.189  1.00  0.00     0.198 A 
ATOM    100  F   UNL A   1      47.277  25.884  33.172  1.00  0.00    -0.203 F 
ATOM    101  F   UNL A   1      44.295  21.604  34.680  1.00  0.00    -0.200 F 
ATOM    102  C   UNL A   1      46.365  22.720  34.597  1.00  0.00     0.200 A 
ATOM    103  F   UNL A   1      48.419  23.860  34.425  1.00  0.00    -0.200 F 
ATOM    104  F   UNL A   1      46.955  21.718  35.259  1.00  0.00    -0.200 F 
ENDBRANCH  71  94
ENDBRANCH  45  46
ENDBRANCH  37  40
ENDBRANCH  35  36
ENDBRANCH  34  35
ENDBRANCH   1  34
TORSDOF 15
ENDMDL
MODEL 2
REMARK VINA RESULT:     -14.3      2.092      3.153
REMARK SMILES Cc1ccccc1C(=O)Nc1ccc(OCC(=O)NCCCNC(=O)c2ccc(-c3c4nc(c(-c5c(F)c(F)c(F)c(F)c5F)c5ccc([nH]5)c(-c5c(F)c(F)c(F)c(F)c5F)c5nc(c(-c6c(F)c(F)c(F)c(F)c6F)c6ccc3[nH]6)C=C5)C=C4)cc2)c(-c2nc3ccccc3s2)c1
REMARK SMILES IDX 20 1 19 2 17 3 18 4 16 6 15 7 14 8 11 9 12 10 99 11 13 12
REMARK SMILES IDX 89 13 10 14 8 15 9 16 7 18 1 19 2 20 3 21 4 22 6 23 5 24
REMARK SMILES IDX 90 25 91 26 98 27 92 28 97 29 93 30 96 31 94 32 95 33 21 34
REMARK SMILES IDX 22 35 23 36 24 37 25 39 26 40 27 41 88 42 28 43 87 44 29 45
REMARK SMILES IDX 30 46 31 47 81 48 32 49 86 50 80 51 82 52 33 53 85 54 79 55
REMARK SMILES IDX 78 56 34 58 66 59 46 60 65 61 47 62 50 63 64 64 83 65 48 66
REMARK SMILES IDX 49 67 63 69 84 70 51 71 35 72 36 73 44 74 37 75 38 76 42 77
REMARK SMILES IDX 45 78 39 79 40 80 43 81 41 82 67 83 68 84 76 85 69 86 70 87
REMARK SMILES IDX 74 88 77 89 71 90 72 91 75 92 73 93 52 94 53 95 61 96 54 97
REMARK SMILES IDX 55 98 59 99 62 100 56 101 57 102 60 103 58 104
REMARK H PARENT 19 5 10 17 23 38 82 57 50 68
REMARK Flexibility Score: inf
ROOT
ATOM      1  C   UNL A   1      33.090  30.411  26.822  1.00  0.00     0.117 C 
ENDROOT
BRANCH   1   2
ATOM      2  N   UNL A   1      33.404  29.740  25.576  1.00  0.00    -0.353 N 
ATOM      3  C   UNL A   1      33.527  28.393  25.355  1.00  0.00     0.257 C 
ATOM      4  O   UNL A   1      34.026  28.052  24.286  1.00  0.00    -0.271 OA
ATOM      5  H   UNL A   1      33.546  30.321  24.795  1.00  0.00     0.163 HD
BRANCH   3   6
ATOM      6  C   UNL A   1      33.009  27.408  26.447  1.00  0.00     0.329 C 
BRANCH   6   7
ATOM      7  O   UNL A   1      31.672  26.925  26.512  1.00  0.00    -0.483 OA
BRANCH   7   8
ATOM      8  C   UNL A   1      31.530  25.634  26.079  1.00  0.00     0.130 A 
ATOM      9  C   UNL A   1      31.448  22.981  25.228  1.00  0.00     0.042 A 
ATOM     10  C   UNL A   1      31.968  23.287  26.485  1.00  0.00     0.030 A 
ATOM     11  C   UNL A   1      30.837  23.984  24.471  1.00  0.00     0.041 A 
ATOM     12  C   UNL A   1      32.043  24.617  26.895  1.00  0.00     0.049 A 
ATOM     13  C   UNL A   1      30.826  25.331  24.898  1.00  0.00     0.055 A 
BRANCH   9  14
ATOM     14  N   UNL A   1      31.616  21.668  24.769  1.00  0.00    -0.322 N 
ATOM     15  C   UNL A   1      32.695  21.057  24.164  1.00  0.00     0.255 C 
ATOM     16  O   UNL A   1      32.535  19.936  23.676  1.00  0.00    -0.269 OA
ATOM     17  H   UNL A   1      30.834  21.085  24.898  1.00  0.00     0.170 HD
BRANCH  15  18
ATOM     18  C   UNL A   1      34.069  21.641  24.158  1.00  0.00     0.043 A 
ATOM     19  C   UNL A   1      33.658  23.393  22.306  1.00  0.00     0.045 C 
ATOM     20  C   UNL A   1      34.515  22.678  23.311  1.00  0.00    -0.038 A 
ATOM     21  C   UNL A   1      35.852  23.111  23.415  1.00  0.00     0.004 A 
ATOM     22  C   UNL A   1      36.694  22.621  24.410  1.00  0.00     0.000 A 
ATOM     23  C   UNL A   1      34.921  21.182  25.182  1.00  0.00     0.014 A 
ATOM     24  C   UNL A   1      36.220  21.678  25.314  1.00  0.00     0.001 A 
ENDBRANCH  15  18
ENDBRANCH   9  14
BRANCH  13  25
ATOM     25  C   UNL A   1      30.144  26.317  24.021  1.00  0.00     0.128 A 
ATOM     26  N   UNL A   1      30.794  27.187  23.266  1.00  0.00    -0.236 NA
ATOM     27  S   UNL A   1      28.429  26.466  23.901  1.00  0.00    -0.114 S 
ATOM     28  C   UNL A   1      29.934  28.181  22.833  1.00  0.00     0.082 A 
ATOM     29  C   UNL A   1      28.601  28.010  23.194  1.00  0.00     0.055 A 
ATOM     30  C   UNL A   1      30.294  29.339  22.121  1.00  0.00     0.030 A 
ATOM     31  C   UNL A   1      27.625  28.990  22.964  1.00  0.00     0.021 A 
ATOM     32  C   UNL A   1      29.332  30.324  21.875  1.00  0.00     0.002 A 
ATOM     33  C   UNL A   1      28.021  30.161  22.315  1.00  0.00     0.002 A 
ENDBRANCH  13  25
ENDBRANCH   7   8
ENDBRANCH   6   7
ENDBRANCH   3   6
ENDBRANCH   1   2
BRANCH   1  34
ATOM     34  C   UNL A   1      34.347  30.570  27.672  1.00  0.00     0.042 C 
BRANCH  34  35
ATOM     35  C   UNL A   1      34.907  31.986  27.626  1.00  0.00     0.118 C 
BRANCH  35  36
ATOM     36  N   UNL A   1      34.187  32.922  28.477  1.00  0.00    -0.352 N 
ATOM     37  C   UNL A   1      34.560  33.511  29.673  1.00  0.00     0.251 C 
ATOM     38  H   UNL A   1      33.294  33.177  28.152  1.00  0.00     0.163 HD
ATOM     39  O   UNL A   1      33.773  34.228  30.264  1.00  0.00    -0.269 OA
BRANCH  37  40
ATOM     40  C   UNL A   1      35.957  33.382  30.156  1.00  0.00     0.039 A 
ATOM     41  C   UNL A   1      36.977  33.917  29.356  1.00  0.00     0.014 A 
ATOM     42  C   UNL A   1      36.278  32.603  31.263  1.00  0.00     0.014 A 
ATOM     43  C   UNL A   1      38.286  33.471  29.523  1.00  0.00     0.010 A 
ATOM     44  C   UNL A   1      37.548  32.078  31.365  1.00  0.00     0.010 A 
ATOM     45  C   UNL A   1      38.535  32.466  30.455  1.00  0.00    -0.014 A 
BRANCH  45  46
ATOM     46  C   UNL A   1      39.763  31.688  30.490  1.00  0.00     0.031 A 
ATOM     47  C   UNL A   1      39.838  30.379  29.811  1.00  0.00     0.074 A 
ATOM     48  C   UNL A   1      40.867  32.238  31.040  1.00  0.00     0.049 A 
ATOM     49  N   UNL A   1      40.688  29.459  30.114  1.00  0.00    -0.248 NA
ATOM     50  C   UNL A   1      38.924  29.989  28.745  1.00  0.00     0.031 C 
ATOM     51  C   UNL A   1      42.246  31.775  30.908  1.00  0.00     0.029 A 
ATOM     52  N   UNL A   1      40.933  33.262  32.003  1.00  0.00    -0.354 N 
ATOM     53  C   UNL A   1      40.626  28.492  29.136  1.00  0.00     0.074 A 
ATOM     54  C   UNL A   1      39.470  28.839  28.342  1.00  0.00     0.031 C 
ATOM     55  C   UNL A   1      42.966  32.267  31.929  1.00  0.00     0.029 A 
ATOM     56  C   UNL A   1      42.037  32.936  32.823  1.00  0.00     0.049 A 
ATOM     57  H   UNL A   1      40.336  34.041  32.088  1.00  0.00     0.167 HD
ATOM     58  C   UNL A   1      41.640  27.584  29.034  1.00  0.00     0.037 A 
ATOM     59  C   UNL A   1      41.884  32.642  34.146  1.00  0.00     0.037 A 
ATOM     60  C   UNL A   1      42.641  27.799  30.074  1.00  0.00     0.049 A 
ATOM     61  C   UNL A   1      42.382  31.270  34.527  1.00  0.00     0.074 A 
ATOM     62  C   UNL A   1      43.848  28.481  30.076  1.00  0.00     0.029 A 
ATOM     63  N   UNL A   1      42.316  27.567  31.405  1.00  0.00    -0.354 N 
ATOM     64  N   UNL A   1      42.520  30.290  33.677  1.00  0.00    -0.248 NA
ATOM     65  C   UNL A   1      42.744  30.888  35.887  1.00  0.00     0.031 C 
ATOM     66  C   UNL A   1      44.234  28.688  31.421  1.00  0.00     0.029 A 
ATOM     67  C   UNL A   1      43.272  28.118  32.236  1.00  0.00     0.049 A 
ATOM     68  H   UNL A   1      41.519  27.078  31.713  1.00  0.00     0.167 HD
ATOM     69  C   UNL A   1      42.966  29.174  34.338  1.00  0.00     0.074 A 
ATOM     70  C   UNL A   1      43.103  29.604  35.716  1.00  0.00     0.031 C 
ATOM     71  C   UNL A   1      43.178  27.994  33.682  1.00  0.00     0.037 A 
BRANCH  58  72
ATOM     72  C   UNL A   1      41.878  26.708  27.822  1.00  0.00     0.064 A 
ATOM     73  C   UNL A   1      41.169  25.498  27.651  1.00  0.00     0.173 A 
ATOM     74  C   UNL A   1      42.823  26.981  26.816  1.00  0.00     0.173 A 
ATOM     75  F   UNL A   1      40.155  25.157  28.456  1.00  0.00    -0.203 F 
ATOM     76  C   UNL A   1      41.475  24.583  26.640  1.00  0.00     0.198 A 
ATOM     77  C   UNL A   1      43.168  26.042  25.837  1.00  0.00     0.198 A 
ATOM     78  F   UNL A   1      43.399  28.185  26.714  1.00  0.00    -0.203 F 
ATOM     79  F   UNL A   1      40.772  23.446  26.538  1.00  0.00    -0.200 F 
ATOM     80  C   UNL A   1      42.503  24.835  25.758  1.00  0.00     0.200 A 
ATOM     81  F   UNL A   1      44.149  26.321  24.966  1.00  0.00    -0.200 F 
ATOM     82  F   UNL A   1      42.829  23.938  24.818  1.00  0.00    -0.200 F 
ENDBRANCH  58  72
BRANCH  59  83
ATOM     83  C   UNL A   1      40.728  33.337  34.770  1.00  0.00     0.064 A 
ATOM     84  C   UNL A   1      39.524  32.620  34.914  1.00  0.00     0.173 A 
ATOM     85  C   UNL A   1      40.899  34.481  35.557  1.00  0.00     0.173 A 
ATOM     86  F   UNL A   1      39.312  31.513  34.184  1.00  0.00    -0.203 F 
ATOM     87  C   UNL A   1      38.591  32.960  35.891  1.00  0.00     0.198 A 
ATOM     88  C   UNL A   1      39.954  34.827  36.526  1.00  0.00     0.198 A 
ATOM     89  F   UNL A   1      42.030  35.196  35.478  1.00  0.00    -0.203 F 
ATOM     90  F   UNL A   1      37.513  32.187  36.084  1.00  0.00    -0.200 F 
ATOM     91  C   UNL A   1      38.822  34.047  36.716  1.00  0.00     0.200 A 
ATOM     92  F   UNL A   1      40.187  35.864  37.344  1.00  0.00    -0.200 F 
ATOM     93  F   UNL A   1      37.977  34.317  37.721  1.00  0.00    -0.200 F 
ENDBRANCH  59  83
BRANCH  71  94
ATOM     94  C   UNL A   1      43.425  26.640  34.310  1.00  0.00     0.064 A 
ATOM     95  C   UNL A   1      42.417  25.821  34.841  1.00  0.00     0.173 A 
ATOM     96  C   UNL A   1      44.714  26.049  34.251  1.00  0.00     0.173 A 
ATOM     97  F   UNL A   1      41.134  26.203  34.845  1.00  0.00    -0.203 F 
ATOM     98  C   UNL A   1      42.685  24.539  35.335  1.00  0.00     0.198 A 
ATOM     99  C   UNL A   1      44.965  24.748  34.686  1.00  0.00     0.198 A 
ATOM    100  F   UNL A   1      45.768  26.704  33.743  1.00  0.00    -0.203 F 
ATOM    101  F   UNL A   1      41.692  23.815  35.871  1.00  0.00    -0.200 F 
ATOM    102  C   UNL A   1      43.953  23.998  35.244  1.00  0.00     0.200 A 
ATOM    103  F   UNL A   1      46.189  24.222  34.539  1.00  0.00    -0.200 F 
ATOM    104  F   UNL A   1      44.193  22.752  35.671  1.00  0.00    -0.200 F 
ENDBRANCH  71  94
ENDBRANCH  45  46
ENDBRANCH  37  40
ENDBRANCH  35  36
ENDBRANCH  34  35
ENDBRANCH   1  34
TORSDOF 15
ENDMDL
MODEL 3
REMARK VINA RESULT:     -14.2      1.190      1.704
REMARK SMILES Cc1ccccc1C(=O)Nc1ccc(OCC(=O)NCCCNC(=O)c2ccc(-c3c4nc(c(-c5c(F)c(F)c(F)c(F)c5F)c5ccc([nH]5)c(-c5c(F)c(F)c(F)c(F)c5F)c5nc(c(-c6c(F)c(F)c(F)c(F)c6F)c6ccc3[nH]6)C=C5)C=C4)cc2)c(-c2nc3ccccc3s2)c1
REMARK SMILES IDX 20 1 19 2 17 3 18 4 16 6 15 7 14 8 11 9 12 10 99 11 13 12
REMARK SMILES IDX 89 13 10 14 8 15 9 16 7 18 1 19 2 20 3 21 4 22 6 23 5 24
REMARK SMILES IDX 90 25 91 26 98 27 92 28 97 29 93 30 96 31 94 32 95 33 21 34
REMARK SMILES IDX 22 35 23 36 24 37 25 39 26 40 27 41 88 42 28 43 87 44 29 45
REMARK SMILES IDX 30 46 31 47 81 48 32 49 86 50 80 51 82 52 33 53 85 54 79 55
REMARK SMILES IDX 78 56 34 58 66 59 46 60 65 61 47 62 50 63 64 64 83 65 48 66
REMARK SMILES IDX 49 67 63 69 84 70 51 71 35 72 36 73 44 74 37 75 38 76 42 77
REMARK SMILES IDX 45 78 39 79 40 80 43 81 41 82 67 83 68 84 76 85 69 86 70 87
REMARK SMILES IDX 74 88 77 89 71 90 72 91 75 92 73 93 52 94 53 95 61 96 54 97
REMARK SMILES IDX 55 98 59 99 62 100 56 101 57 102 60 103 58 104
REMARK H PARENT 19 5 10 17 23 38 82 57 50 68
REMARK Flexibility Score: inf
ROOT
ATOM      1  C   UNL A   1      33.420  28.213  26.860  1.00  0.00     0.117 C 
ENDROOT
BRANCH   1   2
ATOM      2  N   UNL A   1      32.285  28.885  26.260  1.00  0.00    -0.353 N 
ATOM      3  C   UNL A   1      32.219  29.483  25.028  1.00  0.00     0.257 C 
ATOM      4  O   UNL A   1      31.242  30.196  24.812  1.00  0.00    -0.271 OA
ATOM      5  H   UNL A   1      31.464  28.917  26.801  1.00  0.00     0.163 HD
BRANCH   3   6
ATOM      6  C   UNL A   1      33.355  29.200  24.000  1.00  0.00     0.329 C 
BRANCH   6   7
ATOM      7  O   UNL A   1      33.149  28.567  22.741  1.00  0.00    -0.483 OA
BRANCH   7   8
ATOM      8  C   UNL A   1      32.758  27.260  22.838  1.00  0.00     0.130 A 
ATOM      9  C   UNL A   1      32.114  24.548  22.899  1.00  0.00     0.042 A 
ATOM     10  C   UNL A   1      33.416  24.955  23.189  1.00  0.00     0.030 A 
ATOM     11  C   UNL A   1      31.112  25.508  22.730  1.00  0.00     0.041 A 
ATOM     12  C   UNL A   1      33.746  26.307  23.122  1.00  0.00     0.049 A 
ATOM     13  C   UNL A   1      31.403  26.891  22.738  1.00  0.00     0.055 A 
BRANCH   9  14
ATOM     14  N   UNL A   1      31.893  23.173  22.744  1.00  0.00    -0.322 N 
ATOM     15  C   UNL A   1      32.315  22.102  23.504  1.00  0.00     0.255 C 
ATOM     16  O   UNL A   1      32.149  20.965  23.058  1.00  0.00    -0.269 OA
ATOM     17  H   UNL A   1      31.346  22.932  21.963  1.00  0.00     0.170 HD
BRANCH  15  18
ATOM     18  C   UNL A   1      32.872  22.246  24.883  1.00  0.00     0.043 A 
ATOM     19  C   UNL A   1      30.653  22.848  26.058  1.00  0.00     0.045 C 
ATOM     20  C   UNL A   1      32.134  22.601  26.032  1.00  0.00    -0.038 A 
ATOM     21  C   UNL A   1      32.809  22.714  27.263  1.00  0.00     0.004 A 
ATOM     22  C   UNL A   1      34.153  22.365  27.384  1.00  0.00     0.000 A 
ATOM     23  C   UNL A   1      34.220  21.863  25.029  1.00  0.00     0.014 A 
ATOM     24  C   UNL A   1      34.852  21.911  26.273  1.00  0.00     0.001 A 
ENDBRANCH  15  18
ENDBRANCH   9  14
BRANCH  13  25
ATOM     25  C   UNL A   1      30.264  27.826  22.555  1.00  0.00     0.128 A 
ATOM     26  N   UNL A   1      30.266  28.805  21.666  1.00  0.00    -0.236 NA
ATOM     27  S   UNL A   1      28.818  27.767  23.494  1.00  0.00    -0.114 S 
ATOM     28  C   UNL A   1      29.251  29.705  21.944  1.00  0.00     0.082 A 
ATOM     29  C   UNL A   1      28.421  29.353  23.003  1.00  0.00     0.055 A 
ATOM     30  C   UNL A   1      29.028  30.932  21.294  1.00  0.00     0.030 A 
ATOM     31  C   UNL A   1      27.437  30.215  23.510  1.00  0.00     0.021 A 
ATOM     32  C   UNL A   1      28.046  31.801  21.780  1.00  0.00     0.002 A 
ATOM     33  C   UNL A   1      27.280  31.456  22.891  1.00  0.00     0.002 A 
ENDBRANCH  13  25
ENDBRANCH   7   8
ENDBRANCH   6   7
ENDBRANCH   3   6
ENDBRANCH   1   2
BRANCH   1  34
ATOM     34  C   UNL A   1      34.014  29.066  27.977  1.00  0.00     0.042 C 
BRANCH  34  35
ATOM     35  C   UNL A   1      34.318  30.488  27.527  1.00  0.00     0.118 C 
BRANCH  35  36
ATOM     36  N   UNL A   1      34.877  31.323  28.580  1.00  0.00    -0.352 N 
ATOM     37  C   UNL A   1      35.960  31.104  29.414  1.00  0.00     0.251 C 
ATOM     38  H   UNL A   1      34.413  32.179  28.723  1.00  0.00     0.163 HD
ATOM     39  O   UNL A   1      36.228  31.915  30.283  1.00  0.00    -0.269 OA
BRANCH  37  40
ATOM     40  C   UNL A   1      36.872  29.961  29.156  1.00  0.00     0.039 A 
ATOM     41  C   UNL A   1      37.050  29.023  30.182  1.00  0.00     0.014 A 
ATOM     42  C   UNL A   1      37.668  29.907  28.017  1.00  0.00     0.014 A 
ATOM     43  C   UNL A   1      38.175  28.201  30.172  1.00  0.00     0.010 A 
ATOM     44  C   UNL A   1      38.835  29.174  28.053  1.00  0.00     0.010 A 
ATOM     45  C   UNL A   1      39.116  28.369  29.159  1.00  0.00    -0.014 A 
BRANCH  45  46
ATOM     46  C   UNL A   1      40.465  27.827  29.217  1.00  0.00     0.031 A 
ATOM     47  C   UNL A   1      40.742  26.460  28.736  1.00  0.00     0.074 A 
ATOM     48  C   UNL A   1      41.477  28.638  29.597  1.00  0.00     0.049 A 
ATOM     49  N   UNL A   1      41.757  25.758  29.107  1.00  0.00    -0.248 NA
ATOM     50  C   UNL A   1      39.864  25.757  27.809  1.00  0.00     0.031 C 
ATOM     51  C   UNL A   1      42.908  28.402  29.433  1.00  0.00     0.029 A 
ATOM     52  N   UNL A   1      41.402  29.797  30.391  1.00  0.00    -0.354 N 
ATOM     53  C   UNL A   1      41.824  24.652  28.290  1.00  0.00     0.074 A 
ATOM     54  C   UNL A   1      40.589  24.666  27.541  1.00  0.00     0.031 C 
ATOM     55  C   UNL A   1      43.576  29.164  30.314  1.00  0.00     0.029 A 
ATOM     56  C   UNL A   1      42.585  29.798  31.166  1.00  0.00     0.049 A 
ATOM     57  H   UNL A   1      40.679  30.466  30.403  1.00  0.00     0.167 HD
ATOM     58  C   UNL A   1      42.979  23.926  28.248  1.00  0.00     0.037 A 
ATOM     59  C   UNL A   1      42.549  29.696  32.525  1.00  0.00     0.037 A 
ATOM     60  C   UNL A   1      43.972  24.470  29.168  1.00  0.00     0.049 A 
ATOM     61  C   UNL A   1      43.303  28.507  33.066  1.00  0.00     0.074 A 
ATOM     62  C   UNL A   1      45.036  25.339  28.980  1.00  0.00     0.029 A 
ATOM     63  N   UNL A   1      43.757  24.399  30.539  1.00  0.00    -0.354 N 
ATOM     64  N   UNL A   1      43.575  27.443  32.363  1.00  0.00    -0.248 NA
ATOM     65  C   UNL A   1      43.791  28.412  34.438  1.00  0.00     0.031 C 
ATOM     66  C   UNL A   1      45.441  25.819  30.247  1.00  0.00     0.029 A 
ATOM     67  C   UNL A   1      44.637  25.230  31.207  1.00  0.00     0.049 A 
ATOM     68  H   UNL A   1      43.076  23.837  30.974  1.00  0.00     0.167 HD
ATOM     69  C   UNL A   1      44.244  26.538  33.146  1.00  0.00     0.074 A 
ATOM     70  C   UNL A   1      44.367  27.197  34.431  1.00  0.00     0.031 C 
ATOM     71  C   UNL A   1      44.634  25.322  32.658  1.00  0.00     0.037 A 
BRANCH  58  72
ATOM     72  C   UNL A   1      43.313  22.923  27.164  1.00  0.00     0.064 A 
ATOM     73  C   UNL A   1      42.650  21.677  27.099  1.00  0.00     0.173 A 
ATOM     74  C   UNL A   1      44.309  23.109  26.188  1.00  0.00     0.173 A 
ATOM     75  F   UNL A   1      41.600  21.397  27.881  1.00  0.00    -0.203 F 
ATOM     76  C   UNL A   1      43.041  20.660  26.223  1.00  0.00     0.198 A 
ATOM     77  C   UNL A   1      44.738  22.074  25.348  1.00  0.00     0.198 A 
ATOM     78  F   UNL A   1      44.855  24.312  25.975  1.00  0.00    -0.203 F 
ATOM     79  F   UNL A   1      42.378  19.495  26.218  1.00  0.00    -0.200 F 
ATOM     80  C   UNL A   1      44.113  20.843  25.376  1.00  0.00     0.200 A 
ATOM     81  F   UNL A   1      45.761  22.282  24.506  1.00  0.00    -0.200 F 
ATOM     82  F   UNL A   1      44.519  19.854  24.569  1.00  0.00    -0.200 F 
ENDBRANCH  58  72
BRANCH  59  83
ATOM     83  C   UNL A   1      41.317  30.273  33.124  1.00  0.00     0.064 A 
ATOM     84  C   UNL A   1      41.209  31.675  33.193  1.00  0.00     0.173 A 
ATOM     85  C   UNL A   1      40.140  29.526  33.239  1.00  0.00     0.173 A 
ATOM     86  F   UNL A   1      42.309  32.439  33.085  1.00  0.00    -0.203 F 
ATOM     87  C   UNL A   1      39.967  32.305  33.247  1.00  0.00     0.198 A 
ATOM     88  C   UNL A   1      38.898  30.160  33.308  1.00  0.00     0.198 A 
ATOM     89  F   UNL A   1      40.175  28.188  33.165  1.00  0.00    -0.203 F 
ATOM     90  F   UNL A   1      39.892  33.642  33.188  1.00  0.00    -0.200 F 
ATOM     91  C   UNL A   1      38.810  31.545  33.274  1.00  0.00     0.200 A 
ATOM     92  F   UNL A   1      37.774  29.428  33.309  1.00  0.00    -0.200 F 
ATOM     93  F   UNL A   1      37.613  32.146  33.224  1.00  0.00    -0.200 F 
ENDBRANCH  59  83
BRANCH  71  94
ATOM     94  C   UNL A   1      45.150  24.147  33.458  1.00  0.00     0.064 A 
ATOM     95  C   UNL A   1      44.390  23.007  33.765  1.00  0.00     0.173 A 
ATOM     96  C   UNL A   1      46.521  24.074  33.819  1.00  0.00     0.173 A 
ATOM     97  F   UNL A   1      43.115  22.890  33.374  1.00  0.00    -0.203 F 
ATOM     98  C   UNL A   1      44.939  21.908  34.436  1.00  0.00     0.198 A 
ATOM     99  C   UNL A   1      47.077  22.952  34.431  1.00  0.00     0.198 A 
ATOM    100  F   UNL A   1      47.372  25.077  33.563  1.00  0.00    -0.203 F 
ATOM    101  F   UNL A   1      44.157  20.863  34.742  1.00  0.00    -0.200 F 
ATOM    102  C   UNL A   1      46.282  21.874  34.756  1.00  0.00     0.200 A 
ATOM    103  F   UNL A   1      48.394  22.915  34.683  1.00  0.00    -0.200 F 
ATOM    104  F   UNL A   1      46.812  20.799  35.352  1.00  0.00    -0.200 F 
ENDBRANCH  71  94
ENDBRANCH  45  46
ENDBRANCH  37  40
ENDBRANCH  35  36
ENDBRANCH  34  35
ENDBRANCH   1  34
TORSDOF 15
ENDMDL
