MODEL 1
REMARK VINA RESULT:     -11.0      0.000      0.000
REMARK SMILES CC(C)C[C@H](NC(=O)CNC(=O)[C@@H](NC(=O)OCc1ccccc1)C(C)C)C(=O)NCCCNC(=O)c1ccc(-c2c3nc(c(-c4c(F)c(F)c(F)c(F)c4F)c4ccc([nH]4)c(-c4c(F)c(F)c(F)c(F)c4F)c4nc(c(-c5c(F)c(F)c(F)c(F)c5F)c5ccc2[nH]5)C=C4)C=C3)cc1
REMARK SMILES IDX 5 1 4 2 2 3 1 4 3 5 28 6 29 7 30 8 31 10 32 11 33 12 34 13
REMARK SMILES IDX 35 14 36 16 37 17 38 18 99 19 39 20 98 21 40 22 41 23 42 24
REMARK SMILES IDX 92 25 43 26 97 27 91 28 93 29 44 30 96 31 90 32 89 33 45 35
REMARK SMILES IDX 77 36 57 37 76 38 58 39 61 40 75 41 94 42 59 43 60 44 74 46
REMARK SMILES IDX 95 47 62 48 46 49 47 50 55 51 48 52 49 53 53 54 56 55 50 56
REMARK SMILES IDX 51 57 54 58 52 59 78 60 79 61 87 62 80 63 81 64 85 65 88 66
REMARK SMILES IDX 82 67 83 68 86 69 84 70 63 71 64 72 72 73 65 74 66 75 70 76
REMARK SMILES IDX 73 77 67 78 68 79 71 80 69 81 6 82 7 83 8 85 9 86 10 87
REMARK SMILES IDX 11 88 12 90 13 91 14 92 15 93 16 95 17 96 18 97 19 98 20 99
REMARK SMILES IDX 24 100 21 101 23 102 22 103 25 104 26 105 27 106
REMARK H PARENT 30 9 34 15 93 34 61 45 6 84 10 89 14 94
REMARK Flexibility Score: inf
ROOT
ATOM      1  C   UNL A   1      39.888  22.840  26.322  1.00  0.00     0.171 C 
ENDROOT
BRANCH   1   2
ATOM      2  C   UNL A   1      39.273  23.853  27.298  1.00  0.00     0.038 C 
BRANCH   2   3
ATOM      3  C   UNL A   1      40.202  25.039  27.660  1.00  0.00    -0.015 C 
ATOM      4  C   UNL A   1      40.591  25.897  26.457  1.00  0.00     0.007 C 
ATOM      5  C   UNL A   1      39.522  25.919  28.709  1.00  0.00     0.007 C 
ENDBRANCH   2   3
ENDBRANCH   1   2
BRANCH   1   6
ATOM      6  C   UNL A   1      40.854  21.872  27.022  1.00  0.00     0.242 C 
ATOM      7  O   UNL A   1      40.420  20.925  27.685  1.00  0.00    -0.273 OA
ATOM      8  N   UNL A   1      42.195  21.945  26.807  1.00  0.00    -0.354 N 
ATOM      9  H   UNL A   1      42.742  21.346  27.366  1.00  0.00     0.163 HD
BRANCH   8  10
ATOM     10  C   UNL A   1      42.942  22.772  25.879  1.00  0.00     0.117 C 
BRANCH  10  11
ATOM     11  C   UNL A   1      44.433  22.505  25.959  1.00  0.00     0.042 C 
BRANCH  11  12
ATOM     12  C   UNL A   1      45.196  23.612  26.668  1.00  0.00     0.118 C 
BRANCH  12  13
ATOM     13  N   UNL A   1      45.741  24.589  25.734  1.00  0.00    -0.352 N 
ATOM     14  C   UNL A   1      45.514  25.937  25.629  1.00  0.00     0.251 C 
ATOM     15  H   UNL A   1      46.373  24.224  25.073  1.00  0.00     0.163 HD
ATOM     16  O   UNL A   1      45.859  26.537  24.616  1.00  0.00    -0.269 OA
BRANCH  14  17
ATOM     17  C   UNL A   1      44.854  26.665  26.731  1.00  0.00     0.039 A 
ATOM     18  C   UNL A   1      44.933  28.058  26.770  1.00  0.00     0.014 A 
ATOM     19  C   UNL A   1      44.194  25.973  27.748  1.00  0.00     0.014 A 
ATOM     20  C   UNL A   1      44.319  28.753  27.811  1.00  0.00     0.010 A 
ATOM     21  C   UNL A   1      43.475  26.668  28.709  1.00  0.00     0.010 A 
ATOM     22  C   UNL A   1      43.566  28.063  28.778  1.00  0.00    -0.014 A 
BRANCH  22  23
ATOM     23  C   UNL A   1      42.931  28.781  29.908  1.00  0.00     0.031 A 
ATOM     24  C   UNL A   1      41.529  29.311  29.766  1.00  0.00     0.074 A 
ATOM     25  C   UNL A   1      43.623  28.980  31.045  1.00  0.00     0.049 A 
ATOM     26  N   UNL A   1      40.797  29.965  30.632  1.00  0.00    -0.248 NA
ATOM     27  C   UNL A   1      40.870  29.112  28.463  1.00  0.00     0.031 C 
ATOM     28  C   UNL A   1      45.010  28.569  31.276  1.00  0.00     0.029 A 
ATOM     29  N   UNL A   1      43.253  29.575  32.224  1.00  0.00    -0.354 N 
ATOM     30  C   UNL A   1      39.610  30.262  29.976  1.00  0.00     0.074 A 
ATOM     31  C   UNL A   1      39.745  29.791  28.617  1.00  0.00     0.031 C 
ATOM     32  C   UNL A   1      45.358  28.885  32.533  1.00  0.00     0.029 A 
ATOM     33  C   UNL A   1      44.234  29.550  33.184  1.00  0.00     0.049 A 
ATOM     34  H   UNL A   1      42.368  29.981  32.368  1.00  0.00     0.167 HD
ATOM     35  C   UNL A   1      38.491  30.841  30.471  1.00  0.00     0.037 A 
ATOM     36  C   UNL A   1      44.220  30.007  34.450  1.00  0.00     0.037 A 
ATOM     37  C   UNL A   1      38.354  31.283  31.833  1.00  0.00     0.049 A 
ATOM     38  C   UNL A   1      42.958  30.632  34.982  1.00  0.00     0.074 A 
ATOM     39  C   UNL A   1      37.251  31.838  32.455  1.00  0.00     0.029 A 
ATOM     40  N   UNL A   1      39.362  31.218  32.785  1.00  0.00    -0.354 N 
ATOM     41  N   UNL A   1      41.813  30.838  34.376  1.00  0.00    -0.248 NA
ATOM     42  C   UNL A   1      42.982  31.071  36.382  1.00  0.00     0.031 C 
ATOM     43  C   UNL A   1      37.607  32.156  33.771  1.00  0.00     0.029 A 
ATOM     44  C   UNL A   1      38.910  31.736  33.988  1.00  0.00     0.049 A 
ATOM     45  H   UNL A   1      40.264  30.855  32.630  1.00  0.00     0.167 HD
ATOM     46  C   UNL A   1      40.971  31.393  35.330  1.00  0.00     0.074 A 
ATOM     47  C   UNL A   1      41.733  31.474  36.559  1.00  0.00     0.031 C 
ATOM     48  C   UNL A   1      39.681  31.796  35.203  1.00  0.00     0.037 A 
BRANCH  35  49
ATOM     49  C   UNL A   1      37.330  31.023  29.534  1.00  0.00     0.064 A 
ATOM     50  C   UNL A   1      37.064  32.257  28.918  1.00  0.00     0.173 A 
ATOM     51  C   UNL A   1      36.483  29.946  29.230  1.00  0.00     0.173 A 
ATOM     52  F   UNL A   1      37.832  33.324  29.183  1.00  0.00    -0.203 F 
ATOM     53  C   UNL A   1      35.975  32.414  28.064  1.00  0.00     0.198 A 
ATOM     54  C   UNL A   1      35.417  30.098  28.347  1.00  0.00     0.198 A 
ATOM     55  F   UNL A   1      36.691  28.743  29.788  1.00  0.00    -0.203 F 
ATOM     56  F   UNL A   1      35.706  33.617  27.538  1.00  0.00    -0.200 F 
ATOM     57  C   UNL A   1      35.157  31.333  27.773  1.00  0.00     0.200 A 
ATOM     58  F   UNL A   1      34.636  29.048  28.057  1.00  0.00    -0.200 F 
ATOM     59  F   UNL A   1      34.114  31.483  26.946  1.00  0.00    -0.200 F 
ENDBRANCH  35  49
BRANCH  36  60
ATOM     60  C   UNL A   1      45.419  29.844  35.314  1.00  0.00     0.064 A 
ATOM     61  C   UNL A   1      46.446  30.799  35.311  1.00  0.00     0.173 A 
ATOM     62  C   UNL A   1      45.569  28.730  36.151  1.00  0.00     0.173 A 
ATOM     63  F   UNL A   1      46.356  31.876  34.516  1.00  0.00    -0.203 F 
ATOM     64  C   UNL A   1      47.590  30.630  36.087  1.00  0.00     0.198 A 
ATOM     65  C   UNL A   1      46.698  28.577  36.952  1.00  0.00     0.198 A 
ATOM     66  F   UNL A   1      44.612  27.792  36.200  1.00  0.00    -0.203 F 
ATOM     67  F   UNL A   1      48.581  31.530  36.021  1.00  0.00    -0.200 F 
ATOM     68  C   UNL A   1      47.714  29.521  36.910  1.00  0.00     0.200 A 
ATOM     69  F   UNL A   1      46.806  27.514  37.760  1.00  0.00    -0.200 F 
ATOM     70  F   UNL A   1      48.814  29.359  37.658  1.00  0.00    -0.200 F 
ENDBRANCH  36  60
BRANCH  48  71
ATOM     71  C   UNL A   1      38.997  32.303  36.441  1.00  0.00     0.064 A 
ATOM     72  C   UNL A   1      39.171  33.617  36.902  1.00  0.00     0.173 A 
ATOM     73  C   UNL A   1      38.141  31.462  37.167  1.00  0.00     0.173 A 
ATOM     74  F   UNL A   1      39.988  34.459  36.250  1.00  0.00    -0.203 F 
ATOM     75  C   UNL A   1      38.551  34.053  38.069  1.00  0.00     0.198 A 
ATOM     76  C   UNL A   1      37.491  31.914  38.311  1.00  0.00     0.198 A 
ATOM     77  F   UNL A   1      37.929  30.200  36.763  1.00  0.00    -0.203 F 
ATOM     78  F   UNL A   1      38.788  35.290  38.528  1.00  0.00    -0.200 F 
ATOM     79  C   UNL A   1      37.707  33.204  38.769  1.00  0.00     0.200 A 
ATOM     80  F   UNL A   1      36.661  31.097  38.974  1.00  0.00    -0.200 F 
ATOM     81  F   UNL A   1      37.110  33.627  39.892  1.00  0.00    -0.200 F 
ENDBRANCH  48  71
ENDBRANCH  22  23
ENDBRANCH  14  17
ENDBRANCH  12  13
ENDBRANCH  11  12
ENDBRANCH  10  11
ENDBRANCH   8  10
ENDBRANCH   1   6
BRANCH   1  82
ATOM     82  N   UNL A   1      38.908  22.129  25.503  1.00  0.00    -0.343 N 
ATOM     83  C   UNL A   1      37.570  22.317  25.359  1.00  0.00     0.240 C 
ATOM     84  H   UNL A   1      39.279  21.390  24.969  1.00  0.00     0.164 HD
ATOM     85  O   UNL A   1      37.034  21.739  24.406  1.00  0.00    -0.273 OA
BRANCH  83  86
ATOM     86  C   UNL A   1      36.745  23.289  26.221  1.00  0.00     0.216 C 
BRANCH  86  87
ATOM     87  N   UNL A   1      35.972  24.313  25.549  1.00  0.00    -0.345 N 
ATOM     88  C   UNL A   1      34.710  24.336  25.056  1.00  0.00     0.243 C 
ATOM     89  H   UNL A   1      36.460  25.159  25.426  1.00  0.00     0.164 HD
ATOM     90  O   UNL A   1      34.304  25.457  24.719  1.00  0.00    -0.273 OA
BRANCH  88  91
ATOM     91  C   UNL A   1      33.743  23.112  24.987  1.00  0.00     0.177 C 
BRANCH  91  92
ATOM     92  N   UNL A   1      32.787  23.043  26.104  1.00  0.00    -0.309 N 
ATOM     93  C   UNL A   1      31.742  23.826  26.480  1.00  0.00     0.408 C 
ATOM     94  H   UNL A   1      32.933  22.272  26.698  1.00  0.00     0.167 HD
ATOM     95  O   UNL A   1      31.308  23.791  27.617  1.00  0.00    -0.225 OA
BRANCH  93  96
ATOM     96  O   UNL A   1      31.217  24.548  25.469  1.00  0.00    -0.445 OA
BRANCH  96  97
ATOM     97  C   UNL A   1      30.299  25.569  25.878  1.00  0.00     0.270 C 
BRANCH  97  98
ATOM     98  C   UNL A   1      30.826  26.985  25.715  1.00  0.00    -0.011 A 
ATOM     99  C   UNL A   1      30.751  27.707  24.513  1.00  0.00     0.007 A 
ATOM    100  C   UNL A   1      31.360  27.633  26.838  1.00  0.00     0.007 A 
ATOM    101  C   UNL A   1      31.202  29.025  24.429  1.00  0.00     0.000 A 
ATOM    102  C   UNL A   1      31.814  28.952  26.755  1.00  0.00     0.000 A 
ATOM    103  C   UNL A   1      31.735  29.647  25.551  1.00  0.00     0.000 A 
ENDBRANCH  97  98
ENDBRANCH  96  97
ENDBRANCH  93  96
ENDBRANCH  91  92
BRANCH  91 104
ATOM    104  C   UNL A   1      33.192  22.866  23.564  1.00  0.00     0.015 C 
ATOM    105  C   UNL A   1      34.257  23.093  22.479  1.00  0.00     0.010 C 
ATOM    106  C   UNL A   1      32.688  21.425  23.407  1.00  0.00     0.010 C 
ENDBRANCH  91 104
ENDBRANCH  88  91
ENDBRANCH  86  87
ENDBRANCH  83  86
ENDBRANCH   1  82
TORSDOF 21
ENDMDL
MODEL 2
REMARK VINA RESULT:     -10.9      1.211      7.117
REMARK SMILES CC(C)C[C@H](NC(=O)CNC(=O)[C@@H](NC(=O)OCc1ccccc1)C(C)C)C(=O)NCCCNC(=O)c1ccc(-c2c3nc(c(-c4c(F)c(F)c(F)c(F)c4F)c4ccc([nH]4)c(-c4c(F)c(F)c(F)c(F)c4F)c4nc(c(-c5c(F)c(F)c(F)c(F)c5F)c5ccc2[nH]5)C=C4)C=C3)cc1
REMARK SMILES IDX 5 1 4 2 2 3 1 4 3 5 28 6 29 7 30 8 31 10 32 11 33 12 34 13
REMARK SMILES IDX 35 14 36 16 37 17 38 18 99 19 39 20 98 21 40 22 41 23 42 24
REMARK SMILES IDX 92 25 43 26 97 27 91 28 93 29 44 30 96 31 90 32 89 33 45 35
REMARK SMILES IDX 77 36 57 37 76 38 58 39 61 40 75 41 94 42 59 43 60 44 74 46
REMARK SMILES IDX 95 47 62 48 46 49 47 50 55 51 48 52 49 53 53 54 56 55 50 56
REMARK SMILES IDX 51 57 54 58 52 59 78 60 79 61 87 62 80 63 81 64 85 65 88 66
REMARK SMILES IDX 82 67 83 68 86 69 84 70 63 71 64 72 72 73 65 74 66 75 70 76
REMARK SMILES IDX 73 77 67 78 68 79 71 80 69 81 6 82 7 83 8 85 9 86 10 87
REMARK SMILES IDX 11 88 12 90 13 91 14 92 15 93 16 95 17 96 18 97 19 98 20 99
REMARK SMILES IDX 24 100 21 101 23 102 22 103 25 104 26 105 27 106
REMARK H PARENT 30 9 34 15 93 34 61 45 6 84 10 89 14 94
REMARK Flexibility Score: inf
ROOT
ATOM      1  C   UNL A   1      39.804  22.562  26.170  1.00  0.00     0.171 C 
ENDROOT
BRANCH   1   2
ATOM      2  C   UNL A   1      39.200  23.520  27.207  1.00  0.00     0.038 C 
BRANCH   2   3
ATOM      3  C   UNL A   1      40.100  24.730  27.561  1.00  0.00    -0.015 C 
ATOM      4  C   UNL A   1      40.456  25.598  26.356  1.00  0.00     0.007 C 
ATOM      5  C   UNL A   1      39.406  25.591  28.616  1.00  0.00     0.007 C 
ENDBRANCH   2   3
ENDBRANCH   1   2
BRANCH   1   6
ATOM      6  C   UNL A   1      40.880  21.651  26.779  1.00  0.00     0.242 C 
ATOM      7  O   UNL A   1      40.562  20.712  27.516  1.00  0.00    -0.273 OA
ATOM      8  N   UNL A   1      42.184  21.761  26.406  1.00  0.00    -0.354 N 
ATOM      9  H   UNL A   1      42.813  21.200  26.915  1.00  0.00     0.163 HD
BRANCH   8  10
ATOM     10  C   UNL A   1      42.786  22.581  25.374  1.00  0.00     0.117 C 
BRANCH  10  11
ATOM     11  C   UNL A   1      44.264  22.284  25.207  1.00  0.00     0.042 C 
BRANCH  11  12
ATOM     12  C   UNL A   1      45.148  23.167  26.072  1.00  0.00     0.118 C 
BRANCH  12  13
ATOM     13  N   UNL A   1      45.797  24.220  25.300  1.00  0.00    -0.352 N 
ATOM     14  C   UNL A   1      45.647  25.581  25.358  1.00  0.00     0.251 C 
ATOM     15  H   UNL A   1      46.446  23.903  24.630  1.00  0.00     0.163 HD
ATOM     16  O   UNL A   1      46.081  26.282  24.449  1.00  0.00    -0.269 OA
BRANCH  14  17
ATOM     17  C   UNL A   1      44.964  26.203  26.510  1.00  0.00     0.039 A 
ATOM     18  C   UNL A   1      44.125  25.421  27.306  1.00  0.00     0.014 A 
ATOM     19  C   UNL A   1      45.118  27.563  26.782  1.00  0.00     0.014 A 
ATOM     20  C   UNL A   1      43.471  26.001  28.392  1.00  0.00     0.010 A 
ATOM     21  C   UNL A   1      44.573  28.108  27.934  1.00  0.00     0.010 A 
ATOM     22  C   UNL A   1      43.707  27.346  28.727  1.00  0.00    -0.014 A 
BRANCH  22  23
ATOM     23  C   UNL A   1      42.999  27.989  29.860  1.00  0.00     0.031 A 
ATOM     24  C   UNL A   1      43.617  27.977  31.233  1.00  0.00     0.074 A 
ATOM     25  C   UNL A   1      41.794  28.553  29.659  1.00  0.00     0.049 A 
ATOM     26  N   UNL A   1      43.161  28.480  32.352  1.00  0.00    -0.248 NA
ATOM     27  C   UNL A   1      44.905  27.277  31.378  1.00  0.00     0.031 C 
ATOM     28  C   UNL A   1      41.067  28.569  28.388  1.00  0.00     0.029 A 
ATOM     29  N   UNL A   1      40.968  29.227  30.522  1.00  0.00    -0.354 N 
ATOM     30  C   UNL A   1      44.094  28.145  33.324  1.00  0.00     0.074 A 
ATOM     31  C   UNL A   1      45.101  27.329  32.686  1.00  0.00     0.031 C 
ATOM     32  C   UNL A   1      39.926  29.257  28.543  1.00  0.00     0.029 A 
ATOM     33  C   UNL A   1      39.824  29.700  29.930  1.00  0.00     0.049 A 
ATOM     34  H   UNL A   1      41.177  29.358  31.475  1.00  0.00     0.167 HD
ATOM     35  C   UNL A   1      44.131  28.515  34.626  1.00  0.00     0.037 A 
ATOM     36  C   UNL A   1      38.812  30.418  30.450  1.00  0.00     0.037 A 
ATOM     37  C   UNL A   1      43.139  29.350  35.249  1.00  0.00     0.049 A 
ATOM     38  C   UNL A   1      38.884  30.831  31.897  1.00  0.00     0.074 A 
ATOM     39  C   UNL A   1      43.102  29.829  36.545  1.00  0.00     0.029 A 
ATOM     40  N   UNL A   1      42.005  29.833  34.610  1.00  0.00    -0.354 N 
ATOM     41  N   UNL A   1      39.810  30.574  32.789  1.00  0.00    -0.248 NA
ATOM     42  C   UNL A   1      37.776  31.652  32.401  1.00  0.00     0.031 C 
ATOM     43  C   UNL A   1      41.918  30.558  36.706  1.00  0.00     0.029 A 
ATOM     44  C   UNL A   1      41.253  30.592  35.491  1.00  0.00     0.049 A 
ATOM     45  H   UNL A   1      41.770  29.663  33.668  1.00  0.00     0.167 HD
ATOM     46  C   UNL A   1      39.418  31.233  33.946  1.00  0.00     0.074 A 
ATOM     47  C   UNL A   1      38.178  31.915  33.635  1.00  0.00     0.031 C 
ATOM     48  C   UNL A   1      40.029  31.274  35.158  1.00  0.00     0.037 A 
BRANCH  35  49
ATOM     49  C   UNL A   1      45.282  28.022  35.457  1.00  0.00     0.064 A 
ATOM     50  C   UNL A   1      46.475  28.755  35.575  1.00  0.00     0.173 A 
ATOM     51  C   UNL A   1      45.188  26.812  36.160  1.00  0.00     0.173 A 
ATOM     52  F   UNL A   1      46.626  29.912  34.912  1.00  0.00    -0.203 F 
ATOM     53  C   UNL A   1      47.540  28.278  36.336  1.00  0.00     0.198 A 
ATOM     54  C   UNL A   1      46.241  26.357  36.949  1.00  0.00     0.198 A 
ATOM     55  F   UNL A   1      44.072  26.071  36.086  1.00  0.00    -0.203 F 
ATOM     56  F   UNL A   1      48.689  28.965  36.382  1.00  0.00    -0.200 F 
ATOM     57  C   UNL A   1      47.419  27.083  37.028  1.00  0.00     0.200 A 
ATOM     58  F   UNL A   1      46.118  25.208  37.630  1.00  0.00    -0.200 F 
ATOM     59  F   UNL A   1      48.441  26.629  37.766  1.00  0.00    -0.200 F 
ENDBRANCH  35  49
BRANCH  36  60
ATOM     60  C   UNL A   1      37.673  30.833  29.590  1.00  0.00     0.064 A 
ATOM     61  C   UNL A   1      37.563  32.151  29.122  1.00  0.00     0.173 A 
ATOM     62  C   UNL A   1      36.666  29.928  29.227  1.00  0.00     0.173 A 
ATOM     63  F   UNL A   1      38.494  33.058  29.454  1.00  0.00    -0.203 F 
ATOM     64  C   UNL A   1      36.476  32.554  28.351  1.00  0.00     0.198 A 
ATOM     65  C   UNL A   1      35.595  30.324  28.428  1.00  0.00     0.198 A 
ATOM     66  F   UNL A   1      36.726  28.653  29.639  1.00  0.00    -0.203 F 
ATOM     67  F   UNL A   1      36.369  33.833  27.965  1.00  0.00    -0.200 F 
ATOM     68  C   UNL A   1      35.494  31.640  28.001  1.00  0.00     0.200 A 
ATOM     69  F   UNL A   1      34.658  29.433  28.076  1.00  0.00    -0.200 F 
ATOM     70  F   UNL A   1      34.449  32.028  27.258  1.00  0.00    -0.200 F 
ENDBRANCH  36  60
BRANCH  48  71
ATOM     71  C   UNL A   1      39.396  32.133  36.215  1.00  0.00     0.064 A 
ATOM     72  C   UNL A   1      38.326  31.679  37.001  1.00  0.00     0.173 A 
ATOM     73  C   UNL A   1      39.882  33.427  36.455  1.00  0.00     0.173 A 
ATOM     74  F   UNL A   1      37.816  30.452  36.805  1.00  0.00    -0.203 F 
ATOM     75  C   UNL A   1      37.737  32.506  37.953  1.00  0.00     0.198 A 
ATOM     76  C   UNL A   1      39.317  34.237  37.436  1.00  0.00     0.198 A 
ATOM     77  F   UNL A   1      40.912  33.906  35.741  1.00  0.00    -0.203 F 
ATOM     78  F   UNL A   1      36.671  32.075  38.643  1.00  0.00    -0.200 F 
ATOM     79  C   UNL A   1      38.236  33.780  38.174  1.00  0.00     0.200 A 
ATOM     80  F   UNL A   1      39.813  35.460  37.660  1.00  0.00    -0.200 F 
ATOM     81  F   UNL A   1      37.667  34.574  39.092  1.00  0.00    -0.200 F 
ENDBRANCH  48  71
ENDBRANCH  22  23
ENDBRANCH  14  17
ENDBRANCH  12  13
ENDBRANCH  11  12
ENDBRANCH  10  11
ENDBRANCH   8  10
ENDBRANCH   1   6
BRANCH   1  82
ATOM     82  N   UNL A   1      38.813  21.798  25.414  1.00  0.00    -0.343 N 
ATOM     83  C   UNL A   1      37.511  22.069  25.134  1.00  0.00     0.240 C 
ATOM     84  H   UNL A   1      39.144  20.946  25.048  1.00  0.00     0.164 HD
ATOM     85  O   UNL A   1      36.982  21.374  24.258  1.00  0.00    -0.273 OA
BRANCH  83  86
ATOM     86  C   UNL A   1      36.731  23.246  25.745  1.00  0.00     0.216 C 
BRANCH  86  87
ATOM     87  N   UNL A   1      35.702  22.953  26.720  1.00  0.00    -0.345 N 
ATOM     88  C   UNL A   1      34.356  23.114  26.713  1.00  0.00     0.243 C 
ATOM     89  H   UNL A   1      36.049  22.561  27.554  1.00  0.00     0.164 HD
ATOM     90  O   UNL A   1      33.762  22.565  27.651  1.00  0.00    -0.273 OA
BRANCH  88  91
ATOM     91  C   UNL A   1      33.537  23.825  25.591  1.00  0.00     0.177 C 
BRANCH  91  92
ATOM     92  N   UNL A   1      33.846  23.349  24.233  1.00  0.00    -0.309 N 
ATOM     93  C   UNL A   1      33.893  23.965  23.022  1.00  0.00     0.408 C 
ATOM     94  H   UNL A   1      34.063  22.390  24.193  1.00  0.00     0.167 HD
ATOM     95  O   UNL A   1      33.824  23.325  21.989  1.00  0.00    -0.225 OA
BRANCH  93  96
ATOM     96  O   UNL A   1      34.100  25.295  23.101  1.00  0.00    -0.445 OA
BRANCH  96  97
ATOM     97  C   UNL A   1      33.028  26.098  22.592  1.00  0.00     0.270 C 
BRANCH  97  98
ATOM     98  C   UNL A   1      32.689  27.305  23.450  1.00  0.00    -0.011 A 
ATOM     99  C   UNL A   1      31.422  27.912  23.469  1.00  0.00     0.007 A 
ATOM    100  C   UNL A   1      33.670  27.807  24.317  1.00  0.00     0.007 A 
ATOM    101  C   UNL A   1      31.145  28.988  24.314  1.00  0.00     0.000 A 
ATOM    102  C   UNL A   1      33.394  28.885  25.162  1.00  0.00     0.000 A 
ATOM    103  C   UNL A   1      32.133  29.475  25.160  1.00  0.00     0.000 A 
ENDBRANCH  97  98
ENDBRANCH  96  97
ENDBRANCH  93  96
ENDBRANCH  91  92
BRANCH  91 104
ATOM    104  C   UNL A   1      32.046  24.000  25.960  1.00  0.00     0.015 C 
ATOM    105  C   UNL A   1      31.717  25.439  26.392  1.00  0.00     0.010 C 
ATOM    106  C   UNL A   1      31.138  23.668  24.768  1.00  0.00     0.010 C 
ENDBRANCH  91 104
ENDBRANCH  88  91
ENDBRANCH  86  87
ENDBRANCH  83  86
ENDBRANCH   1  82
TORSDOF 21
ENDMDL
MODEL 3
REMARK VINA RESULT:     -10.8      1.108      7.016
REMARK SMILES CC(C)C[C@H](NC(=O)CNC(=O)[C@@H](NC(=O)OCc1ccccc1)C(C)C)C(=O)NCCCNC(=O)c1ccc(-c2c3nc(c(-c4c(F)c(F)c(F)c(F)c4F)c4ccc([nH]4)c(-c4c(F)c(F)c(F)c(F)c4F)c4nc(c(-c5c(F)c(F)c(F)c(F)c5F)c5ccc2[nH]5)C=C4)C=C3)cc1
REMARK SMILES IDX 5 1 4 2 2 3 1 4 3 5 28 6 29 7 30 8 31 10 32 11 33 12 34 13
REMARK SMILES IDX 35 14 36 16 37 17 38 18 99 19 39 20 98 21 40 22 41 23 42 24
REMARK SMILES IDX 92 25 43 26 97 27 91 28 93 29 44 30 96 31 90 32 89 33 45 35
REMARK SMILES IDX 77 36 57 37 76 38 58 39 61 40 75 41 94 42 59 43 60 44 74 46
REMARK SMILES IDX 95 47 62 48 46 49 47 50 55 51 48 52 49 53 53 54 56 55 50 56
REMARK SMILES IDX 51 57 54 58 52 59 78 60 79 61 87 62 80 63 81 64 85 65 88 66
REMARK SMILES IDX 82 67 83 68 86 69 84 70 63 71 64 72 72 73 65 74 66 75 70 76
REMARK SMILES IDX 73 77 67 78 68 79 71 80 69 81 6 82 7 83 8 85 9 86 10 87
REMARK SMILES IDX 11 88 12 90 13 91 14 92 15 93 16 95 17 96 18 97 19 98 20 99
REMARK SMILES IDX 24 100 21 101 23 102 22 103 25 104 26 105 27 106
REMARK H PARENT 30 9 34 15 93 34 61 45 6 84 10 89 14 94
REMARK Flexibility Score: inf
ROOT
ATOM      1  C   UNL A   1      39.793  22.380  26.230  1.00  0.00     0.171 C 
ENDROOT
BRANCH   1   2
ATOM      2  C   UNL A   1      39.138  23.486  27.071  1.00  0.00     0.038 C 
BRANCH   2   3
ATOM      3  C   UNL A   1      40.087  24.652  27.445  1.00  0.00    -0.015 C 
ATOM      4  C   UNL A   1      40.474  25.529  26.255  1.00  0.00     0.007 C 
ATOM      5  C   UNL A   1      39.431  25.520  28.519  1.00  0.00     0.007 C 
ENDBRANCH   2   3
ENDBRANCH   1   2
BRANCH   1   6
ATOM      6  C   UNL A   1      40.956  21.701  26.970  1.00  0.00     0.242 C 
ATOM      7  O   UNL A   1      40.734  20.867  27.853  1.00  0.00    -0.273 OA
ATOM      8  N   UNL A   1      42.243  21.887  26.569  1.00  0.00    -0.354 N 
ATOM      9  H   UNL A   1      42.925  21.486  27.157  1.00  0.00     0.163 HD
BRANCH   8  10
ATOM     10  C   UNL A   1      42.762  22.585  25.411  1.00  0.00     0.117 C 
BRANCH  10  11
ATOM     11  C   UNL A   1      44.227  22.273  25.172  1.00  0.00     0.042 C 
BRANCH  11  12
ATOM     12  C   UNL A   1      45.160  23.114  26.029  1.00  0.00     0.118 C 
BRANCH  12  13
ATOM     13  N   UNL A   1      45.848  24.136  25.251  1.00  0.00    -0.352 N 
ATOM     14  C   UNL A   1      45.725  25.502  25.277  1.00  0.00     0.251 C 
ATOM     15  H   UNL A   1      46.506  23.793  24.604  1.00  0.00     0.163 HD
ATOM     16  O   UNL A   1      46.195  26.174  24.365  1.00  0.00    -0.269 OA
BRANCH  14  17
ATOM     17  C   UNL A   1      45.028  26.161  26.399  1.00  0.00     0.039 A 
ATOM     18  C   UNL A   1      45.187  27.535  26.586  1.00  0.00     0.014 A 
ATOM     19  C   UNL A   1      44.251  25.419  27.291  1.00  0.00     0.014 A 
ATOM     20  C   UNL A   1      44.538  28.165  27.647  1.00  0.00     0.010 A 
ATOM     21  C   UNL A   1      43.505  26.064  28.265  1.00  0.00     0.010 A 
ATOM     22  C   UNL A   1      43.674  27.436  28.483  1.00  0.00    -0.014 A 
BRANCH  22  23
ATOM     23  C   UNL A   1      42.998  28.081  29.634  1.00  0.00     0.031 A 
ATOM     24  C   UNL A   1      43.667  28.096  30.983  1.00  0.00     0.074 A 
ATOM     25  C   UNL A   1      41.778  28.625  29.472  1.00  0.00     0.049 A 
ATOM     26  N   UNL A   1      43.245  28.606  32.113  1.00  0.00    -0.248 NA
ATOM     27  C   UNL A   1      44.970  27.417  31.089  1.00  0.00     0.031 C 
ATOM     28  C   UNL A   1      41.004  28.614  28.228  1.00  0.00     0.029 A 
ATOM     29  N   UNL A   1      40.974  29.296  30.357  1.00  0.00    -0.354 N 
ATOM     30  C   UNL A   1      44.218  28.297  33.053  1.00  0.00     0.074 A 
ATOM     31  C   UNL A   1      45.213  27.489  32.388  1.00  0.00     0.031 C 
ATOM     32  C   UNL A   1      39.858  29.286  28.418  1.00  0.00     0.029 A 
ATOM     33  C   UNL A   1      39.800  29.744  29.802  1.00  0.00     0.049 A 
ATOM     34  H   UNL A   1      41.215  29.442  31.300  1.00  0.00     0.167 HD
ATOM     35  C   UNL A   1      44.297  28.683  34.349  1.00  0.00     0.037 A 
ATOM     36  C   UNL A   1      38.797  30.453  30.352  1.00  0.00     0.037 A 
ATOM     37  C   UNL A   1      43.316  29.511  34.998  1.00  0.00     0.049 A 
ATOM     38  C   UNL A   1      38.916  30.885  31.789  1.00  0.00     0.074 A 
ATOM     39  C   UNL A   1      43.319  30.004  36.289  1.00  0.00     0.029 A 
ATOM     40  N   UNL A   1      42.151  29.968  34.396  1.00  0.00    -0.354 N 
ATOM     41  N   UNL A   1      39.879  30.653  32.650  1.00  0.00    -0.248 NA
ATOM     42  C   UNL A   1      37.816  31.695  32.326  1.00  0.00     0.031 C 
ATOM     43  C   UNL A   1      42.131  30.717  36.486  1.00  0.00     0.029 A 
ATOM     44  C   UNL A   1      41.420  30.726  35.296  1.00  0.00     0.049 A 
ATOM     45  H   UNL A   1      41.885  29.783  33.466  1.00  0.00     0.167 HD
ATOM     46  C   UNL A   1      39.519  31.320  33.813  1.00  0.00     0.074 A 
ATOM     47  C   UNL A   1      38.258  31.978  33.540  1.00  0.00     0.031 C 
ATOM     48  C   UNL A   1      40.174  31.385  35.000  1.00  0.00     0.037 A 
BRANCH  35  49
ATOM     49  C   UNL A   1      45.486  28.218  35.141  1.00  0.00     0.064 A 
ATOM     50  C   UNL A   1      46.674  28.965  35.197  1.00  0.00     0.173 A 
ATOM     51  C   UNL A   1      45.433  27.022  35.871  1.00  0.00     0.173 A 
ATOM     52  F   UNL A   1      46.786  30.110  34.507  1.00  0.00    -0.203 F 
ATOM     53  C   UNL A   1      47.774  28.514  35.924  1.00  0.00     0.198 A 
ATOM     54  C   UNL A   1      46.522  26.592  36.626  1.00  0.00     0.198 A 
ATOM     55  F   UNL A   1      44.323  26.268  35.856  1.00  0.00    -0.203 F 
ATOM     56  F   UNL A   1      48.916  29.213  35.911  1.00  0.00    -0.200 F 
ATOM     57  C   UNL A   1      47.694  27.331  36.643  1.00  0.00     0.200 A 
ATOM     58  F   UNL A   1      46.438  25.456  37.332  1.00  0.00    -0.200 F 
ATOM     59  F   UNL A   1      48.750  26.902  37.347  1.00  0.00    -0.200 F 
ENDBRANCH  35  49
BRANCH  36  60
ATOM     60  C   UNL A   1      37.621  30.840  29.530  1.00  0.00     0.064 A 
ATOM     61  C   UNL A   1      36.640  29.899  29.183  1.00  0.00     0.173 A 
ATOM     62  C   UNL A   1      37.456  32.153  29.065  1.00  0.00     0.173 A 
ATOM     63  F   UNL A   1      36.760  28.627  29.591  1.00  0.00    -0.203 F 
ATOM     64  C   UNL A   1      35.559  30.248  28.378  1.00  0.00     0.198 A 
ATOM     65  C   UNL A   1      36.357  32.508  28.287  1.00  0.00     0.198 A 
ATOM     66  F   UNL A   1      38.359  33.094  29.376  1.00  0.00    -0.203 F 
ATOM     67  F   UNL A   1      34.668  29.315  28.015  1.00  0.00    -0.200 F 
ATOM     68  C   UNL A   1      35.415  31.553  27.933  1.00  0.00     0.200 A 
ATOM     69  F   UNL A   1      36.212  33.775  27.875  1.00  0.00    -0.200 F 
ATOM     70  F   UNL A   1      34.374  31.889  27.160  1.00  0.00    -0.200 F 
ENDBRANCH  36  60
BRANCH  48  71
ATOM     71  C   UNL A   1      39.567  32.247  36.071  1.00  0.00     0.064 A 
ATOM     72  C   UNL A   1      39.981  33.570  36.285  1.00  0.00     0.173 A 
ATOM     73  C   UNL A   1      38.542  31.740  36.885  1.00  0.00     0.173 A 
ATOM     74  F   UNL A   1      40.964  34.099  35.540  1.00  0.00    -0.203 F 
ATOM     75  C   UNL A   1      39.423  34.337  37.304  1.00  0.00     0.198 A 
ATOM     76  C   UNL A   1      37.960  32.523  37.877  1.00  0.00     0.198 A 
ATOM     77  F   UNL A   1      38.100  30.485  36.715  1.00  0.00    -0.203 F 
ATOM     78  F   UNL A   1      39.884  35.575  37.534  1.00  0.00    -0.200 F 
ATOM     79  C   UNL A   1      38.411  33.816  38.095  1.00  0.00     0.200 A 
ATOM     80  F   UNL A   1      36.969  32.023  38.627  1.00  0.00    -0.200 F 
ATOM     81  F   UNL A   1      37.876  34.557  39.075  1.00  0.00    -0.200 F 
ENDBRANCH  48  71
ENDBRANCH  22  23
ENDBRANCH  14  17
ENDBRANCH  12  13
ENDBRANCH  11  12
ENDBRANCH  10  11
ENDBRANCH   8  10
ENDBRANCH   1   6
BRANCH   1  82
ATOM     82  N   UNL A   1      38.850  21.403  25.691  1.00  0.00    -0.343 N 
ATOM     83  C   UNL A   1      37.559  21.544  25.289  1.00  0.00     0.240 C 
ATOM     84  H   UNL A   1      39.209  20.490  25.605  1.00  0.00     0.164 HD
ATOM     85  O   UNL A   1      37.083  20.610  24.634  1.00  0.00    -0.273 OA
BRANCH  83  86
ATOM     86  C   UNL A   1      36.736  22.827  25.494  1.00  0.00     0.216 C 
BRANCH  86  87
ATOM     87  N   UNL A   1      36.185  23.481  24.326  1.00  0.00    -0.345 N 
ATOM     88  C   UNL A   1      34.976  23.409  23.716  1.00  0.00     0.243 C 
ATOM     89  H   UNL A   1      36.812  24.100  23.888  1.00  0.00     0.164 HD
ATOM     90  O   UNL A   1      34.782  24.266  22.844  1.00  0.00    -0.273 OA
BRANCH  88  91
ATOM     91  C   UNL A   1      33.827  22.424  24.100  1.00  0.00     0.177 C 
BRANCH  91  92
ATOM     92  N   UNL A   1      33.486  22.434  25.532  1.00  0.00    -0.309 N 
ATOM     93  C   UNL A   1      33.617  23.368  26.510  1.00  0.00     0.408 C 
ATOM     94  H   UNL A   1      33.079  21.594  25.844  1.00  0.00     0.167 HD
ATOM     95  O   UNL A   1      33.597  23.053  27.686  1.00  0.00    -0.225 OA
BRANCH  93  96
ATOM     96  O   UNL A   1      33.683  24.632  26.044  1.00  0.00    -0.445 OA
BRANCH  96  97
ATOM     97  C   UNL A   1      32.449  25.357  26.110  1.00  0.00     0.270 C 
BRANCH  97  98
ATOM     98  C   UNL A   1      32.586  26.849  25.855  1.00  0.00    -0.011 A 
ATOM     99  C   UNL A   1      33.461  27.396  24.902  1.00  0.00     0.007 A 
ATOM    100  C   UNL A   1      31.754  27.729  26.562  1.00  0.00     0.007 A 
ATOM    101  C   UNL A   1      33.512  28.771  24.669  1.00  0.00     0.000 A 
ATOM    102  C   UNL A   1      31.805  29.105  26.331  1.00  0.00     0.000 A 
ATOM    103  C   UNL A   1      32.685  29.627  25.385  1.00  0.00     0.000 A 
ENDBRANCH  97  98
ENDBRANCH  96  97
ENDBRANCH  93  96
ENDBRANCH  91  92
BRANCH  91 104
ATOM    104  C   UNL A   1      32.657  22.450  23.091  1.00  0.00     0.015 C 
ATOM    105  C   UNL A   1      32.211  21.038  22.678  1.00  0.00     0.010 C 
ATOM    106  C   UNL A   1      31.429  23.155  23.684  1.00  0.00     0.010 C 
ENDBRANCH  91 104
ENDBRANCH  88  91
ENDBRANCH  86  87
ENDBRANCH  83  86
ENDBRANCH   1  82
TORSDOF 21
ENDMDL
