MODEL 1
REMARK VINA RESULT:     -12.5      0.000      0.000
REMARK SMILES CC(=O)Nc1nc(C[N@@H+]2CCO[C@@H](CC(=O)NCCCNC(=O)c3ccc(-c4c5nc(c(-c6c(F)c(F)c(F)c(F)c6F)c6ccc([nH]6)c(-c6c(F)c(F)c(F)c(F)c6F)c6nc(c(-c7c(F)c(F)c(F)c(F)c7F)c7ccc4[nH]7)C=C6)C=C5)cc3)C2)cs1
REMARK SMILES IDX 18 1 17 2 15 3 16 4 14 6 13 7 9 8 10 9 87 10 11 12 12 13
REMARK SMILES IDX 8 14 7 15 5 16 6 17 89 18 88 19 4 20 1 21 2 22 3 23 19 25
REMARK SMILES IDX 20 26 21 27 22 28 23 30 24 31 25 32 86 33 26 34 85 35 27 36
REMARK SMILES IDX 28 37 29 38 79 39 30 40 84 41 78 42 80 43 31 44 83 45 77 46
REMARK SMILES IDX 76 47 32 49 64 50 44 51 63 52 45 53 48 54 62 55 81 56 46 57
REMARK SMILES IDX 47 58 61 60 82 61 49 62 33 63 34 64 42 65 35 66 36 67 40 68
REMARK SMILES IDX 43 69 37 70 38 71 41 72 39 73 65 74 66 75 74 76 67 77 68 78
REMARK SMILES IDX 72 79 75 80 69 81 70 82 73 83 71 84 50 85 51 86 59 87 52 88
REMARK SMILES IDX 53 89 57 90 60 91 54 92 55 93 58 94 56 95
REMARK H PARENT 17 5 9 11 4 24 21 29 80 48 48 59
REMARK Flexibility Score: inf
ROOT
ATOM      1  C   UNL A   1      32.514  28.321  22.946  1.00  0.00     0.117 C 
ENDROOT
BRANCH   1   2
ATOM      2  N   UNL A   1      32.958  27.443  21.872  1.00  0.00    -0.356 N 
ATOM      3  C   UNL A   1      32.687  26.125  21.640  1.00  0.00     0.222 C 
ATOM      4  O   UNL A   1      33.260  25.564  20.707  1.00  0.00    -0.275 OA
ATOM      5  H   UNL A   1      33.549  27.866  21.208  1.00  0.00     0.163 HD
BRANCH   3   6
ATOM      6  C   UNL A   1      31.706  25.386  22.517  1.00  0.00     0.138 C 
BRANCH   6   7
ATOM      7  C   UNL A   1      32.340  24.478  23.579  1.00  0.00     0.182 C 
ATOM      8  N   UNL A   1      33.451  22.201  23.963  1.00  0.00    -0.326 N 
ATOM      9  C   UNL A   1      34.587  22.941  24.512  1.00  0.00     0.291 C 
ATOM     10  C   UNL A   1      32.642  23.050  23.081  1.00  0.00     0.295 C 
ATOM     11  H   UNL A   1      33.868  21.480  23.374  1.00  0.00     0.348 HD
ATOM     12  C   UNL A   1      34.285  24.386  24.947  1.00  0.00     0.222 C 
ATOM     13  O   UNL A   1      33.580  25.125  23.948  1.00  0.00    -0.366 OA
BRANCH   8  14
ATOM     14  C   UNL A   1      32.714  21.314  24.867  1.00  0.00     0.320 C 
BRANCH  14  15
ATOM     15  C   UNL A   1      32.514  19.926  24.342  1.00  0.00     0.108 A 
ATOM     16  C   UNL A   1      32.421  17.738  24.576  1.00  0.00     0.189 A 
ATOM     17  N   UNL A   1      32.445  18.865  25.238  1.00  0.00    -0.219 NA
ATOM     18  S   UNL A   1      32.455  17.848  22.878  1.00  0.00    -0.105 S 
ATOM     19  C   UNL A   1      32.354  19.555  23.017  1.00  0.00     0.098 A 
BRANCH  16  20
ATOM     20  N   UNL A   1      32.369  16.468  25.062  1.00  0.00    -0.302 N 
ATOM     21  C   UNL A   1      34.832  16.201  25.088  1.00  0.00     0.114 C 
ATOM     22  C   UNL A   1      33.438  15.635  25.186  1.00  0.00     0.223 C 
ATOM     23  O   UNL A   1      33.252  14.451  25.475  1.00  0.00    -0.275 OA
ATOM     24  H   UNL A   1      31.490  16.126  25.345  1.00  0.00     0.172 HD
ENDBRANCH  16  20
ENDBRANCH  14  15
ENDBRANCH   8  14
ENDBRANCH   6   7
ENDBRANCH   3   6
ENDBRANCH   1   2
BRANCH   1  25
ATOM     25  C   UNL A   1      33.667  28.700  23.874  1.00  0.00     0.042 C 
BRANCH  25  26
ATOM     26  C   UNL A   1      33.275  28.778  25.338  1.00  0.00     0.118 C 
BRANCH  26  27
ATOM     27  N   UNL A   1      32.767  30.090  25.693  1.00  0.00    -0.352 N 
ATOM     28  C   UNL A   1      33.138  30.928  26.717  1.00  0.00     0.251 C 
ATOM     29  H   UNL A   1      32.047  30.430  25.114  1.00  0.00     0.163 HD
ATOM     30  O   UNL A   1      32.422  31.884  27.004  1.00  0.00    -0.269 OA
BRANCH  28  31
ATOM     31  C   UNL A   1      34.382  30.688  27.488  1.00  0.00     0.039 A 
ATOM     32  C   UNL A   1      35.311  31.726  27.609  1.00  0.00     0.014 A 
ATOM     33  C   UNL A   1      34.669  29.439  28.044  1.00  0.00     0.014 A 
ATOM     34  C   UNL A   1      36.498  31.525  28.321  1.00  0.00     0.010 A 
ATOM     35  C   UNL A   1      35.802  29.268  28.835  1.00  0.00     0.010 A 
ATOM     36  C   UNL A   1      36.742  30.301  28.962  1.00  0.00    -0.014 A 
BRANCH  36  37
ATOM     37  C   UNL A   1      37.988  30.065  29.737  1.00  0.00     0.031 A 
ATOM     38  C   UNL A   1      39.057  29.158  29.190  1.00  0.00     0.074 A 
ATOM     39  C   UNL A   1      38.128  30.599  30.965  1.00  0.00     0.049 A 
ATOM     40  N   UNL A   1      40.173  28.757  29.746  1.00  0.00    -0.248 NA
ATOM     41  C   UNL A   1      38.822  28.596  27.851  1.00  0.00     0.031 C 
ATOM     42  C   UNL A   1      37.138  31.442  31.636  1.00  0.00     0.029 A 
ATOM     43  N   UNL A   1      39.150  30.495  31.876  1.00  0.00    -0.354 N 
ATOM     44  C   UNL A   1      40.752  27.876  28.843  1.00  0.00     0.074 A 
ATOM     45  C   UNL A   1      39.840  27.758  27.725  1.00  0.00     0.031 C 
ATOM     46  C   UNL A   1      37.605  31.787  32.846  1.00  0.00     0.029 A 
ATOM     47  C   UNL A   1      38.909  31.163  33.051  1.00  0.00     0.049 A 
ATOM     48  H   UNL A   1      39.977  29.989  31.703  1.00  0.00     0.167 HD
ATOM     49  C   UNL A   1      41.945  27.238  28.925  1.00  0.00     0.037 A 
ATOM     50  C   UNL A   1      39.651  31.254  34.172  1.00  0.00     0.037 A 
ATOM     51  C   UNL A   1      42.866  27.389  30.020  1.00  0.00     0.049 A 
ATOM     52  C   UNL A   1      40.988  30.571  34.229  1.00  0.00     0.074 A 
ATOM     53  C   UNL A   1      44.141  26.866  30.154  1.00  0.00     0.029 A 
ATOM     54  N   UNL A   1      42.608  28.115  31.175  1.00  0.00    -0.354 N 
ATOM     55  N   UNL A   1      41.567  29.811  33.331  1.00  0.00    -0.248 NA
ATOM     56  C   UNL A   1      41.781  30.766  35.450  1.00  0.00     0.031 C 
ATOM     57  C   UNL A   1      44.633  27.233  31.411  1.00  0.00     0.029 A 
ATOM     58  C   UNL A   1      43.688  28.029  32.039  1.00  0.00     0.049 A 
ATOM     59  H   UNL A   1      41.780  28.616  31.353  1.00  0.00     0.167 HD
ATOM     60  C   UNL A   1      42.796  29.453  33.866  1.00  0.00     0.074 A 
ATOM     61  C   UNL A   1      42.887  30.092  35.163  1.00  0.00     0.031 C 
ATOM     62  C   UNL A   1      43.762  28.666  33.331  1.00  0.00     0.037 A 
BRANCH  49  63
ATOM     63  C   UNL A   1      42.312  26.313  27.800  1.00  0.00     0.064 A 
ATOM     64  C   UNL A   1      41.811  25.004  27.721  1.00  0.00     0.173 A 
ATOM     65  C   UNL A   1      43.177  26.743  26.781  1.00  0.00     0.173 A 
ATOM     66  F   UNL A   1      40.988  24.538  28.673  1.00  0.00    -0.203 F 
ATOM     67  C   UNL A   1      42.197  24.147  26.694  1.00  0.00     0.198 A 
ATOM     68  C   UNL A   1      43.534  25.894  25.736  1.00  0.00     0.198 A 
ATOM     69  F   UNL A   1      43.679  27.986  26.800  1.00  0.00    -0.203 F 
ATOM     70  F   UNL A   1      41.758  22.881  26.678  1.00  0.00    -0.200 F 
ATOM     71  C   UNL A   1      43.054  24.594  25.699  1.00  0.00     0.200 A 
ATOM     72  F   UNL A   1      44.351  26.333  24.768  1.00  0.00    -0.200 F 
ATOM     73  F   UNL A   1      43.428  23.768  24.713  1.00  0.00    -0.200 F 
ENDBRANCH  49  63
BRANCH  50  74
ATOM     74  C   UNL A   1      39.140  32.049  35.317  1.00  0.00     0.064 A 
ATOM     75  C   UNL A   1      38.406  31.445  36.345  1.00  0.00     0.173 A 
ATOM     76  C   UNL A   1      39.416  33.421  35.428  1.00  0.00     0.173 A 
ATOM     77  F   UNL A   1      38.102  30.140  36.273  1.00  0.00    -0.203 F 
ATOM     78  C   UNL A   1      37.960  32.183  37.440  1.00  0.00     0.198 A 
ATOM     79  C   UNL A   1      38.991  34.151  36.536  1.00  0.00     0.198 A 
ATOM     80  F   UNL A   1      40.122  34.043  34.474  1.00  0.00    -0.203 F 
ATOM     81  F   UNL A   1      37.237  31.586  38.397  1.00  0.00    -0.200 F 
ATOM     82  C   UNL A   1      38.260  33.533  37.539  1.00  0.00     0.200 A 
ATOM     83  F   UNL A   1      39.300  35.451  36.637  1.00  0.00    -0.200 F 
ATOM     84  F   UNL A   1      37.847  34.238  38.600  1.00  0.00    -0.200 F 
ENDBRANCH  50  74
BRANCH  62  85
ATOM     85  C   UNL A   1      45.014  28.466  34.135  1.00  0.00     0.064 A 
ATOM     86  C   UNL A   1      45.158  27.383  35.012  1.00  0.00     0.173 A 
ATOM     87  C   UNL A   1      46.098  29.345  33.991  1.00  0.00     0.173 A 
ATOM     88  F   UNL A   1      44.145  26.523  35.198  1.00  0.00    -0.203 F 
ATOM     89  C   UNL A   1      46.337  27.197  35.732  1.00  0.00     0.198 A 
ATOM     90  C   UNL A   1      47.285  29.140  34.689  1.00  0.00     0.198 A 
ATOM     91  F   UNL A   1      46.013  30.395  33.159  1.00  0.00    -0.203 F 
ATOM     92  F   UNL A   1      46.437  26.179  36.597  1.00  0.00    -0.200 F 
ATOM     93  C   UNL A   1      47.401  28.070  35.563  1.00  0.00     0.200 A 
ATOM     94  F   UNL A   1      48.317  29.977  34.515  1.00  0.00    -0.200 F 
ATOM     95  F   UNL A   1      48.537  27.885  36.249  1.00  0.00    -0.200 F 
ENDBRANCH  62  85
ENDBRANCH  36  37
ENDBRANCH  28  31
ENDBRANCH  26  27
ENDBRANCH  25  26
ENDBRANCH   1  25
TORSDOF 14
ENDMDL
MODEL 2
REMARK VINA RESULT:     -12.5      3.861      5.915
REMARK SMILES CC(=O)Nc1nc(C[N@@H+]2CCO[C@@H](CC(=O)NCCCNC(=O)c3ccc(-c4c5nc(c(-c6c(F)c(F)c(F)c(F)c6F)c6ccc([nH]6)c(-c6c(F)c(F)c(F)c(F)c6F)c6nc(c(-c7c(F)c(F)c(F)c(F)c7F)c7ccc4[nH]7)C=C6)C=C5)cc3)C2)cs1
REMARK SMILES IDX 18 1 17 2 15 3 16 4 14 6 13 7 9 8 10 9 87 10 11 12 12 13
REMARK SMILES IDX 8 14 7 15 5 16 6 17 89 18 88 19 4 20 1 21 2 22 3 23 19 25
REMARK SMILES IDX 20 26 21 27 22 28 23 30 24 31 25 32 86 33 26 34 85 35 27 36
REMARK SMILES IDX 28 37 29 38 79 39 30 40 84 41 78 42 80 43 31 44 83 45 77 46
REMARK SMILES IDX 76 47 32 49 64 50 44 51 63 52 45 53 48 54 62 55 81 56 46 57
REMARK SMILES IDX 47 58 61 60 82 61 49 62 33 63 34 64 42 65 35 66 36 67 40 68
REMARK SMILES IDX 43 69 37 70 38 71 41 72 39 73 65 74 66 75 74 76 67 77 68 78
REMARK SMILES IDX 72 79 75 80 69 81 70 82 73 83 71 84 50 85 51 86 59 87 52 88
REMARK SMILES IDX 53 89 57 90 60 91 54 92 55 93 58 94 56 95
REMARK H PARENT 17 5 9 11 4 24 21 29 80 48 48 59
REMARK Flexibility Score: inf
ROOT
ATOM      1  C   UNL A   1      31.524  31.158  26.495  1.00  0.00     0.117 C 
ENDROOT
BRANCH   1   2
ATOM      2  N   UNL A   1      32.816  30.623  26.902  1.00  0.00    -0.356 N 
ATOM      3  C   UNL A   1      33.189  29.342  27.193  1.00  0.00     0.222 C 
ATOM      4  O   UNL A   1      34.329  29.144  27.611  1.00  0.00    -0.275 OA
ATOM      5  H   UNL A   1      33.535  31.290  26.981  1.00  0.00     0.163 HD
BRANCH   3   6
ATOM      6  C   UNL A   1      32.215  28.205  27.004  1.00  0.00     0.138 C 
BRANCH   6   7
ATOM      7  C   UNL A   1      32.234  27.557  25.613  1.00  0.00     0.182 C 
ATOM      8  N   UNL A   1      32.092  28.038  23.101  1.00  0.00    -0.326 N 
ATOM      9  C   UNL A   1      33.381  27.358  22.981  1.00  0.00     0.291 C 
ATOM     10  C   UNL A   1      31.873  28.524  24.468  1.00  0.00     0.295 C 
ATOM     11  H   UNL A   1      32.175  28.864  22.506  1.00  0.00     0.348 HD
ATOM     12  C   UNL A   1      33.756  26.444  24.162  1.00  0.00     0.222 C 
ATOM     13  O   UNL A   1      33.588  27.085  25.427  1.00  0.00    -0.366 OA
BRANCH   8  14
ATOM     14  C   UNL A   1      30.936  27.432  22.434  1.00  0.00     0.320 C 
BRANCH  14  15
ATOM     15  C   UNL A   1      29.716  28.299  22.403  1.00  0.00     0.108 A 
ATOM     16  C   UNL A   1      28.615  30.110  21.802  1.00  0.00     0.189 A 
ATOM     17  N   UNL A   1      29.696  29.412  21.569  1.00  0.00    -0.219 NA
ATOM     18  S   UNL A   1      27.553  29.501  22.985  1.00  0.00    -0.105 S 
ATOM     19  C   UNL A   1      28.543  28.106  23.113  1.00  0.00     0.098 A 
BRANCH  16  20
ATOM     20  N   UNL A   1      28.211  31.271  21.220  1.00  0.00    -0.302 N 
ATOM     21  C   UNL A   1      28.971  32.676  23.114  1.00  0.00     0.114 C 
ATOM     22  C   UNL A   1      28.207  32.489  21.828  1.00  0.00     0.223 C 
ATOM     23  O   UNL A   1      27.661  33.442  21.268  1.00  0.00    -0.275 OA
ATOM     24  H   UNL A   1      27.898  31.227  20.287  1.00  0.00     0.172 HD
ENDBRANCH  16  20
ENDBRANCH  14  15
ENDBRANCH   8  14
ENDBRANCH   6   7
ENDBRANCH   3   6
ENDBRANCH   1   2
BRANCH   1  25
ATOM     25  C   UNL A   1      31.437  32.663  26.741  1.00  0.00     0.042 C 
BRANCH  25  26
ATOM     26  C   UNL A   1      32.737  33.282  27.222  1.00  0.00     0.118 C 
BRANCH  26  27
ATOM     27  N   UNL A   1      32.526  34.587  27.821  1.00  0.00    -0.352 N 
ATOM     28  C   UNL A   1      33.079  35.133  28.954  1.00  0.00     0.251 C 
ATOM     29  H   UNL A   1      31.890  35.168  27.343  1.00  0.00     0.163 HD
ATOM     30  O   UNL A   1      32.588  36.150  29.435  1.00  0.00    -0.269 OA
BRANCH  28  31
ATOM     31  C   UNL A   1      34.249  34.504  29.612  1.00  0.00     0.039 A 
ATOM     32  C   UNL A   1      34.059  33.827  30.822  1.00  0.00     0.014 A 
ATOM     33  C   UNL A   1      35.536  34.618  29.082  1.00  0.00     0.014 A 
ATOM     34  C   UNL A   1      35.147  33.233  31.470  1.00  0.00     0.010 A 
ATOM     35  C   UNL A   1      36.601  33.944  29.675  1.00  0.00     0.010 A 
ATOM     36  C   UNL A   1      36.424  33.265  30.889  1.00  0.00    -0.014 A 
BRANCH  36  37
ATOM     37  C   UNL A   1      37.593  32.630  31.549  1.00  0.00     0.031 A 
ATOM     38  C   UNL A   1      38.301  31.477  30.889  1.00  0.00     0.074 A 
ATOM     39  C   UNL A   1      37.973  33.033  32.777  1.00  0.00     0.049 A 
ATOM     40  N   UNL A   1      39.282  30.735  31.339  1.00  0.00    -0.248 NA
ATOM     41  C   UNL A   1      37.814  31.082  29.558  1.00  0.00     0.031 C 
ATOM     42  C   UNL A   1      37.332  34.095  33.553  1.00  0.00     0.029 A 
ATOM     43  N   UNL A   1      38.979  32.583  33.596  1.00  0.00    -0.354 N 
ATOM     44  C   UNL A   1      39.505  29.771  30.364  1.00  0.00     0.074 A 
ATOM     45  C   UNL A   1      38.523  29.988  29.324  1.00  0.00     0.031 C 
ATOM     46  C   UNL A   1      37.964  34.221  34.729  1.00  0.00     0.029 A 
ATOM     47  C   UNL A   1      39.033  33.229  34.806  1.00  0.00     0.049 A 
ATOM     48  H   UNL A   1      39.602  31.865  33.340  1.00  0.00     0.167 HD
ATOM     49  C   UNL A   1      40.456  28.806  30.328  1.00  0.00     0.037 A 
ATOM     50  C   UNL A   1      39.845  33.037  35.864  1.00  0.00     0.037 A 
ATOM     51  C   UNL A   1      41.455  28.619  31.347  1.00  0.00     0.049 A 
ATOM     52  C   UNL A   1      40.918  31.987  35.789  1.00  0.00     0.074 A 
ATOM     53  C   UNL A   1      42.521  27.736  31.359  1.00  0.00     0.029 A 
ATOM     54  N   UNL A   1      41.508  29.326  32.539  1.00  0.00    -0.354 N 
ATOM     55  N   UNL A   1      41.177  31.138  34.824  1.00  0.00    -0.248 NA
ATOM     56  C   UNL A   1      41.817  31.873  36.945  1.00  0.00     0.031 C 
ATOM     57  C   UNL A   1      43.187  27.874  32.581  1.00  0.00     0.029 A 
ATOM     58  C   UNL A   1      42.571  28.880  33.308  1.00  0.00     0.049 A 
ATOM     59  H   UNL A   1      40.883  30.040  32.801  1.00  0.00     0.167 HD
ATOM     60  C   UNL A   1      42.277  30.405  35.244  1.00  0.00     0.074 A 
ATOM     61  C   UNL A   1      42.647  30.919  36.547  1.00  0.00     0.031 C 
ATOM     62  C   UNL A   1      42.924  29.396  34.607  1.00  0.00     0.037 A 
BRANCH  49  63
ATOM     63  C   UNL A   1      40.449  27.874  29.150  1.00  0.00     0.064 A 
ATOM     64  C   UNL A   1      41.221  28.120  28.004  1.00  0.00     0.173 A 
ATOM     65  C   UNL A   1      39.661  26.713  29.168  1.00  0.00     0.173 A 
ATOM     66  F   UNL A   1      41.986  29.220  27.929  1.00  0.00    -0.203 F 
ATOM     67  C   UNL A   1      41.169  27.267  26.904  1.00  0.00     0.198 A 
ATOM     68  C   UNL A   1      39.637  25.842  28.081  1.00  0.00     0.198 A 
ATOM     69  F   UNL A   1      38.909  26.421  30.241  1.00  0.00    -0.203 F 
ATOM     70  F   UNL A   1      41.863  27.560  25.797  1.00  0.00    -0.200 F 
ATOM     71  C   UNL A   1      40.381  26.126  26.946  1.00  0.00     0.200 A 
ATOM     72  F   UNL A   1      38.886  24.734  28.128  1.00  0.00    -0.200 F 
ATOM     73  F   UNL A   1      40.328  25.307  25.886  1.00  0.00    -0.200 F 
ENDBRANCH  49  63
BRANCH  50  74
ATOM     74  C   UNL A   1      39.679  33.886  37.070  1.00  0.00     0.064 A 
ATOM     75  C   UNL A   1      40.286  35.145  37.156  1.00  0.00     0.173 A 
ATOM     76  C   UNL A   1      38.873  33.474  38.142  1.00  0.00     0.173 A 
ATOM     77  F   UNL A   1      41.080  35.574  36.163  1.00  0.00    -0.203 F 
ATOM     78  C   UNL A   1      40.100  35.960  38.271  1.00  0.00     0.198 A 
ATOM     79  C   UNL A   1      38.667  34.301  39.245  1.00  0.00     0.198 A 
ATOM     80  F   UNL A   1      38.263  32.281  38.104  1.00  0.00    -0.203 F 
ATOM     81  F   UNL A   1      40.713  37.149  38.340  1.00  0.00    -0.200 F 
ATOM     82  C   UNL A   1      39.283  35.541  39.311  1.00  0.00     0.200 A 
ATOM     83  F   UNL A   1      37.862  33.899  40.239  1.00  0.00    -0.200 F 
ATOM     84  F   UNL A   1      39.090  36.331  40.374  1.00  0.00    -0.200 F 
ENDBRANCH  50  74
BRANCH  62  85
ATOM     85  C   UNL A   1      44.111  28.793  35.298  1.00  0.00     0.064 A 
ATOM     86  C   UNL A   1      43.977  27.715  36.184  1.00  0.00     0.173 A 
ATOM     87  C   UNL A   1      45.405  29.271  35.035  1.00  0.00     0.173 A 
ATOM     88  F   UNL A   1      42.761  27.232  36.482  1.00  0.00    -0.203 F 
ATOM     89  C   UNL A   1      45.093  27.149  36.797  1.00  0.00     0.198 A 
ATOM     90  C   UNL A   1      46.520  28.684  35.627  1.00  0.00     0.198 A 
ATOM     91  F   UNL A   1      45.588  30.296  34.190  1.00  0.00    -0.203 F 
ATOM     92  F   UNL A   1      44.937  26.148  37.674  1.00  0.00    -0.200 F 
ATOM     93  C   UNL A   1      46.363  27.628  36.512  1.00  0.00     0.200 A 
ATOM     94  F   UNL A   1      47.747  29.140  35.339  1.00  0.00    -0.200 F 
ATOM     95  F   UNL A   1      47.436  27.077  37.095  1.00  0.00    -0.200 F 
ENDBRANCH  62  85
ENDBRANCH  36  37
ENDBRANCH  28  31
ENDBRANCH  26  27
ENDBRANCH  25  26
ENDBRANCH   1  25
TORSDOF 14
ENDMDL
MODEL 3
REMARK VINA RESULT:     -12.3      2.104      3.565
REMARK SMILES CC(=O)Nc1nc(C[N@@H+]2CCO[C@@H](CC(=O)NCCCNC(=O)c3ccc(-c4c5nc(c(-c6c(F)c(F)c(F)c(F)c6F)c6ccc([nH]6)c(-c6c(F)c(F)c(F)c(F)c6F)c6nc(c(-c7c(F)c(F)c(F)c(F)c7F)c7ccc4[nH]7)C=C6)C=C5)cc3)C2)cs1
REMARK SMILES IDX 18 1 17 2 15 3 16 4 14 6 13 7 9 8 10 9 87 10 11 12 12 13
REMARK SMILES IDX 8 14 7 15 5 16 6 17 89 18 88 19 4 20 1 21 2 22 3 23 19 25
REMARK SMILES IDX 20 26 21 27 22 28 23 30 24 31 25 32 86 33 26 34 85 35 27 36
REMARK SMILES IDX 28 37 29 38 79 39 30 40 84 41 78 42 80 43 31 44 83 45 77 46
REMARK SMILES IDX 76 47 32 49 64 50 44 51 63 52 45 53 48 54 62 55 81 56 46 57
REMARK SMILES IDX 47 58 61 60 82 61 49 62 33 63 34 64 42 65 35 66 36 67 40 68
REMARK SMILES IDX 43 69 37 70 38 71 41 72 39 73 65 74 66 75 74 76 67 77 68 78
REMARK SMILES IDX 72 79 75 80 69 81 70 82 73 83 71 84 50 85 51 86 59 87 52 88
REMARK SMILES IDX 53 89 57 90 60 91 54 92 55 93 58 94 56 95
REMARK H PARENT 17 5 9 11 4 24 21 29 80 48 48 59
REMARK Flexibility Score: inf
ROOT
ATOM      1  C   UNL A   1      31.503  30.878  26.445  1.00  0.00     0.117 C 
ENDROOT
BRANCH   1   2
ATOM      2  N   UNL A   1      32.639  30.308  27.156  1.00  0.00    -0.356 N 
ATOM      3  C   UNL A   1      33.537  29.357  26.767  1.00  0.00     0.222 C 
ATOM      4  O   UNL A   1      34.366  28.963  27.586  1.00  0.00    -0.275 OA
ATOM      5  H   UNL A   1      32.782  30.665  28.062  1.00  0.00     0.163 HD
BRANCH   3   6
ATOM      6  C   UNL A   1      33.501  28.808  25.361  1.00  0.00     0.138 C 
BRANCH   6   7
ATOM      7  C   UNL A   1      32.787  27.458  25.209  1.00  0.00     0.182 C 
ATOM      8  N   UNL A   1      32.968  24.951  25.701  1.00  0.00    -0.326 N 
ATOM      9  C   UNL A   1      31.690  25.080  26.399  1.00  0.00     0.291 C 
ATOM     10  C   UNL A   1      33.652  26.245  25.604  1.00  0.00     0.295 C 
ATOM     11  H   UNL A   1      33.540  24.362  26.307  1.00  0.00     0.348 HD
ATOM     12  C   UNL A   1      30.865  26.329  26.041  1.00  0.00     0.222 C 
ATOM     13  O   UNL A   1      31.639  27.529  26.085  1.00  0.00    -0.366 OA
BRANCH   8  14
ATOM     14  C   UNL A   1      33.010  24.102  24.507  1.00  0.00     0.320 C 
BRANCH  14  15
ATOM     15  C   UNL A   1      33.624  22.755  24.728  1.00  0.00     0.108 A 
ATOM     16  C   UNL A   1      33.581  20.679  25.465  1.00  0.00     0.189 A 
ATOM     17  N   UNL A   1      32.829  21.716  25.199  1.00  0.00    -0.219 NA
ATOM     18  S   UNL A   1      35.248  20.847  25.164  1.00  0.00    -0.105 S 
ATOM     19  C   UNL A   1      34.939  22.393  24.485  1.00  0.00     0.098 A 
BRANCH  16  20
ATOM     20  N   UNL A   1      33.212  19.465  25.954  1.00  0.00    -0.302 N 
ATOM     21  C   UNL A   1      32.655  18.550  23.720  1.00  0.00     0.114 C 
ATOM     22  C   UNL A   1      32.630  18.474  25.226  1.00  0.00     0.223 C 
ATOM     23  O   UNL A   1      32.180  17.482  25.805  1.00  0.00    -0.275 OA
ATOM     24  H   UNL A   1      33.378  19.291  26.909  1.00  0.00     0.172 HD
ENDBRANCH  16  20
ENDBRANCH  14  15
ENDBRANCH   8  14
ENDBRANCH   6   7
ENDBRANCH   3   6
ENDBRANCH   1   2
BRANCH   1  25
ATOM     25  C   UNL A   1      31.393  32.384  26.677  1.00  0.00     0.042 C 
BRANCH  25  26
ATOM     26  C   UNL A   1      32.702  33.039  27.080  1.00  0.00     0.118 C 
BRANCH  26  27
ATOM     27  N   UNL A   1      32.493  34.352  27.661  1.00  0.00    -0.352 N 
ATOM     28  C   UNL A   1      33.044  34.911  28.789  1.00  0.00     0.251 C 
ATOM     29  H   UNL A   1      31.861  34.929  27.174  1.00  0.00     0.163 HD
ATOM     30  O   UNL A   1      32.555  35.937  29.255  1.00  0.00    -0.269 OA
BRANCH  28  31
ATOM     31  C   UNL A   1      34.211  34.287  29.459  1.00  0.00     0.039 A 
ATOM     32  C   UNL A   1      35.494  34.582  28.989  1.00  0.00     0.014 A 
ATOM     33  C   UNL A   1      34.053  33.375  30.505  1.00  0.00     0.014 A 
ATOM     34  C   UNL A   1      36.613  33.999  29.595  1.00  0.00     0.010 A 
ATOM     35  C   UNL A   1      35.168  32.872  31.170  1.00  0.00     0.010 A 
ATOM     36  C   UNL A   1      36.460  33.158  30.708  1.00  0.00    -0.014 A 
BRANCH  36  37
ATOM     37  C   UNL A   1      37.632  32.537  31.379  1.00  0.00     0.031 A 
ATOM     38  C   UNL A   1      38.353  31.388  30.728  1.00  0.00     0.074 A 
ATOM     39  C   UNL A   1      38.001  32.950  32.606  1.00  0.00     0.049 A 
ATOM     40  N   UNL A   1      39.338  30.657  31.187  1.00  0.00    -0.248 NA
ATOM     41  C   UNL A   1      37.878  30.982  29.396  1.00  0.00     0.031 C 
ATOM     42  C   UNL A   1      37.345  34.010  33.373  1.00  0.00     0.029 A 
ATOM     43  N   UNL A   1      39.006  32.513  33.433  1.00  0.00    -0.354 N 
ATOM     44  C   UNL A   1      39.576  29.690  30.219  1.00  0.00     0.074 A 
ATOM     45  C   UNL A   1      38.598  29.893  29.172  1.00  0.00     0.031 C 
ATOM     46  C   UNL A   1      37.970  34.148  34.552  1.00  0.00     0.029 A 
ATOM     47  C   UNL A   1      39.047  33.166  34.640  1.00  0.00     0.049 A 
ATOM     48  H   UNL A   1      39.637  31.800  33.184  1.00  0.00     0.167 HD
ATOM     49  C   UNL A   1      40.535  28.733  30.193  1.00  0.00     0.037 A 
ATOM     50  C   UNL A   1      39.855  32.987  35.703  1.00  0.00     0.037 A 
ATOM     51  C   UNL A   1      41.530  28.561  31.219  1.00  0.00     0.049 A 
ATOM     52  C   UNL A   1      40.937  31.946  35.640  1.00  0.00     0.074 A 
ATOM     53  C   UNL A   1      42.604  27.687  31.241  1.00  0.00     0.029 A 
ATOM     54  N   UNL A   1      41.569  29.275  32.408  1.00  0.00    -0.354 N 
ATOM     55  N   UNL A   1      41.210  31.094  34.681  1.00  0.00    -0.248 NA
ATOM     56  C   UNL A   1      41.830  31.846  36.802  1.00  0.00     0.031 C 
ATOM     57  C   UNL A   1      43.262  27.837  32.466  1.00  0.00     0.029 A 
ATOM     58  C   UNL A   1      42.632  28.841  33.185  1.00  0.00     0.049 A 
ATOM     59  H   UNL A   1      40.937  29.984  32.662  1.00  0.00     0.167 HD
ATOM     60  C   UNL A   1      42.314  30.373  35.112  1.00  0.00     0.074 A 
ATOM     61  C   UNL A   1      42.672  30.897  36.413  1.00  0.00     0.031 C 
ATOM     62  C   UNL A   1      42.973  29.368  34.483  1.00  0.00     0.037 A 
BRANCH  49  63
ATOM     63  C   UNL A   1      40.543  27.795  29.020  1.00  0.00     0.064 A 
ATOM     64  C   UNL A   1      41.358  28.016  27.898  1.00  0.00     0.173 A 
ATOM     65  C   UNL A   1      39.727  26.654  29.018  1.00  0.00     0.173 A 
ATOM     66  F   UNL A   1      42.151  29.097  27.843  1.00  0.00    -0.203 F 
ATOM     67  C   UNL A   1      41.320  27.158  26.801  1.00  0.00     0.198 A 
ATOM     68  C   UNL A   1      39.717  25.778  27.935  1.00  0.00     0.198 A 
ATOM     69  F   UNL A   1      38.934  26.387  30.067  1.00  0.00    -0.203 F 
ATOM     70  F   UNL A   1      42.057  27.429  25.715  1.00  0.00    -0.200 F 
ATOM     71  C   UNL A   1      40.503  26.038  26.823  1.00  0.00     0.200 A 
ATOM     72  F   UNL A   1      38.938  24.689  27.963  1.00  0.00    -0.200 F 
ATOM     73  F   UNL A   1      40.465  25.214  25.766  1.00  0.00    -0.200 F 
ENDBRANCH  49  63
BRANCH  50  74
ATOM     74  C   UNL A   1      39.674  33.841  36.905  1.00  0.00     0.064 A 
ATOM     75  C   UNL A   1      40.223  35.128  36.965  1.00  0.00     0.173 A 
ATOM     76  C   UNL A   1      38.911  33.403  37.998  1.00  0.00     0.173 A 
ATOM     77  F   UNL A   1      40.975  35.582  35.951  1.00  0.00    -0.203 F 
ATOM     78  C   UNL A   1      40.021  35.945  38.075  1.00  0.00     0.198 A 
ATOM     79  C   UNL A   1      38.689  34.231  39.097  1.00  0.00     0.198 A 
ATOM     80  F   UNL A   1      38.358  32.182  37.985  1.00  0.00    -0.203 F 
ATOM     81  F   UNL A   1      40.579  37.162  38.119  1.00  0.00    -0.200 F 
ATOM     82  C   UNL A   1      39.248  35.499  39.136  1.00  0.00     0.200 A 
ATOM     83  F   UNL A   1      37.926  33.803  40.112  1.00  0.00    -0.200 F 
ATOM     84  F   UNL A   1      39.039  36.292  40.196  1.00  0.00    -0.200 F 
ENDBRANCH  50  74
BRANCH  62  85
ATOM     85  C   UNL A   1      44.162  28.778  35.184  1.00  0.00     0.064 A 
ATOM     86  C   UNL A   1      44.030  27.717  36.091  1.00  0.00     0.173 A 
ATOM     87  C   UNL A   1      45.454  29.252  34.910  1.00  0.00     0.173 A 
ATOM     88  F   UNL A   1      42.815  27.240  36.399  1.00  0.00    -0.203 F 
ATOM     89  C   UNL A   1      45.147  27.164  36.713  1.00  0.00     0.198 A 
ATOM     90  C   UNL A   1      46.571  28.677  35.511  1.00  0.00     0.198 A 
ATOM     91  F   UNL A   1      45.636  30.261  34.045  1.00  0.00    -0.203 F 
ATOM     92  F   UNL A   1      44.993  26.180  37.609  1.00  0.00    -0.200 F 
ATOM     93  C   UNL A   1      46.416  27.639  36.417  1.00  0.00     0.200 A 
ATOM     94  F   UNL A   1      47.797  29.128  35.213  1.00  0.00    -0.200 F 
ATOM     95  F   UNL A   1      47.490  27.099  37.009  1.00  0.00    -0.200 F 
ENDBRANCH  62  85
ENDBRANCH  36  37
ENDBRANCH  28  31
ENDBRANCH  26  27
ENDBRANCH  25  26
ENDBRANCH   1  25
TORSDOF 14
ENDMDL
