MODEL 1
REMARK VINA RESULT:     -15.5      0.000      0.000
REMARK SMILES O=C(Cn1nc(C(=O)NCCCNC(=O)c2ccc(-c3c4nc(c(-c5c(F)c(F)c(F)c(F)c5F)c5ccc([nH]5)c(-c5c(F)c(F)c(F)c(F)c5F)c5nc(c(-c6c(F)c(F)c(F)c(F)c6F)c6ccc3[nH]6)C=C5)C=C4)cc2)c2ccccc2c1=O)Nc1ccc2c(c1)C(=O)c1ccccc1C2=O
REMARK SMILES IDX 10 1 9 2 7 3 8 4 6 6 4 7 5 8 85 9 84 10 86 11 79 12 83 13
REMARK SMILES IDX 80 14 82 15 81 16 3 17 2 18 1 19 87 20 88 22 89 23 93 24
REMARK SMILES IDX 90 25 92 26 91 27 94 28 102 29 95 30 96 31 101 32 103 33
REMARK SMILES IDX 97 34 100 35 98 36 99 37 11 38 12 39 13 40 14 41 15 43 16 44
REMARK SMILES IDX 17 45 78 46 18 47 77 48 19 49 20 50 21 51 71 52 22 53 76 54
REMARK SMILES IDX 70 55 72 56 23 57 75 58 69 59 68 60 24 62 56 63 36 64 55 65
REMARK SMILES IDX 37 66 40 67 54 68 73 69 38 70 39 71 53 73 74 74 41 75 25 76
REMARK SMILES IDX 26 77 34 78 27 79 28 80 32 81 35 82 29 83 30 84 33 85 31 86
REMARK SMILES IDX 57 87 58 88 66 89 59 90 60 91 64 92 67 93 61 94 62 95 65 96
REMARK SMILES IDX 63 97 42 98 43 99 51 100 44 101 45 102 49 103 52 104 46 105
REMARK SMILES IDX 47 106 50 107 48 108
REMARK H PARENT 9 5 87 21 13 42 72 61 40 72
REMARK Flexibility Score: inf
ROOT
ATOM      1  C   UNL A   1      46.252  22.143  36.683  1.00  0.00     0.118 C 
ENDROOT
BRANCH   1   2
ATOM      2  N   UNL A   1      45.651  20.863  36.351  1.00  0.00    -0.351 N 
ATOM      3  C   UNL A   1      45.997  19.587  36.732  1.00  0.00     0.272 C 
ATOM      4  O   UNL A   1      45.483  18.651  36.131  1.00  0.00    -0.267 OA
ATOM      5  H   UNL A   1      44.868  20.917  35.757  1.00  0.00     0.163 HD
BRANCH   3   6
ATOM      6  C   UNL A   1      46.995  19.331  37.880  1.00  0.00     0.156 A 
ATOM      7  N   UNL A   1      47.327  18.650  40.071  1.00  0.00    -0.219 N 
ATOM      8  N   UNL A   1      46.504  18.908  39.008  1.00  0.00    -0.163 NA
ATOM      9  C   UNL A   1      48.704  18.832  40.049  1.00  0.00     0.275 A 
ATOM     10  C   UNL A   1      49.278  19.338  38.787  1.00  0.00     0.051 A 
ATOM     11  O   UNL A   1      49.436  18.596  41.007  1.00  0.00    -0.267 OA
ATOM     12  C   UNL A   1      48.450  19.575  37.691  1.00  0.00     0.020 A 
ATOM     13  C   UNL A   1      50.662  19.569  38.704  1.00  0.00     0.014 A 
ATOM     14  C   UNL A   1      49.031  20.032  36.498  1.00  0.00     0.011 A 
ATOM     15  C   UNL A   1      51.225  20.040  37.520  1.00  0.00     0.001 A 
ATOM     16  C   UNL A   1      50.410  20.270  36.418  1.00  0.00     0.001 A 
BRANCH   7  17
ATOM     17  C   UNL A   1      46.682  18.188  41.302  1.00  0.00     0.248 C 
BRANCH  17  18
ATOM     18  C   UNL A   1      45.169  18.185  41.076  1.00  0.00     0.246 C 
ATOM     19  O   UNL A   1      44.437  19.052  41.546  1.00  0.00    -0.273 OA
ATOM     20  N   UNL A   1      44.717  17.050  40.418  1.00  0.00    -0.324 N 
ATOM     21  H   UNL A   1      45.202  16.761  39.611  1.00  0.00     0.169 HD
BRANCH  20  22
ATOM     22  C   UNL A   1      43.607  16.282  40.830  1.00  0.00     0.042 A 
ATOM     23  C   UNL A   1      42.892  15.588  39.842  1.00  0.00     0.027 A 
ATOM     24  C   UNL A   1      43.373  16.006  42.177  1.00  0.00     0.039 A 
ATOM     25  C   UNL A   1      42.053  14.525  40.190  1.00  0.00     0.015 A 
ATOM     26  C   UNL A   1      42.604  14.894  42.515  1.00  0.00     0.036 A 
ATOM     27  C   UNL A   1      41.981  14.133  41.527  1.00  0.00     0.034 A 
ATOM     28  C   UNL A   1      42.675  14.380  43.893  1.00  0.00     0.194 C 
ATOM     29  C   UNL A   1      41.456  12.795  41.873  1.00  0.00     0.194 C 
ATOM     30  O   UNL A   1      42.848  15.118  44.852  1.00  0.00    -0.289 OA
ATOM     31  C   UNL A   1      42.666  12.915  44.038  1.00  0.00     0.034 A 
ATOM     32  C   UNL A   1      42.071  12.134  43.047  1.00  0.00     0.034 A 
ATOM     33  O   UNL A   1      40.653  12.217  41.157  1.00  0.00    -0.289 OA
ATOM     34  C   UNL A   1      43.365  12.320  45.091  1.00  0.00     0.013 A 
ATOM     35  C   UNL A   1      42.170  10.743  43.101  1.00  0.00     0.013 A 
ATOM     36  C   UNL A   1      43.494  10.932  45.125  1.00  0.00     0.001 A 
ATOM     37  C   UNL A   1      42.899  10.147  44.133  1.00  0.00     0.001 A 
ENDBRANCH  20  22
ENDBRANCH  17  18
ENDBRANCH   7  17
ENDBRANCH   3   6
ENDBRANCH   1   2
BRANCH   1  38
ATOM     38  C   UNL A   1      46.157  23.132  35.519  1.00  0.00     0.042 C 
BRANCH  38  39
ATOM     39  C   UNL A   1      47.429  23.953  35.296  1.00  0.00     0.118 C 
BRANCH  39  40
ATOM     40  N   UNL A   1      47.711  24.865  36.396  1.00  0.00    -0.352 N 
ATOM     41  C   UNL A   1      47.245  26.135  36.633  1.00  0.00     0.251 C 
ATOM     42  H   UNL A   1      48.332  24.516  37.076  1.00  0.00     0.163 HD
ATOM     43  O   UNL A   1      47.730  26.798  37.546  1.00  0.00    -0.269 OA
BRANCH  41  44
ATOM     44  C   UNL A   1      46.183  26.723  35.790  1.00  0.00     0.039 A 
ATOM     45  C   UNL A   1      46.471  27.701  34.835  1.00  0.00     0.014 A 
ATOM     46  C   UNL A   1      44.873  26.251  35.933  1.00  0.00     0.014 A 
ATOM     47  C   UNL A   1      45.435  28.288  34.110  1.00  0.00     0.010 A 
ATOM     48  C   UNL A   1      43.841  26.808  35.173  1.00  0.00     0.010 A 
ATOM     49  C   UNL A   1      44.109  27.856  34.281  1.00  0.00    -0.014 A 
BRANCH  49  50
ATOM     50  C   UNL A   1      43.015  28.534  33.542  1.00  0.00     0.031 A 
ATOM     51  C   UNL A   1      42.747  28.191  32.103  1.00  0.00     0.074 A 
ATOM     52  C   UNL A   1      42.221  29.410  34.184  1.00  0.00     0.049 A 
ATOM     53  N   UNL A   1      41.811  28.643  31.306  1.00  0.00    -0.248 NA
ATOM     54  C   UNL A   1      43.648  27.212  31.474  1.00  0.00     0.031 C 
ATOM     55  C   UNL A   1      42.370  29.815  35.581  1.00  0.00     0.029 A 
ATOM     56  N   UNL A   1      41.111  30.092  33.753  1.00  0.00    -0.354 N 
ATOM     57  C   UNL A   1      42.016  28.014  30.086  1.00  0.00     0.074 A 
ATOM     58  C   UNL A   1      43.178  27.165  30.236  1.00  0.00     0.031 C 
ATOM     59  C   UNL A   1      41.355  30.629  35.911  1.00  0.00     0.029 A 
ATOM     60  C   UNL A   1      40.506  30.830  34.740  1.00  0.00     0.049 A 
ATOM     61  H   UNL A   1      40.780  30.056  32.826  1.00  0.00     0.167 HD
ATOM     62  C   UNL A   1      41.291  28.124  28.947  1.00  0.00     0.037 A 
ATOM     63  C   UNL A   1      39.386  31.577  34.706  1.00  0.00     0.037 A 
ATOM     64  C   UNL A   1      40.121  28.946  28.798  1.00  0.00     0.049 A 
ATOM     65  C   UNL A   1      38.611  31.694  33.425  1.00  0.00     0.074 A 
ATOM     66  C   UNL A   1      39.326  29.124  27.679  1.00  0.00     0.029 A 
ATOM     67  N   UNL A   1      39.570  29.720  29.807  1.00  0.00    -0.354 N 
ATOM     68  N   UNL A   1      38.828  31.112  32.273  1.00  0.00    -0.248 NA
ATOM     69  C   UNL A   1      37.441  32.584  33.438  1.00  0.00     0.031 C 
ATOM     70  C   UNL A   1      38.302  30.020  28.006  1.00  0.00     0.029 A 
ATOM     71  C   UNL A   1      38.448  30.381  29.335  1.00  0.00     0.049 A 
ATOM     72  H   UNL A   1      39.923  29.790  30.723  1.00  0.00     0.167 HD
ATOM     73  C   UNL A   1      37.826  31.559  31.425  1.00  0.00     0.074 A 
ATOM     74  C   UNL A   1      36.986  32.448  32.200  1.00  0.00     0.031 C 
ATOM     75  C   UNL A   1      37.626  31.265  30.118  1.00  0.00     0.037 A 
BRANCH  62  76
ATOM     76  C   UNL A   1      41.745  27.332  27.761  1.00  0.00     0.064 A 
ATOM     77  C   UNL A   1      42.700  27.838  26.869  1.00  0.00     0.173 A 
ATOM     78  C   UNL A   1      41.263  26.032  27.546  1.00  0.00     0.173 A 
ATOM     79  F   UNL A   1      43.181  29.080  27.029  1.00  0.00    -0.203 F 
ATOM     80  C   UNL A   1      43.149  27.075  25.794  1.00  0.00     0.198 A 
ATOM     81  C   UNL A   1      41.726  25.266  26.481  1.00  0.00     0.198 A 
ATOM     82  F   UNL A   1      40.351  25.504  28.376  1.00  0.00    -0.203 F 
ATOM     83  F   UNL A   1      44.045  27.585  24.939  1.00  0.00    -0.200 F 
ATOM     84  C   UNL A   1      42.666  25.788  25.605  1.00  0.00     0.200 A 
ATOM     85  F   UNL A   1      41.265  24.019  26.302  1.00  0.00    -0.200 F 
ATOM     86  F   UNL A   1      43.106  25.052  24.575  1.00  0.00    -0.200 F 
ENDBRANCH  62  76
BRANCH  63  87
ATOM     87  C   UNL A   1      38.915  32.247  35.942  1.00  0.00     0.064 A 
ATOM     88  C   UNL A   1      38.129  31.556  36.872  1.00  0.00     0.173 A 
ATOM     89  C   UNL A   1      39.256  33.576  36.227  1.00  0.00     0.173 A 
ATOM     90  F   UNL A   1      37.761  30.290  36.628  1.00  0.00    -0.203 F 
ATOM     91  C   UNL A   1      37.697  32.171  38.045  1.00  0.00     0.198 A 
ATOM     92  C   UNL A   1      38.839  34.185  37.408  1.00  0.00     0.198 A 
ATOM     93  F   UNL A   1      40.006  34.276  35.363  1.00  0.00    -0.203 F 
ATOM     94  F   UNL A   1      36.927  31.496  38.909  1.00  0.00    -0.200 F 
ATOM     95  C   UNL A   1      38.059  33.483  38.315  1.00  0.00     0.200 A 
ATOM     96  F   UNL A   1      39.195  35.449  37.670  1.00  0.00    -0.200 F 
ATOM     97  F   UNL A   1      37.649  34.072  39.447  1.00  0.00    -0.200 F 
ENDBRANCH  63  87
BRANCH  75  98
ATOM     98  C   UNL A   1      36.459  31.911  29.440  1.00  0.00     0.064 A 
ATOM     99  C   UNL A   1      36.445  33.289  29.183  1.00  0.00     0.173 A 
ATOM    100  C   UNL A   1      35.373  31.142  29.000  1.00  0.00     0.173 A 
ATOM    101  F   UNL A   1      37.458  34.063  29.599  1.00  0.00    -0.203 F 
ATOM    102  C   UNL A   1      35.377  33.878  28.512  1.00  0.00     0.198 A 
ATOM    103  C   UNL A   1      34.314  31.733  28.315  1.00  0.00     0.198 A 
ATOM    104  F   UNL A   1      35.345  29.820  29.223  1.00  0.00    -0.203 F 
ATOM    105  F   UNL A   1      35.371  35.200  28.295  1.00  0.00    -0.200 F 
ATOM    106  C   UNL A   1      34.316  33.099  28.074  1.00  0.00     0.200 A 
ATOM    107  F   UNL A   1      33.291  30.979  27.889  1.00  0.00    -0.200 F 
ATOM    108  F   UNL A   1      33.291  33.666  27.423  1.00  0.00    -0.200 F 
ENDBRANCH  75  98
ENDBRANCH  49  50
ENDBRANCH  41  44
ENDBRANCH  39  40
ENDBRANCH  38  39
ENDBRANCH   1  38
TORSDOF 13
ENDMDL
MODEL 2
REMARK VINA RESULT:     -15.5      8.242     13.263
REMARK SMILES O=C(Cn1nc(C(=O)NCCCNC(=O)c2ccc(-c3c4nc(c(-c5c(F)c(F)c(F)c(F)c5F)c5ccc([nH]5)c(-c5c(F)c(F)c(F)c(F)c5F)c5nc(c(-c6c(F)c(F)c(F)c(F)c6F)c6ccc3[nH]6)C=C5)C=C4)cc2)c2ccccc2c1=O)Nc1ccc2c(c1)C(=O)c1ccccc1C2=O
REMARK SMILES IDX 10 1 9 2 7 3 8 4 6 6 4 7 5 8 85 9 84 10 86 11 79 12 83 13
REMARK SMILES IDX 80 14 82 15 81 16 3 17 2 18 1 19 87 20 88 22 89 23 93 24
REMARK SMILES IDX 90 25 92 26 91 27 94 28 102 29 95 30 96 31 101 32 103 33
REMARK SMILES IDX 97 34 100 35 98 36 99 37 11 38 12 39 13 40 14 41 15 43 16 44
REMARK SMILES IDX 17 45 78 46 18 47 77 48 19 49 20 50 21 51 71 52 22 53 76 54
REMARK SMILES IDX 70 55 72 56 23 57 75 58 69 59 68 60 24 62 56 63 36 64 55 65
REMARK SMILES IDX 37 66 40 67 54 68 73 69 38 70 39 71 53 73 74 74 41 75 25 76
REMARK SMILES IDX 26 77 34 78 27 79 28 80 32 81 35 82 29 83 30 84 33 85 31 86
REMARK SMILES IDX 57 87 58 88 66 89 59 90 60 91 64 92 67 93 61 94 62 95 65 96
REMARK SMILES IDX 63 97 42 98 43 99 51 100 44 101 45 102 49 103 52 104 46 105
REMARK SMILES IDX 47 106 50 107 48 108
REMARK H PARENT 9 5 87 21 13 42 72 61 40 72
REMARK Flexibility Score: inf
ROOT
ATOM      1  C   UNL A   1      43.143  21.339  25.540  1.00  0.00     0.118 C 
ENDROOT
BRANCH   1   2
ATOM      2  N   UNL A   1      42.571  20.504  26.581  1.00  0.00    -0.351 N 
ATOM      3  C   UNL A   1      41.364  20.590  27.236  1.00  0.00     0.272 C 
ATOM      4  O   UNL A   1      41.209  19.910  28.243  1.00  0.00    -0.267 OA
ATOM      5  H   UNL A   1      43.141  19.752  26.864  1.00  0.00     0.163 HD
BRANCH   3   6
ATOM      6  C   UNL A   1      40.235  21.508  26.725  1.00  0.00     0.156 A 
ATOM      7  N   UNL A   1      38.367  21.746  25.372  1.00  0.00    -0.219 N 
ATOM      8  N   UNL A   1      39.401  20.998  25.865  1.00  0.00    -0.163 NA
ATOM      9  C   UNL A   1      38.137  23.073  25.713  1.00  0.00     0.275 A 
ATOM     10  C   UNL A   1      39.086  23.679  26.666  1.00  0.00     0.051 A 
ATOM     11  O   UNL A   1      37.204  23.737  25.267  1.00  0.00    -0.267 OA
ATOM     12  C   UNL A   1      40.126  22.915  27.195  1.00  0.00     0.020 A 
ATOM     13  C   UNL A   1      38.927  25.026  27.035  1.00  0.00     0.014 A 
ATOM     14  C   UNL A   1      40.996  23.514  28.118  1.00  0.00     0.011 A 
ATOM     15  C   UNL A   1      39.810  25.615  27.938  1.00  0.00     0.001 A 
ATOM     16  C   UNL A   1      40.842  24.858  28.480  1.00  0.00     0.001 A 
BRANCH   7  17
ATOM     17  C   UNL A   1      37.487  21.090  24.401  1.00  0.00     0.248 C 
BRANCH  17  18
ATOM     18  C   UNL A   1      36.308  20.483  25.161  1.00  0.00     0.246 C 
ATOM     19  O   UNL A   1      35.901  19.345  24.935  1.00  0.00    -0.273 OA
ATOM     20  N   UNL A   1      35.681  21.384  26.010  1.00  0.00    -0.324 N 
ATOM     21  H   UNL A   1      36.248  21.930  26.602  1.00  0.00     0.169 HD
BRANCH  20  22
ATOM     22  C   UNL A   1      34.284  21.570  26.079  1.00  0.00     0.042 A 
ATOM     23  C   UNL A   1      33.716  21.776  27.346  1.00  0.00     0.027 A 
ATOM     24  C   UNL A   1      33.522  21.801  24.933  1.00  0.00     0.039 A 
ATOM     25  C   UNL A   1      32.444  22.345  27.468  1.00  0.00     0.015 A 
ATOM     26  C   UNL A   1      32.293  22.445  25.058  1.00  0.00     0.036 A 
ATOM     27  C   UNL A   1      31.775  22.752  26.315  1.00  0.00     0.034 A 
ATOM     28  C   UNL A   1      31.679  23.030  23.854  1.00  0.00     0.194 C 
ATOM     29  C   UNL A   1      30.653  23.710  26.417  1.00  0.00     0.194 C 
ATOM     30  O   UNL A   1      31.817  22.530  22.747  1.00  0.00    -0.289 OA
ATOM     31  C   UNL A   1      31.006  24.327  24.036  1.00  0.00     0.034 A 
ATOM     32  C   UNL A   1      30.504  24.664  25.293  1.00  0.00     0.034 A 
ATOM     33  O   UNL A   1      29.969  23.792  27.425  1.00  0.00    -0.289 OA
ATOM     34  C   UNL A   1      30.995  25.253  22.991  1.00  0.00     0.013 A 
ATOM     35  C   UNL A   1      29.984  25.940  25.518  1.00  0.00     0.013 A 
ATOM     36  C   UNL A   1      30.508  26.538  23.226  1.00  0.00     0.001 A 
ATOM     37  C   UNL A   1      30.005  26.880  24.484  1.00  0.00     0.001 A 
ENDBRANCH  20  22
ENDBRANCH  17  18
ENDBRANCH   7  17
ENDBRANCH   3   6
ENDBRANCH   1   2
BRANCH   1  38
ATOM     38  C   UNL A   1      43.877  22.548  26.123  1.00  0.00     0.042 C 
BRANCH  38  39
ATOM     39  C   UNL A   1      43.532  23.874  25.440  1.00  0.00     0.118 C 
BRANCH  39  40
ATOM     40  N   UNL A   1      44.708  24.566  24.928  1.00  0.00    -0.352 N 
ATOM     41  C   UNL A   1      45.252  25.773  25.294  1.00  0.00     0.251 C 
ATOM     42  H   UNL A   1      45.186  24.096  24.208  1.00  0.00     0.163 HD
ATOM     43  O   UNL A   1      46.163  26.254  24.627  1.00  0.00    -0.269 OA
BRANCH  41  44
ATOM     44  C   UNL A   1      44.740  26.510  26.470  1.00  0.00     0.039 A 
ATOM     45  C   UNL A   1      44.396  25.848  27.650  1.00  0.00     0.014 A 
ATOM     46  C   UNL A   1      44.643  27.905  26.397  1.00  0.00     0.014 A 
ATOM     47  C   UNL A   1      43.847  26.564  28.713  1.00  0.00     0.010 A 
ATOM     48  C   UNL A   1      44.134  28.628  27.479  1.00  0.00     0.010 A 
ATOM     49  C   UNL A   1      43.699  27.959  28.632  1.00  0.00    -0.014 A 
BRANCH  49  50
ATOM     50  C   UNL A   1      43.058  28.694  29.751  1.00  0.00     0.031 A 
ATOM     51  C   UNL A   1      41.657  29.219  29.610  1.00  0.00     0.074 A 
ATOM     52  C   UNL A   1      43.714  28.832  30.918  1.00  0.00     0.049 A 
ATOM     53  N   UNL A   1      40.916  29.845  30.490  1.00  0.00    -0.248 NA
ATOM     54  C   UNL A   1      40.999  29.014  28.309  1.00  0.00     0.031 C 
ATOM     55  C   UNL A   1      45.071  28.356  31.184  1.00  0.00     0.029 A 
ATOM     56  N   UNL A   1      43.313  29.386  32.109  1.00  0.00    -0.354 N 
ATOM     57  C   UNL A   1      39.715  30.115  29.849  1.00  0.00     0.074 A 
ATOM     58  C   UNL A   1      39.829  29.608  28.499  1.00  0.00     0.031 C 
ATOM     59  C   UNL A   1      45.369  28.585  32.473  1.00  0.00     0.029 A 
ATOM     60  C   UNL A   1      44.240  29.254  33.113  1.00  0.00     0.049 A 
ATOM     61  H   UNL A   1      42.445  29.835  32.231  1.00  0.00     0.167 HD
ATOM     62  C   UNL A   1      38.610  30.721  30.347  1.00  0.00     0.037 A 
ATOM     63  C   UNL A   1      44.180  29.622  34.406  1.00  0.00     0.037 A 
ATOM     64  C   UNL A   1      38.479  31.205  31.695  1.00  0.00     0.049 A 
ATOM     65  C   UNL A   1      42.949  30.305  34.927  1.00  0.00     0.074 A 
ATOM     66  C   UNL A   1      37.398  31.836  32.285  1.00  0.00     0.029 A 
ATOM     67  N   UNL A   1      39.461  31.098  32.667  1.00  0.00    -0.354 N 
ATOM     68  N   UNL A   1      41.829  30.576  34.305  1.00  0.00    -0.248 NA
ATOM     69  C   UNL A   1      42.980  30.746  36.329  1.00  0.00     0.031 C 
ATOM     70  C   UNL A   1      37.732  32.128  33.612  1.00  0.00     0.029 A 
ATOM     71  C   UNL A   1      39.012  31.657  33.853  1.00  0.00     0.049 A 
ATOM     72  H   UNL A   1      40.345  30.687  32.536  1.00  0.00     0.167 HD
ATOM     73  C   UNL A   1      41.021  31.214  35.234  1.00  0.00     0.074 A 
ATOM     74  C   UNL A   1      41.772  31.274  36.471  1.00  0.00     0.031 C 
ATOM     75  C   UNL A   1      39.773  31.713  35.072  1.00  0.00     0.037 A 
BRANCH  62  76
ATOM     76  C   UNL A   1      37.444  30.897  29.424  1.00  0.00     0.064 A 
ATOM     77  C   UNL A   1      36.576  29.835  29.138  1.00  0.00     0.173 A 
ATOM     78  C   UNL A   1      37.163  32.151  28.863  1.00  0.00     0.173 A 
ATOM     79  F   UNL A   1      36.813  28.615  29.642  1.00  0.00    -0.203 F 
ATOM     80  C   UNL A   1      35.469  30.020  28.313  1.00  0.00     0.198 A 
ATOM     81  C   UNL A   1      36.047  32.337  28.053  1.00  0.00     0.198 A 
ATOM     82  F   UNL A   1      37.964  33.198  29.112  1.00  0.00    -0.203 F 
ATOM     83  F   UNL A   1      34.663  28.988  28.033  1.00  0.00    -0.200 F 
ATOM     84  C   UNL A   1      35.202  31.272  27.777  1.00  0.00     0.200 A 
ATOM     85  F   UNL A   1      35.785  33.548  27.541  1.00  0.00    -0.200 F 
ATOM     86  F   UNL A   1      34.132  31.450  26.990  1.00  0.00    -0.200 F 
ENDBRANCH  62  76
BRANCH  63  87
ATOM     87  C   UNL A   1      45.319  29.317  35.307  1.00  0.00     0.064 A 
ATOM     88  C   UNL A   1      46.350  30.246  35.491  1.00  0.00     0.173 A 
ATOM     89  C   UNL A   1      45.387  28.109  36.013  1.00  0.00     0.173 A 
ATOM     90  F   UNL A   1      46.335  31.406  34.817  1.00  0.00    -0.203 F 
ATOM     91  C   UNL A   1      47.414  29.977  36.349  1.00  0.00     0.198 A 
ATOM     92  C   UNL A   1      46.441  27.848  36.884  1.00  0.00     0.198 A 
ATOM     93  F   UNL A   1      44.421  27.190  35.866  1.00  0.00    -0.203 F 
ATOM     94  F   UNL A   1      48.401  30.872  36.492  1.00  0.00    -0.200 F 
ATOM     95  C   UNL A   1      47.454  28.781  37.050  1.00  0.00     0.200 A 
ATOM     96  F   UNL A   1      46.475  26.695  37.566  1.00  0.00    -0.200 F 
ATOM     97  F   UNL A   1      48.474  28.525  37.882  1.00  0.00    -0.200 F 
ENDBRANCH  63  87
BRANCH  75  98
ATOM     98  C   UNL A   1      39.139  32.372  36.257  1.00  0.00     0.064 A 
ATOM     99  C   UNL A   1      38.253  31.671  37.085  1.00  0.00     0.173 A 
ATOM    100  C   UNL A   1      39.460  33.694  36.595  1.00  0.00     0.173 A 
ATOM    101  F   UNL A   1      37.908  30.409  36.790  1.00  0.00    -0.203 F 
ATOM    102  C   UNL A   1      37.702  32.275  38.212  1.00  0.00     0.198 A 
ATOM    103  C   UNL A   1      38.919  34.289  37.732  1.00  0.00     0.198 A 
ATOM    104  F   UNL A   1      40.305  34.402  35.832  1.00  0.00    -0.203 F 
ATOM    105  F   UNL A   1      36.838  31.596  38.979  1.00  0.00    -0.200 F 
ATOM    106  C   UNL A   1      38.039  33.581  38.537  1.00  0.00     0.200 A 
ATOM    107  F   UNL A   1      39.248  35.549  38.047  1.00  0.00    -0.200 F 
ATOM    108  F   UNL A   1      37.512  34.158  39.625  1.00  0.00    -0.200 F 
ENDBRANCH  75  98
ENDBRANCH  49  50
ENDBRANCH  41  44
ENDBRANCH  39  40
ENDBRANCH  38  39
ENDBRANCH   1  38
TORSDOF 13
ENDMDL
MODEL 3
REMARK VINA RESULT:     -15.1      7.017     13.952
REMARK SMILES O=C(Cn1nc(C(=O)NCCCNC(=O)c2ccc(-c3c4nc(c(-c5c(F)c(F)c(F)c(F)c5F)c5ccc([nH]5)c(-c5c(F)c(F)c(F)c(F)c5F)c5nc(c(-c6c(F)c(F)c(F)c(F)c6F)c6ccc3[nH]6)C=C5)C=C4)cc2)c2ccccc2c1=O)Nc1ccc2c(c1)C(=O)c1ccccc1C2=O
REMARK SMILES IDX 10 1 9 2 7 3 8 4 6 6 4 7 5 8 85 9 84 10 86 11 79 12 83 13
REMARK SMILES IDX 80 14 82 15 81 16 3 17 2 18 1 19 87 20 88 22 89 23 93 24
REMARK SMILES IDX 90 25 92 26 91 27 94 28 102 29 95 30 96 31 101 32 103 33
REMARK SMILES IDX 97 34 100 35 98 36 99 37 11 38 12 39 13 40 14 41 15 43 16 44
REMARK SMILES IDX 17 45 78 46 18 47 77 48 19 49 20 50 21 51 71 52 22 53 76 54
REMARK SMILES IDX 70 55 72 56 23 57 75 58 69 59 68 60 24 62 56 63 36 64 55 65
REMARK SMILES IDX 37 66 40 67 54 68 73 69 38 70 39 71 53 73 74 74 41 75 25 76
REMARK SMILES IDX 26 77 34 78 27 79 28 80 32 81 35 82 29 83 30 84 33 85 31 86
REMARK SMILES IDX 57 87 58 88 66 89 59 90 60 91 64 92 67 93 61 94 62 95 65 96
REMARK SMILES IDX 63 97 42 98 43 99 51 100 44 101 45 102 49 103 52 104 46 105
REMARK SMILES IDX 47 106 50 107 48 108
REMARK H PARENT 9 5 87 21 13 42 72 61 40 72
REMARK Flexibility Score: inf
ROOT
ATOM      1  C   UNL A   1      35.588  34.176  31.306  1.00  0.00     0.118 C 
ENDROOT
BRANCH   1   2
ATOM      2  N   UNL A   1      36.955  34.288  30.828  1.00  0.00    -0.351 N 
ATOM      3  C   UNL A   1      38.142  33.917  31.417  1.00  0.00     0.272 C 
ATOM      4  O   UNL A   1      39.182  34.332  30.920  1.00  0.00    -0.267 OA
ATOM      5  H   UNL A   1      37.047  34.697  29.937  1.00  0.00     0.163 HD
BRANCH   3   6
ATOM      6  C   UNL A   1      38.173  33.006  32.660  1.00  0.00     0.156 A 
ATOM      7  N   UNL A   1      37.841  30.888  33.544  1.00  0.00    -0.219 N 
ATOM      8  N   UNL A   1      37.830  31.761  32.491  1.00  0.00    -0.163 NA
ATOM      9  C   UNL A   1      38.184  31.242  34.843  1.00  0.00     0.275 A 
ATOM     10  C   UNL A   1      38.551  32.654  35.063  1.00  0.00     0.051 A 
ATOM     11  O   UNL A   1      38.194  30.450  35.783  1.00  0.00    -0.267 OA
ATOM     12  C   UNL A   1      38.570  33.544  33.989  1.00  0.00     0.020 A 
ATOM     13  C   UNL A   1      38.884  33.086  36.358  1.00  0.00     0.014 A 
ATOM     14  C   UNL A   1      38.947  34.874  34.227  1.00  0.00     0.011 A 
ATOM     15  C   UNL A   1      39.240  34.414  36.585  1.00  0.00     0.001 A 
ATOM     16  C   UNL A   1      39.272  35.306  35.519  1.00  0.00     0.001 A 
BRANCH   7  17
ATOM     17  C   UNL A   1      37.428  29.511  33.259  1.00  0.00     0.248 C 
BRANCH  17  18
ATOM     18  C   UNL A   1      38.685  28.683  32.989  1.00  0.00     0.246 C 
ATOM     19  O   UNL A   1      38.647  27.461  32.865  1.00  0.00    -0.273 OA
ATOM     20  N   UNL A   1      39.853  29.430  33.039  1.00  0.00    -0.324 N 
ATOM     21  H   UNL A   1      39.874  30.284  32.550  1.00  0.00     0.169 HD
BRANCH  20  22
ATOM     22  C   UNL A   1      41.013  29.044  33.743  1.00  0.00     0.042 A 
ATOM     23  C   UNL A   1      40.972  29.097  35.146  1.00  0.00     0.027 A 
ATOM     24  C   UNL A   1      42.069  28.391  33.106  1.00  0.00     0.039 A 
ATOM     25  C   UNL A   1      41.901  28.383  35.909  1.00  0.00     0.015 A 
ATOM     26  C   UNL A   1      42.940  27.614  33.867  1.00  0.00     0.036 A 
ATOM     27  C   UNL A   1      42.832  27.576  35.255  1.00  0.00     0.034 A 
ATOM     28  C   UNL A   1      43.794  26.633  33.176  1.00  0.00     0.194 C 
ATOM     29  C   UNL A   1      43.534  26.511  36.003  1.00  0.00     0.194 C 
ATOM     30  O   UNL A   1      44.231  26.832  32.051  1.00  0.00    -0.289 OA
ATOM     31  C   UNL A   1      43.980  25.342  33.858  1.00  0.00     0.034 A 
ATOM     32  C   UNL A   1      43.850  25.279  35.245  1.00  0.00     0.034 A 
ATOM     33  O   UNL A   1      43.727  26.594  37.207  1.00  0.00    -0.289 OA
ATOM     34  C   UNL A   1      44.150  24.179  33.104  1.00  0.00     0.013 A 
ATOM     35  C   UNL A   1      43.889  24.044  35.894  1.00  0.00     0.013 A 
ATOM     36  C   UNL A   1      44.154  22.943  33.748  1.00  0.00     0.001 A 
ATOM     37  C   UNL A   1      44.023  22.876  35.138  1.00  0.00     0.001 A 
ENDBRANCH  20  22
ENDBRANCH  17  18
ENDBRANCH   7  17
ENDBRANCH   3   6
ENDBRANCH   1   2
BRANCH   1  38
ATOM     38  C   UNL A   1      34.887  32.942  30.734  1.00  0.00     0.042 C 
BRANCH  38  39
ATOM     39  C   UNL A   1      35.185  32.687  29.255  1.00  0.00     0.118 C 
BRANCH  39  40
ATOM     40  N   UNL A   1      34.396  31.595  28.701  1.00  0.00    -0.352 N 
ATOM     41  C   UNL A   1      34.796  30.376  28.213  1.00  0.00     0.251 C 
ATOM     42  H   UNL A   1      33.425  31.757  28.673  1.00  0.00     0.163 HD
ATOM     43  O   UNL A   1      33.982  29.654  27.644  1.00  0.00    -0.269 OA
BRANCH  41  44
ATOM     44  C   UNL A   1      36.200  29.929  28.344  1.00  0.00     0.039 A 
ATOM     45  C   UNL A   1      36.664  29.326  29.514  1.00  0.00     0.014 A 
ATOM     46  C   UNL A   1      37.058  30.083  27.248  1.00  0.00     0.014 A 
ATOM     47  C   UNL A   1      38.011  28.985  29.632  1.00  0.00     0.010 A 
ATOM     48  C   UNL A   1      38.398  29.700  27.351  1.00  0.00     0.010 A 
ATOM     49  C   UNL A   1      38.893  29.181  28.556  1.00  0.00    -0.014 A 
BRANCH  49  50
ATOM     50  C   UNL A   1      40.334  28.865  28.723  1.00  0.00     0.031 A 
ATOM     51  C   UNL A   1      41.230  29.795  29.492  1.00  0.00     0.074 A 
ATOM     52  C   UNL A   1      40.823  27.709  28.237  1.00  0.00     0.049 A 
ATOM     53  N   UNL A   1      42.501  29.668  29.781  1.00  0.00    -0.248 NA
ATOM     54  C   UNL A   1      40.619  31.031  30.007  1.00  0.00     0.031 C 
ATOM     55  C   UNL A   1      40.052  26.719  27.485  1.00  0.00     0.029 A 
ATOM     56  N   UNL A   1      42.076  27.158  28.332  1.00  0.00    -0.354 N 
ATOM     57  C   UNL A   1      42.842  30.807  30.498  1.00  0.00     0.074 A 
ATOM     58  C   UNL A   1      41.653  31.627  30.584  1.00  0.00     0.031 C 
ATOM     59  C   UNL A   1      40.833  25.655  27.237  1.00  0.00     0.029 A 
ATOM     60  C   UNL A   1      42.165  25.904  27.782  1.00  0.00     0.049 A 
ATOM     61  H   UNL A   1      42.838  27.618  28.754  1.00  0.00     0.167 HD
ATOM     62  C   UNL A   1      44.037  31.132  31.048  1.00  0.00     0.037 A 
ATOM     63  C   UNL A   1      43.202  25.047  27.732  1.00  0.00     0.037 A 
ATOM     64  C   UNL A   1      45.215  30.310  30.988  1.00  0.00     0.049 A 
ATOM     65  C   UNL A   1      44.519  25.441  28.336  1.00  0.00     0.074 A 
ATOM     66  C   UNL A   1      46.471  30.562  31.513  1.00  0.00     0.029 A 
ATOM     67  N   UNL A   1      45.278  29.069  30.376  1.00  0.00    -0.354 N 
ATOM     68  N   UNL A   1      44.835  26.529  28.991  1.00  0.00    -0.248 NA
ATOM     69  C   UNL A   1      45.629  24.489  28.181  1.00  0.00     0.031 C 
ATOM     70  C   UNL A   1      47.301  29.479  31.203  1.00  0.00     0.029 A 
ATOM     71  C   UNL A   1      46.554  28.544  30.505  1.00  0.00     0.049 A 
ATOM     72  H   UNL A   1      44.529  28.625  29.918  1.00  0.00     0.167 HD
ATOM     73  C   UNL A   1      46.173  26.396  29.330  1.00  0.00     0.074 A 
ATOM     74  C   UNL A   1      46.608  25.111  28.824  1.00  0.00     0.031 C 
ATOM     75  C   UNL A   1      46.971  27.267  29.993  1.00  0.00     0.037 A 
BRANCH  62  76
ATOM     76  C   UNL A   1      44.131  32.441  31.768  1.00  0.00     0.064 A 
ATOM     77  C   UNL A   1      44.582  33.598  31.118  1.00  0.00     0.173 A 
ATOM     78  C   UNL A   1      43.714  32.552  33.102  1.00  0.00     0.173 A 
ATOM     79  F   UNL A   1      45.001  33.537  29.846  1.00  0.00    -0.203 F 
ATOM     80  C   UNL A   1      44.624  34.820  31.784  1.00  0.00     0.198 A 
ATOM     81  C   UNL A   1      43.741  33.778  33.759  1.00  0.00     0.198 A 
ATOM     82  F   UNL A   1      43.271  31.472  33.764  1.00  0.00    -0.203 F 
ATOM     83  F   UNL A   1      45.080  35.911  31.153  1.00  0.00    -0.200 F 
ATOM     84  C   UNL A   1      44.197  34.910  33.101  1.00  0.00     0.200 A 
ATOM     85  F   UNL A   1      43.322  33.866  35.030  1.00  0.00    -0.200 F 
ATOM     86  F   UNL A   1      44.230  36.089  33.738  1.00  0.00    -0.200 F 
ENDBRANCH  62  76
BRANCH  63  87
ATOM     87  C   UNL A   1      43.020  23.713  27.110  1.00  0.00     0.064 A 
ATOM     88  C   UNL A   1      43.484  23.462  25.812  1.00  0.00     0.173 A 
ATOM     89  C   UNL A   1      42.403  22.663  27.802  1.00  0.00     0.173 A 
ATOM     90  F   UNL A   1      44.061  24.445  25.106  1.00  0.00    -0.203 F 
ATOM     91  C   UNL A   1      43.334  22.208  25.227  1.00  0.00     0.198 A 
ATOM     92  C   UNL A   1      42.269  21.404  27.223  1.00  0.00     0.198 A 
ATOM     93  F   UNL A   1      41.942  22.860  29.047  1.00  0.00    -0.203 F 
ATOM     94  F   UNL A   1      43.766  21.998  23.976  1.00  0.00    -0.200 F 
ATOM     95  C   UNL A   1      42.733  21.178  25.936  1.00  0.00     0.200 A 
ATOM     96  F   UNL A   1      41.694  20.409  27.912  1.00  0.00    -0.200 F 
ATOM     97  F   UNL A   1      42.596  19.968  25.375  1.00  0.00    -0.200 F 
ENDBRANCH  63  87
BRANCH  75  98
ATOM     98  C   UNL A   1      48.396  26.864  30.206  1.00  0.00     0.064 A 
ATOM     99  C   UNL A   1      49.405  27.280  29.327  1.00  0.00     0.173 A 
ATOM    100  C   UNL A   1      48.763  26.102  31.324  1.00  0.00     0.173 A 
ATOM    101  F   UNL A   1      49.095  28.000  28.238  1.00  0.00    -0.203 F 
ATOM    102  C   UNL A   1      50.735  26.941  29.556  1.00  0.00     0.198 A 
ATOM    103  C   UNL A   1      50.097  25.777  31.558  1.00  0.00     0.198 A 
ATOM    104  F   UNL A   1      47.831  25.682  32.193  1.00  0.00    -0.203 F 
ATOM    105  F   UNL A   1      51.682  27.329  28.692  1.00  0.00    -0.200 F 
ATOM    106  C   UNL A   1      51.081  26.194  30.674  1.00  0.00     0.200 A 
ATOM    107  F   UNL A   1      50.430  25.059  32.639  1.00  0.00    -0.200 F 
ATOM    108  F   UNL A   1      52.362  25.873  30.895  1.00  0.00    -0.200 F 
ENDBRANCH  75  98
ENDBRANCH  49  50
ENDBRANCH  41  44
ENDBRANCH  39  40
ENDBRANCH  38  39
ENDBRANCH   1  38
TORSDOF 13
ENDMDL
