MODEL 1
REMARK VINA RESULT:     -12.1      0.000      0.000
REMARK SMILES O=C(CCc1cccnc1)Nc1cccc(F)c1C(=O)NCCCNC(=O)c1ccc(-c2c3nc(c(-c4c(F)c(F)c(F)c(F)c4F)c4ccc([nH]4)c(-c4c(F)c(F)c(F)c(F)c4F)c4nc(c(-c5c(F)c(F)c(F)c(F)c5F)c5ccc2[nH]5)C=C4)C=C3)cc1
REMARK SMILES IDX 22 1 21 2 19 3 20 4 18 6 12 7 13 8 14 9 16 10 15 11 17 12
REMARK SMILES IDX 11 13 1 14 2 15 3 17 4 18 5 19 6 20 10 21 7 22 9 23 8 24
REMARK SMILES IDX 23 25 24 26 25 27 26 28 27 30 28 31 29 32 90 33 30 34 89 35
REMARK SMILES IDX 31 36 32 37 33 38 83 39 34 40 88 41 82 42 84 43 35 44 87 45
REMARK SMILES IDX 81 46 80 47 36 49 68 50 48 51 67 52 49 53 52 54 66 55 85 56
REMARK SMILES IDX 50 57 51 58 65 60 86 61 53 62 37 63 38 64 46 65 39 66 40 67
REMARK SMILES IDX 44 68 47 69 41 70 42 71 45 72 43 73 69 74 70 75 78 76 71 77
REMARK SMILES IDX 72 78 76 79 79 80 73 81 74 82 77 83 75 84 54 85 55 86 63 87
REMARK SMILES IDX 56 88 57 89 61 90 64 91 58 92 59 93 62 94 60 95
REMARK H PARENT 21 5 11 16 25 29 84 48 52 59
REMARK Flexibility Score: inf
ROOT
ATOM      1  C   UNL A   1      37.370  21.082  24.469  1.00  0.00     0.118 C 
ENDROOT
BRANCH   1   2
ATOM      2  N   UNL A   1      36.435  21.504  25.494  1.00  0.00    -0.352 N 
ATOM      3  C   UNL A   1      35.095  21.342  25.707  1.00  0.00     0.256 C 
ATOM      4  O   UNL A   1      34.697  21.805  26.779  1.00  0.00    -0.269 OA
ATOM      5  H   UNL A   1      36.869  22.029  26.204  1.00  0.00     0.163 HD
BRANCH   3   6
ATOM      6  C   UNL A   1      34.110  20.631  24.842  1.00  0.00     0.099 A 
ATOM      7  C   UNL A   1      33.110  21.389  24.156  1.00  0.00     0.056 A 
ATOM      8  C   UNL A   1      32.154  20.716  23.376  1.00  0.00     0.027 A 
ATOM      9  C   UNL A   1      32.175  19.329  23.242  1.00  0.00     0.005 A 
ATOM     10  C   UNL A   1      34.144  19.250  24.626  1.00  0.00     0.138 A 
ATOM     11  C   UNL A   1      33.179  18.599  23.858  1.00  0.00     0.040 A 
ATOM     12  F   UNL A   1      35.146  18.485  25.076  1.00  0.00    -0.206 F 
BRANCH   7  13
ATOM     13  N   UNL A   1      33.141  22.817  24.180  1.00  0.00    -0.325 N 
ATOM     14  O   UNL A   1      34.351  23.329  22.277  1.00  0.00    -0.275 OA
ATOM     15  C   UNL A   1      33.832  23.664  23.342  1.00  0.00     0.224 C 
ATOM     16  H   UNL A   1      32.601  23.248  24.881  1.00  0.00     0.169 HD
BRANCH  15  17
ATOM     17  C   UNL A   1      34.044  25.089  23.848  1.00  0.00     0.105 C 
BRANCH  17  18
ATOM     18  C   UNL A   1      34.210  25.302  25.351  1.00  0.00     0.047 C 
BRANCH  18  19
ATOM     19  C   UNL A   1      33.237  26.223  26.044  1.00  0.00    -0.029 A 
ATOM     20  C   UNL A   1      33.674  27.480  26.483  1.00  0.00     0.007 A 
ATOM     21  C   UNL A   1      31.907  25.899  26.301  1.00  0.00     0.114 A 
ATOM     22  C   UNL A   1      32.775  28.366  27.069  1.00  0.00     0.020 A 
ATOM     23  N   UNL A   1      31.011  26.735  26.876  1.00  0.00    -0.264 NA
ATOM     24  C   UNL A   1      31.463  27.957  27.226  1.00  0.00     0.111 A 
ENDBRANCH  18  19
ENDBRANCH  17  18
ENDBRANCH  15  17
ENDBRANCH   7  13
ENDBRANCH   3   6
ENDBRANCH   1   2
BRANCH   1  25
ATOM     25  C   UNL A   1      38.127  19.820  24.890  1.00  0.00     0.042 C 
BRANCH  25  26
ATOM     26  C   UNL A   1      39.010  20.000  26.129  1.00  0.00     0.118 C 
BRANCH  26  27
ATOM     27  N   UNL A   1      40.226  19.203  26.065  1.00  0.00    -0.352 N 
ATOM     28  C   UNL A   1      41.546  19.570  26.057  1.00  0.00     0.251 C 
ATOM     29  H   UNL A   1      40.073  18.231  26.019  1.00  0.00     0.163 HD
ATOM     30  O   UNL A   1      42.395  18.735  25.752  1.00  0.00    -0.269 OA
BRANCH  28  31
ATOM     31  C   UNL A   1      41.978  20.942  26.411  1.00  0.00     0.039 A 
ATOM     32  C   UNL A   1      42.165  21.866  25.376  1.00  0.00     0.014 A 
ATOM     33  C   UNL A   1      42.291  21.305  27.724  1.00  0.00     0.014 A 
ATOM     34  C   UNL A   1      42.620  23.156  25.661  1.00  0.00     0.010 A 
ATOM     35  C   UNL A   1      42.686  22.612  28.015  1.00  0.00     0.010 A 
ATOM     36  C   UNL A   1      42.860  23.550  26.987  1.00  0.00    -0.014 A 
BRANCH  36  37
ATOM     37  C   UNL A   1      43.277  24.942  27.301  1.00  0.00     0.031 A 
ATOM     38  C   UNL A   1      44.683  25.405  27.035  1.00  0.00     0.074 A 
ATOM     39  C   UNL A   1      42.389  25.783  27.866  1.00  0.00     0.049 A 
ATOM     40  N   UNL A   1      45.225  26.574  27.268  1.00  0.00    -0.248 NA
ATOM     41  C   UNL A   1      45.607  24.422  26.449  1.00  0.00     0.031 C 
ATOM     42  C   UNL A   1      41.011  25.439  28.218  1.00  0.00     0.029 A 
ATOM     43  N   UNL A   1      42.509  27.098  28.244  1.00  0.00    -0.354 N 
ATOM     44  C   UNL A   1      46.551  26.464  26.871  1.00  0.00     0.074 A 
ATOM     45  C   UNL A   1      46.745  25.102  26.423  1.00  0.00     0.031 C 
ATOM     46  C   UNL A   1      40.404  26.520  28.731  1.00  0.00     0.029 A 
ATOM     47  C   UNL A   1      41.359  27.624  28.777  1.00  0.00     0.049 A 
ATOM     48  H   UNL A   1      43.342  27.613  28.142  1.00  0.00     0.167 HD
ATOM     49  C   UNL A   1      47.512  27.419  26.862  1.00  0.00     0.037 A 
ATOM     50  C   UNL A   1      41.098  28.858  29.249  1.00  0.00     0.037 A 
ATOM     51  C   UNL A   1      47.307  28.782  27.278  1.00  0.00     0.049 A 
ATOM     52  C   UNL A   1      42.177  29.904  29.211  1.00  0.00     0.074 A 
ATOM     53  C   UNL A   1      48.203  29.837  27.243  1.00  0.00     0.029 A 
ATOM     54  N   UNL A   1      46.125  29.279  27.805  1.00  0.00    -0.354 N 
ATOM     55  N   UNL A   1      43.410  29.802  28.779  1.00  0.00    -0.248 NA
ATOM     56  C   UNL A   1      41.828  31.237  29.721  1.00  0.00     0.031 C 
ATOM     57  C   UNL A   1      47.576  30.962  27.786  1.00  0.00     0.029 A 
ATOM     58  C   UNL A   1      46.275  30.623  28.116  1.00  0.00     0.049 A 
ATOM     59  H   UNL A   1      45.301  28.757  27.937  1.00  0.00     0.167 HD
ATOM     60  C   UNL A   1      43.980  31.055  28.950  1.00  0.00     0.074 A 
ATOM     61  C   UNL A   1      42.951  31.910  29.505  1.00  0.00     0.031 C 
ATOM     62  C   UNL A   1      45.244  31.459  28.675  1.00  0.00     0.037 A 
BRANCH  49  63
ATOM     63  C   UNL A   1      48.879  27.037  26.372  1.00  0.00     0.064 A 
ATOM     64  C   UNL A   1      49.203  27.139  25.010  1.00  0.00     0.173 A 
ATOM     65  C   UNL A   1      49.842  26.497  27.237  1.00  0.00     0.173 A 
ATOM     66  F   UNL A   1      48.315  27.643  24.140  1.00  0.00    -0.203 F 
ATOM     67  C   UNL A   1      50.435  26.702  24.532  1.00  0.00     0.198 A 
ATOM     68  C   UNL A   1      51.084  26.085  26.759  1.00  0.00     0.198 A 
ATOM     69  F   UNL A   1      49.586  26.385  28.549  1.00  0.00    -0.203 F 
ATOM     70  F   UNL A   1      50.711  26.780  23.223  1.00  0.00    -0.200 F 
ATOM     71  C   UNL A   1      51.377  26.179  25.407  1.00  0.00     0.200 A 
ATOM     72  F   UNL A   1      52.001  25.600  27.609  1.00  0.00    -0.200 F 
ATOM     73  F   UNL A   1      52.565  25.766  24.946  1.00  0.00    -0.200 F 
ENDBRANCH  49  63
BRANCH  50  74
ATOM     74  C   UNL A   1      39.741  29.174  29.761  1.00  0.00     0.064 A 
ATOM     75  C   UNL A   1      39.429  29.059  31.124  1.00  0.00     0.173 A 
ATOM     76  C   UNL A   1      38.717  29.565  28.888  1.00  0.00     0.173 A 
ATOM     77  F   UNL A   1      40.372  28.682  31.999  1.00  0.00    -0.203 F 
ATOM     78  C   UNL A   1      38.138  29.304  31.589  1.00  0.00     0.198 A 
ATOM     79  C   UNL A   1      37.434  29.834  29.357  1.00  0.00     0.198 A 
ATOM     80  F   UNL A   1      38.973  29.708  27.579  1.00  0.00    -0.203 F 
ATOM     81  F   UNL A   1      37.858  29.152  32.891  1.00  0.00    -0.200 F 
ATOM     82  C   UNL A   1      37.143  29.695  30.707  1.00  0.00     0.200 A 
ATOM     83  F   UNL A   1      36.480  30.234  28.505  1.00  0.00    -0.200 F 
ATOM     84  F   UNL A   1      35.904  29.940  31.156  1.00  0.00    -0.200 F 
ENDBRANCH  50  74
BRANCH  62  85
ATOM     85  C   UNL A   1      45.591  32.890  28.965  1.00  0.00     0.064 A 
ATOM     86  C   UNL A   1      46.105  33.260  30.216  1.00  0.00     0.173 A 
ATOM     87  C   UNL A   1      45.356  33.903  28.023  1.00  0.00     0.173 A 
ATOM     88  F   UNL A   1      46.338  32.329  31.154  1.00  0.00    -0.203 F 
ATOM     89  C   UNL A   1      46.361  34.594  30.519  1.00  0.00     0.198 A 
ATOM     90  C   UNL A   1      45.641  35.233  28.320  1.00  0.00     0.198 A 
ATOM     91  F   UNL A   1      44.878  33.598  26.808  1.00  0.00    -0.203 F 
ATOM     92  F   UNL A   1      46.825  34.928  31.732  1.00  0.00    -0.200 F 
ATOM     93  C   UNL A   1      46.135  35.579  29.569  1.00  0.00     0.200 A 
ATOM     94  F   UNL A   1      45.444  36.181  27.393  1.00  0.00    -0.200 F 
ATOM     95  F   UNL A   1      46.396  36.861  29.857  1.00  0.00    -0.200 F 
ENDBRANCH  62  85
ENDBRANCH  36  37
ENDBRANCH  28  31
ENDBRANCH  26  27
ENDBRANCH  25  26
ENDBRANCH   1  25
TORSDOF 14
ENDMDL
MODEL 2
REMARK VINA RESULT:     -12.1      4.775      7.771
REMARK SMILES O=C(CCc1cccnc1)Nc1cccc(F)c1C(=O)NCCCNC(=O)c1ccc(-c2c3nc(c(-c4c(F)c(F)c(F)c(F)c4F)c4ccc([nH]4)c(-c4c(F)c(F)c(F)c(F)c4F)c4nc(c(-c5c(F)c(F)c(F)c(F)c5F)c5ccc2[nH]5)C=C4)C=C3)cc1
REMARK SMILES IDX 22 1 21 2 19 3 20 4 18 6 12 7 13 8 14 9 16 10 15 11 17 12
REMARK SMILES IDX 11 13 1 14 2 15 3 17 4 18 5 19 6 20 10 21 7 22 9 23 8 24
REMARK SMILES IDX 23 25 24 26 25 27 26 28 27 30 28 31 29 32 90 33 30 34 89 35
REMARK SMILES IDX 31 36 32 37 33 38 83 39 34 40 88 41 82 42 84 43 35 44 87 45
REMARK SMILES IDX 81 46 80 47 36 49 68 50 48 51 67 52 49 53 52 54 66 55 85 56
REMARK SMILES IDX 50 57 51 58 65 60 86 61 53 62 37 63 38 64 46 65 39 66 40 67
REMARK SMILES IDX 44 68 47 69 41 70 42 71 45 72 43 73 69 74 70 75 78 76 71 77
REMARK SMILES IDX 72 78 76 79 79 80 73 81 74 82 77 83 75 84 54 85 55 86 63 87
REMARK SMILES IDX 56 88 57 89 61 90 64 91 58 92 59 93 62 94 60 95
REMARK H PARENT 21 5 11 16 25 29 84 48 52 59
REMARK Flexibility Score: inf
ROOT
ATOM      1  C   UNL A   1      32.467  26.367  26.338  1.00  0.00     0.118 C 
ENDROOT
BRANCH   1   2
ATOM      2  N   UNL A   1      31.435  25.467  26.816  1.00  0.00    -0.352 N 
ATOM      3  C   UNL A   1      31.056  24.187  26.523  1.00  0.00     0.256 C 
ATOM      4  O   UNL A   1      30.152  23.754  27.240  1.00  0.00    -0.269 OA
ATOM      5  H   UNL A   1      30.877  25.874  27.517  1.00  0.00     0.163 HD
BRANCH   3   6
ATOM      6  C   UNL A   1      31.645  23.268  25.507  1.00  0.00     0.099 A 
ATOM      7  C   UNL A   1      31.241  23.389  24.140  1.00  0.00     0.056 A 
ATOM      8  C   UNL A   1      31.761  22.495  23.188  1.00  0.00     0.027 A 
ATOM      9  C   UNL A   1      32.678  21.509  23.548  1.00  0.00     0.005 A 
ATOM     10  C   UNL A   1      32.620  22.315  25.816  1.00  0.00     0.138 A 
ATOM     11  C   UNL A   1      33.116  21.429  24.860  1.00  0.00     0.040 A 
ATOM     12  F   UNL A   1      33.191  22.249  27.024  1.00  0.00    -0.206 F 
BRANCH   7  13
ATOM     13  N   UNL A   1      30.398  24.466  23.727  1.00  0.00    -0.325 N 
ATOM     14  O   UNL A   1      31.894  25.935  22.752  1.00  0.00    -0.275 OA
ATOM     15  C   UNL A   1      30.772  25.678  23.190  1.00  0.00     0.224 C 
ATOM     16  H   UNL A   1      29.430  24.324  23.840  1.00  0.00     0.169 HD
BRANCH  15  17
ATOM     17  C   UNL A   1      29.733  26.794  23.250  1.00  0.00     0.105 C 
BRANCH  17  18
ATOM     18  C   UNL A   1      30.096  28.149  22.645  1.00  0.00     0.047 C 
BRANCH  18  19
ATOM     19  C   UNL A   1      29.211  29.326  22.971  1.00  0.00    -0.029 A 
ATOM     20  C   UNL A   1      29.748  30.418  23.664  1.00  0.00     0.007 A 
ATOM     21  C   UNL A   1      27.860  29.401  22.638  1.00  0.00     0.114 A 
ATOM     22  C   UNL A   1      28.962  31.539  23.919  1.00  0.00     0.020 A 
ATOM     23  N   UNL A   1      27.069  30.472  22.879  1.00  0.00    -0.264 NA
ATOM     24  C   UNL A   1      27.646  31.524  23.494  1.00  0.00     0.111 A 
ENDBRANCH  18  19
ENDBRANCH  17  18
ENDBRANCH  15  17
ENDBRANCH   7  13
ENDBRANCH   3   6
ENDBRANCH   1   2
BRANCH   1  25
ATOM     25  C   UNL A   1      31.933  27.793  26.179  1.00  0.00     0.042 C 
BRANCH  25  26
ATOM     26  C   UNL A   1      32.953  28.787  25.614  1.00  0.00     0.118 C 
BRANCH  26  27
ATOM     27  N   UNL A   1      32.587  30.170  25.881  1.00  0.00    -0.352 N 
ATOM     28  C   UNL A   1      33.055  31.063  26.809  1.00  0.00     0.251 C 
ATOM     29  H   UNL A   1      31.881  30.524  25.295  1.00  0.00     0.163 HD
ATOM     30  O   UNL A   1      32.426  32.100  27.008  1.00  0.00    -0.269 OA
BRANCH  28  31
ATOM     31  C   UNL A   1      34.300  30.817  27.573  1.00  0.00     0.039 A 
ATOM     32  C   UNL A   1      34.455  29.578  28.206  1.00  0.00     0.014 A 
ATOM     33  C   UNL A   1      35.266  31.810  27.756  1.00  0.00     0.014 A 
ATOM     34  C   UNL A   1      35.591  29.322  28.979  1.00  0.00     0.010 A 
ATOM     35  C   UNL A   1      36.430  31.533  28.476  1.00  0.00     0.010 A 
ATOM     36  C   UNL A   1      36.602  30.289  29.100  1.00  0.00    -0.014 A 
BRANCH  36  37
ATOM     37  C   UNL A   1      37.844  29.996  29.863  1.00  0.00     0.031 A 
ATOM     38  C   UNL A   1      38.906  29.097  29.292  1.00  0.00     0.074 A 
ATOM     39  C   UNL A   1      37.997  30.515  31.097  1.00  0.00     0.049 A 
ATOM     40  N   UNL A   1      40.039  28.714  29.826  1.00  0.00    -0.248 NA
ATOM     41  C   UNL A   1      38.656  28.538  27.954  1.00  0.00     0.031 C 
ATOM     42  C   UNL A   1      37.017  31.361  31.780  1.00  0.00     0.029 A 
ATOM     43  N   UNL A   1      39.029  30.409  31.996  1.00  0.00    -0.354 N 
ATOM     44  C   UNL A   1      40.628  27.864  28.900  1.00  0.00     0.074 A 
ATOM     45  C   UNL A   1      39.709  27.750  27.788  1.00  0.00     0.031 C 
ATOM     46  C   UNL A   1      37.506  31.722  32.976  1.00  0.00     0.029 A 
ATOM     47  C   UNL A   1      38.818  31.107  33.160  1.00  0.00     0.049 A 
ATOM     48  H   UNL A   1      39.842  29.883  31.823  1.00  0.00     0.167 HD
ATOM     49  C   UNL A   1      41.834  27.251  28.964  1.00  0.00     0.037 A 
ATOM     50  C   UNL A   1      39.593  31.240  34.254  1.00  0.00     0.037 A 
ATOM     51  C   UNL A   1      42.761  27.392  30.058  1.00  0.00     0.049 A 
ATOM     52  C   UNL A   1      40.935  30.564  34.291  1.00  0.00     0.074 A 
ATOM     53  C   UNL A   1      44.034  26.863  30.181  1.00  0.00     0.029 A 
ATOM     54  N   UNL A   1      42.514  28.114  31.215  1.00  0.00    -0.354 N 
ATOM     55  N   UNL A   1      41.505  29.810  33.383  1.00  0.00    -0.248 NA
ATOM     56  C   UNL A   1      41.744  30.761  35.501  1.00  0.00     0.031 C 
ATOM     57  C   UNL A   1      44.542  27.231  31.431  1.00  0.00     0.029 A 
ATOM     58  C   UNL A   1      43.605  28.028  32.067  1.00  0.00     0.049 A 
ATOM     59  H   UNL A   1      41.688  28.615  31.404  1.00  0.00     0.167 HD
ATOM     60  C   UNL A   1      42.741  29.454  33.903  1.00  0.00     0.074 A 
ATOM     61  C   UNL A   1      42.849  30.094  35.197  1.00  0.00     0.031 C 
ATOM     62  C   UNL A   1      43.697  28.665  33.356  1.00  0.00     0.037 A 
BRANCH  49  63
ATOM     63  C   UNL A   1      42.243  26.378  27.813  1.00  0.00     0.064 A 
ATOM     64  C   UNL A   1      41.845  25.033  27.761  1.00  0.00     0.173 A 
ATOM     65  C   UNL A   1      43.091  26.851  26.801  1.00  0.00     0.173 A 
ATOM     66  F   UNL A   1      41.040  24.529  28.708  1.00  0.00    -0.203 F 
ATOM     67  C   UNL A   1      42.294  24.192  26.746  1.00  0.00     0.198 A 
ATOM     68  C   UNL A   1      43.516  26.014  25.772  1.00  0.00     0.198 A 
ATOM     69  F   UNL A   1      43.492  28.131  26.799  1.00  0.00    -0.203 F 
ATOM     70  F   UNL A   1      41.927  22.903  26.734  1.00  0.00    -0.200 F 
ATOM     71  C   UNL A   1      43.126  24.683  25.750  1.00  0.00     0.200 A 
ATOM     72  F   UNL A   1      44.302  26.495  24.799  1.00  0.00    -0.200 F 
ATOM     73  F   UNL A   1      43.550  23.874  24.770  1.00  0.00    -0.200 F 
ENDBRANCH  49  63
BRANCH  50  74
ATOM     74  C   UNL A   1      39.125  32.081  35.384  1.00  0.00     0.064 A 
ATOM     75  C   UNL A   1      39.439  33.447  35.457  1.00  0.00     0.173 A 
ATOM     76  C   UNL A   1      38.381  31.526  36.433  1.00  0.00     0.173 A 
ATOM     77  F   UNL A   1      40.154  34.024  34.480  1.00  0.00    -0.203 F 
ATOM     78  C   UNL A   1      39.043  34.218  36.547  1.00  0.00     0.198 A 
ATOM     79  C   UNL A   1      37.964  32.303  37.510  1.00  0.00     0.198 A 
ATOM     80  F   UNL A   1      38.040  30.229  36.397  1.00  0.00    -0.203 F 
ATOM     81  F   UNL A   1      39.387  35.512  36.610  1.00  0.00    -0.200 F 
ATOM     82  C   UNL A   1      38.303  33.648  37.572  1.00  0.00     0.200 A 
ATOM     83  F   UNL A   1      37.229  31.754  38.487  1.00  0.00    -0.200 F 
ATOM     84  F   UNL A   1      37.914  34.392  38.615  1.00  0.00    -0.200 F 
ENDBRANCH  50  74
BRANCH  62  85
ATOM     85  C   UNL A   1      44.951  28.448  34.151  1.00  0.00     0.064 A 
ATOM     86  C   UNL A   1      45.042  27.387  35.064  1.00  0.00     0.173 A 
ATOM     87  C   UNL A   1      46.040  29.326  34.052  1.00  0.00     0.173 A 
ATOM     88  F   UNL A   1      44.023  26.524  35.202  1.00  0.00    -0.203 F 
ATOM     89  C   UNL A   1      46.173  27.220  35.858  1.00  0.00     0.198 A 
ATOM     90  C   UNL A   1      47.181  29.140  34.827  1.00  0.00     0.198 A 
ATOM     91  F   UNL A   1      46.006  30.348  33.183  1.00  0.00    -0.203 F 
ATOM     92  F   UNL A   1      46.226  26.217  36.745  1.00  0.00    -0.200 F 
ATOM     93  C   UNL A   1      47.244  28.093  35.735  1.00  0.00     0.200 A 
ATOM     94  F   UNL A   1      48.224  29.969  34.690  1.00  0.00    -0.200 F 
ATOM     95  F   UNL A   1      48.338  27.923  36.490  1.00  0.00    -0.200 F 
ENDBRANCH  62  85
ENDBRANCH  36  37
ENDBRANCH  28  31
ENDBRANCH  26  27
ENDBRANCH  25  26
ENDBRANCH   1  25
TORSDOF 14
ENDMDL
MODEL 3
REMARK VINA RESULT:     -12.1      4.691     10.224
REMARK SMILES O=C(CCc1cccnc1)Nc1cccc(F)c1C(=O)NCCCNC(=O)c1ccc(-c2c3nc(c(-c4c(F)c(F)c(F)c(F)c4F)c4ccc([nH]4)c(-c4c(F)c(F)c(F)c(F)c4F)c4nc(c(-c5c(F)c(F)c(F)c(F)c5F)c5ccc2[nH]5)C=C4)C=C3)cc1
REMARK SMILES IDX 22 1 21 2 19 3 20 4 18 6 12 7 13 8 14 9 16 10 15 11 17 12
REMARK SMILES IDX 11 13 1 14 2 15 3 17 4 18 5 19 6 20 10 21 7 22 9 23 8 24
REMARK SMILES IDX 23 25 24 26 25 27 26 28 27 30 28 31 29 32 90 33 30 34 89 35
REMARK SMILES IDX 31 36 32 37 33 38 83 39 34 40 88 41 82 42 84 43 35 44 87 45
REMARK SMILES IDX 81 46 80 47 36 49 68 50 48 51 67 52 49 53 52 54 66 55 85 56
REMARK SMILES IDX 50 57 51 58 65 60 86 61 53 62 37 63 38 64 46 65 39 66 40 67
REMARK SMILES IDX 44 68 47 69 41 70 42 71 45 72 43 73 69 74 70 75 78 76 71 77
REMARK SMILES IDX 72 78 76 79 79 80 73 81 74 82 77 83 75 84 54 85 55 86 63 87
REMARK SMILES IDX 56 88 57 89 61 90 64 91 58 92 59 93 62 94 60 95
REMARK H PARENT 21 5 11 16 25 29 84 48 52 59
REMARK Flexibility Score: inf
ROOT
ATOM      1  C   UNL A   1      32.316  27.490  27.037  1.00  0.00     0.118 C 
ENDROOT
BRANCH   1   2
ATOM      2  N   UNL A   1      31.250  26.515  26.920  1.00  0.00    -0.352 N 
ATOM      3  C   UNL A   1      30.687  25.815  25.888  1.00  0.00     0.256 C 
ATOM      4  O   UNL A   1      29.832  25.000  26.241  1.00  0.00    -0.269 OA
ATOM      5  H   UNL A   1      30.834  26.306  27.787  1.00  0.00     0.163 HD
BRANCH   3   6
ATOM      6  C   UNL A   1      31.033  25.885  24.440  1.00  0.00     0.099 A 
ATOM      7  C   UNL A   1      31.661  24.761  23.818  1.00  0.00     0.056 A 
ATOM      8  C   UNL A   1      32.028  24.841  22.463  1.00  0.00     0.027 A 
ATOM      9  C   UNL A   1      31.773  25.986  21.711  1.00  0.00     0.005 A 
ATOM     10  C   UNL A   1      30.727  26.988  23.636  1.00  0.00     0.138 A 
ATOM     11  C   UNL A   1      31.111  27.054  22.297  1.00  0.00     0.040 A 
ATOM     12  F   UNL A   1      29.984  28.006  24.081  1.00  0.00    -0.206 F 
BRANCH   7  13
ATOM     13  N   UNL A   1      31.823  23.535  24.533  1.00  0.00    -0.325 N 
ATOM     14  O   UNL A   1      34.029  23.633  25.217  1.00  0.00    -0.275 OA
ATOM     15  C   UNL A   1      32.980  23.008  25.064  1.00  0.00     0.224 C 
ATOM     16  H   UNL A   1      31.006  23.000  24.662  1.00  0.00     0.169 HD
BRANCH  15  17
ATOM     17  C   UNL A   1      32.961  21.514  25.377  1.00  0.00     0.105 C 
BRANCH  17  18
ATOM     18  C   UNL A   1      32.194  20.590  24.433  1.00  0.00     0.047 C 
BRANCH  18  19
ATOM     19  C   UNL A   1      32.867  19.314  23.995  1.00  0.00    -0.029 A 
ATOM     20  C   UNL A   1      34.060  18.919  24.615  1.00  0.00     0.007 A 
ATOM     21  C   UNL A   1      32.386  18.487  22.981  1.00  0.00     0.114 A 
ATOM     22  C   UNL A   1      34.662  17.713  24.265  1.00  0.00     0.020 A 
ATOM     23  N   UNL A   1      32.953  17.315  22.614  1.00  0.00    -0.264 NA
ATOM     24  C   UNL A   1      34.066  16.946  23.281  1.00  0.00     0.111 A 
ENDBRANCH  18  19
ENDBRANCH  17  18
ENDBRANCH  15  17
ENDBRANCH   7  13
ENDBRANCH   3   6
ENDBRANCH   1   2
BRANCH   1  25
ATOM     25  C   UNL A   1      31.846  28.883  26.608  1.00  0.00     0.042 C 
BRANCH  25  26
ATOM     26  C   UNL A   1      32.934  29.741  25.955  1.00  0.00     0.118 C 
BRANCH  26  27
ATOM     27  N   UNL A   1      32.812  31.149  26.299  1.00  0.00    -0.352 N 
ATOM     28  C   UNL A   1      33.442  31.902  27.256  1.00  0.00     0.251 C 
ATOM     29  H   UNL A   1      32.165  31.648  25.750  1.00  0.00     0.163 HD
ATOM     30  O   UNL A   1      33.001  33.017  27.523  1.00  0.00    -0.269 OA
BRANCH  28  31
ATOM     31  C   UNL A   1      34.642  31.411  27.972  1.00  0.00     0.039 A 
ATOM     32  C   UNL A   1      35.744  32.266  28.085  1.00  0.00     0.014 A 
ATOM     33  C   UNL A   1      34.736  30.099  28.448  1.00  0.00     0.014 A 
ATOM     34  C   UNL A   1      36.914  31.826  28.709  1.00  0.00     0.010 A 
ATOM     35  C   UNL A   1      35.882  29.680  29.126  1.00  0.00     0.010 A 
ATOM     36  C   UNL A   1      36.985  30.535  29.258  1.00  0.00    -0.014 A 
BRANCH  36  37
ATOM     37  C   UNL A   1      38.202  30.087  29.984  1.00  0.00     0.031 A 
ATOM     38  C   UNL A   1      38.504  30.588  31.369  1.00  0.00     0.074 A 
ATOM     39  C   UNL A   1      39.062  29.248  29.372  1.00  0.00     0.049 A 
ATOM     40  N   UNL A   1      39.529  30.322  32.140  1.00  0.00    -0.248 NA
ATOM     41  C   UNL A   1      37.538  31.527  31.961  1.00  0.00     0.031 C 
ATOM     42  C   UNL A   1      38.907  28.730  28.012  1.00  0.00     0.029 A 
ATOM     43  N   UNL A   1      40.235  28.685  29.811  1.00  0.00    -0.354 N 
ATOM     44  C   UNL A   1      39.339  31.067  33.296  1.00  0.00     0.074 A 
ATOM     45  C   UNL A   1      38.124  31.831  33.111  1.00  0.00     0.031 C 
ATOM     46  C   UNL A   1      39.927  27.903  27.738  1.00  0.00     0.029 A 
ATOM     47  C   UNL A   1      40.826  27.858  28.888  1.00  0.00     0.049 A 
ATOM     48  H   UNL A   1      40.616  28.859  30.702  1.00  0.00     0.167 HD
ATOM     49  C   UNL A   1      40.099  31.094  34.417  1.00  0.00     0.037 A 
ATOM     50  C   UNL A   1      41.965  27.141  28.958  1.00  0.00     0.037 A 
ATOM     51  C   UNL A   1      41.290  30.307  34.612  1.00  0.00     0.049 A 
ATOM     52  C   UNL A   1      42.779  27.175  30.220  1.00  0.00     0.074 A 
ATOM     53  C   UNL A   1      42.089  30.218  35.739  1.00  0.00     0.029 A 
ATOM     54  N   UNL A   1      41.852  29.474  33.656  1.00  0.00    -0.354 N 
ATOM     55  N   UNL A   1      42.558  27.839  31.328  1.00  0.00    -0.248 NA
ATOM     56  C   UNL A   1      44.000  26.357  30.246  1.00  0.00     0.031 C 
ATOM     57  C   UNL A   1      43.158  29.364  35.451  1.00  0.00     0.029 A 
ATOM     58  C   UNL A   1      43.000  28.883  34.163  1.00  0.00     0.049 A 
ATOM     59  H   UNL A   1      41.491  29.325  32.753  1.00  0.00     0.167 HD
ATOM     60  C   UNL A   1      43.598  27.510  32.185  1.00  0.00     0.074 A 
ATOM     61  C   UNL A   1      44.440  26.569  31.478  1.00  0.00     0.031 C 
ATOM     62  C   UNL A   1      43.833  27.953  33.444  1.00  0.00     0.037 A 
BRANCH  49  63
ATOM     63  C   UNL A   1      39.665  31.991  35.541  1.00  0.00     0.064 A 
ATOM     64  C   UNL A   1      38.717  31.552  36.478  1.00  0.00     0.173 A 
ATOM     65  C   UNL A   1      40.128  33.310  35.644  1.00  0.00     0.173 A 
ATOM     66  F   UNL A   1      38.236  30.301  36.419  1.00  0.00    -0.203 F 
ATOM     67  C   UNL A   1      38.240  32.407  37.468  1.00  0.00     0.198 A 
ATOM     68  C   UNL A   1      39.669  34.154  36.652  1.00  0.00     0.198 A 
ATOM     69  F   UNL A   1      41.041  33.775  34.779  1.00  0.00    -0.203 F 
ATOM     70  F   UNL A   1      37.310  31.977  38.333  1.00  0.00    -0.200 F 
ATOM     71  C   UNL A   1      38.718  33.706  37.557  1.00  0.00     0.200 A 
ATOM     72  F   UNL A   1      40.148  35.402  36.751  1.00  0.00    -0.200 F 
ATOM     73  F   UNL A   1      38.263  34.525  38.515  1.00  0.00    -0.200 F 
ENDBRANCH  49  63
BRANCH  50  74
ATOM     74  C   UNL A   1      42.371  26.301  27.803  1.00  0.00     0.064 A 
ATOM     75  C   UNL A   1      43.284  26.767  26.846  1.00  0.00     0.173 A 
ATOM     76  C   UNL A   1      41.826  25.023  27.618  1.00  0.00     0.173 A 
ATOM     77  F   UNL A   1      43.829  27.986  26.975  1.00  0.00    -0.203 F 
ATOM     78  C   UNL A   1      43.619  25.995  25.736  1.00  0.00     0.198 A 
ATOM     79  C   UNL A   1      42.182  24.241  26.521  1.00  0.00     0.198 A 
ATOM     80  F   UNL A   1      40.965  24.526  28.518  1.00  0.00    -0.203 F 
ATOM     81  F   UNL A   1      44.467  26.479  24.817  1.00  0.00    -0.200 F 
ATOM     82  C   UNL A   1      43.072  24.731  25.576  1.00  0.00     0.200 A 
ATOM     83  F   UNL A   1      41.668  23.011  26.382  1.00  0.00    -0.200 F 
ATOM     84  F   UNL A   1      43.402  23.984  24.514  1.00  0.00    -0.200 F 
ENDBRANCH  50  74
BRANCH  62  85
ATOM     85  C   UNL A   1      45.049  27.424  34.146  1.00  0.00     0.064 A 
ATOM     86  C   UNL A   1      44.971  26.267  34.935  1.00  0.00     0.173 A 
ATOM     87  C   UNL A   1      46.278  28.098  34.085  1.00  0.00     0.173 A 
ATOM     88  F   UNL A   1      43.816  25.591  35.033  1.00  0.00    -0.203 F 
ATOM     89  C   UNL A   1      46.077  25.810  35.648  1.00  0.00     0.198 A 
ATOM     90  C   UNL A   1      47.389  27.622  34.777  1.00  0.00     0.198 A 
ATOM     91  F   UNL A   1      46.407  29.202  33.334  1.00  0.00    -0.203 F 
ATOM     92  F   UNL A   1      45.971  24.719  36.419  1.00  0.00    -0.200 F 
ATOM     93  C   UNL A   1      47.286  26.484  35.564  1.00  0.00     0.200 A 
ATOM     94  F   UNL A   1      48.563  28.261  34.675  1.00  0.00    -0.200 F 
ATOM     95  F   UNL A   1      48.353  26.036  36.239  1.00  0.00    -0.200 F 
ENDBRANCH  62  85
ENDBRANCH  36  37
ENDBRANCH  28  31
ENDBRANCH  26  27
ENDBRANCH  25  26
ENDBRANCH   1  25
TORSDOF 14
ENDMDL
