MODEL 1
REMARK VINA RESULT:     -12.7      0.000      0.000
REMARK SMILES CC(C)[C@@H](C)[N@@H+]1[C@@H](C(=O)NCCCNC(=O)c2ccc(-c3c4nc(c(-c5c(F)c(F)c(F)c(F)c5F)c5ccc([nH]5)c(-c5c(F)c(F)c(F)c(F)c5F)c5nc(c(-c6c(F)c(F)c(F)c(F)c6F)c6ccc3[nH]6)C=C5)C=C4)cc2)C[C@H]2CCCC[C@H]21
REMARK SMILES IDX 12 1 11 2 10 3 8 4 9 5 7 7 6 8 86 9 80 11 81 12 85 13 82 14
REMARK SMILES IDX 84 15 83 16 4 17 5 18 2 19 1 20 3 21 13 22 14 23 15 24 16 26
REMARK SMILES IDX 17 27 18 28 79 29 19 30 78 31 20 32 21 33 22 34 72 35 23 36
REMARK SMILES IDX 77 37 71 38 73 39 24 40 76 41 70 42 69 43 25 45 57 46 37 47
REMARK SMILES IDX 56 48 38 49 41 50 55 51 74 52 39 53 40 54 54 56 75 57 42 58
REMARK SMILES IDX 26 59 27 60 35 61 28 62 29 63 33 64 36 65 30 66 31 67 34 68
REMARK SMILES IDX 32 69 58 70 59 71 67 72 60 73 61 74 65 75 68 76 62 77 63 78
REMARK SMILES IDX 66 79 64 80 43 81 44 82 52 83 45 84 46 85 50 86 53 87 47 88
REMARK SMILES IDX 48 89 51 90 49 91
REMARK H PARENT 10 6 6 10 14 25 73 44 41 55
REMARK Flexibility Score: inf
ROOT
ATOM      1  C   UNL A   1      31.766  31.705  26.749  1.00  0.00     0.042 C 
ENDROOT
BRANCH   1   2
ATOM      2  C   UNL A   1      32.220  30.386  26.144  1.00  0.00     0.118 C 
BRANCH   2   3
ATOM      3  N   UNL A   1      31.601  29.246  26.792  1.00  0.00    -0.351 N 
ATOM      4  C   UNL A   1      31.738  27.912  26.513  1.00  0.00     0.278 C 
ATOM      5  O   UNL A   1      31.076  27.132  27.199  1.00  0.00    -0.268 OA
ATOM      6  H   UNL A   1      30.997  29.462  27.539  1.00  0.00     0.163 HD
BRANCH   4   7
ATOM      7  C   UNL A   1      32.702  27.492  25.381  1.00  0.00     0.275 C 
ATOM      8  N   UNL A   1      32.042  26.575  24.417  1.00  0.00    -0.320 N 
ATOM      9  C   UNL A   1      32.695  25.270  24.468  1.00  0.00     0.188 C 
ATOM     10  H   UNL A   1      31.090  26.346  24.698  1.00  0.00     0.349 HD
ATOM     11  C   UNL A   1      33.884  26.700  25.954  1.00  0.00     0.085 C 
ATOM     12  C   UNL A   1      34.115  25.614  24.919  1.00  0.00     0.054 C 
ATOM     13  C   UNL A   1      31.977  24.361  25.488  1.00  0.00     0.065 C 
ATOM     14  C   UNL A   1      34.936  24.425  25.398  1.00  0.00     0.010 C 
ATOM     15  C   UNL A   1      32.818  23.138  25.849  1.00  0.00     0.006 C 
ATOM     16  C   UNL A   1      34.192  23.534  26.383  1.00  0.00     0.001 C 
BRANCH   8  17
ATOM     17  C   UNL A   1      31.600  27.189  23.156  1.00  0.00     0.184 C 
ATOM     18  C   UNL A   1      32.553  28.375  22.913  1.00  0.00     0.075 C 
BRANCH  17  19
ATOM     19  C   UNL A   1      30.105  27.636  22.990  1.00  0.00     0.041 C 
ATOM     20  C   UNL A   1      29.155  26.764  23.833  1.00  0.00     0.013 C 
ATOM     21  C   UNL A   1      29.853  29.095  23.391  1.00  0.00     0.013 C 
ENDBRANCH  17  19
ENDBRANCH   8  17
ENDBRANCH   4   7
ENDBRANCH   2   3
ENDBRANCH   1   2
BRANCH   1  22
ATOM     22  C   UNL A   1      32.897  32.519  27.363  1.00  0.00     0.118 C 
BRANCH  22  23
ATOM     23  N   UNL A   1      32.522  33.902  27.625  1.00  0.00    -0.352 N 
ATOM     24  C   UNL A   1      33.019  34.802  28.539  1.00  0.00     0.251 C 
ATOM     25  H   UNL A   1      31.795  34.249  27.057  1.00  0.00     0.163 HD
ATOM     26  O   UNL A   1      32.449  35.868  28.726  1.00  0.00    -0.269 OA
BRANCH  24  27
ATOM     27  C   UNL A   1      34.224  34.464  29.328  1.00  0.00     0.039 A 
ATOM     28  C   UNL A   1      34.065  33.967  30.624  1.00  0.00     0.014 A 
ATOM     29  C   UNL A   1      35.502  34.614  28.786  1.00  0.00     0.014 A 
ATOM     30  C   UNL A   1      35.181  33.513  31.333  1.00  0.00     0.010 A 
ATOM     31  C   UNL A   1      36.600  34.084  29.455  1.00  0.00     0.010 A 
ATOM     32  C   UNL A   1      36.447  33.510  30.726  1.00  0.00    -0.014 A 
BRANCH  32  33
ATOM     33  C   UNL A   1      37.619  32.866  31.371  1.00  0.00     0.031 A 
ATOM     34  C   UNL A   1      38.285  31.686  30.726  1.00  0.00     0.074 A 
ATOM     35  C   UNL A   1      38.010  33.279  32.593  1.00  0.00     0.049 A 
ATOM     36  N   UNL A   1      39.218  30.899  31.201  1.00  0.00    -0.248 NA
ATOM     37  C   UNL A   1      37.821  31.323  29.378  1.00  0.00     0.031 C 
ATOM     38  C   UNL A   1      37.413  34.386  33.344  1.00  0.00     0.029 A 
ATOM     39  N   UNL A   1      38.986  32.801  33.432  1.00  0.00    -0.354 N 
ATOM     40  C   UNL A   1      39.440  29.944  30.220  1.00  0.00     0.074 A 
ATOM     41  C   UNL A   1      38.513  30.217  29.142  1.00  0.00     0.031 C 
ATOM     42  C   UNL A   1      38.037  34.504  34.526  1.00  0.00     0.029 A 
ATOM     43  C   UNL A   1      39.043  33.454  34.639  1.00  0.00     0.049 A 
ATOM     44  H   UNL A   1      39.587  32.059  33.192  1.00  0.00     0.167 HD
ATOM     45  C   UNL A   1      40.350  28.940  30.212  1.00  0.00     0.037 A 
ATOM     46  C   UNL A   1      39.801  33.217  35.727  1.00  0.00     0.037 A 
ATOM     47  C   UNL A   1      41.284  28.685  31.277  1.00  0.00     0.049 A 
ATOM     48  C   UNL A   1      40.781  32.076  35.705  1.00  0.00     0.074 A 
ATOM     49  C   UNL A   1      42.293  27.740  31.330  1.00  0.00     0.029 A 
ATOM     50  N   UNL A   1      41.316  29.374  32.480  1.00  0.00    -0.354 N 
ATOM     51  N   UNL A   1      41.031  31.222  34.744  1.00  0.00    -0.248 NA
ATOM     52  C   UNL A   1      41.580  31.864  36.920  1.00  0.00     0.031 C 
ATOM     53  C   UNL A   1      42.906  27.826  32.585  1.00  0.00     0.029 A 
ATOM     54  C   UNL A   1      42.308  28.853  33.297  1.00  0.00     0.049 A 
ATOM     55  H   UNL A   1      40.723  30.122  32.720  1.00  0.00     0.167 HD
ATOM     56  C   UNL A   1      42.022  30.380  35.229  1.00  0.00     0.074 A 
ATOM     57  C   UNL A   1      42.343  30.840  36.565  1.00  0.00     0.031 C 
ATOM     58  C   UNL A   1      42.609  29.318  34.626  1.00  0.00     0.037 A 
BRANCH  45  59
ATOM     59  C   UNL A   1      40.386  28.045  29.009  1.00  0.00     0.064 A 
ATOM     60  C   UNL A   1      39.641  26.857  28.956  1.00  0.00     0.173 A 
ATOM     61  C   UNL A   1      41.138  28.398  27.879  1.00  0.00     0.173 A 
ATOM     62  F   UNL A   1      38.913  26.469  30.014  1.00  0.00    -0.203 F 
ATOM     63  C   UNL A   1      39.669  26.044  27.825  1.00  0.00     0.198 A 
ATOM     64  C   UNL A   1      41.141  27.597  26.740  1.00  0.00     0.198 A 
ATOM     65  F   UNL A   1      41.865  29.526  27.875  1.00  0.00    -0.203 F 
ATOM     66  F   UNL A   1      38.983  24.893  27.815  1.00  0.00    -0.200 F 
ATOM     67  C   UNL A   1      40.412  26.418  26.717  1.00  0.00     0.200 A 
ATOM     68  F   UNL A   1      41.849  27.966  25.664  1.00  0.00    -0.200 F 
ATOM     69  F   UNL A   1      40.430  25.639  25.626  1.00  0.00    -0.200 F 
ENDBRANCH  45  59
BRANCH  46  70
ATOM     70  C   UNL A   1      39.654  34.072  36.934  1.00  0.00     0.064 A 
ATOM     71  C   UNL A   1      38.842  33.672  38.004  1.00  0.00     0.173 A 
ATOM     72  C   UNL A   1      40.322  35.300  37.044  1.00  0.00     0.173 A 
ATOM     73  F   UNL A   1      38.166  32.516  37.935  1.00  0.00    -0.203 F 
ATOM     74  C   UNL A   1      38.690  34.476  39.132  1.00  0.00     0.198 A 
ATOM     75  C   UNL A   1      40.192  36.090  38.184  1.00  0.00     0.198 A 
ATOM     76  F   UNL A   1      41.115  35.726  36.050  1.00  0.00    -0.203 F 
ATOM     77  F   UNL A   1      37.875  34.090  40.122  1.00  0.00    -0.200 F 
ATOM     78  C   UNL A   1      39.371  35.681  39.223  1.00  0.00     0.200 A 
ATOM     79  F   UNL A   1      40.863  37.247  38.276  1.00  0.00    -0.200 F 
ATOM     80  F   UNL A   1      39.230  36.451  40.311  1.00  0.00    -0.200 F 
ENDBRANCH  46  70
BRANCH  58  81
ATOM     81  C   UNL A   1      43.664  28.584  35.399  1.00  0.00     0.064 A 
ATOM     82  C   UNL A   1      43.330  27.552  36.288  1.00  0.00     0.173 A 
ATOM     83  C   UNL A   1      45.023  28.878  35.211  1.00  0.00     0.173 A 
ATOM     84  F   UNL A   1      42.044  27.247  36.516  1.00  0.00    -0.203 F 
ATOM     85  C   UNL A   1      44.319  26.849  36.971  1.00  0.00     0.198 A 
ATOM     86  C   UNL A   1      46.009  28.155  35.874  1.00  0.00     0.198 A 
ATOM     87  F   UNL A   1      45.393  29.853  34.367  1.00  0.00    -0.203 F 
ATOM     88  F   UNL A   1      43.977  25.892  37.843  1.00  0.00    -0.200 F 
ATOM     89  C   UNL A   1      45.657  27.145  36.756  1.00  0.00     0.200 A 
ATOM     90  F   UNL A   1      47.303  28.434  35.657  1.00  0.00    -0.200 F 
ATOM     91  F   UNL A   1      46.608  26.460  37.406  1.00  0.00    -0.200 F 
ENDBRANCH  58  81
ENDBRANCH  32  33
ENDBRANCH  24  27
ENDBRANCH  22  23
ENDBRANCH   1  22
TORSDOF 12
ENDMDL
MODEL 2
REMARK VINA RESULT:     -12.7      0.124      1.625
REMARK SMILES CC(C)[C@@H](C)[N@@H+]1[C@@H](C(=O)NCCCNC(=O)c2ccc(-c3c4nc(c(-c5c(F)c(F)c(F)c(F)c5F)c5ccc([nH]5)c(-c5c(F)c(F)c(F)c(F)c5F)c5nc(c(-c6c(F)c(F)c(F)c(F)c6F)c6ccc3[nH]6)C=C5)C=C4)cc2)C[C@H]2CCCC[C@H]21
REMARK SMILES IDX 12 1 11 2 10 3 8 4 9 5 7 7 6 8 86 9 80 11 81 12 85 13 82 14
REMARK SMILES IDX 84 15 83 16 4 17 5 18 2 19 1 20 3 21 13 22 14 23 15 24 16 26
REMARK SMILES IDX 17 27 18 28 79 29 19 30 78 31 20 32 21 33 22 34 72 35 23 36
REMARK SMILES IDX 77 37 71 38 73 39 24 40 76 41 70 42 69 43 25 45 57 46 37 47
REMARK SMILES IDX 56 48 38 49 41 50 55 51 74 52 39 53 40 54 54 56 75 57 42 58
REMARK SMILES IDX 26 59 27 60 35 61 28 62 29 63 33 64 36 65 30 66 31 67 34 68
REMARK SMILES IDX 32 69 58 70 59 71 67 72 60 73 61 74 65 75 68 76 62 77 63 78
REMARK SMILES IDX 66 79 64 80 43 81 44 82 52 83 45 84 46 85 50 86 53 87 47 88
REMARK SMILES IDX 48 89 51 90 49 91
REMARK H PARENT 10 6 6 10 14 25 73 44 41 55
REMARK Flexibility Score: inf
ROOT
ATOM      1  C   UNL A   1      31.777  31.668  26.680  1.00  0.00     0.042 C 
ENDROOT
BRANCH   1   2
ATOM      2  C   UNL A   1      32.244  30.339  26.106  1.00  0.00     0.118 C 
BRANCH   2   3
ATOM      3  N   UNL A   1      31.646  29.209  26.792  1.00  0.00    -0.351 N 
ATOM      4  C   UNL A   1      31.781  27.871  26.534  1.00  0.00     0.278 C 
ATOM      5  O   UNL A   1      31.140  27.101  27.251  1.00  0.00    -0.268 OA
ATOM      6  H   UNL A   1      31.061  29.437  27.550  1.00  0.00     0.163 HD
BRANCH   4   7
ATOM      7  C   UNL A   1      32.717  27.433  25.386  1.00  0.00     0.275 C 
ATOM      8  N   UNL A   1      32.027  26.517  24.440  1.00  0.00    -0.320 N 
ATOM      9  C   UNL A   1      32.667  25.206  24.486  1.00  0.00     0.188 C 
ATOM     10  H   UNL A   1      31.078  26.301  24.743  1.00  0.00     0.349 HD
ATOM     11  C   UNL A   1      33.902  26.631  25.939  1.00  0.00     0.085 C 
ATOM     12  C   UNL A   1      34.099  25.536  24.906  1.00  0.00     0.054 C 
ATOM     13  C   UNL A   1      31.959  24.311  25.526  1.00  0.00     0.065 C 
ATOM     14  C   UNL A   1      34.917  24.341  25.376  1.00  0.00     0.010 C 
ATOM     15  C   UNL A   1      32.794  23.081  25.878  1.00  0.00     0.006 C 
ATOM     16  C   UNL A   1      34.182  23.464  26.381  1.00  0.00     0.001 C 
BRANCH   8  17
ATOM     17  C   UNL A   1      31.566  27.129  23.185  1.00  0.00     0.184 C 
ATOM     18  C   UNL A   1      32.530  28.299  22.912  1.00  0.00     0.075 C 
BRANCH  17  19
ATOM     19  C   UNL A   1      30.074  27.596  23.049  1.00  0.00     0.041 C 
ATOM     20  C   UNL A   1      29.124  26.710  23.876  1.00  0.00     0.013 C 
ATOM     21  C   UNL A   1      29.843  29.046  23.496  1.00  0.00     0.013 C 
ENDBRANCH  17  19
ENDBRANCH   8  17
ENDBRANCH   4   7
ENDBRANCH   2   3
ENDBRANCH   1   2
BRANCH   1  22
ATOM     22  C   UNL A   1      32.871  32.439  27.407  1.00  0.00     0.118 C 
BRANCH  22  23
ATOM     23  N   UNL A   1      32.528  33.838  27.626  1.00  0.00    -0.352 N 
ATOM     24  C   UNL A   1      33.042  34.752  28.516  1.00  0.00     0.251 C 
ATOM     25  H   UNL A   1      31.813  34.185  27.044  1.00  0.00     0.163 HD
ATOM     26  O   UNL A   1      32.497  35.837  28.668  1.00  0.00    -0.269 OA
BRANCH  24  27
ATOM     27  C   UNL A   1      34.234  34.409  29.322  1.00  0.00     0.039 A 
ATOM     28  C   UNL A   1      34.055  33.888  30.606  1.00  0.00     0.014 A 
ATOM     29  C   UNL A   1      35.521  34.578  28.808  1.00  0.00     0.014 A 
ATOM     30  C   UNL A   1      35.160  33.429  31.328  1.00  0.00     0.010 A 
ATOM     31  C   UNL A   1      36.610  34.044  29.488  1.00  0.00     0.010 A 
ATOM     32  C   UNL A   1      36.437  33.446  30.745  1.00  0.00    -0.014 A 
BRANCH  32  33
ATOM     33  C   UNL A   1      37.602  32.800  31.401  1.00  0.00     0.031 A 
ATOM     34  C   UNL A   1      38.268  31.614  30.764  1.00  0.00     0.074 A 
ATOM     35  C   UNL A   1      37.985  33.214  32.625  1.00  0.00     0.049 A 
ATOM     36  N   UNL A   1      39.194  30.825  31.249  1.00  0.00    -0.248 NA
ATOM     37  C   UNL A   1      37.812  31.249  29.414  1.00  0.00     0.031 C 
ATOM     38  C   UNL A   1      37.387  34.326  33.368  1.00  0.00     0.029 A 
ATOM     39  N   UNL A   1      38.953  32.734  33.473  1.00  0.00    -0.354 N 
ATOM     40  C   UNL A   1      39.419  29.866  30.273  1.00  0.00     0.074 A 
ATOM     41  C   UNL A   1      38.502  30.140  29.187  1.00  0.00     0.031 C 
ATOM     42  C   UNL A   1      38.002  34.445  34.555  1.00  0.00     0.029 A 
ATOM     43  C   UNL A   1      39.003  33.391  34.679  1.00  0.00     0.049 A 
ATOM     44  H   UNL A   1      39.553  31.990  33.239  1.00  0.00     0.167 HD
ATOM     45  C   UNL A   1      40.326  28.859  30.274  1.00  0.00     0.037 A 
ATOM     46  C   UNL A   1      39.752  33.154  35.773  1.00  0.00     0.037 A 
ATOM     47  C   UNL A   1      41.250  28.603  31.348  1.00  0.00     0.049 A 
ATOM     48  C   UNL A   1      40.727  32.009  35.761  1.00  0.00     0.074 A 
ATOM     49  C   UNL A   1      42.255  27.654  31.411  1.00  0.00     0.029 A 
ATOM     50  N   UNL A   1      41.276  29.296  32.549  1.00  0.00    -0.354 N 
ATOM     51  N   UNL A   1      40.981  31.151  34.805  1.00  0.00    -0.248 NA
ATOM     52  C   UNL A   1      41.516  31.798  36.983  1.00  0.00     0.031 C 
ATOM     53  C   UNL A   1      42.859  27.741  32.670  1.00  0.00     0.029 A 
ATOM     54  C   UNL A   1      42.259  28.773  33.374  1.00  0.00     0.049 A 
ATOM     55  H   UNL A   1      40.684  30.047  32.781  1.00  0.00     0.167 HD
ATOM     56  C   UNL A   1      41.965  30.307  35.300  1.00  0.00     0.074 A 
ATOM     57  C   UNL A   1      42.278  30.769  36.637  1.00  0.00     0.031 C 
ATOM     58  C   UNL A   1      42.553  29.240  34.704  1.00  0.00     0.037 A 
BRANCH  45  59
ATOM     59  C   UNL A   1      40.367  27.960  29.075  1.00  0.00     0.064 A 
ATOM     60  C   UNL A   1      39.629  26.768  29.025  1.00  0.00     0.173 A 
ATOM     61  C   UNL A   1      41.118  28.314  27.944  1.00  0.00     0.173 A 
ATOM     62  F   UNL A   1      38.903  26.378  30.084  1.00  0.00    -0.203 F 
ATOM     63  C   UNL A   1      39.662  25.951  27.897  1.00  0.00     0.198 A 
ATOM     64  C   UNL A   1      41.125  27.509  26.807  1.00  0.00     0.198 A 
ATOM     65  F   UNL A   1      41.838  29.446  27.936  1.00  0.00    -0.203 F 
ATOM     66  F   UNL A   1      38.983  24.796  27.891  1.00  0.00    -0.200 F 
ATOM     67  C   UNL A   1      40.403  26.325  26.788  1.00  0.00     0.200 A 
ATOM     68  F   UNL A   1      41.832  27.879  25.730  1.00  0.00    -0.200 F 
ATOM     69  F   UNL A   1      40.425  25.543  25.699  1.00  0.00    -0.200 F 
ENDBRANCH  45  59
BRANCH  46  70
ATOM     70  C   UNL A   1      39.599  34.013  36.976  1.00  0.00     0.064 A 
ATOM     71  C   UNL A   1      40.259  35.245  37.068  1.00  0.00     0.173 A 
ATOM     72  C   UNL A   1      38.789  33.623  38.053  1.00  0.00     0.173 A 
ATOM     73  F   UNL A   1      41.061  35.651  36.072  1.00  0.00    -0.203 F 
ATOM     74  C   UNL A   1      40.130  36.049  38.199  1.00  0.00     0.198 A 
ATOM     75  C   UNL A   1      38.638  34.440  39.172  1.00  0.00     0.198 A 
ATOM     76  F   UNL A   1      38.132  32.455  38.012  1.00  0.00    -0.203 F 
ATOM     77  F   UNL A   1      40.805  37.203  38.280  1.00  0.00    -0.200 F 
ATOM     78  C   UNL A   1      39.314  35.648  39.247  1.00  0.00     0.200 A 
ATOM     79  F   UNL A   1      37.838  34.056  40.175  1.00  0.00    -0.200 F 
ATOM     80  F   UNL A   1      39.185  36.423  40.332  1.00  0.00    -0.200 F 
ENDBRANCH  46  70
BRANCH  58  81
ATOM     81  C   UNL A   1      43.598  28.504  35.487  1.00  0.00     0.064 A 
ATOM     82  C   UNL A   1      44.958  28.821  35.365  1.00  0.00     0.173 A 
ATOM     83  C   UNL A   1      43.234  27.508  36.406  1.00  0.00     0.173 A 
ATOM     84  F   UNL A   1      45.358  29.752  34.486  1.00  0.00    -0.203 F 
ATOM     85  C   UNL A   1      45.918  28.159  36.126  1.00  0.00     0.198 A 
ATOM     86  C   UNL A   1      44.192  26.868  37.184  1.00  0.00     0.198 A 
ATOM     87  F   UNL A   1      41.944  27.172  36.562  1.00  0.00    -0.203 F 
ATOM     88  F   UNL A   1      47.215  28.452  35.968  1.00  0.00    -0.200 F 
ATOM     89  C   UNL A   1      45.533  27.190  37.041  1.00  0.00     0.200 A 
ATOM     90  F   UNL A   1      43.819  25.939  38.076  1.00  0.00    -0.200 F 
ATOM     91  F   UNL A   1      46.457  26.562  37.781  1.00  0.00    -0.200 F 
ENDBRANCH  58  81
ENDBRANCH  32  33
ENDBRANCH  24  27
ENDBRANCH  22  23
ENDBRANCH   1  22
TORSDOF 12
ENDMDL
MODEL 3
REMARK VINA RESULT:     -12.6      2.010      3.899
REMARK SMILES CC(C)[C@@H](C)[N@@H+]1[C@@H](C(=O)NCCCNC(=O)c2ccc(-c3c4nc(c(-c5c(F)c(F)c(F)c(F)c5F)c5ccc([nH]5)c(-c5c(F)c(F)c(F)c(F)c5F)c5nc(c(-c6c(F)c(F)c(F)c(F)c6F)c6ccc3[nH]6)C=C5)C=C4)cc2)C[C@H]2CCCC[C@H]21
REMARK SMILES IDX 12 1 11 2 10 3 8 4 9 5 7 7 6 8 86 9 80 11 81 12 85 13 82 14
REMARK SMILES IDX 84 15 83 16 4 17 5 18 2 19 1 20 3 21 13 22 14 23 15 24 16 26
REMARK SMILES IDX 17 27 18 28 79 29 19 30 78 31 20 32 21 33 22 34 72 35 23 36
REMARK SMILES IDX 77 37 71 38 73 39 24 40 76 41 70 42 69 43 25 45 57 46 37 47
REMARK SMILES IDX 56 48 38 49 41 50 55 51 74 52 39 53 40 54 54 56 75 57 42 58
REMARK SMILES IDX 26 59 27 60 35 61 28 62 29 63 33 64 36 65 30 66 31 67 34 68
REMARK SMILES IDX 32 69 58 70 59 71 67 72 60 73 61 74 65 75 68 76 62 77 63 78
REMARK SMILES IDX 66 79 64 80 43 81 44 82 52 83 45 84 46 85 50 86 53 87 47 88
REMARK SMILES IDX 48 89 51 90 49 91
REMARK H PARENT 10 6 6 10 14 25 73 44 41 55
REMARK Flexibility Score: inf
ROOT
ATOM      1  C   UNL A   1      32.928  29.366  25.151  1.00  0.00     0.042 C 
ENDROOT
BRANCH   1   2
ATOM      2  C   UNL A   1      33.904  28.201  25.102  1.00  0.00     0.118 C 
BRANCH   2   3
ATOM      3  N   UNL A   1      33.676  27.346  23.954  1.00  0.00    -0.351 N 
ATOM      4  C   UNL A   1      33.881  25.998  23.824  1.00  0.00     0.278 C 
ATOM      5  O   UNL A   1      33.633  25.503  22.723  1.00  0.00    -0.268 OA
ATOM      6  H   UNL A   1      33.324  27.799  23.154  1.00  0.00     0.163 HD
BRANCH   4   7
ATOM      7  C   UNL A   1      34.393  25.210  25.050  1.00  0.00     0.275 C 
ATOM      8  N   UNL A   1      34.884  23.862  24.664  1.00  0.00    -0.320 N 
ATOM      9  C   UNL A   1      34.035  22.845  25.279  1.00  0.00     0.188 C 
ATOM     10  H   UNL A   1      34.751  23.677  23.671  1.00  0.00     0.349 HD
ATOM     11  C   UNL A   1      33.247  24.959  26.039  1.00  0.00     0.085 C 
ATOM     12  C   UNL A   1      33.509  23.547  26.531  1.00  0.00     0.054 C 
ATOM     13  C   UNL A   1      32.890  22.463  24.316  1.00  0.00     0.065 C 
ATOM     14  C   UNL A   1      32.324  22.861  27.195  1.00  0.00     0.010 C 
ATOM     15  C   UNL A   1      31.781  21.692  25.030  1.00  0.00     0.006 C 
ATOM     16  C   UNL A   1      31.224  22.474  26.217  1.00  0.00     0.001 C 
BRANCH   8  17
ATOM     17  C   UNL A   1      36.345  23.720  24.569  1.00  0.00     0.184 C 
ATOM     18  C   UNL A   1      36.603  22.910  23.285  1.00  0.00     0.075 C 
BRANCH  17  19
ATOM     19  C   UNL A   1      37.148  23.118  25.775  1.00  0.00     0.041 C 
ATOM     20  C   UNL A   1      37.915  21.846  25.369  1.00  0.00     0.013 C 
ATOM     21  C   UNL A   1      38.172  24.090  26.375  1.00  0.00     0.013 C 
ENDBRANCH  17  19
ENDBRANCH   8  17
ENDBRANCH   4   7
ENDBRANCH   2   3
ENDBRANCH   1   2
BRANCH   1  22
ATOM     22  C   UNL A   1      32.492  29.741  26.561  1.00  0.00     0.118 C 
BRANCH  22  23
ATOM     23  N   UNL A   1      32.378  31.181  26.754  1.00  0.00    -0.352 N 
ATOM     24  C   UNL A   1      33.222  32.064  27.388  1.00  0.00     0.251 C 
ATOM     25  H   UNL A   1      31.567  31.587  26.371  1.00  0.00     0.163 HD
ATOM     26  O   UNL A   1      32.863  33.214  27.599  1.00  0.00    -0.269 OA
BRANCH  24  27
ATOM     27  C   UNL A   1      34.552  31.612  27.850  1.00  0.00     0.039 A 
ATOM     28  C   UNL A   1      35.593  32.541  27.926  1.00  0.00     0.014 A 
ATOM     29  C   UNL A   1      34.767  30.285  28.230  1.00  0.00     0.014 A 
ATOM     30  C   UNL A   1      36.815  32.166  28.490  1.00  0.00     0.010 A 
ATOM     31  C   UNL A   1      35.952  29.936  28.870  1.00  0.00     0.010 A 
ATOM     32  C   UNL A   1      36.979  30.878  29.024  1.00  0.00    -0.014 A 
BRANCH  32  33
ATOM     33  C   UNL A   1      38.191  30.502  29.796  1.00  0.00     0.031 A 
ATOM     34  C   UNL A   1      39.162  29.501  29.239  1.00  0.00     0.074 A 
ATOM     35  C   UNL A   1      38.353  30.979  31.046  1.00  0.00     0.049 A 
ATOM     36  N   UNL A   1      40.190  28.934  29.819  1.00  0.00    -0.248 NA
ATOM     37  C   UNL A   1      38.931  29.058  27.856  1.00  0.00     0.031 C 
ATOM     38  C   UNL A   1      37.453  31.921  31.716  1.00  0.00     0.029 A 
ATOM     39  N   UNL A   1      39.317  30.718  31.988  1.00  0.00    -0.354 N 
ATOM     40  C   UNL A   1      40.716  28.060  28.880  1.00  0.00     0.074 A 
ATOM     41  C   UNL A   1      39.869  28.133  27.708  1.00  0.00     0.031 C 
ATOM     42  C   UNL A   1      37.909  32.162  32.954  1.00  0.00     0.029 A 
ATOM     43  C   UNL A   1      39.104  31.357  33.186  1.00  0.00     0.049 A 
ATOM     44  H   UNL A   1      40.088  30.128  31.821  1.00  0.00     0.167 HD
ATOM     45  C   UNL A   1      41.820  27.280  28.980  1.00  0.00     0.037 A 
ATOM     46  C   UNL A   1      39.778  31.281  34.349  1.00  0.00     0.037 A 
ATOM     47  C   UNL A   1      42.671  27.225  30.139  1.00  0.00     0.049 A 
ATOM     48  C   UNL A   1      40.980  30.383  34.444  1.00  0.00     0.074 A 
ATOM     49  C   UNL A   1      43.852  26.524  30.309  1.00  0.00     0.029 A 
ATOM     50  N   UNL A   1      42.426  27.894  31.329  1.00  0.00    -0.354 N 
ATOM     51  N   UNL A   1      41.510  29.613  33.526  1.00  0.00    -0.248 NA
ATOM     52  C   UNL A   1      41.676  30.340  35.738  1.00  0.00     0.031 C 
ATOM     53  C   UNL A   1      44.297  26.730  31.619  1.00  0.00     0.029 A 
ATOM     54  C   UNL A   1      43.417  27.595  32.251  1.00  0.00     0.049 A 
ATOM     55  H   UNL A   1      41.662  28.492  31.496  1.00  0.00     0.167 HD
ATOM     56  C   UNL A   1      42.605  29.005  34.123  1.00  0.00     0.074 A 
ATOM     57  C   UNL A   1      42.678  29.512  35.478  1.00  0.00     0.031 C 
ATOM     58  C   UNL A   1      43.470  28.103  33.598  1.00  0.00     0.037 A 
BRANCH  45  59
ATOM     59  C   UNL A   1      42.176  26.425  27.799  1.00  0.00     0.064 A 
ATOM     60  C   UNL A   1      43.131  26.835  26.857  1.00  0.00     0.173 A 
ATOM     61  C   UNL A   1      41.588  25.163  27.631  1.00  0.00     0.173 A 
ATOM     62  F   UNL A   1      43.715  28.038  26.968  1.00  0.00    -0.203 F 
ATOM     63  C   UNL A   1      43.465  26.024  25.776  1.00  0.00     0.198 A 
ATOM     64  C   UNL A   1      41.946  24.342  26.564  1.00  0.00     0.198 A 
ATOM     65  F   UNL A   1      40.672  24.720  28.506  1.00  0.00    -0.203 F 
ATOM     66  F   UNL A   1      44.348  26.456  24.865  1.00  0.00    -0.200 F 
ATOM     67  C   UNL A   1      42.878  24.776  25.634  1.00  0.00     0.200 A 
ATOM     68  F   UNL A   1      41.388  23.131  26.435  1.00  0.00    -0.200 F 
ATOM     69  F   UNL A   1      43.209  23.992  24.598  1.00  0.00    -0.200 F 
ENDBRANCH  45  59
BRANCH  46  70
ATOM     70  C   UNL A   1      39.323  32.072  35.522  1.00  0.00     0.064 A 
ATOM     71  C   UNL A   1      39.739  33.398  35.701  1.00  0.00     0.173 A 
ATOM     72  C   UNL A   1      38.462  31.522  36.483  1.00  0.00     0.173 A 
ATOM     73  F   UNL A   1      40.579  33.960  34.820  1.00  0.00    -0.203 F 
ATOM     74  C   UNL A   1      39.326  34.139  36.806  1.00  0.00     0.198 A 
ATOM     75  C   UNL A   1      38.027  32.273  37.573  1.00  0.00     0.198 A 
ATOM     76  F   UNL A   1      38.031  30.259  36.356  1.00  0.00    -0.203 F 
ATOM     77  F   UNL A   1      39.772  35.391  36.975  1.00  0.00    -0.200 F 
ATOM     78  C   UNL A   1      38.465  33.578  37.737  1.00  0.00     0.200 A 
ATOM     79  F   UNL A   1      37.183  31.733  38.463  1.00  0.00    -0.200 F 
ATOM     80  F   UNL A   1      38.062  34.294  38.797  1.00  0.00    -0.200 F 
ENDBRANCH  46  70
BRANCH  58  81
ATOM     81  C   UNL A   1      44.574  27.610  34.486  1.00  0.00     0.064 A 
ATOM     82  C   UNL A   1      45.786  28.306  34.596  1.00  0.00     0.173 A 
ATOM     83  C   UNL A   1      44.400  26.461  35.272  1.00  0.00     0.173 A 
ATOM     84  F   UNL A   1      46.008  29.399  33.851  1.00  0.00    -0.203 F 
ATOM     85  C   UNL A   1      46.789  27.863  35.454  1.00  0.00     0.198 A 
ATOM     86  C   UNL A   1      45.393  26.036  36.148  1.00  0.00     0.198 A 
ATOM     87  F   UNL A   1      43.256  25.763  35.204  1.00  0.00    -0.203 F 
ATOM     88  F   UNL A   1      47.953  28.522  35.517  1.00  0.00    -0.200 F 
ATOM     89  C   UNL A   1      46.588  26.734  36.235  1.00  0.00     0.200 A 
ATOM     90  F   UNL A   1      45.194  24.952  36.911  1.00  0.00    -0.200 F 
ATOM     91  F   UNL A   1      47.551  26.315  37.068  1.00  0.00    -0.200 F 
ENDBRANCH  58  81
ENDBRANCH  32  33
ENDBRANCH  24  27
ENDBRANCH  22  23
ENDBRANCH   1  22
TORSDOF 12
ENDMDL
