MODEL 1
REMARK VINA RESULT:     -13.2      0.000      0.000
REMARK SMILES O=C(NCCCNC(=O)[C@H]1C=C[C@@H](NC(=O)c2cn3ccccc3n2)C1)c1ccc(-c2c3nc(c(-c4c(F)c(F)c(F)c(F)c4F)c4ccc([nH]4)c(-c4c(F)c(F)c(F)c(F)c4F)c4nc(c(-c5c(F)c(F)c(F)c(F)c5F)c5ccc2[nH]5)C=C4)C=C3)cc1
REMARK SMILES IDX 5 1 4 2 3 3 1 4 2 5 27 7 28 8 89 9 29 10 88 11 30 12 31 13
REMARK SMILES IDX 32 14 82 15 33 16 87 17 81 18 83 19 34 20 86 21 80 22 79 23
REMARK SMILES IDX 35 25 67 26 47 27 66 28 48 29 51 30 65 31 84 32 49 33 50 34
REMARK SMILES IDX 64 36 85 37 52 38 36 39 37 40 45 41 38 42 39 43 43 44 46 45
REMARK SMILES IDX 40 46 41 47 44 48 42 49 68 50 69 51 77 52 70 53 71 54 75 55
REMARK SMILES IDX 78 56 72 57 73 58 76 59 74 60 53 61 54 62 62 63 55 64 56 65
REMARK SMILES IDX 60 66 63 67 57 68 58 69 61 70 59 71 6 72 7 73 8 74 9 76
REMARK SMILES IDX 10 77 11 78 26 79 12 80 13 81 14 82 15 83 16 85 17 86 18 87
REMARK SMILES IDX 25 88 19 89 24 90 20 91 23 92 21 93 22 94
REMARK H PARENT 3 6 83 24 51 35 7 75 14 84
REMARK Flexibility Score: inf
ROOT
ATOM      1  C   UNL A   1      31.367  32.139  26.645  1.00  0.00     0.042 C 
ENDROOT
BRANCH   1   2
ATOM      2  C   UNL A   1      32.676  32.849  26.959  1.00  0.00     0.118 C 
BRANCH   2   3
ATOM      3  N   UNL A   1      32.482  34.128  27.631  1.00  0.00    -0.352 N 
ATOM      4  O   UNL A   1      32.638  35.699  29.233  1.00  0.00    -0.269 OA
ATOM      5  C   UNL A   1      33.103  34.683  28.725  1.00  0.00     0.251 C 
ATOM      6  H   UNL A   1      31.782  34.695  27.232  1.00  0.00     0.163 HD
BRANCH   5   7
ATOM      7  C   UNL A   1      34.315  34.064  29.306  1.00  0.00     0.039 A 
ATOM      8  C   UNL A   1      34.217  32.999  30.198  1.00  0.00     0.014 A 
ATOM      9  C   UNL A   1      35.578  34.520  28.910  1.00  0.00     0.014 A 
ATOM     10  C   UNL A   1      35.355  32.521  30.835  1.00  0.00     0.010 A 
ATOM     11  C   UNL A   1      36.733  33.953  29.460  1.00  0.00     0.010 A 
ATOM     12  C   UNL A   1      36.630  32.970  30.455  1.00  0.00    -0.014 A 
BRANCH  12  13
ATOM     13  C   UNL A   1      37.821  32.333  31.075  1.00  0.00     0.031 A 
ATOM     14  C   UNL A   1      38.246  32.665  32.478  1.00  0.00     0.074 A 
ATOM     15  C   UNL A   1      38.479  31.388  30.374  1.00  0.00     0.049 A 
ATOM     16  N   UNL A   1      39.226  32.153  33.183  1.00  0.00    -0.248 NA
ATOM     17  C   UNL A   1      37.486  33.708  33.182  1.00  0.00     0.031 C 
ATOM     18  C   UNL A   1      38.169  30.997  28.996  1.00  0.00     0.029 A 
ATOM     19  N   UNL A   1      39.514  30.561  30.725  1.00  0.00    -0.354 N 
ATOM     20  C   UNL A   1      39.209  32.819  34.401  1.00  0.00     0.074 A 
ATOM     21  C   UNL A   1      38.140  33.793  34.332  1.00  0.00     0.031 C 
ATOM     22  C   UNL A   1      38.942  29.961  28.645  1.00  0.00     0.029 A 
ATOM     23  C   UNL A   1      39.853  29.661  29.743  1.00  0.00     0.049 A 
ATOM     24  H   UNL A   1      39.970  30.605  31.597  1.00  0.00     0.167 HD
ATOM     25  C   UNL A   1      40.006  32.627  35.479  1.00  0.00     0.037 A 
ATOM     26  C   UNL A   1      40.800  28.705  29.722  1.00  0.00     0.037 A 
ATOM     27  C   UNL A   1      41.060  31.646  35.546  1.00  0.00     0.049 A 
ATOM     28  C   UNL A   1      41.665  28.516  30.932  1.00  0.00     0.074 A 
ATOM     29  C   UNL A   1      41.924  31.374  36.594  1.00  0.00     0.029 A 
ATOM     30  N   UNL A   1      41.390  30.769  34.522  1.00  0.00    -0.354 N 
ATOM     31  N   UNL A   1      41.631  29.150  32.079  1.00  0.00    -0.248 NA
ATOM     32  C   UNL A   1      42.706  27.483  30.845  1.00  0.00     0.031 C 
ATOM     33  C   UNL A   1      42.795  30.355  36.193  1.00  0.00     0.029 A 
ATOM     34  C   UNL A   1      42.448  29.963  34.911  1.00  0.00     0.049 A 
ATOM     35  H   UNL A   1      40.938  30.726  33.649  1.00  0.00     0.167 HD
ATOM     36  C   UNL A   1      42.640  28.593  32.850  1.00  0.00     0.074 A 
ATOM     37  C   UNL A   1      43.245  27.546  32.053  1.00  0.00     0.031 C 
ATOM     38  C   UNL A   1      43.037  28.927  34.102  1.00  0.00     0.037 A 
BRANCH  25  39
ATOM     39  C   UNL A   1      39.779  33.500  36.679  1.00  0.00     0.064 A 
ATOM     40  C   UNL A   1      40.426  34.737  36.819  1.00  0.00     0.173 A 
ATOM     41  C   UNL A   1      38.861  33.123  37.671  1.00  0.00     0.173 A 
ATOM     42  F   UNL A   1      41.319  35.139  35.902  1.00  0.00    -0.203 F 
ATOM     43  C   UNL A   1      40.175  35.557  37.917  1.00  0.00     0.198 A 
ATOM     44  C   UNL A   1      38.595  33.956  38.756  1.00  0.00     0.198 A 
ATOM     45  F   UNL A   1      38.210  31.954  37.582  1.00  0.00    -0.203 F 
ATOM     46  F   UNL A   1      40.828  36.720  38.046  1.00  0.00    -0.200 F 
ATOM     47  C   UNL A   1      39.255  35.170  38.880  1.00  0.00     0.200 A 
ATOM     48  F   UNL A   1      37.695  33.588  39.678  1.00  0.00    -0.200 F 
ATOM     49  F   UNL A   1      39.004  35.966  39.929  1.00  0.00    -0.200 F 
ENDBRANCH  25  39
BRANCH  26  50
ATOM     50  C   UNL A   1      40.978  27.870  28.506  1.00  0.00     0.064 A 
ATOM     51  C   UNL A   1      41.823  28.274  27.465  1.00  0.00     0.173 A 
ATOM     52  C   UNL A   1      40.312  26.642  28.368  1.00  0.00     0.173 A 
ATOM     53  F   UNL A   1      42.466  29.449  27.542  1.00  0.00    -0.203 F 
ATOM     54  C   UNL A   1      41.985  27.490  26.325  1.00  0.00     0.198 A 
ATOM     55  C   UNL A   1      40.500  25.844  27.243  1.00  0.00     0.198 A 
ATOM     56  F   UNL A   1      39.496  26.207  29.339  1.00  0.00    -0.203 F 
ATOM     57  F   UNL A   1      42.767  27.919  25.325  1.00  0.00    -0.200 F 
ATOM     58  C   UNL A   1      41.329  26.272  26.218  1.00  0.00     0.200 A 
ATOM     59  F   UNL A   1      39.879  24.660  27.154  1.00  0.00    -0.200 F 
ATOM     60  F   UNL A   1      41.492  25.514  25.125  1.00  0.00    -0.200 F 
ENDBRANCH  26  50
BRANCH  38  61
ATOM     61  C   UNL A   1      44.171  28.137  34.683  1.00  0.00     0.064 A 
ATOM     62  C   UNL A   1      43.944  26.947  35.391  1.00  0.00     0.173 A 
ATOM     63  C   UNL A   1      45.494  28.570  34.524  1.00  0.00     0.173 A 
ATOM     64  F   UNL A   1      42.693  26.504  35.585  1.00  0.00    -0.203 F 
ATOM     65  C   UNL A   1      45.003  26.234  35.945  1.00  0.00     0.198 A 
ATOM     66  C   UNL A   1      46.553  27.840  35.058  1.00  0.00     0.198 A 
ATOM     67  F   UNL A   1      45.761  29.699  33.853  1.00  0.00    -0.203 F 
ATOM     68  F   UNL A   1      44.761  25.129  36.663  1.00  0.00    -0.200 F 
ATOM     69  C   UNL A   1      46.306  26.678  35.775  1.00  0.00     0.200 A 
ATOM     70  F   UNL A   1      47.812  28.265  34.885  1.00  0.00    -0.200 F 
ATOM     71  F   UNL A   1      47.324  25.992  36.311  1.00  0.00    -0.200 F 
ENDBRANCH  38  61
ENDBRANCH  12  13
ENDBRANCH   5   7
ENDBRANCH   2   3
ENDBRANCH   1   2
BRANCH   1  72
ATOM     72  C   UNL A   1      31.553  30.726  26.116  1.00  0.00     0.117 C 
BRANCH  72  73
ATOM     73  N   UNL A   1      30.944  30.533  24.815  1.00  0.00    -0.356 N 
ATOM     74  C   UNL A   1      30.626  29.439  24.085  1.00  0.00     0.227 C 
ATOM     75  H   UNL A   1      30.712  31.378  24.366  1.00  0.00     0.163 HD
ATOM     76  O   UNL A   1      30.178  29.666  22.952  1.00  0.00    -0.274 OA
BRANCH  74  77
ATOM     77  C   UNL A   1      30.856  27.991  24.514  1.00  0.00     0.103 C 
ATOM     78  C   UNL A   1      29.744  27.108  24.043  1.00  0.00    -0.016 C 
ATOM     79  C   UNL A   1      32.137  27.246  24.126  1.00  0.00     0.047 C 
ATOM     80  C   UNL A   1      30.202  25.985  23.486  1.00  0.00    -0.006 C 
ATOM     81  C   UNL A   1      31.691  25.931  23.457  1.00  0.00     0.106 C 
BRANCH  81  82
ATOM     82  N   UNL A   1      32.065  25.802  22.066  1.00  0.00    -0.344 N 
ATOM     83  C   UNL A   1      32.879  24.877  21.456  1.00  0.00     0.271 C 
ATOM     84  H   UNL A   1      31.679  26.479  21.466  1.00  0.00     0.164 HD
ATOM     85  O   UNL A   1      33.145  25.034  20.265  1.00  0.00    -0.267 OA
BRANCH  83  86
ATOM     86  C   UNL A   1      33.396  23.764  22.247  1.00  0.00     0.147 A 
ATOM     87  C   UNL A   1      32.719  22.614  22.617  1.00  0.00     0.127 A 
ATOM     88  N   UNL A   1      34.685  23.733  22.748  1.00  0.00    -0.223 NA
ATOM     89  N   UNL A   1      33.544  21.965  23.495  1.00  0.00    -0.306 N 
ATOM     90  C   UNL A   1      34.750  22.653  23.496  1.00  0.00     0.137 A 
ATOM     91  C   UNL A   1      33.281  20.863  24.303  1.00  0.00     0.093 A 
ATOM     92  C   UNL A   1      35.789  22.133  24.318  1.00  0.00     0.048 A 
ATOM     93  C   UNL A   1      34.244  20.412  25.124  1.00  0.00     0.018 A 
ATOM     94  C   UNL A   1      35.546  21.066  25.105  1.00  0.00     0.005 A 
ENDBRANCH  83  86
ENDBRANCH  81  82
ENDBRANCH  74  77
ENDBRANCH  72  73
ENDBRANCH   1  72
TORSDOF 12
ENDMDL
MODEL 2
REMARK VINA RESULT:     -13.2      0.149      1.679
REMARK SMILES O=C(NCCCNC(=O)[C@H]1C=C[C@@H](NC(=O)c2cn3ccccc3n2)C1)c1ccc(-c2c3nc(c(-c4c(F)c(F)c(F)c(F)c4F)c4ccc([nH]4)c(-c4c(F)c(F)c(F)c(F)c4F)c4nc(c(-c5c(F)c(F)c(F)c(F)c5F)c5ccc2[nH]5)C=C4)C=C3)cc1
REMARK SMILES IDX 5 1 4 2 3 3 1 4 2 5 27 7 28 8 89 9 29 10 88 11 30 12 31 13
REMARK SMILES IDX 32 14 82 15 33 16 87 17 81 18 83 19 34 20 86 21 80 22 79 23
REMARK SMILES IDX 35 25 67 26 47 27 66 28 48 29 51 30 65 31 84 32 49 33 50 34
REMARK SMILES IDX 64 36 85 37 52 38 36 39 37 40 45 41 38 42 39 43 43 44 46 45
REMARK SMILES IDX 40 46 41 47 44 48 42 49 68 50 69 51 77 52 70 53 71 54 75 55
REMARK SMILES IDX 78 56 72 57 73 58 76 59 74 60 53 61 54 62 62 63 55 64 56 65
REMARK SMILES IDX 60 66 63 67 57 68 58 69 61 70 59 71 6 72 7 73 8 74 9 76
REMARK SMILES IDX 10 77 11 78 26 79 12 80 13 81 14 82 15 83 16 85 17 86 18 87
REMARK SMILES IDX 25 88 19 89 24 90 20 91 23 92 21 93 22 94
REMARK H PARENT 3 6 83 24 51 35 7 75 14 84
REMARK Flexibility Score: inf
ROOT
ATOM      1  C   UNL A   1      31.321  32.300  26.504  1.00  0.00     0.042 C 
ENDROOT
BRANCH   1   2
ATOM      2  C   UNL A   1      32.637  32.855  27.031  1.00  0.00     0.118 C 
BRANCH   2   3
ATOM      3  N   UNL A   1      32.497  34.178  27.628  1.00  0.00    -0.352 N 
ATOM      4  O   UNL A   1      32.710  35.827  29.142  1.00  0.00    -0.269 OA
ATOM      5  C   UNL A   1      33.130  34.762  28.698  1.00  0.00     0.251 C 
ATOM      6  H   UNL A   1      31.831  34.755  27.186  1.00  0.00     0.163 HD
BRANCH   5   7
ATOM      7  C   UNL A   1      34.302  34.119  29.332  1.00  0.00     0.039 A 
ATOM      8  C   UNL A   1      35.593  34.579  29.084  1.00  0.00     0.014 A 
ATOM      9  C   UNL A   1      34.105  33.069  30.237  1.00  0.00     0.014 A 
ATOM     10  C   UNL A   1      36.686  33.880  29.579  1.00  0.00     0.010 A 
ATOM     11  C   UNL A   1      35.205  32.443  30.836  1.00  0.00     0.010 A 
ATOM     12  C   UNL A   1      36.508  32.822  30.484  1.00  0.00    -0.014 A 
BRANCH  12  13
ATOM     13  C   UNL A   1      37.713  32.192  31.085  1.00  0.00     0.031 A 
ATOM     14  C   UNL A   1      38.150  32.516  32.486  1.00  0.00     0.074 A 
ATOM     15  C   UNL A   1      38.374  31.261  30.368  1.00  0.00     0.049 A 
ATOM     16  N   UNL A   1      39.142  32.009  33.176  1.00  0.00    -0.248 NA
ATOM     17  C   UNL A   1      37.385  33.544  33.208  1.00  0.00     0.031 C 
ATOM     18  C   UNL A   1      38.054  30.879  28.990  1.00  0.00     0.029 A 
ATOM     19  N   UNL A   1      39.422  30.443  30.701  1.00  0.00    -0.354 N 
ATOM     20  C   UNL A   1      39.130  32.664  34.400  1.00  0.00     0.074 A 
ATOM     21  C   UNL A   1      38.051  33.626  34.352  1.00  0.00     0.031 C 
ATOM     22  C   UNL A   1      38.836  29.856  28.622  1.00  0.00     0.029 A 
ATOM     23  C   UNL A   1      39.761  29.556  29.708  1.00  0.00     0.049 A 
ATOM     24  H   UNL A   1      39.887  30.485  31.569  1.00  0.00     0.167 HD
ATOM     25  C   UNL A   1      39.942  32.471  35.468  1.00  0.00     0.037 A 
ATOM     26  C   UNL A   1      40.718  28.612  29.667  1.00  0.00     0.037 A 
ATOM     27  C   UNL A   1      41.007  31.501  35.515  1.00  0.00     0.049 A 
ATOM     28  C   UNL A   1      41.599  28.421  30.867  1.00  0.00     0.074 A 
ATOM     29  C   UNL A   1      41.885  31.230  36.552  1.00  0.00     0.029 A 
ATOM     30  N   UNL A   1      41.336  30.638  34.480  1.00  0.00    -0.354 N 
ATOM     31  N   UNL A   1      41.570  29.044  32.019  1.00  0.00    -0.248 NA
ATOM     32  C   UNL A   1      42.650  27.401  30.759  1.00  0.00     0.031 C 
ATOM     33  C   UNL A   1      42.763  30.225  36.133  1.00  0.00     0.029 A 
ATOM     34  C   UNL A   1      42.408  29.840  34.850  1.00  0.00     0.049 A 
ATOM     35  H   UNL A   1      40.876  30.598  33.612  1.00  0.00     0.167 HD
ATOM     36  C   UNL A   1      42.592  28.492  32.775  1.00  0.00     0.074 A 
ATOM     37  C   UNL A   1      43.201  27.459  31.962  1.00  0.00     0.031 C 
ATOM     38  C   UNL A   1      42.999  28.819  34.025  1.00  0.00     0.037 A 
BRANCH  25  39
ATOM     39  C   UNL A   1      39.717  33.331  36.679  1.00  0.00     0.064 A 
ATOM     40  C   UNL A   1      40.375  34.559  36.838  1.00  0.00     0.173 A 
ATOM     41  C   UNL A   1      38.791  32.950  37.662  1.00  0.00     0.173 A 
ATOM     42  F   UNL A   1      41.276  34.964  35.930  1.00  0.00    -0.203 F 
ATOM     43  C   UNL A   1      40.127  35.367  37.945  1.00  0.00     0.198 A 
ATOM     44  C   UNL A   1      38.527  33.771  38.756  1.00  0.00     0.198 A 
ATOM     45  F   UNL A   1      38.129  31.788  37.554  1.00  0.00    -0.203 F 
ATOM     46  F   UNL A   1      40.790  36.522  38.092  1.00  0.00    -0.200 F 
ATOM     47  C   UNL A   1      39.199  34.976  38.899  1.00  0.00     0.200 A 
ATOM     48  F   UNL A   1      37.620  33.399  39.669  1.00  0.00    -0.200 F 
ATOM     49  F   UNL A   1      38.951  35.761  39.958  1.00  0.00    -0.200 F 
ENDBRANCH  25  39
BRANCH  26  50
ATOM     50  C   UNL A   1      40.893  27.789  28.442  1.00  0.00     0.064 A 
ATOM     51  C   UNL A   1      40.224  26.568  28.286  1.00  0.00     0.173 A 
ATOM     52  C   UNL A   1      41.727  28.215  27.397  1.00  0.00     0.173 A 
ATOM     53  F   UNL A   1      39.430  26.109  29.266  1.00  0.00    -0.203 F 
ATOM     54  C   UNL A   1      40.392  25.798  27.138  1.00  0.00     0.198 A 
ATOM     55  C   UNL A   1      41.869  27.460  26.236  1.00  0.00     0.198 A 
ATOM     56  F   UNL A   1      42.386  29.379  27.495  1.00  0.00    -0.203 F 
ATOM     57  F   UNL A   1      39.773  24.614  27.031  1.00  0.00    -0.200 F 
ATOM     58  C   UNL A   1      41.209  26.248  26.111  1.00  0.00     0.200 A 
ATOM     59  F   UNL A   1      42.644  27.908  25.239  1.00  0.00    -0.200 F 
ATOM     60  F   UNL A   1      41.363  25.510  25.003  1.00  0.00    -0.200 F 
ENDBRANCH  26  50
BRANCH  38  61
ATOM     61  C   UNL A   1      44.148  28.036  34.588  1.00  0.00     0.064 A 
ATOM     62  C   UNL A   1      45.472  28.474  34.440  1.00  0.00     0.173 A 
ATOM     63  C   UNL A   1      43.920  26.843  35.287  1.00  0.00     0.173 A 
ATOM     64  F   UNL A   1      45.739  29.600  33.761  1.00  0.00    -0.203 F 
ATOM     65  C   UNL A   1      46.531  27.728  34.947  1.00  0.00     0.198 A 
ATOM     66  C   UNL A   1      44.981  26.112  35.816  1.00  0.00     0.198 A 
ATOM     67  F   UNL A   1      42.672  26.386  35.458  1.00  0.00    -0.203 F 
ATOM     68  F   UNL A   1      47.792  28.136  34.749  1.00  0.00    -0.200 F 
ATOM     69  C   UNL A   1      46.285  26.551  35.638  1.00  0.00     0.200 A 
ATOM     70  F   UNL A   1      44.742  24.980  36.492  1.00  0.00    -0.200 F 
ATOM     71  F   UNL A   1      47.306  25.832  36.125  1.00  0.00    -0.200 F 
ENDBRANCH  38  61
ENDBRANCH  12  13
ENDBRANCH   5   7
ENDBRANCH   2   3
ENDBRANCH   1   2
BRANCH   1  72
ATOM     72  C   UNL A   1      31.403  30.843  26.079  1.00  0.00     0.117 C 
BRANCH  72  73
ATOM     73  N   UNL A   1      30.840  30.613  24.763  1.00  0.00    -0.356 N 
ATOM     74  C   UNL A   1      30.588  29.500  24.036  1.00  0.00     0.227 C 
ATOM     75  H   UNL A   1      30.588  31.443  24.299  1.00  0.00     0.163 HD
ATOM     76  O   UNL A   1      30.164  29.698  22.888  1.00  0.00    -0.274 OA
BRANCH  74  77
ATOM     77  C   UNL A   1      30.864  28.067  24.488  1.00  0.00     0.103 C 
ATOM     78  C   UNL A   1      29.772  27.144  24.043  1.00  0.00    -0.016 C 
ATOM     79  C   UNL A   1      32.161  27.352  24.098  1.00  0.00     0.047 C 
ATOM     80  C   UNL A   1      30.256  26.025  23.501  1.00  0.00    -0.006 C 
ATOM     81  C   UNL A   1      31.745  26.013  23.456  1.00  0.00     0.106 C 
BRANCH  81  82
ATOM     82  N   UNL A   1      32.109  25.871  22.064  1.00  0.00    -0.344 N 
ATOM     83  C   UNL A   1      32.904  24.930  21.453  1.00  0.00     0.271 C 
ATOM     84  H   UNL A   1      31.728  26.550  21.462  1.00  0.00     0.164 HD
ATOM     85  O   UNL A   1      33.166  25.077  20.260  1.00  0.00    -0.267 OA
BRANCH  83  86
ATOM     86  C   UNL A   1      33.410  23.815  22.248  1.00  0.00     0.147 A 
ATOM     87  C   UNL A   1      32.725  22.669  22.614  1.00  0.00     0.127 A 
ATOM     88  N   UNL A   1      34.697  23.776  22.755  1.00  0.00    -0.223 NA
ATOM     89  N   UNL A   1      33.541  22.016  23.497  1.00  0.00    -0.306 N 
ATOM     90  C   UNL A   1      34.751  22.696  23.504  1.00  0.00     0.137 A 
ATOM     91  C   UNL A   1      33.267  20.916  24.304  1.00  0.00     0.093 A 
ATOM     92  C   UNL A   1      35.783  22.170  24.331  1.00  0.00     0.048 A 
ATOM     93  C   UNL A   1      34.223  20.459  25.129  1.00  0.00     0.018 A 
ATOM     94  C   UNL A   1      35.529  21.105  25.117  1.00  0.00     0.005 A 
ENDBRANCH  83  86
ENDBRANCH  81  82
ENDBRANCH  74  77
ENDBRANCH  72  73
ENDBRANCH   1  72
TORSDOF 12
ENDMDL
MODEL 3
REMARK VINA RESULT:     -13.1      5.280     11.088
REMARK SMILES O=C(NCCCNC(=O)[C@H]1C=C[C@@H](NC(=O)c2cn3ccccc3n2)C1)c1ccc(-c2c3nc(c(-c4c(F)c(F)c(F)c(F)c4F)c4ccc([nH]4)c(-c4c(F)c(F)c(F)c(F)c4F)c4nc(c(-c5c(F)c(F)c(F)c(F)c5F)c5ccc2[nH]5)C=C4)C=C3)cc1
REMARK SMILES IDX 5 1 4 2 3 3 1 4 2 5 27 7 28 8 89 9 29 10 88 11 30 12 31 13
REMARK SMILES IDX 32 14 82 15 33 16 87 17 81 18 83 19 34 20 86 21 80 22 79 23
REMARK SMILES IDX 35 25 67 26 47 27 66 28 48 29 51 30 65 31 84 32 49 33 50 34
REMARK SMILES IDX 64 36 85 37 52 38 36 39 37 40 45 41 38 42 39 43 43 44 46 45
REMARK SMILES IDX 40 46 41 47 44 48 42 49 68 50 69 51 77 52 70 53 71 54 75 55
REMARK SMILES IDX 78 56 72 57 73 58 76 59 74 60 53 61 54 62 62 63 55 64 56 65
REMARK SMILES IDX 60 66 63 67 57 68 58 69 61 70 59 71 6 72 7 73 8 74 9 76
REMARK SMILES IDX 10 77 11 78 26 79 12 80 13 81 14 82 15 83 16 85 17 86 18 87
REMARK SMILES IDX 25 88 19 89 24 90 20 91 23 92 21 93 22 94
REMARK H PARENT 3 6 83 24 51 35 7 75 14 84
REMARK Flexibility Score: inf
ROOT
ATOM      1  C   UNL A   1      38.128  19.476  25.002  1.00  0.00     0.042 C 
ENDROOT
BRANCH   1   2
ATOM      2  C   UNL A   1      39.187  19.896  26.011  1.00  0.00     0.118 C 
BRANCH   2   3
ATOM      3  N   UNL A   1      40.399  19.088  25.932  1.00  0.00    -0.352 N 
ATOM      4  O   UNL A   1      42.582  18.601  25.702  1.00  0.00    -0.269 OA
ATOM      5  C   UNL A   1      41.727  19.435  25.985  1.00  0.00     0.251 C 
ATOM      6  H   UNL A   1      40.236  18.122  25.821  1.00  0.00     0.163 HD
BRANCH   5   7
ATOM      7  C   UNL A   1      42.140  20.804  26.365  1.00  0.00     0.039 A 
ATOM      8  C   UNL A   1      42.251  21.810  25.408  1.00  0.00     0.014 A 
ATOM      9  C   UNL A   1      42.370  21.105  27.713  1.00  0.00     0.014 A 
ATOM     10  C   UNL A   1      42.769  23.049  25.760  1.00  0.00     0.010 A 
ATOM     11  C   UNL A   1      42.772  22.393  28.086  1.00  0.00     0.010 A 
ATOM     12  C   UNL A   1      43.009  23.368  27.106  1.00  0.00    -0.014 A 
BRANCH  12  13
ATOM     13  C   UNL A   1      43.439  24.750  27.442  1.00  0.00     0.031 A 
ATOM     14  C   UNL A   1      44.824  25.240  27.124  1.00  0.00     0.074 A 
ATOM     15  C   UNL A   1      42.531  25.589  27.980  1.00  0.00     0.049 A 
ATOM     16  N   UNL A   1      45.334  26.435  27.300  1.00  0.00    -0.248 NA
ATOM     17  C   UNL A   1      45.763  24.270  26.543  1.00  0.00     0.031 C 
ATOM     18  C   UNL A   1      41.162  25.219  28.351  1.00  0.00     0.029 A 
ATOM     19  N   UNL A   1      42.601  26.926  28.275  1.00  0.00    -0.354 N 
ATOM     20  C   UNL A   1      46.651  26.355  26.867  1.00  0.00     0.074 A 
ATOM     21  C   UNL A   1      46.873  24.989  26.446  1.00  0.00     0.031 C 
ATOM     22  C   UNL A   1      40.502  26.313  28.754  1.00  0.00     0.029 A 
ATOM     23  C   UNL A   1      41.418  27.447  28.740  1.00  0.00     0.049 A 
ATOM     24  H   UNL A   1      43.421  27.462  28.165  1.00  0.00     0.167 HD
ATOM     25  C   UNL A   1      47.583  27.338  26.817  1.00  0.00     0.037 A 
ATOM     26  C   UNL A   1      41.104  28.698  29.124  1.00  0.00     0.037 A 
ATOM     27  C   UNL A   1      47.351  28.700  27.225  1.00  0.00     0.049 A 
ATOM     28  C   UNL A   1      42.158  29.763  29.055  1.00  0.00     0.074 A 
ATOM     29  C   UNL A   1      48.232  29.769  27.213  1.00  0.00     0.029 A 
ATOM     30  N   UNL A   1      46.146  29.185  27.713  1.00  0.00    -0.354 N 
ATOM     31  N   UNL A   1      43.397  29.673  28.637  1.00  0.00    -0.248 NA
ATOM     32  C   UNL A   1      41.774  31.103  29.519  1.00  0.00     0.031 C 
ATOM     33  C   UNL A   1      47.570  30.891  27.723  1.00  0.00     0.029 A 
ATOM     34  C   UNL A   1      46.264  30.533  28.014  1.00  0.00     0.049 A 
ATOM     35  H   UNL A   1      45.328  28.650  27.829  1.00  0.00     0.167 HD
ATOM     36  C   UNL A   1      43.940  30.940  28.782  1.00  0.00     0.074 A 
ATOM     37  C   UNL A   1      42.884  31.790  29.295  1.00  0.00     0.031 C 
ATOM     38  C   UNL A   1      45.201  31.360  28.525  1.00  0.00     0.037 A 
BRANCH  25  39
ATOM     39  C   UNL A   1      48.949  26.976  26.309  1.00  0.00     0.064 A 
ATOM     40  C   UNL A   1      49.934  26.457  27.162  1.00  0.00     0.173 A 
ATOM     41  C   UNL A   1      49.257  27.096  24.946  1.00  0.00     0.173 A 
ATOM     42  F   UNL A   1      49.692  26.331  28.475  1.00  0.00    -0.203 F 
ATOM     43  C   UNL A   1      51.184  26.087  26.671  1.00  0.00     0.198 A 
ATOM     44  C   UNL A   1      50.500  26.703  24.454  1.00  0.00     0.198 A 
ATOM     45  F   UNL A   1      48.349  27.580  24.086  1.00  0.00    -0.203 F 
ATOM     46  F   UNL A   1      52.122  25.623  27.509  1.00  0.00    -0.200 F 
ATOM     47  C   UNL A   1      51.464  26.204  25.318  1.00  0.00     0.200 A 
ATOM     48  F   UNL A   1      50.763  26.802  23.144  1.00  0.00    -0.200 F 
ATOM     49  F   UNL A   1      52.663  25.835  24.844  1.00  0.00    -0.200 F 
ENDBRANCH  25  39
BRANCH  26  50
ATOM     50  C   UNL A   1      39.734  28.997  29.616  1.00  0.00     0.064 A 
ATOM     51  C   UNL A   1      38.740  29.473  28.752  1.00  0.00     0.173 A 
ATOM     52  C   UNL A   1      39.390  28.802  30.963  1.00  0.00     0.173 A 
ATOM     53  F   UNL A   1      39.026  29.694  27.460  1.00  0.00    -0.203 F 
ATOM     54  C   UNL A   1      37.458  29.755  29.217  1.00  0.00     0.198 A 
ATOM     55  C   UNL A   1      38.099  29.054  31.420  1.00  0.00     0.198 A 
ATOM     56  F   UNL A   1      40.304  28.342  31.830  1.00  0.00    -0.203 F 
ATOM     57  F   UNL A   1      36.537  30.249  28.378  1.00  0.00    -0.200 F 
ATOM     58  C   UNL A   1      37.136  29.539  30.549  1.00  0.00     0.200 A 
ATOM     59  F   UNL A   1      37.789  28.824  32.703  1.00  0.00    -0.200 F 
ATOM     60  F   UNL A   1      35.900  29.803  30.994  1.00  0.00    -0.200 F 
ENDBRANCH  26  50
BRANCH  38  61
ATOM     61  C   UNL A   1      45.497  32.807  28.783  1.00  0.00     0.064 A 
ATOM     62  C   UNL A   1      45.266  33.786  27.806  1.00  0.00     0.173 A 
ATOM     63  C   UNL A   1      46.008  33.218  30.022  1.00  0.00     0.173 A 
ATOM     64  F   UNL A   1      44.796  33.437  26.599  1.00  0.00    -0.203 F 
ATOM     65  C   UNL A   1      45.565  35.123  28.050  1.00  0.00     0.198 A 
ATOM     66  C   UNL A   1      46.282  34.560  30.272  1.00  0.00     0.198 A 
ATOM     67  F   UNL A   1      46.243  32.320  30.990  1.00  0.00    -0.203 F 
ATOM     68  F   UNL A   1      45.386  36.034  27.084  1.00  0.00    -0.200 F 
ATOM     69  C   UNL A   1      46.068  35.510  29.283  1.00  0.00     0.200 A 
ATOM     70  F   UNL A   1      46.759  34.934  31.467  1.00  0.00    -0.200 F 
ATOM     71  F   UNL A   1      46.358  36.797  29.516  1.00  0.00    -0.200 F 
ENDBRANCH  38  61
ENDBRANCH  12  13
ENDBRANCH   5   7
ENDBRANCH   2   3
ENDBRANCH   1   2
BRANCH   1  72
ATOM     72  C   UNL A   1      36.955  20.440  24.916  1.00  0.00     0.117 C 
BRANCH  72  73
ATOM     73  N   UNL A   1      35.673  19.768  25.001  1.00  0.00    -0.356 N 
ATOM     74  C   UNL A   1      34.400  20.148  24.746  1.00  0.00     0.227 C 
ATOM     75  H   UNL A   1      35.744  18.836  25.310  1.00  0.00     0.163 HD
ATOM     76  O   UNL A   1      33.529  19.308  25.015  1.00  0.00    -0.274 OA
BRANCH  74  77
ATOM     77  C   UNL A   1      33.972  21.527  24.249  1.00  0.00     0.103 C 
ATOM     78  C   UNL A   1      32.784  21.427  23.342  1.00  0.00    -0.016 C 
ATOM     79  C   UNL A   1      33.618  22.648  25.232  1.00  0.00     0.047 C 
ATOM     80  C   UNL A   1      31.848  22.327  23.647  1.00  0.00    -0.006 C 
ATOM     81  C   UNL A   1      32.224  23.164  24.821  1.00  0.00     0.106 C 
BRANCH  81  82
ATOM     82  N   UNL A   1      31.189  22.964  25.811  1.00  0.00    -0.344 N 
ATOM     83  C   UNL A   1      30.420  23.887  26.479  1.00  0.00     0.271 C 
ATOM     84  H   UNL A   1      31.007  22.024  26.040  1.00  0.00     0.164 HD
ATOM     85  O   UNL A   1      29.673  23.484  27.369  1.00  0.00    -0.267 OA
BRANCH  83  86
ATOM     86  C   UNL A   1      30.536  25.296  26.114  1.00  0.00     0.147 A 
ATOM     87  C   UNL A   1      30.002  25.918  24.998  1.00  0.00     0.127 A 
ATOM     88  N   UNL A   1      31.233  26.216  26.877  1.00  0.00    -0.223 NA
ATOM     89  N   UNL A   1      30.527  27.181  24.992  1.00  0.00    -0.306 N 
ATOM     90  C   UNL A   1      31.221  27.334  26.185  1.00  0.00     0.137 A 
ATOM     91  C   UNL A   1      30.467  28.157  24.001  1.00  0.00     0.093 A 
ATOM     92  C   UNL A   1      31.828  28.599  26.421  1.00  0.00     0.048 A 
ATOM     93  C   UNL A   1      31.094  29.328  24.201  1.00  0.00     0.018 A 
ATOM     94  C   UNL A   1      31.776  29.552  25.469  1.00  0.00     0.005 A 
ENDBRANCH  83  86
ENDBRANCH  81  82
ENDBRANCH  74  77
ENDBRANCH  72  73
ENDBRANCH   1  72
TORSDOF 12
ENDMDL
