MODEL 1
REMARK VINA RESULT:     -14.2      0.000      0.000
REMARK SMILES O=C(NCCCNC(=O)c1cc2c(Cl)c(C(F)(F)F)cnc2n1S(=O)(=O)c1ccccc1)c1ccc(-c2c3nc(c(-c4c(F)c(F)c(F)c(F)c4F)c4ccc([nH]4)c(-c4c(F)c(F)c(F)c(F)c4F)c4nc(c(-c5c(F)c(F)c(F)c(F)c5F)c5ccc2[nH]5)C=C4)C=C3)cc1
REMARK SMILES IDX 5 1 4 2 3 3 1 4 2 5 33 7 34 8 95 9 35 10 94 11 36 12 37 13
REMARK SMILES IDX 38 14 88 15 39 16 93 17 87 18 89 19 40 20 92 21 86 22 85 23
REMARK SMILES IDX 41 25 73 26 53 27 72 28 54 29 57 30 71 31 90 32 55 33 56 34
REMARK SMILES IDX 70 36 91 37 58 38 42 39 43 40 51 41 44 42 45 43 49 44 52 45
REMARK SMILES IDX 46 46 47 47 50 48 48 49 74 50 75 51 83 52 76 53 77 54 81 55
REMARK SMILES IDX 84 56 78 57 79 58 82 59 80 60 59 61 60 62 68 63 61 64 62 65
REMARK SMILES IDX 66 66 69 67 63 68 64 69 67 70 65 71 6 72 7 73 8 74 9 76
REMARK SMILES IDX 10 77 11 78 23 79 12 80 22 81 13 82 21 83 14 84 15 85 20 86
REMARK SMILES IDX 24 87 25 88 26 89 27 90 28 91 32 92 29 93 31 94 30 95 16 96
REMARK SMILES IDX 17 97 18 98 19 99
REMARK H PARENT 3 6 89 24 57 35 7 75
REMARK Flexibility Score: inf
ROOT
ATOM      1  C   UNL A   1      38.911  23.568  26.748  1.00  0.00     0.042 C 
ENDROOT
BRANCH   1   2
ATOM      2  C   UNL A   1      39.578  22.209  26.542  1.00  0.00     0.118 C 
BRANCH   2   3
ATOM      3  N   UNL A   1      40.786  22.173  25.737  1.00  0.00    -0.352 N 
ATOM      4  O   UNL A   1      42.894  22.402  25.072  1.00  0.00    -0.269 OA
ATOM      5  C   UNL A   1      41.970  22.863  25.744  1.00  0.00     0.251 C 
ATOM      6  H   UNL A   1      40.745  21.498  25.022  1.00  0.00     0.163 HD
BRANCH   5   7
ATOM      7  C   UNL A   1      42.166  24.172  26.413  1.00  0.00     0.039 A 
ATOM      8  C   UNL A   1      42.723  24.345  27.678  1.00  0.00     0.014 A 
ATOM      9  C   UNL A   1      41.679  25.299  25.726  1.00  0.00     0.014 A 
ATOM     10  C   UNL A   1      42.620  25.570  28.325  1.00  0.00     0.010 A 
ATOM     11  C   UNL A   1      41.623  26.540  26.348  1.00  0.00     0.010 A 
ATOM     12  C   UNL A   1      42.024  26.652  27.677  1.00  0.00    -0.014 A 
BRANCH  12  13
ATOM     13  C   UNL A   1      41.863  27.894  28.430  1.00  0.00     0.031 A 
ATOM     14  C   UNL A   1      42.896  28.953  28.219  1.00  0.00     0.074 A 
ATOM     15  C   UNL A   1      40.767  28.138  29.174  1.00  0.00     0.049 A 
ATOM     16  N   UNL A   1      43.579  29.622  29.096  1.00  0.00    -0.248 NA
ATOM     17  C   UNL A   1      43.226  29.287  26.824  1.00  0.00     0.031 C 
ATOM     18  C   UNL A   1      39.528  27.358  29.248  1.00  0.00     0.029 A 
ATOM     19  N   UNL A   1      40.492  29.231  29.940  1.00  0.00    -0.354 N 
ATOM     20  C   UNL A   1      44.343  30.540  28.376  1.00  0.00     0.074 A 
ATOM     21  C   UNL A   1      44.138  30.246  26.979  1.00  0.00     0.031 C 
ATOM     22  C   UNL A   1      38.564  28.116  29.815  1.00  0.00     0.029 A 
ATOM     23  C   UNL A   1      39.151  29.372  30.251  1.00  0.00     0.049 A 
ATOM     24  H   UNL A   1      41.183  29.863  30.243  1.00  0.00     0.167 HD
ATOM     25  C   UNL A   1      45.015  31.580  28.945  1.00  0.00     0.037 A 
ATOM     26  C   UNL A   1      38.556  30.491  30.727  1.00  0.00     0.037 A 
ATOM     27  C   UNL A   1      45.206  31.422  30.355  1.00  0.00     0.049 A 
ATOM     28  C   UNL A   1      39.611  31.367  31.293  1.00  0.00     0.074 A 
ATOM     29  C   UNL A   1      45.919  30.541  31.142  1.00  0.00     0.029 A 
ATOM     30  N   UNL A   1      44.375  32.090  31.217  1.00  0.00    -0.354 N 
ATOM     31  N   UNL A   1      40.296  31.101  32.370  1.00  0.00    -0.248 NA
ATOM     32  C   UNL A   1      40.186  32.381  30.421  1.00  0.00     0.031 C 
ATOM     33  C   UNL A   1      45.136  30.379  32.322  1.00  0.00     0.029 A 
ATOM     34  C   UNL A   1      44.004  31.180  32.175  1.00  0.00     0.049 A 
ATOM     35  H   UNL A   1      44.100  33.033  31.160  1.00  0.00     0.167 HD
ATOM     36  C   UNL A   1      41.562  31.612  32.122  1.00  0.00     0.074 A 
ATOM     37  C   UNL A   1      41.407  32.471  30.953  1.00  0.00     0.031 C 
ATOM     38  C   UNL A   1      42.671  31.084  32.717  1.00  0.00     0.037 A 
BRANCH  25  39
ATOM     39  C   UNL A   1      45.319  32.861  28.229  1.00  0.00     0.064 A 
ATOM     40  C   UNL A   1      44.309  33.805  27.972  1.00  0.00     0.173 A 
ATOM     41  C   UNL A   1      46.550  33.075  27.573  1.00  0.00     0.173 A 
ATOM     42  F   UNL A   1      43.089  33.662  28.510  1.00  0.00    -0.203 F 
ATOM     43  C   UNL A   1      44.518  34.884  27.107  1.00  0.00     0.198 A 
ATOM     44  C   UNL A   1      46.770  34.176  26.750  1.00  0.00     0.198 A 
ATOM     45  F   UNL A   1      47.539  32.171  27.643  1.00  0.00    -0.203 F 
ATOM     46  F   UNL A   1      43.508  35.718  26.824  1.00  0.00    -0.200 F 
ATOM     47  C   UNL A   1      45.750  35.071  26.501  1.00  0.00     0.200 A 
ATOM     48  F   UNL A   1      47.961  34.327  26.152  1.00  0.00    -0.200 F 
ATOM     49  F   UNL A   1      45.941  36.085  25.647  1.00  0.00    -0.200 F 
ENDBRANCH  25  39
BRANCH  26  50
ATOM     50  C   UNL A   1      37.207  30.992  30.376  1.00  0.00     0.064 A 
ATOM     51  C   UNL A   1      36.324  31.446  31.367  1.00  0.00     0.173 A 
ATOM     52  C   UNL A   1      36.854  31.277  29.042  1.00  0.00     0.173 A 
ATOM     53  F   UNL A   1      36.614  31.262  32.663  1.00  0.00    -0.203 F 
ATOM     54  C   UNL A   1      35.162  32.154  31.040  1.00  0.00     0.198 A 
ATOM     55  C   UNL A   1      35.690  31.970  28.717  1.00  0.00     0.198 A 
ATOM     56  F   UNL A   1      37.680  30.972  28.030  1.00  0.00    -0.203 F 
ATOM     57  F   UNL A   1      34.371  32.626  32.015  1.00  0.00    -0.200 F 
ATOM     58  C   UNL A   1      34.850  32.420  29.717  1.00  0.00     0.200 A 
ATOM     59  F   UNL A   1      35.421  32.252  27.434  1.00  0.00    -0.200 F 
ATOM     60  F   UNL A   1      33.766  33.143  29.407  1.00  0.00    -0.200 F 
ENDBRANCH  26  50
BRANCH  38  61
ATOM     61  C   UNL A   1      42.462  30.091  33.824  1.00  0.00     0.064 A 
ATOM     62  C   UNL A   1      42.240  28.722  33.594  1.00  0.00     0.173 A 
ATOM     63  C   UNL A   1      42.654  30.500  35.150  1.00  0.00     0.173 A 
ATOM     64  F   UNL A   1      42.162  28.238  32.348  1.00  0.00    -0.203 F 
ATOM     65  C   UNL A   1      42.164  27.813  34.648  1.00  0.00     0.198 A 
ATOM     66  C   UNL A   1      42.613  29.584  36.198  1.00  0.00     0.198 A 
ATOM     67  F   UNL A   1      42.937  31.782  35.423  1.00  0.00    -0.203 F 
ATOM     68  F   UNL A   1      41.946  26.514  34.400  1.00  0.00    -0.200 F 
ATOM     69  C   UNL A   1      42.359  28.244  35.948  1.00  0.00     0.200 A 
ATOM     70  F   UNL A   1      42.856  29.994  37.452  1.00  0.00    -0.200 F 
ATOM     71  F   UNL A   1      42.333  27.363  36.959  1.00  0.00    -0.200 F 
ENDBRANCH  38  61
ENDBRANCH  12  13
ENDBRANCH   5   7
ENDBRANCH   2   3
ENDBRANCH   1   2
BRANCH   1  72
ATOM     72  C   UNL A   1      37.624  23.799  25.974  1.00  0.00     0.118 C 
BRANCH  72  73
ATOM     73  N   UNL A   1      37.587  23.233  24.645  1.00  0.00    -0.351 N 
ATOM     74  C   UNL A   1      36.550  23.092  23.764  1.00  0.00     0.269 C 
ATOM     75  H   UNL A   1      38.452  22.891  24.321  1.00  0.00     0.163 HD
ATOM     76  O   UNL A   1      36.820  22.631  22.657  1.00  0.00    -0.268 OA
BRANCH  74  77
ATOM     77  C   UNL A   1      35.183  23.324  24.162  1.00  0.00     0.124 A 
ATOM     78  C   UNL A   1      34.493  24.510  23.926  1.00  0.00     0.047 A 
ATOM     79  N   UNL A   1      34.373  22.572  25.000  1.00  0.00    -0.211 N 
ATOM     80  C   UNL A   1      33.255  24.470  24.618  1.00  0.00     0.040 A 
ATOM     81  C   UNL A   1      33.207  23.244  25.279  1.00  0.00     0.156 A 
ATOM     82  C   UNL A   1      32.157  25.332  24.804  1.00  0.00     0.065 A 
ATOM     83  N   UNL A   1      32.199  22.834  26.070  1.00  0.00    -0.237 NA
ATOM     84  Cl  UNL A   1      32.259  26.833  23.990  1.00  0.00    -0.083 Cl
ATOM     85  C   UNL A   1      31.091  24.954  25.609  1.00  0.00     0.093 A 
ATOM     86  C   UNL A   1      31.177  23.708  26.204  1.00  0.00     0.128 A 
BRANCH  79  87
ATOM     87  S   UNL A   1      34.751  21.012  25.544  1.00  0.00     0.270 S 
ATOM     88  O   UNL A   1      36.156  20.833  25.184  1.00  0.00    -0.201 OA
ATOM     89  O   UNL A   1      34.321  20.983  26.916  1.00  0.00    -0.201 OA
BRANCH  87  90
ATOM     90  C   UNL A   1      33.904  19.750  24.637  1.00  0.00     0.088 A 
ATOM     91  C   UNL A   1      34.458  18.473  24.529  1.00  0.00     0.022 A 
ATOM     92  C   UNL A   1      32.800  20.114  23.850  1.00  0.00     0.022 A 
ATOM     93  C   UNL A   1      33.878  17.551  23.654  1.00  0.00     0.001 A 
ATOM     94  C   UNL A   1      32.217  19.185  22.995  1.00  0.00     0.001 A 
ATOM     95  C   UNL A   1      32.758  17.905  22.895  1.00  0.00     0.000 A 
ENDBRANCH  87  90
ENDBRANCH  79  87
BRANCH  85  96
ATOM     96  C   UNL A   1      29.905  25.826  25.847  1.00  0.00     0.419 C 
ATOM     97  F   UNL A   1      30.211  26.970  26.516  1.00  0.00    -0.166 F 
ATOM     98  F   UNL A   1      29.281  26.204  24.699  1.00  0.00    -0.166 F 
ATOM     99  F   UNL A   1      28.941  25.217  26.597  1.00  0.00    -0.166 F 
ENDBRANCH  85  96
ENDBRANCH  74  77
ENDBRANCH  72  73
ENDBRANCH   1  72
TORSDOF 13
ENDMDL
MODEL 2
REMARK VINA RESULT:     -14.0      3.950      8.882
REMARK SMILES O=C(NCCCNC(=O)c1cc2c(Cl)c(C(F)(F)F)cnc2n1S(=O)(=O)c1ccccc1)c1ccc(-c2c3nc(c(-c4c(F)c(F)c(F)c(F)c4F)c4ccc([nH]4)c(-c4c(F)c(F)c(F)c(F)c4F)c4nc(c(-c5c(F)c(F)c(F)c(F)c5F)c5ccc2[nH]5)C=C4)C=C3)cc1
REMARK SMILES IDX 5 1 4 2 3 3 1 4 2 5 33 7 34 8 95 9 35 10 94 11 36 12 37 13
REMARK SMILES IDX 38 14 88 15 39 16 93 17 87 18 89 19 40 20 92 21 86 22 85 23
REMARK SMILES IDX 41 25 73 26 53 27 72 28 54 29 57 30 71 31 90 32 55 33 56 34
REMARK SMILES IDX 70 36 91 37 58 38 42 39 43 40 51 41 44 42 45 43 49 44 52 45
REMARK SMILES IDX 46 46 47 47 50 48 48 49 74 50 75 51 83 52 76 53 77 54 81 55
REMARK SMILES IDX 84 56 78 57 79 58 82 59 80 60 59 61 60 62 68 63 61 64 62 65
REMARK SMILES IDX 66 66 69 67 63 68 64 69 67 70 65 71 6 72 7 73 8 74 9 76
REMARK SMILES IDX 10 77 11 78 23 79 12 80 22 81 13 82 21 83 14 84 15 85 20 86
REMARK SMILES IDX 24 87 25 88 26 89 27 90 28 91 32 92 29 93 31 94 30 95 16 96
REMARK SMILES IDX 17 97 18 98 19 99
REMARK H PARENT 3 6 89 24 57 35 7 75
REMARK Flexibility Score: inf
ROOT
ATOM      1  C   UNL A   1      35.350  30.033  27.660  1.00  0.00     0.042 C 
ENDROOT
BRANCH   1   2
ATOM      2  C   UNL A   1      34.730  31.415  27.865  1.00  0.00     0.118 C 
BRANCH   2   3
ATOM      3  N   UNL A   1      34.418  31.812  29.226  1.00  0.00    -0.352 N 
ATOM      4  O   UNL A   1      34.608  32.569  31.307  1.00  0.00    -0.269 OA
ATOM      5  C   UNL A   1      35.147  31.966  30.376  1.00  0.00     0.251 C 
ATOM      6  H   UNL A   1      33.464  32.017  29.352  1.00  0.00     0.163 HD
BRANCH   5   7
ATOM      7  C   UNL A   1      36.482  31.362  30.602  1.00  0.00     0.039 A 
ATOM      8  C   UNL A   1      37.694  32.034  30.463  1.00  0.00     0.014 A 
ATOM      9  C   UNL A   1      36.498  29.989  30.911  1.00  0.00     0.014 A 
ATOM     10  C   UNL A   1      38.888  31.322  30.433  1.00  0.00     0.010 A 
ATOM     11  C   UNL A   1      37.693  29.282  30.937  1.00  0.00     0.010 A 
ATOM     12  C   UNL A   1      38.879  29.940  30.620  1.00  0.00    -0.014 A 
BRANCH  12  13
ATOM     13  C   UNL A   1      40.148  29.227  30.496  1.00  0.00     0.031 A 
ATOM     14  C   UNL A   1      40.917  28.989  31.756  1.00  0.00     0.074 A 
ATOM     15  C   UNL A   1      40.549  28.684  29.331  1.00  0.00     0.049 A 
ATOM     16  N   UNL A   1      42.166  29.228  32.015  1.00  0.00    -0.248 NA
ATOM     17  C   UNL A   1      40.169  28.425  32.892  1.00  0.00     0.031 C 
ATOM     18  C   UNL A   1      39.789  28.550  28.084  1.00  0.00     0.029 A 
ATOM     19  N   UNL A   1      41.705  28.017  29.063  1.00  0.00    -0.354 N 
ATOM     20  C   UNL A   1      42.395  28.748  33.304  1.00  0.00     0.074 A 
ATOM     21  C   UNL A   1      41.118  28.324  33.822  1.00  0.00     0.031 C 
ATOM     22  C   UNL A   1      40.405  27.647  27.288  1.00  0.00     0.029 A 
ATOM     23  C   UNL A   1      41.653  27.245  27.915  1.00  0.00     0.049 A 
ATOM     24  H   UNL A   1      42.505  28.076  29.634  1.00  0.00     0.167 HD
ATOM     25  C   UNL A   1      43.635  28.600  33.849  1.00  0.00     0.037 A 
ATOM     26  C   UNL A   1      42.521  26.265  27.573  1.00  0.00     0.037 A 
ATOM     27  C   UNL A   1      44.644  29.345  33.160  1.00  0.00     0.049 A 
ATOM     28  C   UNL A   1      43.766  26.458  28.357  1.00  0.00     0.074 A 
ATOM     29  C   UNL A   1      44.896  30.690  32.973  1.00  0.00     0.029 A 
ATOM     30  N   UNL A   1      45.463  28.696  32.274  1.00  0.00    -0.354 N 
ATOM     31  N   UNL A   1      44.598  27.449  28.194  1.00  0.00    -0.248 NA
ATOM     32  C   UNL A   1      43.888  25.740  29.618  1.00  0.00     0.031 C 
ATOM     33  C   UNL A   1      45.462  30.784  31.668  1.00  0.00     0.029 A 
ATOM     34  C   UNL A   1      45.525  29.489  31.155  1.00  0.00     0.049 A 
ATOM     35  H   UNL A   1      45.915  27.832  32.411  1.00  0.00     0.167 HD
ATOM     36  C   UNL A   1      45.072  27.729  29.468  1.00  0.00     0.074 A 
ATOM     37  C   UNL A   1      44.676  26.586  30.284  1.00  0.00     0.031 C 
ATOM     38  C   UNL A   1      45.502  28.978  29.806  1.00  0.00     0.037 A 
BRANCH  25  39
ATOM     39  C   UNL A   1      43.961  27.588  34.906  1.00  0.00     0.064 A 
ATOM     40  C   UNL A   1      43.814  26.211  34.661  1.00  0.00     0.173 A 
ATOM     41  C   UNL A   1      44.187  27.959  36.248  1.00  0.00     0.173 A 
ATOM     42  F   UNL A   1      43.547  25.763  33.426  1.00  0.00    -0.203 F 
ATOM     43  C   UNL A   1      43.882  25.272  35.695  1.00  0.00     0.198 A 
ATOM     44  C   UNL A   1      44.301  27.018  37.269  1.00  0.00     0.198 A 
ATOM     45  F   UNL A   1      44.213  29.248  36.616  1.00  0.00    -0.203 F 
ATOM     46  F   UNL A   1      43.659  23.977  35.436  1.00  0.00    -0.200 F 
ATOM     47  C   UNL A   1      44.131  25.676  36.996  1.00  0.00     0.200 A 
ATOM     48  F   UNL A   1      44.517  27.430  38.526  1.00  0.00    -0.200 F 
ATOM     49  F   UNL A   1      44.163  24.781  37.992  1.00  0.00    -0.200 F 
ENDBRANCH  25  39
BRANCH  26  50
ATOM     50  C   UNL A   1      42.190  24.984  26.906  1.00  0.00     0.064 A 
ATOM     51  C   UNL A   1      42.946  24.516  25.822  1.00  0.00     0.173 A 
ATOM     52  C   UNL A   1      41.286  24.069  27.483  1.00  0.00     0.173 A 
ATOM     53  F   UNL A   1      43.867  25.307  25.251  1.00  0.00    -0.203 F 
ATOM     54  C   UNL A   1      42.814  23.205  25.350  1.00  0.00     0.198 A 
ATOM     55  C   UNL A   1      41.144  22.768  27.004  1.00  0.00     0.198 A 
ATOM     56  F   UNL A   1      40.589  24.388  28.584  1.00  0.00    -0.203 F 
ATOM     57  F   UNL A   1      43.596  22.772  24.351  1.00  0.00    -0.200 F 
ATOM     58  C   UNL A   1      41.918  22.332  25.945  1.00  0.00     0.200 A 
ATOM     59  F   UNL A   1      40.300  21.924  27.613  1.00  0.00    -0.200 F 
ATOM     60  F   UNL A   1      41.829  21.062  25.528  1.00  0.00    -0.200 F 
ENDBRANCH  26  50
BRANCH  38  61
ATOM     61  C   UNL A   1      45.670  29.981  28.702  1.00  0.00     0.064 A 
ATOM     62  C   UNL A   1      44.613  30.772  28.217  1.00  0.00     0.173 A 
ATOM     63  C   UNL A   1      46.958  30.270  28.235  1.00  0.00     0.173 A 
ATOM     64  F   UNL A   1      43.372  30.632  28.702  1.00  0.00    -0.203 F 
ATOM     65  C   UNL A   1      44.831  31.771  27.271  1.00  0.00     0.198 A 
ATOM     66  C   UNL A   1      47.178  31.294  27.316  1.00  0.00     0.198 A 
ATOM     67  F   UNL A   1      48.014  29.595  28.713  1.00  0.00    -0.203 F 
ATOM     68  F   UNL A   1      43.803  32.507  26.821  1.00  0.00    -0.200 F 
ATOM     69  C   UNL A   1      46.114  32.036  26.828  1.00  0.00     0.200 A 
ATOM     70  F   UNL A   1      48.429  31.586  26.929  1.00  0.00    -0.200 F 
ATOM     71  F   UNL A   1      46.331  33.030  25.953  1.00  0.00    -0.200 F 
ENDBRANCH  38  61
ENDBRANCH  12  13
ENDBRANCH   5   7
ENDBRANCH   2   3
ENDBRANCH   1   2
BRANCH   1  72
ATOM     72  C   UNL A   1      34.424  28.967  27.100  1.00  0.00     0.118 C 
BRANCH  72  73
ATOM     73  N   UNL A   1      33.096  28.936  27.668  1.00  0.00    -0.351 N 
ATOM     74  C   UNL A   1      32.027  28.129  27.391  1.00  0.00     0.269 C 
ATOM     75  H   UNL A   1      32.934  29.607  28.370  1.00  0.00     0.163 HD
ATOM     76  O   UNL A   1      31.023  28.278  28.086  1.00  0.00    -0.268 OA
BRANCH  74  77
ATOM     77  C   UNL A   1      32.015  27.255  26.244  1.00  0.00     0.124 A 
ATOM     78  C   UNL A   1      32.263  25.886  26.303  1.00  0.00     0.047 A 
ATOM     79  N   UNL A   1      31.981  27.578  24.895  1.00  0.00    -0.211 N 
ATOM     80  C   UNL A   1      32.370  25.378  24.983  1.00  0.00     0.040 A 
ATOM     81  C   UNL A   1      32.186  26.459  24.123  1.00  0.00     0.156 A 
ATOM     82  C   UNL A   1      32.631  24.130  24.384  1.00  0.00     0.065 A 
ATOM     83  N   UNL A   1      32.240  26.394  22.781  1.00  0.00    -0.237 NA
ATOM     84  Cl  UNL A   1      32.866  22.831  25.471  1.00  0.00    -0.083 Cl
ATOM     85  C   UNL A   1      32.693  24.010  23.002  1.00  0.00     0.093 A 
ATOM     86  C   UNL A   1      32.492  25.168  22.271  1.00  0.00     0.128 A 
BRANCH  79  87
ATOM     87  S   UNL A   1      31.662  29.130  24.294  1.00  0.00     0.270 S 
ATOM     88  O   UNL A   1      31.657  29.984  25.480  1.00  0.00    -0.201 OA
ATOM     89  O   UNL A   1      32.618  29.322  23.237  1.00  0.00    -0.201 OA
BRANCH  87  90
ATOM     90  C   UNL A   1      30.026  29.284  23.638  1.00  0.00     0.088 A 
ATOM     91  C   UNL A   1      29.426  30.541  23.537  1.00  0.00     0.022 A 
ATOM     92  C   UNL A   1      29.268  28.119  23.441  1.00  0.00     0.022 A 
ATOM     93  C   UNL A   1      28.073  30.624  23.202  1.00  0.00     0.001 A 
ATOM     94  C   UNL A   1      27.925  28.211  23.090  1.00  0.00     0.001 A 
ATOM     95  C   UNL A   1      27.327  29.464  22.974  1.00  0.00     0.000 A 
ENDBRANCH  87  90
ENDBRANCH  79  87
BRANCH  85  96
ATOM     96  C   UNL A   1      32.972  22.718  22.311  1.00  0.00     0.419 C 
ATOM     97  F   UNL A   1      33.142  22.858  20.969  1.00  0.00    -0.166 F 
ATOM     98  F   UNL A   1      34.085  22.093  22.779  1.00  0.00    -0.166 F 
ATOM     99  F   UNL A   1      31.962  21.812  22.454  1.00  0.00    -0.166 F 
ENDBRANCH  85  96
ENDBRANCH  74  77
ENDBRANCH  72  73
ENDBRANCH   1  72
TORSDOF 13
ENDMDL
MODEL 3
REMARK VINA RESULT:     -13.8      3.875      8.707
REMARK SMILES O=C(NCCCNC(=O)c1cc2c(Cl)c(C(F)(F)F)cnc2n1S(=O)(=O)c1ccccc1)c1ccc(-c2c3nc(c(-c4c(F)c(F)c(F)c(F)c4F)c4ccc([nH]4)c(-c4c(F)c(F)c(F)c(F)c4F)c4nc(c(-c5c(F)c(F)c(F)c(F)c5F)c5ccc2[nH]5)C=C4)C=C3)cc1
REMARK SMILES IDX 5 1 4 2 3 3 1 4 2 5 33 7 34 8 95 9 35 10 94 11 36 12 37 13
REMARK SMILES IDX 38 14 88 15 39 16 93 17 87 18 89 19 40 20 92 21 86 22 85 23
REMARK SMILES IDX 41 25 73 26 53 27 72 28 54 29 57 30 71 31 90 32 55 33 56 34
REMARK SMILES IDX 70 36 91 37 58 38 42 39 43 40 51 41 44 42 45 43 49 44 52 45
REMARK SMILES IDX 46 46 47 47 50 48 48 49 74 50 75 51 83 52 76 53 77 54 81 55
REMARK SMILES IDX 84 56 78 57 79 58 82 59 80 60 59 61 60 62 68 63 61 64 62 65
REMARK SMILES IDX 66 66 69 67 63 68 64 69 67 70 65 71 6 72 7 73 8 74 9 76
REMARK SMILES IDX 10 77 11 78 23 79 12 80 22 81 13 82 21 83 14 84 15 85 20 86
REMARK SMILES IDX 24 87 25 88 26 89 27 90 28 91 32 92 29 93 31 94 30 95 16 96
REMARK SMILES IDX 17 97 18 98 19 99
REMARK H PARENT 3 6 89 24 57 35 7 75
REMARK Flexibility Score: inf
ROOT
ATOM      1  C   UNL A   1      34.843  29.573  27.537  1.00  0.00     0.042 C 
ENDROOT
BRANCH   1   2
ATOM      2  C   UNL A   1      34.578  31.076  27.621  1.00  0.00     0.118 C 
BRANCH   2   3
ATOM      3  N   UNL A   1      34.298  31.633  28.933  1.00  0.00    -0.352 N 
ATOM      4  O   UNL A   1      34.540  32.623  30.907  1.00  0.00    -0.269 OA
ATOM      5  C   UNL A   1      35.052  31.909  30.043  1.00  0.00     0.251 C 
ATOM      6  H   UNL A   1      33.349  31.865  29.051  1.00  0.00     0.163 HD
BRANCH   5   7
ATOM      7  C   UNL A   1      36.384  31.315  30.313  1.00  0.00     0.039 A 
ATOM      8  C   UNL A   1      37.599  31.976  30.149  1.00  0.00     0.014 A 
ATOM      9  C   UNL A   1      36.394  29.961  30.695  1.00  0.00     0.014 A 
ATOM     10  C   UNL A   1      38.791  31.262  30.168  1.00  0.00     0.010 A 
ATOM     11  C   UNL A   1      37.587  29.253  30.770  1.00  0.00     0.010 A 
ATOM     12  C   UNL A   1      38.777  29.892  30.429  1.00  0.00    -0.014 A 
BRANCH  12  13
ATOM     13  C   UNL A   1      40.046  29.171  30.355  1.00  0.00     0.031 A 
ATOM     14  C   UNL A   1      40.773  28.946  31.641  1.00  0.00     0.074 A 
ATOM     15  C   UNL A   1      40.480  28.610  29.210  1.00  0.00     0.049 A 
ATOM     16  N   UNL A   1      42.015  29.183  31.936  1.00  0.00    -0.248 NA
ATOM     17  C   UNL A   1      39.987  28.402  32.760  1.00  0.00     0.031 C 
ATOM     18  C   UNL A   1      39.759  28.463  27.941  1.00  0.00     0.029 A 
ATOM     19  N   UNL A   1      41.641  27.934  28.987  1.00  0.00    -0.354 N 
ATOM     20  C   UNL A   1      42.200  28.719  33.237  1.00  0.00     0.074 A 
ATOM     21  C   UNL A   1      40.906  28.308  33.721  1.00  0.00     0.031 C 
ATOM     22  C   UNL A   1      40.395  27.547  27.178  1.00  0.00     0.029 A 
ATOM     23  C   UNL A   1      41.621  27.147  27.849  1.00  0.00     0.049 A 
ATOM     24  H   UNL A   1      42.423  27.997  29.582  1.00  0.00     0.167 HD
ATOM     25  C   UNL A   1      43.422  28.572  33.823  1.00  0.00     0.037 A 
ATOM     26  C   UNL A   1      42.494  26.158  27.548  1.00  0.00     0.037 A 
ATOM     27  C   UNL A   1      44.457  29.304  33.157  1.00  0.00     0.049 A 
ATOM     28  C   UNL A   1      43.714  26.355  28.367  1.00  0.00     0.074 A 
ATOM     29  C   UNL A   1      44.721  30.644  32.960  1.00  0.00     0.029 A 
ATOM     30  N   UNL A   1      45.299  28.638  32.305  1.00  0.00    -0.354 N 
ATOM     31  N   UNL A   1      44.557  27.340  28.218  1.00  0.00    -0.248 NA
ATOM     32  C   UNL A   1      43.793  25.654  29.641  1.00  0.00     0.031 C 
ATOM     33  C   UNL A   1      45.329  30.718  31.673  1.00  0.00     0.029 A 
ATOM     34  C   UNL A   1      45.401  29.416  31.179  1.00  0.00     0.049 A 
ATOM     35  H   UNL A   1      45.742  27.774  32.468  1.00  0.00     0.167 HD
ATOM     36  C   UNL A   1      44.991  27.635  29.502  1.00  0.00     0.074 A 
ATOM     37  C   UNL A   1      44.564  26.505  30.321  1.00  0.00     0.031 C 
ATOM     38  C   UNL A   1      45.418  28.887  29.837  1.00  0.00     0.037 A 
BRANCH  25  39
ATOM     39  C   UNL A   1      43.709  27.574  34.904  1.00  0.00     0.064 A 
ATOM     40  C   UNL A   1      44.070  27.989  36.198  1.00  0.00     0.173 A 
ATOM     41  C   UNL A   1      43.872  26.200  34.625  1.00  0.00     0.173 A 
ATOM     42  F   UNL A   1      43.997  29.283  36.544  1.00  0.00    -0.203 F 
ATOM     43  C   UNL A   1      44.568  27.088  37.144  1.00  0.00     0.198 A 
ATOM     44  C   UNL A   1      44.324  25.297  35.584  1.00  0.00     0.198 A 
ATOM     45  F   UNL A   1      43.683  25.716  33.388  1.00  0.00    -0.203 F 
ATOM     46  F   UNL A   1      44.975  27.534  38.340  1.00  0.00    -0.200 F 
ATOM     47  C   UNL A   1      44.690  25.742  36.838  1.00  0.00     0.200 A 
ATOM     48  F   UNL A   1      44.459  24.003  35.261  1.00  0.00    -0.200 F 
ATOM     49  F   UNL A   1      45.199  24.885  37.732  1.00  0.00    -0.200 F 
ENDBRANCH  25  39
BRANCH  26  50
ATOM     50  C   UNL A   1      42.177  24.870  26.887  1.00  0.00     0.064 A 
ATOM     51  C   UNL A   1      42.959  24.388  25.828  1.00  0.00     0.173 A 
ATOM     52  C   UNL A   1      41.258  23.963  27.453  1.00  0.00     0.173 A 
ATOM     53  F   UNL A   1      43.894  25.171  25.271  1.00  0.00    -0.203 F 
ATOM     54  C   UNL A   1      42.836  23.072  25.369  1.00  0.00     0.198 A 
ATOM     55  C   UNL A   1      41.126  22.657  26.986  1.00  0.00     0.198 A 
ATOM     56  F   UNL A   1      40.536  24.296  28.533  1.00  0.00    -0.203 F 
ATOM     57  F   UNL A   1      43.641  22.627  24.393  1.00  0.00    -0.200 F 
ATOM     58  C   UNL A   1      41.924  22.207  25.952  1.00  0.00     0.200 A 
ATOM     59  F   UNL A   1      40.266  21.821  27.585  1.00  0.00    -0.200 F 
ATOM     60  F   UNL A   1      41.844  20.932  25.548  1.00  0.00    -0.200 F 
ENDBRANCH  26  50
BRANCH  38  61
ATOM     61  C   UNL A   1      45.625  29.874  28.725  1.00  0.00     0.064 A 
ATOM     62  C   UNL A   1      44.594  30.683  28.216  1.00  0.00     0.173 A 
ATOM     63  C   UNL A   1      46.927  30.128  28.276  1.00  0.00     0.173 A 
ATOM     64  F   UNL A   1      43.344  30.577  28.682  1.00  0.00    -0.203 F 
ATOM     65  C   UNL A   1      44.850  31.667  27.263  1.00  0.00     0.198 A 
ATOM     66  C   UNL A   1      47.185  31.137  27.350  1.00  0.00     0.198 A 
ATOM     67  F   UNL A   1      47.959  29.435  28.777  1.00  0.00    -0.203 F 
ATOM     68  F   UNL A   1      43.846  32.421  26.789  1.00  0.00    -0.200 F 
ATOM     69  C   UNL A   1      46.145  31.898  26.837  1.00  0.00     0.200 A 
ATOM     70  F   UNL A   1      48.447  31.396  26.979  1.00  0.00    -0.200 F 
ATOM     71  F   UNL A   1      46.398  32.877  25.956  1.00  0.00    -0.200 F 
ENDBRANCH  38  61
ENDBRANCH  12  13
ENDBRANCH   5   7
ENDBRANCH   2   3
ENDBRANCH   1   2
BRANCH   1  72
ATOM     72  C   UNL A   1      34.373  28.887  26.265  1.00  0.00     0.118 C 
BRANCH  72  73
ATOM     73  N   UNL A   1      32.953  28.630  26.185  1.00  0.00    -0.351 N 
ATOM     74  C   UNL A   1      32.271  27.477  25.911  1.00  0.00     0.269 C 
ATOM     75  H   UNL A   1      32.384  29.415  26.355  1.00  0.00     0.163 HD
ATOM     76  O   UNL A   1      31.044  27.527  25.979  1.00  0.00    -0.268 OA
BRANCH  74  77
ATOM     77  C   UNL A   1      32.941  26.299  25.416  1.00  0.00     0.124 A 
ATOM     78  C   UNL A   1      33.340  25.234  26.217  1.00  0.00     0.047 A 
ATOM     79  N   UNL A   1      33.502  26.068  24.168  1.00  0.00    -0.211 N 
ATOM     80  C   UNL A   1      34.139  24.349  25.447  1.00  0.00     0.040 A 
ATOM     81  C   UNL A   1      34.220  24.896  24.169  1.00  0.00     0.156 A 
ATOM     82  C   UNL A   1      34.843  23.150  25.668  1.00  0.00     0.065 A 
ATOM     83  N   UNL A   1      34.914  24.366  23.146  1.00  0.00    -0.237 NA
ATOM     84  Cl  UNL A   1      34.733  22.517  27.254  1.00  0.00    -0.083 Cl
ATOM     85  C   UNL A   1      35.572  22.560  24.644  1.00  0.00     0.093 A 
ATOM     86  C   UNL A   1      35.565  23.215  23.424  1.00  0.00     0.128 A 
BRANCH  79  87
ATOM     87  S   UNL A   1      33.270  27.067  22.819  1.00  0.00     0.270 S 
ATOM     88  O   UNL A   1      34.085  28.248  23.097  1.00  0.00    -0.201 OA
ATOM     89  O   UNL A   1      33.534  26.225  21.684  1.00  0.00    -0.201 OA
BRANCH  87  90
ATOM     90  C   UNL A   1      31.617  27.693  22.711  1.00  0.00     0.088 A 
ATOM     91  C   UNL A   1      31.392  29.070  22.649  1.00  0.00     0.022 A 
ATOM     92  C   UNL A   1      30.548  26.808  22.920  1.00  0.00     0.022 A 
ATOM     93  C   UNL A   1      30.085  29.551  22.760  1.00  0.00     0.001 A 
ATOM     94  C   UNL A   1      29.248  27.294  23.012  1.00  0.00     0.001 A 
ATOM     95  C   UNL A   1      29.018  28.666  22.936  1.00  0.00     0.000 A 
ENDBRANCH  87  90
ENDBRANCH  79  87
BRANCH  85  96
ATOM     96  C   UNL A   1      36.342  21.295  24.819  1.00  0.00     0.419 C 
ATOM     97  F   UNL A   1      37.233  21.071  23.817  1.00  0.00    -0.166 F 
ATOM     98  F   UNL A   1      37.049  21.258  25.981  1.00  0.00    -0.166 F 
ATOM     99  F   UNL A   1      35.544  20.189  24.847  1.00  0.00    -0.166 F 
ENDBRANCH  85  96
ENDBRANCH  74  77
ENDBRANCH  72  73
ENDBRANCH   1  72
TORSDOF 13
ENDMDL
