MODEL 1
REMARK VINA RESULT:     -13.0      0.000      0.000
REMARK SMILES Cc1cc2c(cc1S(=O)(=O)N(C)CC(=O)NCCCNC(=O)c1ccc(-c3c4nc(c(-c5c(F)c(F)c(F)c(F)c5F)c5ccc([nH]5)c(-c5c(F)c(F)c(F)c(F)c5F)c5nc(c(-c6c(F)c(F)c(F)c(F)c6F)c6ccc3[nH]6)C=C5)C=C4)cc1)OCC(=O)N2
REMARK SMILES IDX 17 1 16 2 14 3 15 4 13 6 11 7 12 8 8 9 9 10 10 11 7 12 1 13
REMARK SMILES IDX 2 14 3 15 4 16 6 17 5 18 90 19 86 20 88 21 87 23 89 24 18 25
REMARK SMILES IDX 19 26 20 27 21 28 22 30 23 31 24 32 85 33 25 34 84 35 26 36
REMARK SMILES IDX 27 37 28 38 78 39 29 40 83 41 77 42 79 43 30 44 82 45 76 46
REMARK SMILES IDX 75 47 31 49 63 50 43 51 62 52 44 53 47 54 61 55 80 56 45 57
REMARK SMILES IDX 46 58 60 60 81 61 48 62 32 63 33 64 41 65 34 66 35 67 39 68
REMARK SMILES IDX 42 69 36 70 37 71 40 72 38 73 64 74 65 75 73 76 66 77 67 78
REMARK SMILES IDX 71 79 74 80 68 81 69 82 72 83 70 84 49 85 50 86 58 87 51 88
REMARK SMILES IDX 52 89 56 90 59 91 53 92 54 93 57 94 55 95
REMARK H PARENT 16 5 90 22 20 29 79 48 47 59
REMARK Flexibility Score: inf
ROOT
ATOM      1  C   UNL A   1      32.214  28.279  23.054  1.00  0.00     0.117 C 
ENDROOT
BRANCH   1   2
ATOM      2  N   UNL A   1      32.738  27.407  22.014  1.00  0.00    -0.355 N 
ATOM      3  C   UNL A   1      33.128  26.095  22.042  1.00  0.00     0.235 C 
ATOM      4  O   UNL A   1      33.278  25.535  20.954  1.00  0.00    -0.274 OA
ATOM      5  H   UNL A   1      32.826  27.836  21.132  1.00  0.00     0.163 HD
BRANCH   3   6
ATOM      6  C   UNL A   1      33.372  25.366  23.358  1.00  0.00     0.202 C 
BRANCH   6   7
ATOM      7  N   UNL A   1      32.442  24.230  23.665  1.00  0.00    -0.192 NA
ATOM      8  C   UNL A   1      31.082  24.472  23.173  1.00  0.00     0.125 C 
BRANCH   7   9
ATOM      9  S   UNL A   1      32.550  23.689  25.281  1.00  0.00     0.243 S 
ATOM     10  O   UNL A   1      31.191  23.424  25.711  1.00  0.00    -0.207 OA
ATOM     11  O   UNL A   1      33.422  24.583  26.003  1.00  0.00    -0.207 OA
BRANCH   9  12
ATOM     12  C   UNL A   1      33.372  22.099  25.196  1.00  0.00     0.089 A 
ATOM     13  C   UNL A   1      35.726  23.067  24.794  1.00  0.00     0.046 C 
ATOM     14  C   UNL A   1      34.745  21.936  24.925  1.00  0.00    -0.029 A 
ATOM     15  C   UNL A   1      35.226  20.628  24.707  1.00  0.00     0.035 A 
ATOM     16  C   UNL A   1      34.381  19.520  24.823  1.00  0.00     0.084 A 
ATOM     17  C   UNL A   1      32.538  20.976  25.332  1.00  0.00     0.070 A 
ATOM     18  C   UNL A   1      33.041  19.692  25.154  1.00  0.00     0.144 A 
ATOM     19  N   UNL A   1      34.895  18.240  24.626  1.00  0.00    -0.320 N 
ATOM     20  O   UNL A   1      32.152  18.671  25.331  1.00  0.00    -0.482 OA
ATOM     21  C   UNL A   1      34.112  17.126  24.734  1.00  0.00     0.262 C 
ATOM     22  H   UNL A   1      35.848  18.137  24.403  1.00  0.00     0.170 HD
ATOM     23  C   UNL A   1      32.629  17.379  24.997  1.00  0.00     0.329 C 
ATOM     24  O   UNL A   1      34.586  16.000  24.594  1.00  0.00    -0.271 OA
ENDBRANCH   9  12
ENDBRANCH   7   9
ENDBRANCH   6   7
ENDBRANCH   3   6
ENDBRANCH   1   2
BRANCH   1  25
ATOM     25  C   UNL A   1      33.269  29.125  23.775  1.00  0.00     0.042 C 
BRANCH  25  26
ATOM     26  C   UNL A   1      33.163  29.134  25.297  1.00  0.00     0.118 C 
BRANCH  26  27
ATOM     27  N   UNL A   1      32.756  30.437  25.791  1.00  0.00    -0.352 N 
ATOM     28  C   UNL A   1      33.212  31.179  26.854  1.00  0.00     0.251 C 
ATOM     29  H   UNL A   1      32.032  30.862  25.278  1.00  0.00     0.163 HD
ATOM     30  O   UNL A   1      32.531  32.122  27.251  1.00  0.00    -0.269 OA
BRANCH  28  31
ATOM     31  C   UNL A   1      34.490  30.868  27.544  1.00  0.00     0.039 A 
ATOM     32  C   UNL A   1      35.455  31.844  27.794  1.00  0.00     0.014 A 
ATOM     33  C   UNL A   1      34.680  29.576  28.051  1.00  0.00     0.014 A 
ATOM     34  C   UNL A   1      36.647  31.507  28.440  1.00  0.00     0.010 A 
ATOM     35  C   UNL A   1      35.841  29.256  28.768  1.00  0.00     0.010 A 
ATOM     36  C   UNL A   1      36.849  30.213  28.949  1.00  0.00    -0.014 A 
BRANCH  36  37
ATOM     37  C   UNL A   1      38.098  29.895  29.697  1.00  0.00     0.031 A 
ATOM     38  C   UNL A   1      38.328  30.433  31.084  1.00  0.00     0.074 A 
ATOM     39  C   UNL A   1      39.020  29.085  29.138  1.00  0.00     0.049 A 
ATOM     40  N   UNL A   1      39.351  30.247  31.884  1.00  0.00    -0.248 NA
ATOM     41  C   UNL A   1      37.278  31.294  31.650  1.00  0.00     0.031 C 
ATOM     42  C   UNL A   1      38.924  28.500  27.800  1.00  0.00     0.029 A 
ATOM     43  N   UNL A   1      40.205  28.595  29.628  1.00  0.00    -0.354 N 
ATOM     44  C   UNL A   1      39.072  30.972  33.036  1.00  0.00     0.074 A 
ATOM     45  C   UNL A   1      37.800  31.628  32.824  1.00  0.00     0.031 C 
ATOM     46  C   UNL A   1      39.972  27.686  27.599  1.00  0.00     0.029 A 
ATOM     47  C   UNL A   1      40.844  27.734  28.769  1.00  0.00     0.049 A 
ATOM     48  H   UNL A   1      40.564  28.838  30.512  1.00  0.00     0.167 HD
ATOM     49  C   UNL A   1      39.802  31.069  34.172  1.00  0.00     0.037 A 
ATOM     50  C   UNL A   1      42.004  27.061  28.901  1.00  0.00     0.037 A 
ATOM     51  C   UNL A   1      41.058  30.402  34.398  1.00  0.00     0.049 A 
ATOM     52  C   UNL A   1      42.810  27.218  30.159  1.00  0.00     0.074 A 
ATOM     53  C   UNL A   1      41.860  30.434  35.527  1.00  0.00     0.029 A 
ATOM     54  N   UNL A   1      41.692  29.576  33.482  1.00  0.00    -0.354 N 
ATOM     55  N   UNL A   1      42.529  27.903  31.240  1.00  0.00    -0.248 NA
ATOM     56  C   UNL A   1      44.102  26.517  30.212  1.00  0.00     0.031 C 
ATOM     57  C   UNL A   1      42.995  29.655  35.283  1.00  0.00     0.029 A 
ATOM     58  C   UNL A   1      42.880  29.104  34.017  1.00  0.00     0.049 A 
ATOM     59  H   UNL A   1      41.349  29.357  32.586  1.00  0.00     0.167 HD
ATOM     60  C   UNL A   1      43.597  27.706  32.104  1.00  0.00     0.074 A 
ATOM     61  C   UNL A   1      44.525  26.821  31.431  1.00  0.00     0.031 C 
ATOM     62  C   UNL A   1      43.791  28.219  33.341  1.00  0.00     0.037 A 
BRANCH  49  63
ATOM     63  C   UNL A   1      39.266  31.922  35.284  1.00  0.00     0.064 A 
ATOM     64  C   UNL A   1      38.504  31.371  36.322  1.00  0.00     0.173 A 
ATOM     65  C   UNL A   1      39.596  33.284  35.359  1.00  0.00     0.173 A 
ATOM     66  F   UNL A   1      38.147  30.078  36.286  1.00  0.00    -0.203 F 
ATOM     67  C   UNL A   1      38.086  32.153  37.397  1.00  0.00     0.198 A 
ATOM     68  C   UNL A   1      39.197  34.057  36.446  1.00  0.00     0.198 A 
ATOM     69  F   UNL A   1      40.327  33.857  34.391  1.00  0.00    -0.203 F 
ATOM     70  F   UNL A   1      37.336  31.612  38.366  1.00  0.00    -0.200 F 
ATOM     71  C   UNL A   1      38.443  33.491  37.463  1.00  0.00     0.200 A 
ATOM     72  F   UNL A   1      39.549  35.349  36.513  1.00  0.00    -0.200 F 
ATOM     73  F   UNL A   1      38.055  34.238  38.506  1.00  0.00    -0.200 F 
ENDBRANCH  49  63
BRANCH  50  74
ATOM     74  C   UNL A   1      42.468  26.164  27.811  1.00  0.00     0.064 A 
ATOM     75  C   UNL A   1      41.985  24.853  27.705  1.00  0.00     0.173 A 
ATOM     76  C   UNL A   1      43.399  26.597  26.855  1.00  0.00     0.173 A 
ATOM     77  F   UNL A   1      41.111  24.387  28.611  1.00  0.00    -0.203 F 
ATOM     78  C   UNL A   1      42.421  24.005  26.689  1.00  0.00     0.198 A 
ATOM     79  C   UNL A   1      43.814  25.757  25.825  1.00  0.00     0.198 A 
ATOM     80  F   UNL A   1      43.893  27.842  26.914  1.00  0.00    -0.203 F 
ATOM     81  F   UNL A   1      41.970  22.745  26.633  1.00  0.00    -0.200 F 
ATOM     82  C   UNL A   1      43.329  24.460  25.745  1.00  0.00     0.200 A 
ATOM     83  F   UNL A   1      44.683  26.204  24.908  1.00  0.00    -0.200 F 
ATOM     84  F   UNL A   1      43.743  23.647  24.765  1.00  0.00    -0.200 F 
ENDBRANCH  50  74
BRANCH  62  85
ATOM     85  C   UNL A   1      45.046  27.829  34.064  1.00  0.00     0.064 A 
ATOM     86  C   UNL A   1      46.206  28.612  33.986  1.00  0.00     0.173 A 
ATOM     87  C   UNL A   1      45.065  26.700  34.897  1.00  0.00     0.173 A 
ATOM     88  F   UNL A   1      46.238  29.693  33.192  1.00  0.00    -0.203 F 
ATOM     89  C   UNL A   1      47.347  28.272  34.708  1.00  0.00     0.198 A 
ATOM     90  C   UNL A   1      46.200  26.376  35.636  1.00  0.00     0.198 A 
ATOM     91  F   UNL A   1      43.977  25.924  35.010  1.00  0.00    -0.203 F 
ATOM     92  F   UNL A   1      48.454  29.018  34.597  1.00  0.00    -0.200 F 
ATOM     93  C   UNL A   1      47.340  27.161  35.539  1.00  0.00     0.200 A 
ATOM     94  F   UNL A   1      46.189  25.309  36.446  1.00  0.00    -0.200 F 
ATOM     95  F   UNL A   1      48.434  26.843  36.243  1.00  0.00    -0.200 F 
ENDBRANCH  62  85
ENDBRANCH  36  37
ENDBRANCH  28  31
ENDBRANCH  26  27
ENDBRANCH  25  26
ENDBRANCH   1  25
TORSDOF 13
ENDMDL
MODEL 2
REMARK VINA RESULT:     -12.9      0.334      7.281
REMARK SMILES Cc1cc2c(cc1S(=O)(=O)N(C)CC(=O)NCCCNC(=O)c1ccc(-c3c4nc(c(-c5c(F)c(F)c(F)c(F)c5F)c5ccc([nH]5)c(-c5c(F)c(F)c(F)c(F)c5F)c5nc(c(-c6c(F)c(F)c(F)c(F)c6F)c6ccc3[nH]6)C=C5)C=C4)cc1)OCC(=O)N2
REMARK SMILES IDX 17 1 16 2 14 3 15 4 13 6 11 7 12 8 8 9 9 10 10 11 7 12 1 13
REMARK SMILES IDX 2 14 3 15 4 16 6 17 5 18 90 19 86 20 88 21 87 23 89 24 18 25
REMARK SMILES IDX 19 26 20 27 21 28 22 30 23 31 24 32 85 33 25 34 84 35 26 36
REMARK SMILES IDX 27 37 28 38 78 39 29 40 83 41 77 42 79 43 30 44 82 45 76 46
REMARK SMILES IDX 75 47 31 49 63 50 43 51 62 52 44 53 47 54 61 55 80 56 45 57
REMARK SMILES IDX 46 58 60 60 81 61 48 62 32 63 33 64 41 65 34 66 35 67 39 68
REMARK SMILES IDX 42 69 36 70 37 71 40 72 38 73 64 74 65 75 73 76 66 77 67 78
REMARK SMILES IDX 71 79 74 80 68 81 69 82 72 83 70 84 49 85 50 86 58 87 51 88
REMARK SMILES IDX 52 89 56 90 59 91 53 92 54 93 57 94 55 95
REMARK H PARENT 16 5 90 22 20 29 79 48 47 59
REMARK Flexibility Score: inf
ROOT
ATOM      1  C   UNL A   1      32.426  28.256  22.693  1.00  0.00     0.117 C 
ENDROOT
BRANCH   1   2
ATOM      2  N   UNL A   1      32.884  27.253  21.744  1.00  0.00    -0.355 N 
ATOM      3  C   UNL A   1      33.166  25.922  21.897  1.00  0.00     0.235 C 
ATOM      4  O   UNL A   1      33.278  25.255  20.866  1.00  0.00    -0.274 OA
ATOM      5  H   UNL A   1      33.015  27.591  20.829  1.00  0.00     0.163 HD
BRANCH   3   6
ATOM      6  C   UNL A   1      33.339  25.298  23.277  1.00  0.00     0.202 C 
BRANCH   6   7
ATOM      7  N   UNL A   1      32.409  24.170  23.612  1.00  0.00    -0.192 NA
ATOM      8  C   UNL A   1      31.043  24.410  23.134  1.00  0.00     0.125 C 
BRANCH   7   9
ATOM      9  S   UNL A   1      32.536  23.652  25.234  1.00  0.00     0.243 S 
ATOM     10  O   UNL A   1      31.182  23.390  25.683  1.00  0.00    -0.207 OA
ATOM     11  O   UNL A   1      33.413  24.559  25.935  1.00  0.00    -0.207 OA
BRANCH   9  12
ATOM     12  C   UNL A   1      33.363  22.064  25.163  1.00  0.00     0.089 A 
ATOM     13  C   UNL A   1      35.713  23.035  24.748  1.00  0.00     0.046 C 
ATOM     14  C   UNL A   1      34.736  21.902  24.891  1.00  0.00    -0.029 A 
ATOM     15  C   UNL A   1      35.220  20.594  24.685  1.00  0.00     0.035 A 
ATOM     16  C   UNL A   1      34.378  19.484  24.813  1.00  0.00     0.084 A 
ATOM     17  C   UNL A   1      32.532  20.940  25.311  1.00  0.00     0.070 A 
ATOM     18  C   UNL A   1      33.038  19.656  25.144  1.00  0.00     0.144 A 
ATOM     19  N   UNL A   1      34.895  18.204  24.626  1.00  0.00    -0.320 N 
ATOM     20  O   UNL A   1      32.153  18.634  25.332  1.00  0.00    -0.482 OA
ATOM     21  C   UNL A   1      34.117  17.089  24.746  1.00  0.00     0.262 C 
ATOM     22  H   UNL A   1      35.849  18.102  24.403  1.00  0.00     0.170 HD
ATOM     23  C   UNL A   1      32.633  17.340  25.008  1.00  0.00     0.329 C 
ATOM     24  O   UNL A   1      34.593  15.963  24.616  1.00  0.00    -0.271 OA
ENDBRANCH   9  12
ENDBRANCH   7   9
ENDBRANCH   6   7
ENDBRANCH   3   6
ENDBRANCH   1   2
BRANCH   1  25
ATOM     25  C   UNL A   1      33.539  28.937  23.497  1.00  0.00     0.042 C 
BRANCH  25  26
ATOM     26  C   UNL A   1      33.337  28.940  25.009  1.00  0.00     0.118 C 
BRANCH  26  27
ATOM     27  N   UNL A   1      32.861  30.230  25.477  1.00  0.00    -0.352 N 
ATOM     28  C   UNL A   1      33.153  30.937  26.618  1.00  0.00     0.251 C 
ATOM     29  H   UNL A   1      32.221  30.673  24.875  1.00  0.00     0.163 HD
ATOM     30  O   UNL A   1      32.420  31.871  26.937  1.00  0.00    -0.269 OA
BRANCH  28  31
ATOM     31  C   UNL A   1      34.314  30.600  27.480  1.00  0.00     0.039 A 
ATOM     32  C   UNL A   1      34.514  29.317  27.990  1.00  0.00     0.014 A 
ATOM     33  C   UNL A   1      35.293  31.580  27.698  1.00  0.00     0.014 A 
ATOM     34  C   UNL A   1      35.616  29.046  28.803  1.00  0.00     0.010 A 
ATOM     35  C   UNL A   1      36.439  31.286  28.448  1.00  0.00     0.010 A 
ATOM     36  C   UNL A   1      36.601  30.022  29.031  1.00  0.00    -0.014 A 
BRANCH  36  37
ATOM     37  C   UNL A   1      37.805  29.689  29.843  1.00  0.00     0.031 A 
ATOM     38  C   UNL A   1      38.894  28.809  29.290  1.00  0.00     0.074 A 
ATOM     39  C   UNL A   1      37.938  30.211  31.080  1.00  0.00     0.049 A 
ATOM     40  N   UNL A   1      40.015  28.427  29.853  1.00  0.00    -0.248 NA
ATOM     41  C   UNL A   1      38.703  28.286  27.928  1.00  0.00     0.031 C 
ATOM     42  C   UNL A   1      36.956  31.073  31.739  1.00  0.00     0.029 A 
ATOM     43  N   UNL A   1      38.958  30.114  31.995  1.00  0.00    -0.354 N 
ATOM     44  C   UNL A   1      40.653  27.617  28.923  1.00  0.00     0.074 A 
ATOM     45  C   UNL A   1      39.784  27.533  27.769  1.00  0.00     0.031 C 
ATOM     46  C   UNL A   1      37.444  31.473  32.923  1.00  0.00     0.029 A 
ATOM     47  C   UNL A   1      38.748  30.851  33.134  1.00  0.00     0.049 A 
ATOM     48  H   UNL A   1      39.763  29.566  31.848  1.00  0.00     0.167 HD
ATOM     49  C   UNL A   1      41.860  27.010  29.017  1.00  0.00     0.037 A 
ATOM     50  C   UNL A   1      39.514  31.009  34.232  1.00  0.00     0.037 A 
ATOM     51  C   UNL A   1      42.739  27.106  30.153  1.00  0.00     0.049 A 
ATOM     52  C   UNL A   1      40.833  30.294  34.322  1.00  0.00     0.074 A 
ATOM     53  C   UNL A   1      43.989  26.534  30.327  1.00  0.00     0.029 A 
ATOM     54  N   UNL A   1      42.467  27.827  31.305  1.00  0.00    -0.354 N 
ATOM     55  N   UNL A   1      41.423  29.535  33.431  1.00  0.00    -0.248 NA
ATOM     56  C   UNL A   1      41.587  30.446  35.575  1.00  0.00     0.031 C 
ATOM     57  C   UNL A   1      44.459  26.880  31.597  1.00  0.00     0.029 A 
ATOM     58  C   UNL A   1      43.520  27.702  32.198  1.00  0.00     0.049 A 
ATOM     59  H   UNL A   1      41.649  28.350  31.466  1.00  0.00     0.167 HD
ATOM     60  C   UNL A   1      42.619  29.133  34.007  1.00  0.00     0.074 A 
ATOM     61  C   UNL A   1      42.683  29.745  35.317  1.00  0.00     0.031 C 
ATOM     62  C   UNL A   1      43.575  28.322  33.496  1.00  0.00     0.037 A 
BRANCH  49  63
ATOM     63  C   UNL A   1      42.327  26.186  27.853  1.00  0.00     0.064 A 
ATOM     64  C   UNL A   1      43.194  26.714  26.887  1.00  0.00     0.173 A 
ATOM     65  C   UNL A   1      41.978  24.830  27.755  1.00  0.00     0.173 A 
ATOM     66  F   UNL A   1      43.542  28.009  26.927  1.00  0.00    -0.203 F 
ATOM     67  C   UNL A   1      43.693  25.915  25.860  1.00  0.00     0.198 A 
ATOM     68  C   UNL A   1      42.497  24.029  26.741  1.00  0.00     0.198 A 
ATOM     69  F   UNL A   1      41.154  24.277  28.657  1.00  0.00    -0.203 F 
ATOM     70  F   UNL A   1      44.500  26.447  24.932  1.00  0.00    -0.200 F 
ATOM     71  C   UNL A   1      43.354  24.572  25.796  1.00  0.00     0.200 A 
ATOM     72  F   UNL A   1      42.174  22.729  26.684  1.00  0.00    -0.200 F 
ATOM     73  F   UNL A   1      43.849  23.802  24.817  1.00  0.00    -0.200 F 
ENDBRANCH  49  63
BRANCH  50  74
ATOM     74  C   UNL A   1      39.057  31.894  35.334  1.00  0.00     0.064 A 
ATOM     75  C   UNL A   1      38.314  31.380  36.406  1.00  0.00     0.173 A 
ATOM     76  C   UNL A   1      39.351  33.265  35.341  1.00  0.00     0.173 A 
ATOM     77  F   UNL A   1      37.987  30.079  36.430  1.00  0.00    -0.203 F 
ATOM     78  C   UNL A   1      37.876  32.205  37.439  1.00  0.00     0.198 A 
ATOM     79  C   UNL A   1      38.936  34.084  36.389  1.00  0.00     0.198 A 
ATOM     80  F   UNL A   1      40.057  33.806  34.337  1.00  0.00    -0.203 F 
ATOM     81  F   UNL A   1      37.137  31.694  38.433  1.00  0.00    -0.200 F 
ATOM     82  C   UNL A   1      38.194  33.555  37.434  1.00  0.00     0.200 A 
ATOM     83  F   UNL A   1      39.255  35.385  36.385  1.00  0.00    -0.200 F 
ATOM     84  F   UNL A   1      37.779  34.347  38.431  1.00  0.00    -0.200 F 
ENDBRANCH  50  74
BRANCH  62  85
ATOM     85  C   UNL A   1      44.785  28.057  34.341  1.00  0.00     0.064 A 
ATOM     86  C   UNL A   1      45.896  28.912  34.314  1.00  0.00     0.173 A 
ATOM     87  C   UNL A   1      44.804  26.976  35.237  1.00  0.00     0.173 A 
ATOM     88  F   UNL A   1      45.927  29.949  33.465  1.00  0.00    -0.203 F 
ATOM     89  C   UNL A   1      46.988  28.689  35.147  1.00  0.00     0.198 A 
ATOM     90  C   UNL A   1      45.889  26.770  36.084  1.00  0.00     0.198 A 
ATOM     91  F   UNL A   1      43.761  26.135  35.304  1.00  0.00    -0.203 F 
ATOM     92  F   UNL A   1      48.052  29.502  35.085  1.00  0.00    -0.200 F 
ATOM     93  C   UNL A   1      46.981  27.624  36.037  1.00  0.00     0.200 A 
ATOM     94  F   UNL A   1      45.875  25.748  36.951  1.00  0.00    -0.200 F 
ATOM     95  F   UNL A   1      48.028  27.419  36.847  1.00  0.00    -0.200 F 
ENDBRANCH  62  85
ENDBRANCH  36  37
ENDBRANCH  28  31
ENDBRANCH  26  27
ENDBRANCH  25  26
ENDBRANCH   1  25
TORSDOF 13
ENDMDL
MODEL 3
REMARK VINA RESULT:     -12.8      1.318      2.293
REMARK SMILES Cc1cc2c(cc1S(=O)(=O)N(C)CC(=O)NCCCNC(=O)c1ccc(-c3c4nc(c(-c5c(F)c(F)c(F)c(F)c5F)c5ccc([nH]5)c(-c5c(F)c(F)c(F)c(F)c5F)c5nc(c(-c6c(F)c(F)c(F)c(F)c6F)c6ccc3[nH]6)C=C5)C=C4)cc1)OCC(=O)N2
REMARK SMILES IDX 17 1 16 2 14 3 15 4 13 6 11 7 12 8 8 9 9 10 10 11 7 12 1 13
REMARK SMILES IDX 2 14 3 15 4 16 6 17 5 18 90 19 86 20 88 21 87 23 89 24 18 25
REMARK SMILES IDX 19 26 20 27 21 28 22 30 23 31 24 32 85 33 25 34 84 35 26 36
REMARK SMILES IDX 27 37 28 38 78 39 29 40 83 41 77 42 79 43 30 44 82 45 76 46
REMARK SMILES IDX 75 47 31 49 63 50 43 51 62 52 44 53 47 54 61 55 80 56 45 57
REMARK SMILES IDX 46 58 60 60 81 61 48 62 32 63 33 64 41 65 34 66 35 67 39 68
REMARK SMILES IDX 42 69 36 70 37 71 40 72 38 73 64 74 65 75 73 76 66 77 67 78
REMARK SMILES IDX 71 79 74 80 68 81 69 82 72 83 70 84 49 85 50 86 58 87 51 88
REMARK SMILES IDX 52 89 56 90 59 91 53 92 54 93 57 94 55 95
REMARK H PARENT 16 5 90 22 20 29 79 48 47 59
REMARK Flexibility Score: inf
ROOT
ATOM      1  C   UNL A   1      32.351  28.278  22.838  1.00  0.00     0.117 C 
ENDROOT
BRANCH   1   2
ATOM      2  N   UNL A   1      32.718  27.409  21.730  1.00  0.00    -0.355 N 
ATOM      3  C   UNL A   1      33.152  26.111  21.701  1.00  0.00     0.235 C 
ATOM      4  O   UNL A   1      33.131  25.542  20.607  1.00  0.00    -0.274 OA
ATOM      5  H   UNL A   1      32.640  27.829  20.843  1.00  0.00     0.163 HD
BRANCH   3   6
ATOM      6  C   UNL A   1      33.642  25.407  22.961  1.00  0.00     0.202 C 
BRANCH   6   7
ATOM      7  N   UNL A   1      32.675  24.458  23.605  1.00  0.00    -0.192 NA
ATOM      8  C   UNL A   1      31.278  24.816  23.336  1.00  0.00     0.125 C 
BRANCH   7   9
ATOM      9  S   UNL A   1      33.044  24.127  25.239  1.00  0.00     0.243 S 
ATOM     10  O   UNL A   1      32.024  23.209  25.707  1.00  0.00    -0.207 OA
ATOM     11  O   UNL A   1      33.315  25.377  25.907  1.00  0.00    -0.207 OA
BRANCH   9  12
ATOM     12  C   UNL A   1      34.579  23.202  25.201  1.00  0.00     0.089 A 
ATOM     13  C   UNL A   1      33.538  21.046  24.250  1.00  0.00     0.046 C 
ATOM     14  C   UNL A   1      34.676  21.854  24.807  1.00  0.00    -0.029 A 
ATOM     15  C   UNL A   1      35.909  21.196  24.997  1.00  0.00     0.035 A 
ATOM     16  C   UNL A   1      37.022  21.879  25.498  1.00  0.00     0.084 A 
ATOM     17  C   UNL A   1      35.710  23.885  25.682  1.00  0.00     0.070 A 
ATOM     18  C   UNL A   1      36.928  23.228  25.823  1.00  0.00     0.144 A 
ATOM     19  N   UNL A   1      38.231  21.205  25.649  1.00  0.00    -0.320 N 
ATOM     20  O   UNL A   1      37.968  23.987  26.277  1.00  0.00    -0.482 OA
ATOM     21  C   UNL A   1      39.349  21.829  26.128  1.00  0.00     0.262 C 
ATOM     22  H   UNL A   1      38.282  20.253  25.404  1.00  0.00     0.170 HD
ATOM     23  C   UNL A   1      39.162  23.280  26.566  1.00  0.00     0.329 C 
ATOM     24  O   UNL A   1      40.419  21.232  26.223  1.00  0.00    -0.271 OA
ENDBRANCH   9  12
ENDBRANCH   7   9
ENDBRANCH   6   7
ENDBRANCH   3   6
ENDBRANCH   1   2
BRANCH   1  25
ATOM     25  C   UNL A   1      33.532  28.954  23.543  1.00  0.00     0.042 C 
BRANCH  25  26
ATOM     26  C   UNL A   1      33.491  28.903  25.067  1.00  0.00     0.118 C 
BRANCH  26  27
ATOM     27  N   UNL A   1      32.958  30.134  25.624  1.00  0.00    -0.352 N 
ATOM     28  C   UNL A   1      33.316  30.843  26.744  1.00  0.00     0.251 C 
ATOM     29  H   UNL A   1      32.215  30.527  25.112  1.00  0.00     0.163 HD
ATOM     30  O   UNL A   1      32.544  31.699  27.172  1.00  0.00    -0.269 OA
BRANCH  28  31
ATOM     31  C   UNL A   1      34.595  30.601  27.458  1.00  0.00     0.039 A 
ATOM     32  C   UNL A   1      35.515  31.621  27.702  1.00  0.00     0.014 A 
ATOM     33  C   UNL A   1      34.831  29.328  27.995  1.00  0.00     0.014 A 
ATOM     34  C   UNL A   1      36.710  31.347  28.372  1.00  0.00     0.010 A 
ATOM     35  C   UNL A   1      35.993  29.071  28.734  1.00  0.00     0.010 A 
ATOM     36  C   UNL A   1      36.958  30.073  28.910  1.00  0.00    -0.014 A 
BRANCH  36  37
ATOM     37  C   UNL A   1      38.207  29.822  29.682  1.00  0.00     0.031 A 
ATOM     38  C   UNL A   1      38.390  30.387  31.066  1.00  0.00     0.074 A 
ATOM     39  C   UNL A   1      39.175  29.049  29.148  1.00  0.00     0.049 A 
ATOM     40  N   UNL A   1      39.406  30.258  31.885  1.00  0.00    -0.248 NA
ATOM     41  C   UNL A   1      37.291  31.205  31.603  1.00  0.00     0.031 C 
ATOM     42  C   UNL A   1      39.129  28.444  27.816  1.00  0.00     0.029 A 
ATOM     43  N   UNL A   1      40.374  28.621  29.664  1.00  0.00    -0.354 N 
ATOM     44  C   UNL A   1      39.074  30.983  33.022  1.00  0.00     0.074 A 
ATOM     45  C   UNL A   1      37.777  31.576  32.781  1.00  0.00     0.031 C 
ATOM     46  C   UNL A   1      40.218  27.678  27.643  1.00  0.00     0.029 A 
ATOM     47  C   UNL A   1      41.066  27.781  28.826  1.00  0.00     0.049 A 
ATOM     48  H   UNL A   1      40.706  28.891  30.551  1.00  0.00     0.167 HD
ATOM     49  C   UNL A   1      39.780  31.127  34.169  1.00  0.00     0.037 A 
ATOM     50  C   UNL A   1      42.253  27.163  28.985  1.00  0.00     0.037 A 
ATOM     51  C   UNL A   1      41.062  30.522  34.423  1.00  0.00     0.049 A 
ATOM     52  C   UNL A   1      43.031  27.373  30.255  1.00  0.00     0.074 A 
ATOM     53  C   UNL A   1      41.843  30.605  35.565  1.00  0.00     0.029 A 
ATOM     54  N   UNL A   1      41.748  29.716  33.529  1.00  0.00    -0.354 N 
ATOM     55  N   UNL A   1      42.700  28.057  31.322  1.00  0.00    -0.248 NA
ATOM     56  C   UNL A   1      44.352  26.734  30.337  1.00  0.00     0.031 C 
ATOM     57  C   UNL A   1      43.016  29.877  35.349  1.00  0.00     0.029 A 
ATOM     58  C   UNL A   1      42.948  29.307  34.089  1.00  0.00     0.049 A 
ATOM     59  H   UNL A   1      41.431  29.470  32.630  1.00  0.00     0.167 HD
ATOM     60  C   UNL A   1      43.761  27.920  32.205  1.00  0.00     0.074 A 
ATOM     61  C   UNL A   1      44.740  27.072  31.559  1.00  0.00     0.031 C 
ATOM     62  C   UNL A   1      43.910  28.457  33.439  1.00  0.00     0.037 A 
BRANCH  49  63
ATOM     63  C   UNL A   1      39.186  31.968  35.261  1.00  0.00     0.064 A 
ATOM     64  C   UNL A   1      38.445  31.392  36.302  1.00  0.00     0.173 A 
ATOM     65  C   UNL A   1      39.440  33.347  35.316  1.00  0.00     0.173 A 
ATOM     66  F   UNL A   1      38.161  30.081  36.284  1.00  0.00    -0.203 F 
ATOM     67  C   UNL A   1      37.974  32.168  37.359  1.00  0.00     0.198 A 
ATOM     68  C   UNL A   1      38.988  34.115  36.386  1.00  0.00     0.198 A 
ATOM     69  F   UNL A   1      40.147  33.944  34.345  1.00  0.00    -0.203 F 
ATOM     70  F   UNL A   1      37.245  31.602  38.330  1.00  0.00    -0.200 F 
ATOM     71  C   UNL A   1      38.256  33.525  37.405  1.00  0.00     0.200 A 
ATOM     72  F   UNL A   1      39.267  35.425  36.433  1.00  0.00    -0.200 F 
ATOM     73  F   UNL A   1      37.816  34.266  38.432  1.00  0.00    -0.200 F 
ENDBRANCH  49  63
BRANCH  50  74
ATOM     74  C   UNL A   1      42.777  26.277  27.915  1.00  0.00     0.064 A 
ATOM     75  C   UNL A   1      43.507  26.803  26.840  1.00  0.00     0.173 A 
ATOM     76  C   UNL A   1      42.562  24.891  27.943  1.00  0.00     0.173 A 
ATOM     77  F   UNL A   1      43.716  28.126  26.758  1.00  0.00    -0.203 F 
ATOM     78  C   UNL A   1      43.996  25.978  25.829  1.00  0.00     0.198 A 
ATOM     79  C   UNL A   1      43.075  24.064  26.946  1.00  0.00     0.198 A 
ATOM     80  F   UNL A   1      41.869  24.339  28.949  1.00  0.00    -0.203 F 
ATOM     81  F   UNL A   1      44.659  26.511  24.795  1.00  0.00    -0.200 F 
ATOM     82  C   UNL A   1      43.785  24.608  25.887  1.00  0.00     0.200 A 
ATOM     83  F   UNL A   1      42.880  22.740  27.011  1.00  0.00    -0.200 F 
ATOM     84  F   UNL A   1      44.261  23.814  24.919  1.00  0.00    -0.200 F 
ENDBRANCH  50  74
BRANCH  62  85
ATOM     85  C   UNL A   1      45.169  28.135  34.187  1.00  0.00     0.064 A 
ATOM     86  C   UNL A   1      46.338  28.888  34.008  1.00  0.00     0.173 A 
ATOM     87  C   UNL A   1      45.186  27.106  35.142  1.00  0.00     0.173 A 
ATOM     88  F   UNL A   1      46.372  29.872  33.098  1.00  0.00    -0.203 F 
ATOM     89  C   UNL A   1      47.483  28.617  34.752  1.00  0.00     0.198 A 
ATOM     90  C   UNL A   1      46.327  26.852  35.899  1.00  0.00     0.198 A 
ATOM     91  F   UNL A   1      44.091  26.362  35.354  1.00  0.00    -0.203 F 
ATOM     92  F   UNL A   1      48.598  29.331  34.545  1.00  0.00    -0.200 F 
ATOM     93  C   UNL A   1      47.474  27.606  35.702  1.00  0.00     0.200 A 
ATOM     94  F   UNL A   1      46.313  25.884  36.824  1.00  0.00    -0.200 F 
ATOM     95  F   UNL A   1      48.574  27.356  36.425  1.00  0.00    -0.200 F 
ENDBRANCH  62  85
ENDBRANCH  36  37
ENDBRANCH  28  31
ENDBRANCH  26  27
ENDBRANCH  25  26
ENDBRANCH   1  25
TORSDOF 13
ENDMDL
