MODEL 1
REMARK VINA RESULT:     -12.9      0.000      0.000
REMARK SMILES O=C(Cc1ccccc1Nc1c(Cl)cccc1C(F)(F)F)NCCCNC(=O)c1ccc(-c2c3nc(c(-c4c(F)c(F)c(F)c(F)c4F)c4ccc([nH]4)c(-c4c(F)c(F)c(F)c(F)c4F)c4nc(c(-c5c(F)c(F)c(F)c(F)c5F)c5ccc2[nH]5)C=C4)C=C3)cc1
REMARK SMILES IDX 23 1 22 2 1 3 2 4 3 6 4 7 5 8 9 9 6 10 8 11 7 12 10 13 11 15
REMARK SMILES IDX 12 16 17 17 13 18 14 19 16 20 15 21 18 22 19 23 20 24 21 25
REMARK SMILES IDX 24 26 25 27 26 28 27 29 28 31 29 32 30 33 91 34 31 35 90 36
REMARK SMILES IDX 32 37 33 38 34 39 84 40 35 41 89 42 83 43 85 44 36 45 88 46
REMARK SMILES IDX 82 47 81 48 37 50 69 51 49 52 68 53 50 54 53 55 67 56 86 57
REMARK SMILES IDX 51 58 52 59 66 61 87 62 54 63 38 64 39 65 47 66 40 67 41 68
REMARK SMILES IDX 45 69 48 70 42 71 43 72 46 73 44 74 70 75 71 76 79 77 72 78
REMARK SMILES IDX 73 79 77 80 80 81 74 82 75 83 78 84 76 85 55 86 56 87 64 88
REMARK SMILES IDX 57 89 58 90 62 91 65 92 59 93 60 94 63 95 61 96
REMARK H PARENT 22 5 10 14 26 30 85 49 53 60
REMARK Flexibility Score: inf
ROOT
ATOM      1  C   UNL A   1      31.801  30.604  26.508  1.00  0.00     0.117 C 
ENDROOT
BRANCH   1   2
ATOM      2  N   UNL A   1      31.390  30.158  25.188  1.00  0.00    -0.356 N 
ATOM      3  O   UNL A   1      33.393  29.160  24.664  1.00  0.00    -0.275 OA
ATOM      4  C   UNL A   1      32.234  29.423  24.367  1.00  0.00     0.224 C 
ATOM      5  H   UNL A   1      30.487  30.384  24.866  1.00  0.00     0.163 HD
BRANCH   4   6
ATOM      6  C   UNL A   1      31.571  28.930  23.098  1.00  0.00     0.137 C 
BRANCH   6   7
ATOM      7  C   UNL A   1      30.301  28.098  23.245  1.00  0.00    -0.015 A 
ATOM      8  C   UNL A   1      29.093  28.782  22.983  1.00  0.00     0.006 A 
ATOM      9  C   UNL A   1      30.233  26.772  23.736  1.00  0.00     0.042 A 
ATOM     10  C   UNL A   1      27.851  28.195  23.226  1.00  0.00     0.000 A 
ATOM     11  C   UNL A   1      28.968  26.223  24.023  1.00  0.00     0.026 A 
ATOM     12  C   UNL A   1      27.789  26.920  23.763  1.00  0.00     0.002 A 
BRANCH   9  13
ATOM     13  N   UNL A   1      31.391  26.025  24.030  1.00  0.00    -0.354 N 
ATOM     14  H   UNL A   1      32.065  26.494  24.575  1.00  0.00     0.167 HD
BRANCH  13  15
ATOM     15  C   UNL A   1      31.732  24.705  23.659  1.00  0.00     0.070 A 
ATOM     16  C   UNL A   1      31.592  23.660  24.596  1.00  0.00     0.065 A 
ATOM     17  C   UNL A   1      32.399  24.444  22.442  1.00  0.00     0.080 A 
ATOM     18  Cl  UNL A   1      30.828  23.931  26.128  1.00  0.00    -0.082 Cl
ATOM     19  C   UNL A   1      32.081  22.381  24.326  1.00  0.00     0.023 A 
ATOM     20  C   UNL A   1      32.879  23.144  22.186  1.00  0.00     0.015 A 
ATOM     21  C   UNL A   1      32.730  22.125  23.123  1.00  0.00     0.002 A 
BRANCH  17  22
ATOM     22  C   UNL A   1      32.597  25.511  21.390  1.00  0.00     0.418 C 
ATOM     23  F   UNL A   1      33.147  25.018  20.241  1.00  0.00    -0.166 F 
ATOM     24  F   UNL A   1      31.429  26.096  21.008  1.00  0.00    -0.166 F 
ATOM     25  F   UNL A   1      33.434  26.513  21.776  1.00  0.00    -0.166 F 
ENDBRANCH  17  22
ENDBRANCH  13  15
ENDBRANCH   9  13
ENDBRANCH   6   7
ENDBRANCH   4   6
ENDBRANCH   1   2
BRANCH   1  26
ATOM     26  C   UNL A   1      31.519  32.079  26.773  1.00  0.00     0.042 C 
BRANCH  26  27
ATOM     27  C   UNL A   1      32.715  32.914  27.226  1.00  0.00     0.118 C 
BRANCH  27  28
ATOM     28  N   UNL A   1      32.369  34.229  27.734  1.00  0.00    -0.352 N 
ATOM     29  C   UNL A   1      33.006  35.016  28.669  1.00  0.00     0.251 C 
ATOM     30  H   UNL A   1      31.551  34.621  27.352  1.00  0.00     0.163 HD
ATOM     31  O   UNL A   1      32.518  36.096  28.976  1.00  0.00    -0.269 OA
BRANCH  29  32
ATOM     32  C   UNL A   1      34.237  34.555  29.363  1.00  0.00     0.039 A 
ATOM     33  C   UNL A   1      34.080  33.913  30.596  1.00  0.00     0.014 A 
ATOM     34  C   UNL A   1      35.520  34.735  28.842  1.00  0.00     0.014 A 
ATOM     35  C   UNL A   1      35.187  33.370  31.252  1.00  0.00     0.010 A 
ATOM     36  C   UNL A   1      36.618  34.131  29.460  1.00  0.00     0.010 A 
ATOM     37  C   UNL A   1      36.458  33.426  30.662  1.00  0.00    -0.014 A 
BRANCH  37  38
ATOM     38  C   UNL A   1      37.599  32.695  31.270  1.00  0.00     0.031 A 
ATOM     39  C   UNL A   1      38.114  33.054  32.633  1.00  0.00     0.074 A 
ATOM     40  C   UNL A   1      38.199  31.719  30.559  1.00  0.00     0.049 A 
ATOM     41  N   UNL A   1      39.088  32.508  33.318  1.00  0.00    -0.248 NA
ATOM     42  C   UNL A   1      37.468  34.187  33.309  1.00  0.00     0.031 C 
ATOM     43  C   UNL A   1      37.833  31.320  29.199  1.00  0.00     0.029 A 
ATOM     44  N   UNL A   1      39.239  30.882  30.881  1.00  0.00    -0.354 N 
ATOM     45  C   UNL A   1      39.173  33.230  34.500  1.00  0.00     0.074 A 
ATOM     46  C   UNL A   1      38.187  34.287  34.419  1.00  0.00     0.031 C 
ATOM     47  C   UNL A   1      38.611  30.295  28.816  1.00  0.00     0.029 A 
ATOM     48  C   UNL A   1      39.547  29.982  29.890  1.00  0.00     0.049 A 
ATOM     49  H   UNL A   1      39.719  30.924  31.739  1.00  0.00     0.167 HD
ATOM     50  C   UNL A   1      39.987  33.021  35.564  1.00  0.00     0.037 A 
ATOM     51  C   UNL A   1      40.475  29.007  29.855  1.00  0.00     0.037 A 
ATOM     52  C   UNL A   1      40.960  31.962  35.648  1.00  0.00     0.049 A 
ATOM     53  C   UNL A   1      41.343  28.777  31.059  1.00  0.00     0.074 A 
ATOM     54  C   UNL A   1      41.802  31.642  36.698  1.00  0.00     0.029 A 
ATOM     55  N   UNL A   1      41.221  31.049  34.637  1.00  0.00    -0.354 N 
ATOM     56  N   UNL A   1      41.364  29.423  32.199  1.00  0.00    -0.248 NA
ATOM     57  C   UNL A   1      42.309  27.673  30.977  1.00  0.00     0.031 C 
ATOM     58  C   UNL A   1      42.597  30.557  36.310  1.00  0.00     0.029 A 
ATOM     59  C   UNL A   1      42.220  30.173  35.035  1.00  0.00     0.049 A 
ATOM     60  H   UNL A   1      40.765  31.025  33.764  1.00  0.00     0.167 HD
ATOM     61  C   UNL A   1      42.319  28.788  32.980  1.00  0.00     0.074 A 
ATOM     62  C   UNL A   1      42.845  27.694  32.188  1.00  0.00     0.031 C 
ATOM     63  C   UNL A   1      42.726  29.084  34.238  1.00  0.00     0.037 A 
BRANCH  50  64
ATOM     64  C   UNL A   1      39.854  33.958  36.729  1.00  0.00     0.064 A 
ATOM     65  C   UNL A   1      39.011  33.663  37.813  1.00  0.00     0.173 A 
ATOM     66  C   UNL A   1      40.598  35.145  36.781  1.00  0.00     0.173 A 
ATOM     67  F   UNL A   1      38.270  32.545  37.807  1.00  0.00    -0.203 F 
ATOM     68  C   UNL A   1      38.895  34.539  38.890  1.00  0.00     0.198 A 
ATOM     69  C   UNL A   1      40.501  36.005  37.873  1.00  0.00     0.198 A 
ATOM     70  F   UNL A   1      41.423  35.471  35.776  1.00  0.00    -0.203 F 
ATOM     71  F   UNL A   1      38.047  34.260  39.889  1.00  0.00    -0.200 F 
ATOM     72  C   UNL A   1      39.644  35.705  38.921  1.00  0.00     0.200 A 
ATOM     73  F   UNL A   1      41.233  37.127  37.908  1.00  0.00    -0.200 F 
ATOM     74  F   UNL A   1      39.534  36.545  39.960  1.00  0.00    -0.200 F 
ENDBRANCH  50  64
BRANCH  51  75
ATOM     75  C   UNL A   1      40.594  28.142  28.652  1.00  0.00     0.064 A 
ATOM     76  C   UNL A   1      39.906  26.923  28.574  1.00  0.00     0.173 A 
ATOM     77  C   UNL A   1      41.395  28.513  27.562  1.00  0.00     0.173 A 
ATOM     78  F   UNL A   1      39.144  26.517  29.599  1.00  0.00    -0.203 F 
ATOM     79  C   UNL A   1      40.031  26.097  27.458  1.00  0.00     0.198 A 
ATOM     80  C   UNL A   1      41.498  27.699  26.436  1.00  0.00     0.198 A 
ATOM     81  F   UNL A   1      42.067  29.673  27.587  1.00  0.00    -0.203 F 
ATOM     82  F   UNL A   1      39.398  24.916  27.427  1.00  0.00    -0.200 F 
ATOM     83  C   UNL A   1      40.823  26.487  26.388  1.00  0.00     0.200 A 
ATOM     84  F   UNL A   1      42.253  28.085  25.399  1.00  0.00    -0.200 F 
ATOM     85  F   UNL A   1      40.941  25.695  25.315  1.00  0.00    -0.200 F 
ENDBRANCH  51  75
BRANCH  63  86
ATOM     86  C   UNL A   1      43.764  28.189  34.848  1.00  0.00     0.064 A 
ATOM     87  C   UNL A   1      45.134  28.467  34.736  1.00  0.00     0.173 A 
ATOM     88  C   UNL A   1      43.381  27.046  35.566  1.00  0.00     0.173 A 
ATOM     89  F   UNL A   1      45.551  29.538  34.044  1.00  0.00    -0.203 F 
ATOM     90  C   UNL A   1      46.084  27.615  35.292  1.00  0.00     0.198 A 
ATOM     91  C   UNL A   1      44.334  26.212  36.145  1.00  0.00     0.198 A 
ATOM     92  F   UNL A   1      42.083  26.739  35.707  1.00  0.00    -0.203 F 
ATOM     93  F   UNL A   1      47.390  27.869  35.126  1.00  0.00    -0.200 F 
ATOM     94  C   UNL A   1      45.684  26.491  36.001  1.00  0.00     0.200 A 
ATOM     95  F   UNL A   1      43.943  25.133  36.838  1.00  0.00    -0.200 F 
ATOM     96  F   UNL A   1      46.600  25.672  36.535  1.00  0.00    -0.200 F 
ENDBRANCH  63  86
ENDBRANCH  37  38
ENDBRANCH  29  32
ENDBRANCH  27  28
ENDBRANCH  26  27
ENDBRANCH   1  26
TORSDOF 14
ENDMDL
MODEL 2
REMARK VINA RESULT:     -12.9      0.571      7.332
REMARK SMILES O=C(Cc1ccccc1Nc1c(Cl)cccc1C(F)(F)F)NCCCNC(=O)c1ccc(-c2c3nc(c(-c4c(F)c(F)c(F)c(F)c4F)c4ccc([nH]4)c(-c4c(F)c(F)c(F)c(F)c4F)c4nc(c(-c5c(F)c(F)c(F)c(F)c5F)c5ccc2[nH]5)C=C4)C=C3)cc1
REMARK SMILES IDX 23 1 22 2 1 3 2 4 3 6 4 7 5 8 9 9 6 10 8 11 7 12 10 13 11 15
REMARK SMILES IDX 12 16 17 17 13 18 14 19 16 20 15 21 18 22 19 23 20 24 21 25
REMARK SMILES IDX 24 26 25 27 26 28 27 29 28 31 29 32 30 33 91 34 31 35 90 36
REMARK SMILES IDX 32 37 33 38 34 39 84 40 35 41 89 42 83 43 85 44 36 45 88 46
REMARK SMILES IDX 82 47 81 48 37 50 69 51 49 52 68 53 50 54 53 55 67 56 86 57
REMARK SMILES IDX 51 58 52 59 66 61 87 62 54 63 38 64 39 65 47 66 40 67 41 68
REMARK SMILES IDX 45 69 48 70 42 71 43 72 46 73 44 74 70 75 71 76 79 77 72 78
REMARK SMILES IDX 73 79 77 80 80 81 74 82 75 83 78 84 76 85 55 86 56 87 64 88
REMARK SMILES IDX 57 89 58 90 62 91 65 92 59 93 60 94 63 95 61 96
REMARK H PARENT 22 5 10 14 26 30 85 49 53 60
REMARK Flexibility Score: inf
ROOT
ATOM      1  C   UNL A   1      31.876  30.564  26.444  1.00  0.00     0.117 C 
ENDROOT
BRANCH   1   2
ATOM      2  N   UNL A   1      31.418  30.137  25.133  1.00  0.00    -0.356 N 
ATOM      3  O   UNL A   1      33.400  29.146  24.524  1.00  0.00    -0.275 OA
ATOM      4  C   UNL A   1      32.231  29.414  24.272  1.00  0.00     0.224 C 
ATOM      5  H   UNL A   1      30.504  30.369  24.847  1.00  0.00     0.163 HD
BRANCH   4   6
ATOM      6  C   UNL A   1      31.523  28.939  23.020  1.00  0.00     0.137 C 
BRANCH   6   7
ATOM      7  C   UNL A   1      30.268  28.093  23.201  1.00  0.00    -0.015 A 
ATOM      8  C   UNL A   1      29.045  28.758  22.957  1.00  0.00     0.006 A 
ATOM      9  C   UNL A   1      30.227  26.770  23.706  1.00  0.00     0.042 A 
ATOM     10  C   UNL A   1      27.816  28.157  23.230  1.00  0.00     0.000 A 
ATOM     11  C   UNL A   1      28.975  26.207  24.023  1.00  0.00     0.026 A 
ATOM     12  C   UNL A   1      27.782  26.886  23.780  1.00  0.00     0.002 A 
BRANCH   9  13
ATOM     13  N   UNL A   1      31.401  26.042  23.984  1.00  0.00    -0.354 N 
ATOM     14  H   UNL A   1      32.080  26.526  24.509  1.00  0.00     0.167 HD
BRANCH  13  15
ATOM     15  C   UNL A   1      31.750  24.722  23.621  1.00  0.00     0.070 A 
ATOM     16  C   UNL A   1      31.630  23.684  24.569  1.00  0.00     0.065 A 
ATOM     17  C   UNL A   1      32.409  24.457  22.401  1.00  0.00     0.080 A 
ATOM     18  Cl  UNL A   1      30.877  23.961  26.105  1.00  0.00    -0.082 Cl
ATOM     19  C   UNL A   1      32.127  22.408  24.306  1.00  0.00     0.023 A 
ATOM     20  C   UNL A   1      32.899  23.158  22.151  1.00  0.00     0.015 A 
ATOM     21  C   UNL A   1      32.768  22.147  23.099  1.00  0.00     0.002 A 
BRANCH  17  22
ATOM     22  C   UNL A   1      32.587  25.516  21.338  1.00  0.00     0.418 C 
ATOM     23  F   UNL A   1      33.124  25.016  20.185  1.00  0.00    -0.166 F 
ATOM     24  F   UNL A   1      31.411  26.090  20.966  1.00  0.00    -0.166 F 
ATOM     25  F   UNL A   1      33.422  26.525  21.704  1.00  0.00    -0.166 F 
ENDBRANCH  17  22
ENDBRANCH  13  15
ENDBRANCH   9  13
ENDBRANCH   6   7
ENDBRANCH   4   6
ENDBRANCH   1   2
BRANCH   1  26
ATOM     26  C   UNL A   1      31.558  32.022  26.762  1.00  0.00     0.042 C 
BRANCH  26  27
ATOM     27  C   UNL A   1      32.744  32.885  27.182  1.00  0.00     0.118 C 
BRANCH  27  28
ATOM     28  N   UNL A   1      32.384  34.210  27.656  1.00  0.00    -0.352 N 
ATOM     29  C   UNL A   1      32.983  35.007  28.606  1.00  0.00     0.251 C 
ATOM     30  H   UNL A   1      31.587  34.600  27.231  1.00  0.00     0.163 HD
ATOM     31  O   UNL A   1      32.488  36.094  28.875  1.00  0.00    -0.269 OA
BRANCH  29  32
ATOM     32  C   UNL A   1      34.179  34.551  29.361  1.00  0.00     0.039 A 
ATOM     33  C   UNL A   1      33.968  33.994  30.628  1.00  0.00     0.014 A 
ATOM     34  C   UNL A   1      35.480  34.653  28.865  1.00  0.00     0.014 A 
ATOM     35  C   UNL A   1      35.038  33.458  31.347  1.00  0.00     0.010 A 
ATOM     36  C   UNL A   1      36.540  34.054  29.550  1.00  0.00     0.010 A 
ATOM     37  C   UNL A   1      36.325  33.433  30.790  1.00  0.00    -0.014 A 
BRANCH  37  38
ATOM     38  C   UNL A   1      37.424  32.704  31.473  1.00  0.00     0.031 A 
ATOM     39  C   UNL A   1      38.127  31.556  30.808  1.00  0.00     0.074 A 
ATOM     40  C   UNL A   1      37.762  33.063  32.728  1.00  0.00     0.049 A 
ATOM     41  N   UNL A   1      39.116  30.823  31.254  1.00  0.00    -0.248 NA
ATOM     42  C   UNL A   1      37.643  31.165  29.477  1.00  0.00     0.031 C 
ATOM     43  C   UNL A   1      37.111  34.119  33.506  1.00  0.00     0.029 A 
ATOM     44  N   UNL A   1      38.736  32.585  33.568  1.00  0.00    -0.354 N 
ATOM     45  C   UNL A   1      39.370  29.884  30.264  1.00  0.00     0.074 A 
ATOM     46  C   UNL A   1      38.398  30.107  29.214  1.00  0.00     0.031 C 
ATOM     47  C   UNL A   1      37.725  34.232  34.695  1.00  0.00     0.029 A 
ATOM     48  C   UNL A   1      38.793  33.241  34.774  1.00  0.00     0.049 A 
ATOM     49  H   UNL A   1      39.337  31.842  33.331  1.00  0.00     0.167 HD
ATOM     50  C   UNL A   1      40.337  28.935  30.225  1.00  0.00     0.037 A 
ATOM     51  C   UNL A   1      39.620  33.070  35.823  1.00  0.00     0.037 A 
ATOM     52  C   UNL A   1      41.311  28.723  31.265  1.00  0.00     0.049 A 
ATOM     53  C   UNL A   1      40.703  32.031  35.741  1.00  0.00     0.074 A 
ATOM     54  C   UNL A   1      42.355  27.815  31.300  1.00  0.00     0.029 A 
ATOM     55  N   UNL A   1      41.358  29.429  32.458  1.00  0.00    -0.354 N 
ATOM     56  N   UNL A   1      40.978  31.198  34.767  1.00  0.00    -0.248 NA
ATOM     57  C   UNL A   1      41.599  31.918  36.899  1.00  0.00     0.031 C 
ATOM     58  C   UNL A   1      43.013  27.950  32.529  1.00  0.00     0.029 A 
ATOM     59  C   UNL A   1      42.406  28.970  33.241  1.00  0.00     0.049 A 
ATOM     60  H   UNL A   1      40.738  30.151  32.712  1.00  0.00     0.167 HD
ATOM     61  C   UNL A   1      42.093  30.484  35.180  1.00  0.00     0.074 A 
ATOM     62  C   UNL A   1      42.455  30.993  36.488  1.00  0.00     0.031 C 
ATOM     63  C   UNL A   1      42.758  29.494  34.536  1.00  0.00     0.037 A 
BRANCH  50  64
ATOM     64  C   UNL A   1      40.392  28.055  29.010  1.00  0.00     0.064 A 
ATOM     65  C   UNL A   1      39.674  26.851  28.945  1.00  0.00     0.173 A 
ATOM     66  C   UNL A   1      41.144  28.432  27.888  1.00  0.00     0.173 A 
ATOM     67  F   UNL A   1      38.948  26.441  29.996  1.00  0.00    -0.203 F 
ATOM     68  C   UNL A   1      39.731  26.042  27.813  1.00  0.00     0.198 A 
ATOM     69  C   UNL A   1      41.177  27.634  26.746  1.00  0.00     0.198 A 
ATOM     70  F   UNL A   1      41.844  29.575  27.894  1.00  0.00    -0.203 F 
ATOM     71  F   UNL A   1      39.076  24.873  27.793  1.00  0.00    -0.200 F 
ATOM     72  C   UNL A   1      40.478  26.436  26.713  1.00  0.00     0.200 A 
ATOM     73  F   UNL A   1      41.890  28.021  25.679  1.00  0.00    -0.200 F 
ATOM     74  F   UNL A   1      40.529  25.659  25.623  1.00  0.00    -0.200 F 
ENDBRANCH  50  64
BRANCH  51  75
ATOM     75  C   UNL A   1      39.485  33.938  37.021  1.00  0.00     0.064 A 
ATOM     76  C   UNL A   1      40.083  35.206  37.059  1.00  0.00     0.173 A 
ATOM     77  C   UNL A   1      38.763  33.522  38.148  1.00  0.00     0.173 A 
ATOM     78  F   UNL A   1      40.800  35.640  36.013  1.00  0.00    -0.203 F 
ATOM     79  C   UNL A   1      39.979  36.017  38.188  1.00  0.00     0.198 A 
ATOM     80  C   UNL A   1      38.637  34.344  39.266  1.00  0.00     0.198 A 
ATOM     81  F   UNL A   1      38.167  32.320  38.157  1.00  0.00    -0.203 F 
ATOM     82  F   UNL A   1      40.596  37.206  38.215  1.00  0.00    -0.200 F 
ATOM     83  C   UNL A   1      39.252  35.587  39.288  1.00  0.00     0.200 A 
ATOM     84  F   UNL A   1      37.923  33.931  40.321  1.00  0.00    -0.200 F 
ATOM     85  F   UNL A   1      39.150  36.368  40.373  1.00  0.00    -0.200 F 
ENDBRANCH  51  75
BRANCH  63  86
ATOM     86  C   UNL A   1      43.965  28.925  35.222  1.00  0.00     0.064 A 
ATOM     87  C   UNL A   1      43.865  27.851  36.119  1.00  0.00     0.173 A 
ATOM     88  C   UNL A   1      45.240  29.452  34.965  1.00  0.00     0.173 A 
ATOM     89  F   UNL A   1      42.667  27.325  36.410  1.00  0.00    -0.203 F 
ATOM     90  C   UNL A   1      44.994  27.348  36.760  1.00  0.00     0.198 A 
ATOM     91  C   UNL A   1      46.369  28.927  35.587  1.00  0.00     0.198 A 
ATOM     92  F   UNL A   1      45.390  30.475  34.111  1.00  0.00    -0.203 F 
ATOM     93  F   UNL A   1      44.869  26.359  37.655  1.00  0.00    -0.200 F 
ATOM     94  C   UNL A   1      46.246  27.883  36.490  1.00  0.00     0.200 A 
ATOM     95  F   UNL A   1      47.579  29.439  35.316  1.00  0.00    -0.200 F 
ATOM     96  F   UNL A   1      47.331  27.398  37.109  1.00  0.00    -0.200 F 
ENDBRANCH  63  86
ENDBRANCH  37  38
ENDBRANCH  29  32
ENDBRANCH  27  28
ENDBRANCH  26  27
ENDBRANCH   1  26
TORSDOF 14
ENDMDL
MODEL 3
REMARK VINA RESULT:     -12.6      1.766      2.894
REMARK SMILES O=C(Cc1ccccc1Nc1c(Cl)cccc1C(F)(F)F)NCCCNC(=O)c1ccc(-c2c3nc(c(-c4c(F)c(F)c(F)c(F)c4F)c4ccc([nH]4)c(-c4c(F)c(F)c(F)c(F)c4F)c4nc(c(-c5c(F)c(F)c(F)c(F)c5F)c5ccc2[nH]5)C=C4)C=C3)cc1
REMARK SMILES IDX 23 1 22 2 1 3 2 4 3 6 4 7 5 8 9 9 6 10 8 11 7 12 10 13 11 15
REMARK SMILES IDX 12 16 17 17 13 18 14 19 16 20 15 21 18 22 19 23 20 24 21 25
REMARK SMILES IDX 24 26 25 27 26 28 27 29 28 31 29 32 30 33 91 34 31 35 90 36
REMARK SMILES IDX 32 37 33 38 34 39 84 40 35 41 89 42 83 43 85 44 36 45 88 46
REMARK SMILES IDX 82 47 81 48 37 50 69 51 49 52 68 53 50 54 53 55 67 56 86 57
REMARK SMILES IDX 51 58 52 59 66 61 87 62 54 63 38 64 39 65 47 66 40 67 41 68
REMARK SMILES IDX 45 69 48 70 42 71 43 72 46 73 44 74 70 75 71 76 79 77 72 78
REMARK SMILES IDX 73 79 77 80 80 81 74 82 75 83 78 84 76 85 55 86 56 87 64 88
REMARK SMILES IDX 57 89 58 90 62 91 65 92 59 93 60 94 63 95 61 96
REMARK H PARENT 22 5 10 14 26 30 85 49 53 60
REMARK Flexibility Score: inf
ROOT
ATOM      1  C   UNL A   1      31.400  30.502  26.858  1.00  0.00     0.117 C 
ENDROOT
BRANCH   1   2
ATOM      2  N   UNL A   1      32.592  29.742  26.527  1.00  0.00    -0.356 N 
ATOM      3  O   UNL A   1      31.773  27.725  27.265  1.00  0.00    -0.275 OA
ATOM      4  C   UNL A   1      32.668  28.371  26.734  1.00  0.00     0.224 C 
ATOM      5  H   UNL A   1      33.369  30.212  26.146  1.00  0.00     0.163 HD
BRANCH   4   6
ATOM      6  C   UNL A   1      33.934  27.743  26.189  1.00  0.00     0.137 C 
BRANCH   6   7
ATOM      7  C   UNL A   1      33.872  27.131  24.794  1.00  0.00    -0.015 A 
ATOM      8  C   UNL A   1      33.783  28.055  23.728  1.00  0.00     0.006 A 
ATOM      9  C   UNL A   1      33.767  25.750  24.500  1.00  0.00     0.042 A 
ATOM     10  C   UNL A   1      33.565  27.640  22.415  1.00  0.00     0.000 A 
ATOM     11  C   UNL A   1      33.493  25.361  23.173  1.00  0.00     0.026 A 
ATOM     12  C   UNL A   1      33.402  26.293  22.140  1.00  0.00     0.002 A 
BRANCH   9  13
ATOM     13  N   UNL A   1      33.836  24.766  25.506  1.00  0.00    -0.354 N 
ATOM     14  H   UNL A   1      33.872  25.111  26.428  1.00  0.00     0.167 HD
BRANCH  13  15
ATOM     15  C   UNL A   1      33.864  23.358  25.390  1.00  0.00     0.070 A 
ATOM     16  C   UNL A   1      35.076  22.708  25.078  1.00  0.00     0.065 A 
ATOM     17  C   UNL A   1      32.667  22.609  25.377  1.00  0.00     0.080 A 
ATOM     18  Cl  UNL A   1      36.571  23.584  25.027  1.00  0.00    -0.082 Cl
ATOM     19  C   UNL A   1      35.107  21.345  24.783  1.00  0.00     0.023 A 
ATOM     20  C   UNL A   1      32.721  21.231  25.083  1.00  0.00     0.015 A 
ATOM     21  C   UNL A   1      33.928  20.608  24.779  1.00  0.00     0.002 A 
BRANCH  17  22
ATOM     22  C   UNL A   1      31.326  23.232  25.691  1.00  0.00     0.418 C 
ATOM     23  F   UNL A   1      30.358  22.298  25.931  1.00  0.00    -0.166 F 
ATOM     24  F   UNL A   1      31.357  24.012  26.806  1.00  0.00    -0.166 F 
ATOM     25  F   UNL A   1      30.829  24.000  24.685  1.00  0.00    -0.166 F 
ENDBRANCH  17  22
ENDBRANCH  13  15
ENDBRANCH   9  13
ENDBRANCH   6   7
ENDBRANCH   4   6
ENDBRANCH   1   2
BRANCH   1  26
ATOM     26  C   UNL A   1      31.506  31.987  26.525  1.00  0.00     0.042 C 
BRANCH  26  27
ATOM     27  C   UNL A   1      32.665  32.735  27.179  1.00  0.00     0.118 C 
BRANCH  27  28
ATOM     28  N   UNL A   1      32.328  34.065  27.654  1.00  0.00    -0.352 N 
ATOM     29  C   UNL A   1      32.971  34.871  28.568  1.00  0.00     0.251 C 
ATOM     30  H   UNL A   1      31.513  34.453  27.261  1.00  0.00     0.163 HD
ATOM     31  O   UNL A   1      32.490  35.962  28.848  1.00  0.00    -0.269 OA
BRANCH  29  32
ATOM     32  C   UNL A   1      34.199  34.420  29.273  1.00  0.00     0.039 A 
ATOM     33  C   UNL A   1      34.033  33.719  30.473  1.00  0.00     0.014 A 
ATOM     34  C   UNL A   1      35.488  34.663  28.793  1.00  0.00     0.014 A 
ATOM     35  C   UNL A   1      35.141  33.184  31.133  1.00  0.00     0.010 A 
ATOM     36  C   UNL A   1      36.590  34.068  29.413  1.00  0.00     0.010 A 
ATOM     37  C   UNL A   1      36.423  33.306  30.579  1.00  0.00    -0.014 A 
BRANCH  37  38
ATOM     38  C   UNL A   1      37.573  32.586  31.184  1.00  0.00     0.031 A 
ATOM     39  C   UNL A   1      38.090  32.952  32.545  1.00  0.00     0.074 A 
ATOM     40  C   UNL A   1      38.178  31.613  30.474  1.00  0.00     0.049 A 
ATOM     41  N   UNL A   1      39.071  32.416  33.228  1.00  0.00    -0.248 NA
ATOM     42  C   UNL A   1      37.437  34.081  33.221  1.00  0.00     0.031 C 
ATOM     43  C   UNL A   1      37.810  31.208  29.115  1.00  0.00     0.029 A 
ATOM     44  N   UNL A   1      39.226  30.786  30.793  1.00  0.00    -0.354 N 
ATOM     45  C   UNL A   1      39.155  33.142  34.407  1.00  0.00     0.074 A 
ATOM     46  C   UNL A   1      38.159  34.190  34.327  1.00  0.00     0.031 C 
ATOM     47  C   UNL A   1      38.595  30.189  28.732  1.00  0.00     0.029 A 
ATOM     48  C   UNL A   1      39.538  29.886  29.804  1.00  0.00     0.049 A 
ATOM     49  H   UNL A   1      39.709  30.833  31.650  1.00  0.00     0.167 HD
ATOM     50  C   UNL A   1      39.974  32.941  35.468  1.00  0.00     0.037 A 
ATOM     51  C   UNL A   1      40.474  28.919  29.767  1.00  0.00     0.037 A 
ATOM     52  C   UNL A   1      40.957  31.890  35.552  1.00  0.00     0.049 A 
ATOM     53  C   UNL A   1      41.349  28.699  30.969  1.00  0.00     0.074 A 
ATOM     54  C   UNL A   1      41.805  31.581  36.599  1.00  0.00     0.029 A 
ATOM     55  N   UNL A   1      41.221  30.977  34.541  1.00  0.00    -0.354 N 
ATOM     56  N   UNL A   1      41.368  29.347  32.107  1.00  0.00    -0.248 NA
ATOM     57  C   UNL A   1      42.323  27.602  30.885  1.00  0.00     0.031 C 
ATOM     58  C   UNL A   1      42.607  30.500  36.211  1.00  0.00     0.029 A 
ATOM     59  C   UNL A   1      42.228  30.110  34.938  1.00  0.00     0.049 A 
ATOM     60  H   UNL A   1      40.762  30.948  33.671  1.00  0.00     0.167 HD
ATOM     61  C   UNL A   1      42.332  28.722  32.886  1.00  0.00     0.074 A 
ATOM     62  C   UNL A   1      42.864  27.630  32.094  1.00  0.00     0.031 C 
ATOM     63  C   UNL A   1      42.741  29.025  34.142  1.00  0.00     0.037 A 
BRANCH  50  64
ATOM     64  C   UNL A   1      39.838  33.880  36.632  1.00  0.00     0.064 A 
ATOM     65  C   UNL A   1      40.531  35.100  36.673  1.00  0.00     0.173 A 
ATOM     66  C   UNL A   1      38.986  33.573  37.703  1.00  0.00     0.173 A 
ATOM     67  F   UNL A   1      41.367  35.436  35.680  1.00  0.00    -0.203 F 
ATOM     68  C   UNL A   1      40.397  35.964  37.758  1.00  0.00     0.198 A 
ATOM     69  C   UNL A   1      38.833  34.452  38.772  1.00  0.00     0.198 A 
ATOM     70  F   UNL A   1      38.296  32.423  37.710  1.00  0.00    -0.203 F 
ATOM     71  F   UNL A   1      41.106  37.101  37.798  1.00  0.00    -0.200 F 
ATOM     72  C   UNL A   1      39.545  35.642  38.803  1.00  0.00     0.200 A 
ATOM     73  F   UNL A   1      38.001  34.145  39.777  1.00  0.00    -0.200 F 
ATOM     74  F   UNL A   1      39.414  36.476  39.844  1.00  0.00    -0.200 F 
ENDBRANCH  50  64
BRANCH  51  75
ATOM     75  C   UNL A   1      40.595  28.052  28.566  1.00  0.00     0.064 A 
ATOM     76  C   UNL A   1      41.374  28.449  27.469  1.00  0.00     0.173 A 
ATOM     77  C   UNL A   1      39.939  26.816  28.487  1.00  0.00     0.173 A 
ATOM     78  F   UNL A   1      42.005  29.632  27.490  1.00  0.00    -0.203 F 
ATOM     79  C   UNL A   1      41.474  27.651  26.331  1.00  0.00     0.198 A 
ATOM     80  C   UNL A   1      40.061  26.006  27.360  1.00  0.00     0.198 A 
ATOM     81  F   UNL A   1      39.188  26.388  29.513  1.00  0.00    -0.203 F 
ATOM     82  F   UNL A   1      42.189  28.075  25.280  1.00  0.00    -0.200 F 
ATOM     83  C   UNL A   1      40.822  26.429  26.279  1.00  0.00     0.200 A 
ATOM     84  F   UNL A   1      39.441  24.820  27.319  1.00  0.00    -0.200 F 
ATOM     85  F   UNL A   1      40.921  25.660  25.186  1.00  0.00    -0.200 F 
ENDBRANCH  51  75
BRANCH  63  86
ATOM     86  C   UNL A   1      43.789  28.139  34.749  1.00  0.00     0.064 A 
ATOM     87  C   UNL A   1      43.455  26.948  35.409  1.00  0.00     0.173 A 
ATOM     88  C   UNL A   1      45.147  28.481  34.655  1.00  0.00     0.173 A 
ATOM     89  F   UNL A   1      42.170  26.587  35.540  1.00  0.00    -0.203 F 
ATOM     90  C   UNL A   1      44.439  26.148  35.982  1.00  0.00     0.198 A 
ATOM     91  C   UNL A   1      46.130  27.664  35.205  1.00  0.00     0.198 A 
ATOM     92  F   UNL A   1      45.519  29.607  34.029  1.00  0.00    -0.203 F 
ATOM     93  F   UNL A   1      44.094  25.042  36.656  1.00  0.00    -0.200 F 
ATOM     94  C   UNL A   1      45.776  26.503  35.876  1.00  0.00     0.200 A 
ATOM     95  F   UNL A   1      47.422  28.004  35.091  1.00  0.00    -0.200 F 
ATOM     96  F   UNL A   1      46.722  25.732  36.429  1.00  0.00    -0.200 F 
ENDBRANCH  63  86
ENDBRANCH  37  38
ENDBRANCH  29  32
ENDBRANCH  27  28
ENDBRANCH  26  27
ENDBRANCH   1  26
TORSDOF 14
ENDMDL
