MODEL 1
REMARK VINA RESULT:     -12.2      0.000      0.000
REMARK SMILES CCOc1cc(/C=C(/F)C(=O)NCCCNC(=O)c2ccc(-c3c4nc(c(-c5c(F)c(F)c(F)c(F)c5F)c5ccc([nH]5)c(-c5c(F)c(F)c(F)c(F)c5F)c5nc(c(-c6c(F)c(F)c(F)c(F)c6F)c6ccc3[nH]6)C=C5)C=C4)cc2)ccc1O
REMARK SMILES IDX 13 1 12 2 10 3 11 4 8 6 7 7 9 8 6 9 4 10 5 11 84 12 83 13
REMARK SMILES IDX 82 14 3 15 2 16 1 17 85 18 14 20 15 21 16 22 17 23 18 25
REMARK SMILES IDX 19 26 20 27 81 28 21 29 80 30 22 31 23 32 24 33 74 34 25 35
REMARK SMILES IDX 79 36 73 37 75 38 26 39 78 40 72 41 71 42 27 44 59 45 39 46
REMARK SMILES IDX 58 47 40 48 43 49 57 50 76 51 41 52 42 53 56 55 77 56 44 57
REMARK SMILES IDX 28 58 29 59 37 60 30 61 31 62 35 63 38 64 32 65 33 66 36 67
REMARK SMILES IDX 34 68 60 69 61 70 69 71 62 72 63 73 67 74 70 75 64 76 65 77
REMARK SMILES IDX 68 78 66 79 45 80 46 81 54 82 47 83 48 84 52 85 55 86 49 87
REMARK SMILES IDX 50 88 53 89 51 90
REMARK H PARENT 12 5 85 19 16 24 75 43 43 54
REMARK Flexibility Score: inf
ROOT
ATOM      1  C   UNL A   1      31.547  30.811  25.947  1.00  0.00     0.118 C 
ENDROOT
BRANCH   1   2
ATOM      2  N   UNL A   1      31.501  29.826  27.007  1.00  0.00    -0.350 N 
ATOM      3  C   UNL A   1      32.093  28.612  27.153  1.00  0.00     0.280 C 
ATOM      4  O   UNL A   1      31.448  27.822  27.836  1.00  0.00    -0.267 OA
ATOM      5  H   UNL A   1      30.932  30.086  27.769  1.00  0.00     0.163 HD
BRANCH   3   6
ATOM      6  C   UNL A   1      33.430  28.312  26.550  1.00  0.00     0.188 C 
ATOM      7  C   UNL A   1      33.767  27.765  25.367  1.00  0.00     0.053 C 
ATOM      8  F   UNL A   1      34.474  28.610  27.359  1.00  0.00    -0.201 F 
BRANCH   7   9
ATOM      9  C   UNL A   1      33.048  27.276  24.169  1.00  0.00    -0.019 A 
ATOM     10  C   UNL A   1      31.342  27.447  22.401  1.00  0.00     0.161 A 
ATOM     11  C   UNL A   1      31.913  27.865  23.613  1.00  0.00     0.058 A 
ATOM     12  C   UNL A   1      31.909  26.364  21.743  1.00  0.00     0.157 A 
ATOM     13  C   UNL A   1      32.976  25.680  22.319  1.00  0.00     0.051 A 
ATOM     14  C   UNL A   1      33.548  26.138  23.514  1.00  0.00     0.012 A 
BRANCH  10  15
ATOM     15  O   UNL A   1      30.308  28.246  22.013  1.00  0.00    -0.490 OA
BRANCH  15  16
ATOM     16  C   UNL A   1      29.197  28.525  22.853  1.00  0.00     0.226 C 
ATOM     17  C   UNL A   1      28.271  29.608  22.330  1.00  0.00     0.049 C 
ENDBRANCH  15  16
ENDBRANCH  10  15
BRANCH  12  18
ATOM     18  O   UNL A   1      31.525  25.948  20.504  1.00  0.00    -0.504 OA
ATOM     19  H   UNL A   1      32.156  25.881  19.816  1.00  0.00     0.293 HD
ENDBRANCH  12  18
ENDBRANCH   7   9
ENDBRANCH   3   6
ENDBRANCH   1   2
BRANCH   1  20
ATOM     20  C   UNL A   1      31.335  32.216  26.512  1.00  0.00     0.042 C 
BRANCH  20  21
ATOM     21  C   UNL A   1      32.542  32.796  27.252  1.00  0.00     0.118 C 
BRANCH  21  22
ATOM     22  N   UNL A   1      32.361  34.190  27.637  1.00  0.00    -0.352 N 
ATOM     23  C   UNL A   1      33.000  34.936  28.592  1.00  0.00     0.251 C 
ATOM     24  H   UNL A   1      31.669  34.673  27.129  1.00  0.00     0.163 HD
ATOM     25  O   UNL A   1      32.580  36.059  28.870  1.00  0.00    -0.269 OA
BRANCH  23  26
ATOM     26  C   UNL A   1      34.171  34.396  29.312  1.00  0.00     0.039 A 
ATOM     27  C   UNL A   1      33.964  33.721  30.518  1.00  0.00     0.014 A 
ATOM     28  C   UNL A   1      35.467  34.571  28.820  1.00  0.00     0.014 A 
ATOM     29  C   UNL A   1      35.050  33.167  31.199  1.00  0.00     0.010 A 
ATOM     30  C   UNL A   1      36.539  33.951  29.459  1.00  0.00     0.010 A 
ATOM     31  C   UNL A   1      36.343  33.246  30.657  1.00  0.00    -0.014 A 
BRANCH  31  32
ATOM     32  C   UNL A   1      37.498  32.600  31.333  1.00  0.00     0.031 A 
ATOM     33  C   UNL A   1      38.224  31.460  30.671  1.00  0.00     0.074 A 
ATOM     34  C   UNL A   1      37.860  33.005  32.568  1.00  0.00     0.049 A 
ATOM     35  N   UNL A   1      39.215  30.734  31.125  1.00  0.00    -0.248 NA
ATOM     36  C   UNL A   1      37.761  31.066  29.331  1.00  0.00     0.031 C 
ATOM     37  C   UNL A   1      37.210  34.070  33.333  1.00  0.00     0.029 A 
ATOM     38  N   UNL A   1      38.858  32.561  33.401  1.00  0.00    -0.354 N 
ATOM     39  C   UNL A   1      39.475  29.789  30.141  1.00  0.00     0.074 A 
ATOM     40  C   UNL A   1      38.513  30.003  29.083  1.00  0.00     0.031 C 
ATOM     41  C   UNL A   1      37.840  34.214  34.511  1.00  0.00     0.029 A 
ATOM     42  C   UNL A   1      38.909  33.225  34.604  1.00  0.00     0.049 A 
ATOM     43  H   UNL A   1      39.478  31.836  33.159  1.00  0.00     0.167 HD
ATOM     44  C   UNL A   1      40.443  28.841  30.115  1.00  0.00     0.037 A 
ATOM     45  C   UNL A   1      39.719  33.048  35.664  1.00  0.00     0.037 A 
ATOM     46  C   UNL A   1      41.424  28.656  31.153  1.00  0.00     0.049 A 
ATOM     47  C   UNL A   1      40.782  31.980  35.604  1.00  0.00     0.074 A 
ATOM     48  C   UNL A   1      42.491  27.776  31.180  1.00  0.00     0.029 A 
ATOM     49  N   UNL A   1      41.453  29.360  32.347  1.00  0.00    -0.354 N 
ATOM     50  N   UNL A   1      41.073  31.153  34.630  1.00  0.00    -0.248 NA
ATOM     51  C   UNL A   1      41.635  31.829  36.791  1.00  0.00     0.031 C 
ATOM     52  C   UNL A   1      43.132  27.904  32.416  1.00  0.00     0.029 A 
ATOM     53  C   UNL A   1      42.505  28.911  33.131  1.00  0.00     0.049 A 
ATOM     54  H   UNL A   1      40.822  30.073  32.600  1.00  0.00     0.167 HD
ATOM     55  C   UNL A   1      42.167  30.417  35.068  1.00  0.00     0.074 A 
ATOM     56  C   UNL A   1      42.497  30.906  36.390  1.00  0.00     0.031 C 
ATOM     57  C   UNL A   1      42.839  29.426  34.434  1.00  0.00     0.037 A 
BRANCH  44  58
ATOM     58  C   UNL A   1      40.501  27.922  28.929  1.00  0.00     0.064 A 
ATOM     59  C   UNL A   1      39.739  26.746  28.866  1.00  0.00     0.173 A 
ATOM     60  C   UNL A   1      41.270  28.267  27.805  1.00  0.00     0.173 A 
ATOM     61  F   UNL A   1      38.996  26.366  29.915  1.00  0.00    -0.203 F 
ATOM     62  C   UNL A   1      39.756  25.942  27.730  1.00  0.00     0.198 A 
ATOM     63  C   UNL A   1      41.260  27.476  26.659  1.00  0.00     0.198 A 
ATOM     64  F   UNL A   1      42.012  29.384  27.811  1.00  0.00    -0.203 F 
ATOM     65  F   UNL A   1      39.047  24.804  27.704  1.00  0.00    -0.200 F 
ATOM     66  C   UNL A   1      40.507  26.312  26.623  1.00  0.00     0.200 A 
ATOM     67  F   UNL A   1      41.973  27.846  25.586  1.00  0.00    -0.200 F 
ATOM     68  F   UNL A   1      40.505  25.548  25.523  1.00  0.00    -0.200 F 
ENDBRANCH  44  58
BRANCH  45  69
ATOM     69  C   UNL A   1      39.579  33.899  36.877  1.00  0.00     0.064 A 
ATOM     70  C   UNL A   1      38.838  33.461  37.984  1.00  0.00     0.173 A 
ATOM     71  C   UNL A   1      40.130  35.188  36.934  1.00  0.00     0.173 A 
ATOM     72  F   UNL A   1      38.273  32.243  37.971  1.00  0.00    -0.203 F 
ATOM     73  C   UNL A   1      38.617  34.291  39.081  1.00  0.00     0.198 A 
ATOM     74  C   UNL A   1      39.940  36.004  38.048  1.00  0.00     0.198 A 
ATOM     75  F   UNL A   1      40.852  35.657  35.907  1.00  0.00    -0.203 F 
ATOM     76  F   UNL A   1      37.843  33.871  40.091  1.00  0.00    -0.200 F 
ATOM     77  C   UNL A   1      39.170  35.561  39.113  1.00  0.00     0.200 A 
ATOM     78  F   UNL A   1      40.489  37.225  38.082  1.00  0.00    -0.200 F 
ATOM     79  F   UNL A   1      38.949  36.364  40.163  1.00  0.00    -0.200 F 
ENDBRANCH  45  69
BRANCH  57  80
ATOM     80  C   UNL A   1      44.039  28.848  35.128  1.00  0.00     0.064 A 
ATOM     81  C   UNL A   1      45.326  29.376  34.949  1.00  0.00     0.173 A 
ATOM     82  C   UNL A   1      43.890  27.769  36.013  1.00  0.00     0.173 A 
ATOM     83  F   UNL A   1      45.526  30.399  34.104  1.00  0.00    -0.203 F 
ATOM     84  C   UNL A   1      46.424  28.821  35.603  1.00  0.00     0.198 A 
ATOM     85  C   UNL A   1      44.983  27.241  36.693  1.00  0.00     0.198 A 
ATOM     86  F   UNL A   1      42.679  27.232  36.228  1.00  0.00    -0.203 F 
ATOM     87  F   UNL A   1      47.653  29.303  35.369  1.00  0.00    -0.200 F 
ATOM     88  C   UNL A   1      46.251  27.760  36.479  1.00  0.00     0.200 A 
ATOM     89  F   UNL A   1      44.810  26.228  37.553  1.00  0.00    -0.200 F 
ATOM     90  F   UNL A   1      47.307  27.233  37.113  1.00  0.00    -0.200 F 
ENDBRANCH  57  80
ENDBRANCH  31  32
ENDBRANCH  23  26
ENDBRANCH  21  22
ENDBRANCH  20  21
ENDBRANCH   1  20
TORSDOF 14
ENDMDL
MODEL 2
REMARK VINA RESULT:     -12.0      0.597      7.674
REMARK SMILES CCOc1cc(/C=C(/F)C(=O)NCCCNC(=O)c2ccc(-c3c4nc(c(-c5c(F)c(F)c(F)c(F)c5F)c5ccc([nH]5)c(-c5c(F)c(F)c(F)c(F)c5F)c5nc(c(-c6c(F)c(F)c(F)c(F)c6F)c6ccc3[nH]6)C=C5)C=C4)cc2)ccc1O
REMARK SMILES IDX 13 1 12 2 10 3 11 4 8 6 7 7 9 8 6 9 4 10 5 11 84 12 83 13
REMARK SMILES IDX 82 14 3 15 2 16 1 17 85 18 14 20 15 21 16 22 17 23 18 25
REMARK SMILES IDX 19 26 20 27 81 28 21 29 80 30 22 31 23 32 24 33 74 34 25 35
REMARK SMILES IDX 79 36 73 37 75 38 26 39 78 40 72 41 71 42 27 44 59 45 39 46
REMARK SMILES IDX 58 47 40 48 43 49 57 50 76 51 41 52 42 53 56 55 77 56 44 57
REMARK SMILES IDX 28 58 29 59 37 60 30 61 31 62 35 63 38 64 32 65 33 66 36 67
REMARK SMILES IDX 34 68 60 69 61 70 69 71 62 72 63 73 67 74 70 75 64 76 65 77
REMARK SMILES IDX 68 78 66 79 45 80 46 81 54 82 47 83 48 84 52 85 55 86 49 87
REMARK SMILES IDX 50 88 53 89 51 90
REMARK H PARENT 12 5 85 19 16 24 75 43 43 54
REMARK Flexibility Score: inf
ROOT
ATOM      1  C   UNL A   1      31.556  30.792  26.006  1.00  0.00     0.118 C 
ENDROOT
BRANCH   1   2
ATOM      2  N   UNL A   1      31.486  29.783  27.042  1.00  0.00    -0.350 N 
ATOM      3  C   UNL A   1      32.065  28.560  27.168  1.00  0.00     0.280 C 
ATOM      4  O   UNL A   1      31.404  27.761  27.823  1.00  0.00    -0.267 OA
ATOM      5  H   UNL A   1      30.910  30.030  27.802  1.00  0.00     0.163 HD
BRANCH   3   6
ATOM      6  C   UNL A   1      33.407  28.263  26.577  1.00  0.00     0.188 C 
ATOM      7  C   UNL A   1      33.756  27.728  25.391  1.00  0.00     0.053 C 
ATOM      8  F   UNL A   1      34.444  28.548  27.400  1.00  0.00    -0.201 F 
BRANCH   7   9
ATOM      9  C   UNL A   1      33.048  27.254  24.180  1.00  0.00    -0.019 A 
ATOM     10  C   UNL A   1      31.354  27.445  22.402  1.00  0.00     0.161 A 
ATOM     11  C   UNL A   1      31.914  27.847  23.624  1.00  0.00     0.058 A 
ATOM     12  C   UNL A   1      31.932  26.376  21.731  1.00  0.00     0.157 A 
ATOM     13  C   UNL A   1      32.998  25.688  22.304  1.00  0.00     0.051 A 
ATOM     14  C   UNL A   1      33.559  26.130  23.510  1.00  0.00     0.012 A 
BRANCH  10  15
ATOM     15  O   UNL A   1      30.320  28.245  22.019  1.00  0.00    -0.490 OA
BRANCH  15  16
ATOM     16  C   UNL A   1      29.562  29.015  22.943  1.00  0.00     0.226 C 
ATOM     17  C   UNL A   1      28.115  28.581  23.083  1.00  0.00     0.049 C 
ENDBRANCH  15  16
ENDBRANCH  10  15
BRANCH  12  18
ATOM     18  O   UNL A   1      31.559  25.978  20.482  1.00  0.00    -0.504 OA
ATOM     19  H   UNL A   1      31.292  26.612  19.848  1.00  0.00     0.293 HD
ENDBRANCH  12  18
ENDBRANCH   7   9
ENDBRANCH   3   6
ENDBRANCH   1   2
BRANCH   1  20
ATOM     20  C   UNL A   1      31.383  32.188  26.606  1.00  0.00     0.042 C 
BRANCH  20  21
ATOM     21  C   UNL A   1      32.678  32.837  27.101  1.00  0.00     0.118 C 
BRANCH  21  22
ATOM     22  N   UNL A   1      32.475  34.168  27.656  1.00  0.00    -0.352 N 
ATOM     23  C   UNL A   1      33.090  34.792  28.709  1.00  0.00     0.251 C 
ATOM     24  H   UNL A   1      31.787  34.705  27.202  1.00  0.00     0.163 HD
ATOM     25  O   UNL A   1      32.653  35.867  29.121  1.00  0.00    -0.269 OA
BRANCH  23  26
ATOM     26  C   UNL A   1      34.255  34.176  29.375  1.00  0.00     0.039 A 
ATOM     27  C   UNL A   1      34.032  33.283  30.427  1.00  0.00     0.014 A 
ATOM     28  C   UNL A   1      35.560  34.490  28.988  1.00  0.00     0.014 A 
ATOM     29  C   UNL A   1      35.115  32.656  31.047  1.00  0.00     0.010 A 
ATOM     30  C   UNL A   1      36.635  33.806  29.555  1.00  0.00     0.010 A 
ATOM     31  C   UNL A   1      36.423  32.885  30.593  1.00  0.00    -0.014 A 
BRANCH  31  32
ATOM     32  C   UNL A   1      37.580  32.172  31.196  1.00  0.00     0.031 A 
ATOM     33  C   UNL A   1      38.080  32.557  32.562  1.00  0.00     0.074 A 
ATOM     34  C   UNL A   1      38.214  31.213  30.490  1.00  0.00     0.049 A 
ATOM     35  N   UNL A   1      39.106  32.093  33.230  1.00  0.00    -0.248 NA
ATOM     36  C   UNL A   1      37.345  33.622  33.263  1.00  0.00     0.031 C 
ATOM     37  C   UNL A   1      37.853  30.777  29.140  1.00  0.00     0.029 A 
ATOM     38  N   UNL A   1      39.302  30.437  30.807  1.00  0.00    -0.354 N 
ATOM     39  C   UNL A   1      39.152  32.821  34.411  1.00  0.00     0.074 A 
ATOM     40  C   UNL A   1      38.078  33.788  34.354  1.00  0.00     0.031 C 
ATOM     41  C   UNL A   1      38.686  29.797  28.754  1.00  0.00     0.029 A 
ATOM     42  C   UNL A   1      39.667  29.564  29.810  1.00  0.00     0.049 A 
ATOM     43  H   UNL A   1      39.775  30.500  31.668  1.00  0.00     0.167 HD
ATOM     44  C   UNL A   1      40.002  32.682  35.457  1.00  0.00     0.037 A 
ATOM     45  C   UNL A   1      40.684  28.684  29.751  1.00  0.00     0.037 A 
ATOM     46  C   UNL A   1      41.044  31.691  35.527  1.00  0.00     0.049 A 
ATOM     47  C   UNL A   1      41.615  28.559  30.930  1.00  0.00     0.074 A 
ATOM     48  C   UNL A   1      41.904  31.421  36.578  1.00  0.00     0.029 A 
ATOM     49  N   UNL A   1      41.371  30.814  34.505  1.00  0.00    -0.354 N 
ATOM     50  N   UNL A   1      41.592  29.193  32.077  1.00  0.00    -0.248 NA
ATOM     51  C   UNL A   1      42.708  27.584  30.809  1.00  0.00     0.031 C 
ATOM     52  C   UNL A   1      42.791  30.420  36.169  1.00  0.00     0.029 A 
ATOM     53  C   UNL A   1      42.441  30.021  34.890  1.00  0.00     0.049 A 
ATOM     54  H   UNL A   1      40.912  30.762  33.635  1.00  0.00     0.167 HD
ATOM     55  C   UNL A   1      42.635  28.665  32.826  1.00  0.00     0.074 A 
ATOM     56  C   UNL A   1      43.262  27.648  32.010  1.00  0.00     0.031 C 
ATOM     57  C   UNL A   1      43.038  28.992  34.078  1.00  0.00     0.037 A 
BRANCH  44  58
ATOM     58  C   UNL A   1      39.849  33.617  36.622  1.00  0.00     0.064 A 
ATOM     59  C   UNL A   1      40.494  34.862  36.660  1.00  0.00     0.173 A 
ATOM     60  C   UNL A   1      38.980  33.296  37.677  1.00  0.00     0.173 A 
ATOM     61  F   UNL A   1      41.342  35.214  35.682  1.00  0.00    -0.203 F 
ATOM     62  C   UNL A   1      40.288  35.744  37.718  1.00  0.00     0.198 A 
ATOM     63  C   UNL A   1      38.752  34.193  38.717  1.00  0.00     0.198 A 
ATOM     64  F   UNL A   1      38.333  32.121  37.686  1.00  0.00    -0.203 F 
ATOM     65  F   UNL A   1      40.940  36.914  37.751  1.00  0.00    -0.200 F 
ATOM     66  C   UNL A   1      39.409  35.414  38.739  1.00  0.00     0.200 A 
ATOM     67  F   UNL A   1      37.890  33.878  39.694  1.00  0.00    -0.200 F 
ATOM     68  F   UNL A   1      39.195  36.273  39.745  1.00  0.00    -0.200 F 
ENDBRANCH  44  58
BRANCH  45  69
ATOM     69  C   UNL A   1      40.885  27.837  28.543  1.00  0.00     0.064 A 
ATOM     70  C   UNL A   1      41.665  28.287  27.468  1.00  0.00     0.173 A 
ATOM     71  C   UNL A   1      40.257  26.590  28.411  1.00  0.00     0.173 A 
ATOM     72  F   UNL A   1      42.271  29.483  27.536  1.00  0.00    -0.203 F 
ATOM     73  C   UNL A   1      41.775  27.545  26.294  1.00  0.00     0.198 A 
ATOM     74  C   UNL A   1      40.398  25.831  27.250  1.00  0.00     0.198 A 
ATOM     75  F   UNL A   1      39.503  26.107  29.409  1.00  0.00    -0.203 F 
ATOM     76  F   UNL A   1      42.467  28.036  25.257  1.00  0.00    -0.200 F 
ATOM     77  C   UNL A   1      41.143  26.317  26.187  1.00  0.00     0.200 A 
ATOM     78  F   UNL A   1      39.798  24.637  27.157  1.00  0.00    -0.200 F 
ATOM     79  F   UNL A   1      41.239  25.607  25.054  1.00  0.00    -0.200 F 
ENDBRANCH  45  69
BRANCH  57  80
ATOM     80  C   UNL A   1      44.168  28.200  34.671  1.00  0.00     0.064 A 
ATOM     81  C   UNL A   1      43.952  26.993  35.351  1.00  0.00     0.173 A 
ATOM     82  C   UNL A   1      45.492  28.644  34.526  1.00  0.00     0.173 A 
ATOM     83  F   UNL A   1      42.705  26.531  35.529  1.00  0.00    -0.203 F 
ATOM     84  C   UNL A   1      45.017  26.277  35.894  1.00  0.00     0.198 A 
ATOM     85  C   UNL A   1      46.556  27.907  35.038  1.00  0.00     0.198 A 
ATOM     86  F   UNL A   1      45.756  29.788  33.876  1.00  0.00    -0.203 F 
ATOM     87  F   UNL A   1      44.781  25.157  36.592  1.00  0.00    -0.200 F 
ATOM     88  C   UNL A   1      46.317  26.731  35.730  1.00  0.00     0.200 A 
ATOM     89  F   UNL A   1      47.813  28.338  34.861  1.00  0.00    -0.200 F 
ATOM     90  F   UNL A   1      47.341  26.037  36.247  1.00  0.00    -0.200 F 
ENDBRANCH  57  80
ENDBRANCH  31  32
ENDBRANCH  23  26
ENDBRANCH  21  22
ENDBRANCH  20  21
ENDBRANCH   1  20
TORSDOF 14
ENDMDL
MODEL 3
REMARK VINA RESULT:     -11.7      6.422     10.278
REMARK SMILES CCOc1cc(/C=C(/F)C(=O)NCCCNC(=O)c2ccc(-c3c4nc(c(-c5c(F)c(F)c(F)c(F)c5F)c5ccc([nH]5)c(-c5c(F)c(F)c(F)c(F)c5F)c5nc(c(-c6c(F)c(F)c(F)c(F)c6F)c6ccc3[nH]6)C=C5)C=C4)cc2)ccc1O
REMARK SMILES IDX 13 1 12 2 10 3 11 4 8 6 7 7 9 8 6 9 4 10 5 11 84 12 83 13
REMARK SMILES IDX 82 14 3 15 2 16 1 17 85 18 14 20 15 21 16 22 17 23 18 25
REMARK SMILES IDX 19 26 20 27 81 28 21 29 80 30 22 31 23 32 24 33 74 34 25 35
REMARK SMILES IDX 79 36 73 37 75 38 26 39 78 40 72 41 71 42 27 44 59 45 39 46
REMARK SMILES IDX 58 47 40 48 43 49 57 50 76 51 41 52 42 53 56 55 77 56 44 57
REMARK SMILES IDX 28 58 29 59 37 60 30 61 31 62 35 63 38 64 32 65 33 66 36 67
REMARK SMILES IDX 34 68 60 69 61 70 69 71 62 72 63 73 67 74 70 75 64 76 65 77
REMARK SMILES IDX 68 78 66 79 45 80 46 81 54 82 47 83 48 84 52 85 55 86 49 87
REMARK SMILES IDX 50 88 53 89 51 90
REMARK H PARENT 12 5 85 19 16 24 75 43 43 54
REMARK Flexibility Score: inf
ROOT
ATOM      1  C   UNL A   1      36.782  20.222  25.007  1.00  0.00     0.118 C 
ENDROOT
BRANCH   1   2
ATOM      2  N   UNL A   1      36.787  21.663  25.146  1.00  0.00    -0.350 N 
ATOM      3  C   UNL A   1      35.796  22.562  25.380  1.00  0.00     0.280 C 
ATOM      4  O   UNL A   1      36.004  23.671  24.897  1.00  0.00    -0.267 OA
ATOM      5  H   UNL A   1      37.680  22.070  25.053  1.00  0.00     0.163 HD
BRANCH   3   6
ATOM      6  C   UNL A   1      34.589  22.207  26.191  1.00  0.00     0.188 C 
ATOM      7  C   UNL A   1      33.596  21.326  25.964  1.00  0.00     0.053 C 
ATOM      8  F   UNL A   1      34.461  22.929  27.329  1.00  0.00    -0.201 F 
BRANCH   7   9
ATOM      9  C   UNL A   1      33.262  20.334  24.917  1.00  0.00    -0.019 A 
ATOM     10  C   UNL A   1      33.076  18.043  24.032  1.00  0.00     0.161 A 
ATOM     11  C   UNL A   1      33.529  18.967  24.986  1.00  0.00     0.058 A 
ATOM     12  C   UNL A   1      32.362  18.518  22.940  1.00  0.00     0.157 A 
ATOM     13  C   UNL A   1      32.167  19.887  22.777  1.00  0.00     0.051 A 
ATOM     14  C   UNL A   1      32.601  20.785  23.762  1.00  0.00     0.012 A 
BRANCH  10  15
ATOM     15  O   UNL A   1      33.372  16.758  24.375  1.00  0.00    -0.490 OA
BRANCH  15  16
ATOM     16  C   UNL A   1      32.958  16.177  25.604  1.00  0.00     0.226 C 
ATOM     17  C   UNL A   1      32.523  14.728  25.498  1.00  0.00     0.049 C 
ENDBRANCH  15  16
ENDBRANCH  10  15
BRANCH  12  18
ATOM     18  O   UNL A   1      31.765  17.711  22.019  1.00  0.00    -0.504 OA
ATOM     19  H   UNL A   1      30.908  17.371  22.180  1.00  0.00     0.293 HD
ENDBRANCH  12  18
ENDBRANCH   7   9
ENDBRANCH   3   6
ENDBRANCH   1   2
BRANCH   1  20
ATOM     20  C   UNL A   1      38.206  19.698  24.819  1.00  0.00     0.042 C 
BRANCH  20  21
ATOM     21  C   UNL A   1      39.174  20.053  25.950  1.00  0.00     0.118 C 
BRANCH  21  22
ATOM     22  N   UNL A   1      40.323  19.162  26.021  1.00  0.00    -0.352 N 
ATOM     23  C   UNL A   1      41.655  19.443  26.180  1.00  0.00     0.251 C 
ATOM     24  H   UNL A   1      40.110  18.204  25.943  1.00  0.00     0.163 HD
ATOM     25  O   UNL A   1      42.488  18.546  26.049  1.00  0.00    -0.269 OA
BRANCH  23  26
ATOM     26  C   UNL A   1      42.105  20.818  26.479  1.00  0.00     0.039 A 
ATOM     27  C   UNL A   1      42.375  21.682  25.415  1.00  0.00     0.014 A 
ATOM     28  C   UNL A   1      42.285  21.250  27.795  1.00  0.00     0.014 A 
ATOM     29  C   UNL A   1      42.763  22.998  25.670  1.00  0.00     0.010 A 
ATOM     30  C   UNL A   1      42.596  22.585  28.049  1.00  0.00     0.010 A 
ATOM     31  C   UNL A   1      42.843  23.472  26.990  1.00  0.00    -0.014 A 
BRANCH  31  32
ATOM     32  C   UNL A   1      43.186  24.889  27.276  1.00  0.00     0.031 A 
ATOM     33  C   UNL A   1      44.570  25.408  26.989  1.00  0.00     0.074 A 
ATOM     34  C   UNL A   1      42.267  25.697  27.844  1.00  0.00     0.049 A 
ATOM     35  N   UNL A   1      45.075  26.593  27.222  1.00  0.00    -0.248 NA
ATOM     36  C   UNL A   1      45.522  24.462  26.384  1.00  0.00     0.031 C 
ATOM     37  C   UNL A   1      40.904  25.303  28.208  1.00  0.00     0.029 A 
ATOM     38  N   UNL A   1      42.342  27.015  28.223  1.00  0.00    -0.354 N 
ATOM     39  C   UNL A   1      46.400  26.528  26.815  1.00  0.00     0.074 A 
ATOM     40  C   UNL A   1      46.638  25.176  26.360  1.00  0.00     0.031 C 
ATOM     41  C   UNL A   1      40.265  26.360  28.735  1.00  0.00     0.029 A 
ATOM     42  C   UNL A   1      41.183  27.495  28.785  1.00  0.00     0.049 A 
ATOM     43  H   UNL A   1      43.149  27.564  28.103  1.00  0.00     0.167 HD
ATOM     44  C   UNL A   1      47.331  27.513  26.804  1.00  0.00     0.037 A 
ATOM     45  C   UNL A   1      40.898  28.708  29.294  1.00  0.00     0.037 A 
ATOM     46  C   UNL A   1      47.080  28.868  27.221  1.00  0.00     0.049 A 
ATOM     47  C   UNL A   1      41.957  29.780  29.271  1.00  0.00     0.074 A 
ATOM     48  C   UNL A   1      47.935  29.955  27.172  1.00  0.00     0.029 A 
ATOM     49  N   UNL A   1      45.888  29.319  27.768  1.00  0.00    -0.354 N 
ATOM     50  N   UNL A   1      43.180  29.729  28.801  1.00  0.00    -0.248 NA
ATOM     51  C   UNL A   1      41.591  31.083  29.843  1.00  0.00     0.031 C 
ATOM     52  C   UNL A   1      47.282  31.051  27.745  1.00  0.00     0.029 A 
ATOM     53  C   UNL A   1      45.997  30.664  28.088  1.00  0.00     0.049 A 
ATOM     54  H   UNL A   1      45.085  28.767  27.908  1.00  0.00     0.167 HD
ATOM     55  C   UNL A   1      43.711  31.000  28.979  1.00  0.00     0.074 A 
ATOM     56  C   UNL A   1      42.673  31.804  29.587  1.00  0.00     0.031 C 
ATOM     57  C   UNL A   1      44.947  31.460  28.668  1.00  0.00     0.037 A 
BRANCH  44  58
ATOM     58  C   UNL A   1      48.713  27.175  26.325  1.00  0.00     0.064 A 
ATOM     59  C   UNL A   1      49.708  26.717  27.201  1.00  0.00     0.173 A 
ATOM     60  C   UNL A   1      49.021  27.235  24.956  1.00  0.00     0.173 A 
ATOM     61  F   UNL A   1      49.469  26.652  28.519  1.00  0.00    -0.203 F 
ATOM     62  C   UNL A   1      50.964  26.347  26.728  1.00  0.00     0.198 A 
ATOM     63  C   UNL A   1      50.267  26.833  24.483  1.00  0.00     0.198 A 
ATOM     64  F   UNL A   1      48.103  27.659  24.075  1.00  0.00    -0.203 F 
ATOM     65  F   UNL A   1      51.911  25.944  27.587  1.00  0.00    -0.200 F 
ATOM     66  C   UNL A   1      51.239  26.393  25.369  1.00  0.00     0.200 A 
ATOM     67  F   UNL A   1      50.524  26.864  23.168  1.00  0.00    -0.200 F 
ATOM     68  F   UNL A   1      52.440  26.016  24.913  1.00  0.00    -0.200 F 
ENDBRANCH  44  58
BRANCH  45  69
ATOM     69  C   UNL A   1      39.552  28.995  29.863  1.00  0.00     0.064 A 
ATOM     70  C   UNL A   1      38.545  29.572  29.076  1.00  0.00     0.173 A 
ATOM     71  C   UNL A   1      39.262  28.753  31.214  1.00  0.00     0.173 A 
ATOM     72  F   UNL A   1      38.779  29.842  27.782  1.00  0.00    -0.203 F 
ATOM     73  C   UNL A   1      37.318  29.936  29.626  1.00  0.00     0.198 A 
ATOM     74  C   UNL A   1      38.020  29.083  31.754  1.00  0.00     0.198 A 
ATOM     75  F   UNL A   1      40.185  28.198  32.012  1.00  0.00    -0.203 F 
ATOM     76  F   UNL A   1      36.403  30.553  28.866  1.00  0.00    -0.200 F 
ATOM     77  C   UNL A   1      37.056  29.689  30.964  1.00  0.00     0.200 A 
ATOM     78  F   UNL A   1      37.765  28.829  33.044  1.00  0.00    -0.200 F 
ATOM     79  F   UNL A   1      35.879  30.049  31.496  1.00  0.00    -0.200 F 
ENDBRANCH  45  69
BRANCH  57  80
ATOM     80  C   UNL A   1      45.226  32.915  28.914  1.00  0.00     0.064 A 
ATOM     81  C   UNL A   1      44.906  33.903  27.972  1.00  0.00     0.173 A 
ATOM     82  C   UNL A   1      45.795  33.328  30.130  1.00  0.00     0.173 A 
ATOM     83  F   UNL A   1      44.373  33.561  26.788  1.00  0.00    -0.203 F 
ATOM     84  C   UNL A   1      45.177  35.246  28.223  1.00  0.00     0.198 A 
ATOM     85  C   UNL A   1      46.029  34.674  30.392  1.00  0.00     0.198 A 
ATOM     86  F   UNL A   1      46.111  32.424  31.070  1.00  0.00    -0.203 F 
ATOM     87  F   UNL A   1      44.919  36.166  27.283  1.00  0.00    -0.200 F 
ATOM     88  C   UNL A   1      45.731  35.631  29.434  1.00  0.00     0.200 A 
ATOM     89  F   UNL A   1      46.547  35.044  31.571  1.00  0.00    -0.200 F 
ATOM     90  F   UNL A   1      45.984  36.924  29.677  1.00  0.00    -0.200 F 
ENDBRANCH  57  80
ENDBRANCH  31  32
ENDBRANCH  23  26
ENDBRANCH  21  22
ENDBRANCH  20  21
ENDBRANCH   1  20
TORSDOF 14
ENDMDL
