MODEL 1
REMARK VINA RESULT:     -10.0      0.000      0.000
REMARK SMILES C[C@@]1(O)CC(NCCCNC(=O)c2ccc(-c3c4nc(c(-c5c(F)c(F)c(F)c(F)c5F)c5ccc([nH]5)c(-c5c(F)c(F)c(F)c(F)c5F)c5nc(c(-c6c(F)c(F)c(F)c(F)c6F)c6ccc3[nH]6)C=C5)C=C4)cc2)=C(C(=O)Nc2ccccc2)[C@H](c2ccccc2C(=O)[O-])[C@@H]1C(=O)Nc1ccccc1
REMARK SMILES IDX 8 1 7 2 6 3 5 5 1 6 2 7 4 8 96 9 86 10 76 11 3 12 97 14
REMARK SMILES IDX 98 15 99 16 100 18 101 19 105 20 102 21 104 22 103 23 87 24
REMARK SMILES IDX 88 25 92 26 89 27 91 28 90 29 93 30 94 31 95 32 77 33 78 34
REMARK SMILES IDX 79 35 80 37 81 38 85 39 82 40 84 41 83 42 9 43 10 44 11 45
REMARK SMILES IDX 12 47 13 48 14 49 75 50 15 51 74 52 16 53 17 54 18 55 68 56
REMARK SMILES IDX 19 57 73 58 67 59 69 60 20 61 72 62 66 63 65 64 21 66 53 67
REMARK SMILES IDX 33 68 52 69 34 70 37 71 51 72 70 73 35 74 36 75 50 77 71 78
REMARK SMILES IDX 38 79 22 80 23 81 31 82 24 83 25 84 29 85 32 86 26 87 27 88
REMARK SMILES IDX 30 89 28 90 54 91 55 92 63 93 56 94 57 95 61 96 64 97 58 98
REMARK SMILES IDX 59 99 62 100 60 101 39 102 40 103 48 104 41 105 42 106
REMARK SMILES IDX 46 107 49 108 43 109 44 110 47 111 45 112
REMARK H PARENT 6 4 3 13 99 17 79 36 10 46 69 65 37 76
REMARK Flexibility Score: inf
ROOT
ATOM      1  C   UNL A   1      47.252  30.186  27.617  1.00  0.00     0.042 C 
ENDROOT
BRANCH   1   2
ATOM      2  C   UNL A   1      46.831  29.410  26.382  1.00  0.00     0.114 C 
BRANCH   2   3
ATOM      3  N   UNL A   1      46.462  28.040  26.730  1.00  0.00    -0.388 N 
ATOM      4  H   UNL A   1      47.197  27.399  26.865  1.00  0.00     0.160 HD
BRANCH   3   5
ATOM      5  C   UNL A   1      45.164  27.554  26.888  1.00  0.00     0.023 C 
ATOM      6  C   UNL A   1      42.112  28.884  25.474  1.00  0.00     0.043 C 
ATOM      7  C   UNL A   1      42.783  27.529  25.787  1.00  0.00     0.080 C 
ATOM      8  C   UNL A   1      44.307  27.670  25.655  1.00  0.00     0.089 C 
ATOM      9  C   UNL A   1      42.293  27.027  27.182  1.00  0.00     0.123 C 
ATOM     10  C   UNL A   1      43.353  26.198  27.994  1.00  0.00     0.073 C 
ATOM     11  C   UNL A   1      44.674  26.991  28.022  1.00  0.00     0.045 C 
BRANCH   7  12
ATOM     12  O   UNL A   1      42.428  26.663  24.701  1.00  0.00    -0.389 OA
ATOM     13  H   UNL A   1      42.727  27.052  23.866  1.00  0.00     0.211 HD
ENDBRANCH   7  12
BRANCH   9  14
ATOM     14  C   UNL A   1      40.859  26.469  27.127  1.00  0.00     0.231 C 
ATOM     15  O   UNL A   1      40.407  25.878  26.143  1.00  0.00    -0.274 OA
ATOM     16  N   UNL A   1      40.077  26.465  28.243  1.00  0.00    -0.326 N 
ATOM     17  H   UNL A   1      39.794  25.572  28.545  1.00  0.00     0.169 HD
BRANCH  16  18
ATOM     18  C   UNL A   1      39.611  27.525  29.028  1.00  0.00     0.041 A 
ATOM     19  C   UNL A   1      39.027  27.179  30.254  1.00  0.00     0.026 A 
ATOM     20  C   UNL A   1      39.547  28.841  28.579  1.00  0.00     0.026 A 
ATOM     21  C   UNL A   1      38.374  28.140  31.024  1.00  0.00     0.002 A 
ATOM     22  C   UNL A   1      38.880  29.802  29.347  1.00  0.00     0.002 A 
ATOM     23  C   UNL A   1      38.293  29.452  30.565  1.00  0.00     0.000 A 
ENDBRANCH  16  18
ENDBRANCH   9  14
BRANCH  10  24
ATOM     24  C   UNL A   1      43.592  24.640  27.917  1.00  0.00    -0.030 A 
ATOM     25  C   UNL A   1      43.072  23.845  28.974  1.00  0.00     0.005 A 
ATOM     26  C   UNL A   1      43.883  23.909  26.746  1.00  0.00     0.001 A 
ATOM     27  C   UNL A   1      42.589  22.542  28.782  1.00  0.00     0.000 A 
ATOM     28  C   UNL A   1      43.365  22.611  26.537  1.00  0.00     0.010 A 
ATOM     29  C   UNL A   1      42.666  21.952  27.534  1.00  0.00     0.001 A 
BRANCH  26  30
ATOM     30  C   UNL A   1      44.820  24.313  25.694  1.00  0.00     0.072 C 
ATOM     31  O   UNL A   1      44.521  24.578  24.541  1.00  0.00    -0.545 OA
ATOM     32  O   UNL A   1      46.081  24.314  26.148  1.00  0.00    -0.545 OA
ENDBRANCH  26  30
ENDBRANCH  10  24
BRANCH  11  33
ATOM     33  C   UNL A   1      45.541  27.121  29.264  1.00  0.00     0.253 C 
ATOM     34  O   UNL A   1      46.618  26.520  29.333  1.00  0.00    -0.269 OA
ATOM     35  N   UNL A   1      45.320  28.147  30.142  1.00  0.00    -0.322 N 
ATOM     36  H   UNL A   1      46.007  28.852  30.128  1.00  0.00     0.170 HD
BRANCH  35  37
ATOM     37  C   UNL A   1      44.276  28.362  31.060  1.00  0.00     0.041 A 
ATOM     38  C   UNL A   1      44.552  28.161  32.416  1.00  0.00     0.026 A 
ATOM     39  C   UNL A   1      42.970  28.663  30.689  1.00  0.00     0.026 A 
ATOM     40  C   UNL A   1      43.557  28.360  33.379  1.00  0.00     0.002 A 
ATOM     41  C   UNL A   1      41.978  28.883  31.643  1.00  0.00     0.002 A 
ATOM     42  C   UNL A   1      42.275  28.742  32.993  1.00  0.00     0.000 A 
ENDBRANCH  35  37
ENDBRANCH  11  33
ENDBRANCH   3   5
ENDBRANCH   2   3
ENDBRANCH   1   2
BRANCH   1  43
ATOM     43  C   UNL A   1      47.249  31.689  27.406  1.00  0.00     0.118 C 
BRANCH  43  44
ATOM     44  N   UNL A   1      46.482  32.092  26.232  1.00  0.00    -0.352 N 
ATOM     45  C   UNL A   1      45.145  32.371  26.109  1.00  0.00     0.251 C 
ATOM     46  H   UNL A   1      47.005  32.175  25.401  1.00  0.00     0.163 HD
ATOM     47  O   UNL A   1      44.640  32.521  25.001  1.00  0.00    -0.269 OA
BRANCH  45  48
ATOM     48  C   UNL A   1      44.305  32.471  27.320  1.00  0.00     0.039 A 
ATOM     49  C   UNL A   1      43.753  31.308  27.863  1.00  0.00     0.014 A 
ATOM     50  C   UNL A   1      44.070  33.709  27.922  1.00  0.00     0.014 A 
ATOM     51  C   UNL A   1      43.026  31.379  29.051  1.00  0.00     0.010 A 
ATOM     52  C   UNL A   1      43.426  33.767  29.151  1.00  0.00     0.010 A 
ATOM     53  C   UNL A   1      42.892  32.605  29.725  1.00  0.00    -0.014 A 
BRANCH  53  54
ATOM     54  C   UNL A   1      42.187  32.701  31.027  1.00  0.00     0.031 A 
ATOM     55  C   UNL A   1      42.931  32.426  32.303  1.00  0.00     0.074 A 
ATOM     56  C   UNL A   1      40.866  32.962  31.053  1.00  0.00     0.049 A 
ATOM     57  N   UNL A   1      42.479  32.361  33.529  1.00  0.00    -0.248 NA
ATOM     58  C   UNL A   1      44.372  32.151  32.180  1.00  0.00     0.031 C 
ATOM     59  C   UNL A   1      40.026  33.199  29.877  1.00  0.00     0.029 A 
ATOM     60  N   UNL A   1      39.994  33.056  32.108  1.00  0.00    -0.354 N 
ATOM     61  C   UNL A   1      43.572  32.024  34.316  1.00  0.00     0.074 A 
ATOM     62  C   UNL A   1      44.696  31.840  33.425  1.00  0.00     0.031 C 
ATOM     63  C   UNL A   1      38.766  33.435  30.278  1.00  0.00     0.029 A 
ATOM     64  C   UNL A   1      38.702  33.328  31.732  1.00  0.00     0.049 A 
ATOM     65  H   UNL A   1      40.270  32.941  33.047  1.00  0.00     0.167 HD
ATOM     66  C   UNL A   1      43.637  31.906  35.664  1.00  0.00     0.037 A 
ATOM     67  C   UNL A   1      37.589  33.466  32.477  1.00  0.00     0.037 A 
ATOM     68  C   UNL A   1      42.523  32.121  36.547  1.00  0.00     0.049 A 
ATOM     69  C   UNL A   1      37.689  33.327  33.973  1.00  0.00     0.074 A 
ATOM     70  C   UNL A   1      42.496  32.081  37.930  1.00  0.00     0.029 A 
ATOM     71  N   UNL A   1      41.233  32.417  36.130  1.00  0.00    -0.354 N 
ATOM     72  N   UNL A   1      38.741  33.070  34.712  1.00  0.00    -0.248 NA
ATOM     73  C   UNL A   1      36.446  33.501  34.738  1.00  0.00     0.031 C 
ATOM     74  C   UNL A   1      41.183  32.314  38.349  1.00  0.00     0.029 A 
ATOM     75  C   UNL A   1      40.399  32.547  37.229  1.00  0.00     0.049 A 
ATOM     76  H   UNL A   1      40.952  32.522  35.192  1.00  0.00     0.167 HD
ATOM     77  C   UNL A   1      38.296  33.082  36.026  1.00  0.00     0.074 A 
ATOM     78  C   UNL A   1      36.879  33.384  35.985  1.00  0.00     0.031 C 
ATOM     79  C   UNL A   1      38.995  32.862  37.166  1.00  0.00     0.037 A 
BRANCH  66  80
ATOM     80  C   UNL A   1      44.963  31.537  36.263  1.00  0.00     0.064 A 
ATOM     81  C   UNL A   1      45.936  32.507  36.545  1.00  0.00     0.173 A 
ATOM     82  C   UNL A   1      45.253  30.203  36.586  1.00  0.00     0.173 A 
ATOM     83  F   UNL A   1      45.715  33.795  36.243  1.00  0.00    -0.203 F 
ATOM     84  C   UNL A   1      47.163  32.152  37.101  1.00  0.00     0.198 A 
ATOM     85  C   UNL A   1      46.468  29.856  37.172  1.00  0.00     0.198 A 
ATOM     86  F   UNL A   1      44.355  29.237  36.341  1.00  0.00    -0.203 F 
ATOM     87  F   UNL A   1      48.097  33.089  37.314  1.00  0.00    -0.200 F 
ATOM     88  C   UNL A   1      47.425  30.828  37.421  1.00  0.00     0.200 A 
ATOM     89  F   UNL A   1      46.715  28.578  37.491  1.00  0.00    -0.200 F 
ATOM     90  F   UNL A   1      48.603  30.489  37.962  1.00  0.00    -0.200 F 
ENDBRANCH  66  80
BRANCH  67  91
ATOM     91  C   UNL A   1      36.290  33.781  31.827  1.00  0.00     0.064 A 
ATOM     92  C   UNL A   1      35.705  32.884  30.923  1.00  0.00     0.173 A 
ATOM     93  C   UNL A   1      35.615  34.982  32.086  1.00  0.00     0.173 A 
ATOM     94  F   UNL A   1      36.324  31.732  30.628  1.00  0.00    -0.203 F 
ATOM     95  C   UNL A   1      34.503  33.185  30.287  1.00  0.00     0.198 A 
ATOM     96  C   UNL A   1      34.398  35.269  31.469  1.00  0.00     0.198 A 
ATOM     97  F   UNL A   1      36.130  35.872  32.946  1.00  0.00    -0.203 F 
ATOM     98  F   UNL A   1      33.989  32.330  29.391  1.00  0.00    -0.200 F 
ATOM     99  C   UNL A   1      33.848  34.375  30.564  1.00  0.00     0.200 A 
ATOM    100  F   UNL A   1      33.762  36.415  31.750  1.00  0.00    -0.200 F 
ATOM    101  F   UNL A   1      32.691  34.663  29.952  1.00  0.00    -0.200 F 
ENDBRANCH  67  91
BRANCH  79 102
ATOM    102  C   UNL A   1      38.250  32.979  38.463  1.00  0.00     0.064 A 
ATOM    103  C   UNL A   1      37.430  31.945  38.937  1.00  0.00     0.173 A 
ATOM    104  C   UNL A   1      38.395  34.124  39.261  1.00  0.00     0.173 A 
ATOM    105  F   UNL A   1      37.247  30.837  38.203  1.00  0.00    -0.203 F 
ATOM    106  C   UNL A   1      36.763  32.064  40.154  1.00  0.00     0.198 A 
ATOM    107  C   UNL A   1      37.750  34.226  40.490  1.00  0.00     0.198 A 
ATOM    108  F   UNL A   1      39.174  35.138  38.856  1.00  0.00    -0.203 F 
ATOM    109  F   UNL A   1      35.948  31.083  40.567  1.00  0.00    -0.200 F 
ATOM    110  C   UNL A   1      36.930  33.199  40.932  1.00  0.00     0.200 A 
ATOM    111  F   UNL A   1      37.923  35.319  41.247  1.00  0.00    -0.200 F 
ATOM    112  F   UNL A   1      36.293  33.307  42.107  1.00  0.00    -0.200 F 
ENDBRANCH  79 102
ENDBRANCH  53  54
ENDBRANCH  45  48
ENDBRANCH  43  44
ENDBRANCH   1  43
TORSDOF 17
ENDMDL
MODEL 2
REMARK VINA RESULT:     -10.0      0.480      6.760
REMARK SMILES C[C@@]1(O)CC(NCCCNC(=O)c2ccc(-c3c4nc(c(-c5c(F)c(F)c(F)c(F)c5F)c5ccc([nH]5)c(-c5c(F)c(F)c(F)c(F)c5F)c5nc(c(-c6c(F)c(F)c(F)c(F)c6F)c6ccc3[nH]6)C=C5)C=C4)cc2)=C(C(=O)Nc2ccccc2)[C@H](c2ccccc2C(=O)[O-])[C@@H]1C(=O)Nc1ccccc1
REMARK SMILES IDX 8 1 7 2 6 3 5 5 1 6 2 7 4 8 96 9 86 10 76 11 3 12 97 14
REMARK SMILES IDX 98 15 99 16 100 18 101 19 105 20 102 21 104 22 103 23 87 24
REMARK SMILES IDX 88 25 92 26 89 27 91 28 90 29 93 30 94 31 95 32 77 33 78 34
REMARK SMILES IDX 79 35 80 37 81 38 85 39 82 40 84 41 83 42 9 43 10 44 11 45
REMARK SMILES IDX 12 47 13 48 14 49 75 50 15 51 74 52 16 53 17 54 18 55 68 56
REMARK SMILES IDX 19 57 73 58 67 59 69 60 20 61 72 62 66 63 65 64 21 66 53 67
REMARK SMILES IDX 33 68 52 69 34 70 37 71 51 72 70 73 35 74 36 75 50 77 71 78
REMARK SMILES IDX 38 79 22 80 23 81 31 82 24 83 25 84 29 85 32 86 26 87 27 88
REMARK SMILES IDX 30 89 28 90 54 91 55 92 63 93 56 94 57 95 61 96 64 97 58 98
REMARK SMILES IDX 59 99 62 100 60 101 39 102 40 103 48 104 41 105 42 106
REMARK SMILES IDX 46 107 49 108 43 109 44 110 47 111 45 112
REMARK H PARENT 6 4 3 13 99 17 79 36 10 46 69 65 37 76
REMARK Flexibility Score: inf
ROOT
ATOM      1  C   UNL A   1      47.421  30.006  27.071  1.00  0.00     0.042 C 
ENDROOT
BRANCH   1   2
ATOM      2  C   UNL A   1      46.813  29.058  28.088  1.00  0.00     0.114 C 
BRANCH   2   3
ATOM      3  N   UNL A   1      46.409  27.805  27.454  1.00  0.00    -0.388 N 
ATOM      4  H   UNL A   1      47.122  27.259  27.049  1.00  0.00     0.160 HD
BRANCH   3   5
ATOM      5  C   UNL A   1      45.108  27.310  27.368  1.00  0.00     0.023 C 
ATOM      6  C   UNL A   1      42.239  28.871  25.816  1.00  0.00     0.043 C 
ATOM      7  C   UNL A   1      42.884  27.479  25.989  1.00  0.00     0.080 C 
ATOM      8  C   UNL A   1      44.410  27.629  26.073  1.00  0.00     0.089 C 
ATOM      9  C   UNL A   1      42.229  26.763  27.214  1.00  0.00     0.123 C 
ATOM     10  C   UNL A   1      43.191  25.807  28.008  1.00  0.00     0.073 C 
ATOM     11  C   UNL A   1      44.488  26.575  28.327  1.00  0.00     0.045 C 
BRANCH   7  12
ATOM     12  O   UNL A   1      42.677  26.801  24.743  1.00  0.00    -0.389 OA
ATOM     13  H   UNL A   1      42.999  27.356  24.016  1.00  0.00     0.211 HD
ENDBRANCH   7  12
BRANCH   9  14
ATOM     14  C   UNL A   1      40.821  26.231  26.891  1.00  0.00     0.231 C 
ATOM     15  O   UNL A   1      40.537  25.695  25.817  1.00  0.00    -0.274 OA
ATOM     16  N   UNL A   1      39.862  26.188  27.858  1.00  0.00    -0.326 N 
ATOM     17  H   UNL A   1      39.525  25.287  28.064  1.00  0.00     0.169 HD
BRANCH  16  18
ATOM     18  C   UNL A   1      39.279  27.217  28.604  1.00  0.00     0.041 A 
ATOM     19  C   UNL A   1      39.247  28.482  28.001  1.00  0.00     0.026 A 
ATOM     20  C   UNL A   1      38.902  27.078  29.937  1.00  0.00     0.026 A 
ATOM     21  C   UNL A   1      38.853  29.603  28.727  1.00  0.00     0.002 A 
ATOM     22  C   UNL A   1      38.518  28.208  30.668  1.00  0.00     0.002 A 
ATOM     23  C   UNL A   1      38.497  29.467  30.066  1.00  0.00     0.000 A 
ENDBRANCH  16  18
ENDBRANCH   9  14
BRANCH  10  24
ATOM     24  C   UNL A   1      43.458  24.279  27.712  1.00  0.00    -0.030 A 
ATOM     25  C   UNL A   1      42.755  23.328  28.500  1.00  0.00     0.005 A 
ATOM     26  C   UNL A   1      43.975  23.752  26.511  1.00  0.00     0.001 A 
ATOM     27  C   UNL A   1      42.332  22.088  28.000  1.00  0.00     0.000 A 
ATOM     28  C   UNL A   1      43.521  22.520  25.988  1.00  0.00     0.010 A 
ATOM     29  C   UNL A   1      42.652  21.716  26.708  1.00  0.00     0.001 A 
BRANCH  26  30
ATOM     30  C   UNL A   1      45.091  24.309  25.740  1.00  0.00     0.072 C 
ATOM     31  O   UNL A   1      45.008  24.800  24.627  1.00  0.00    -0.545 OA
ATOM     32  O   UNL A   1      46.248  24.169  26.401  1.00  0.00    -0.545 OA
ENDBRANCH  26  30
ENDBRANCH  10  24
BRANCH  11  33
ATOM     33  C   UNL A   1      45.192  26.498  29.673  1.00  0.00     0.253 C 
ATOM     34  O   UNL A   1      46.085  25.664  29.857  1.00  0.00    -0.269 OA
ATOM     35  N   UNL A   1      45.099  27.544  30.549  1.00  0.00    -0.322 N 
ATOM     36  H   UNL A   1      45.924  28.072  30.646  1.00  0.00     0.170 HD
BRANCH  35  37
ATOM     37  C   UNL A   1      44.021  27.991  31.335  1.00  0.00     0.041 A 
ATOM     38  C   UNL A   1      44.213  28.072  32.717  1.00  0.00     0.026 A 
ATOM     39  C   UNL A   1      42.754  28.260  30.827  1.00  0.00     0.026 A 
ATOM     40  C   UNL A   1      43.181  28.510  33.553  1.00  0.00     0.002 A 
ATOM     41  C   UNL A   1      41.726  28.718  31.651  1.00  0.00     0.002 A 
ATOM     42  C   UNL A   1      41.943  28.854  33.015  1.00  0.00     0.000 A 
ENDBRANCH  35  37
ENDBRANCH  11  33
ENDBRANCH   3   5
ENDBRANCH   2   3
ENDBRANCH   1   2
BRANCH   1  43
ATOM     43  C   UNL A   1      47.039  31.457  27.305  1.00  0.00     0.118 C 
BRANCH  43  44
ATOM     44  N   UNL A   1      46.291  32.029  26.190  1.00  0.00    -0.352 N 
ATOM     45  C   UNL A   1      44.975  32.406  26.117  1.00  0.00     0.251 C 
ATOM     46  H   UNL A   1      46.812  32.165  25.365  1.00  0.00     0.163 HD
ATOM     47  O   UNL A   1      44.472  32.704  25.038  1.00  0.00    -0.269 OA
BRANCH  45  48
ATOM     48  C   UNL A   1      44.153  32.432  27.344  1.00  0.00     0.039 A 
ATOM     49  C   UNL A   1      43.717  31.226  27.897  1.00  0.00     0.014 A 
ATOM     50  C   UNL A   1      43.820  33.645  27.950  1.00  0.00     0.014 A 
ATOM     51  C   UNL A   1      43.010  31.234  29.100  1.00  0.00     0.010 A 
ATOM     52  C   UNL A   1      43.197  33.648  29.192  1.00  0.00     0.010 A 
ATOM     53  C   UNL A   1      42.780  32.444  29.776  1.00  0.00    -0.014 A 
BRANCH  53  54
ATOM     54  C   UNL A   1      42.095  32.479  31.092  1.00  0.00     0.031 A 
ATOM     55  C   UNL A   1      40.621  32.762  31.160  1.00  0.00     0.074 A 
ATOM     56  C   UNL A   1      42.813  32.331  32.222  1.00  0.00     0.049 A 
ATOM     57  N   UNL A   1      39.857  32.932  32.209  1.00  0.00    -0.248 NA
ATOM     58  C   UNL A   1      39.917  32.908  29.876  1.00  0.00     0.031 C 
ATOM     59  C   UNL A   1      44.257  32.100  32.285  1.00  0.00     0.029 A 
ATOM     60  N   UNL A   1      42.425  32.368  33.538  1.00  0.00    -0.354 N 
ATOM     61  C   UNL A   1      38.594  33.220  31.711  1.00  0.00     0.074 A 
ATOM     62  C   UNL A   1      38.703  33.260  30.270  1.00  0.00     0.031 C 
ATOM     63  C   UNL A   1      44.629  31.991  33.570  1.00  0.00     0.029 A 
ATOM     64  C   UNL A   1      43.460  32.184  34.422  1.00  0.00     0.049 A 
ATOM     65  H   UNL A   1      41.493  32.512  33.821  1.00  0.00     0.167 HD
ATOM     66  C   UNL A   1      37.440  33.407  32.395  1.00  0.00     0.037 A 
ATOM     67  C   UNL A   1      43.464  32.181  35.768  1.00  0.00     0.037 A 
ATOM     68  C   UNL A   1      37.330  33.336  33.828  1.00  0.00     0.049 A 
ATOM     69  C   UNL A   1      42.168  32.395  36.504  1.00  0.00     0.074 A 
ATOM     70  C   UNL A   1      36.199  33.454  34.615  1.00  0.00     0.029 A 
ATOM     71  N   UNL A   1      38.398  33.124  34.689  1.00  0.00    -0.354 N 
ATOM     72  N   UNL A   1      40.967  32.604  36.022  1.00  0.00    -0.248 NA
ATOM     73  C   UNL A   1      42.229  32.367  37.972  1.00  0.00     0.031 C 
ATOM     74  C   UNL A   1      36.586  33.355  35.955  1.00  0.00     0.029 A 
ATOM     75  C   UNL A   1      37.953  33.126  36.002  1.00  0.00     0.049 A 
ATOM     76  H   UNL A   1      39.332  32.992  34.410  1.00  0.00     0.167 HD
ATOM     77  C   UNL A   1      40.126  32.702  37.121  1.00  0.00     0.074 A 
ATOM     78  C   UNL A   1      40.952  32.517  38.297  1.00  0.00     0.031 C 
ATOM     79  C   UNL A   1      38.790  32.926  37.157  1.00  0.00     0.037 A 
BRANCH  66  80
ATOM     80  C   UNL A   1      36.201  33.698  31.598  1.00  0.00     0.064 A 
ATOM     81  C   UNL A   1      35.659  32.752  30.715  1.00  0.00     0.173 A 
ATOM     82  C   UNL A   1      35.532  34.922  31.741  1.00  0.00     0.173 A 
ATOM     83  F   UNL A   1      36.268  31.571  30.531  1.00  0.00    -0.203 F 
ATOM     84  C   UNL A   1      34.509  33.034  29.980  1.00  0.00     0.198 A 
ATOM     85  C   UNL A   1      34.365  35.188  31.029  1.00  0.00     0.198 A 
ATOM     86  F   UNL A   1      36.006  35.859  32.576  1.00  0.00    -0.203 F 
ATOM     87  F   UNL A   1      34.039  32.135  29.104  1.00  0.00    -0.200 F 
ATOM     88  C   UNL A   1      33.859  34.247  30.144  1.00  0.00     0.200 A 
ATOM     89  F   UNL A   1      33.731  36.356  31.196  1.00  0.00    -0.200 F 
ATOM     90  F   UNL A   1      32.749  34.514  29.441  1.00  0.00    -0.200 F 
ENDBRANCH  66  80
BRANCH  67  91
ATOM     91  C   UNL A   1      44.729  31.939  36.509  1.00  0.00     0.064 A 
ATOM     92  C   UNL A   1      45.121  30.638  36.852  1.00  0.00     0.173 A 
ATOM     93  C   UNL A   1      45.565  32.996  36.896  1.00  0.00     0.173 A 
ATOM     94  F   UNL A   1      44.344  29.596  36.521  1.00  0.00    -0.203 F 
ATOM     95  C   UNL A   1      46.290  30.404  37.572  1.00  0.00     0.198 A 
ATOM     96  C   UNL A   1      46.748  32.759  37.593  1.00  0.00     0.198 A 
ATOM     97  F   UNL A   1      45.237  34.260  36.589  1.00  0.00    -0.203 F 
ATOM     98  F   UNL A   1      46.617  29.154  37.928  1.00  0.00    -0.200 F 
ATOM     99  C   UNL A   1      47.105  31.464  37.938  1.00  0.00     0.200 A 
ATOM    100  F   UNL A   1      47.540  33.785  37.933  1.00  0.00    -0.200 F 
ATOM    101  F   UNL A   1      48.230  31.239  38.630  1.00  0.00    -0.200 F 
ENDBRANCH  67  91
BRANCH  79 102
ATOM    102  C   UNL A   1      38.131  32.944  38.504  1.00  0.00     0.064 A 
ATOM    103  C   UNL A   1      37.403  31.845  38.982  1.00  0.00     0.173 A 
ATOM    104  C   UNL A   1      38.268  34.060  39.344  1.00  0.00     0.173 A 
ATOM    105  F   UNL A   1      37.231  30.761  38.210  1.00  0.00    -0.203 F 
ATOM    106  C   UNL A   1      36.815  31.872  40.244  1.00  0.00     0.198 A 
ATOM    107  C   UNL A   1      37.705  34.071  40.616  1.00  0.00     0.198 A 
ATOM    108  F   UNL A   1      38.961  35.133  38.936  1.00  0.00    -0.203 F 
ATOM    109  F   UNL A   1      36.085  30.829  40.663  1.00  0.00    -0.200 F 
ATOM    110  C   UNL A   1      36.973  32.981  41.062  1.00  0.00     0.200 A 
ATOM    111  F   UNL A   1      37.869  35.138  41.411  1.00  0.00    -0.200 F 
ATOM    112  F   UNL A   1      36.414  33.000  42.280  1.00  0.00    -0.200 F 
ENDBRANCH  79 102
ENDBRANCH  53  54
ENDBRANCH  45  48
ENDBRANCH  43  44
ENDBRANCH   1  43
TORSDOF 17
ENDMDL
MODEL 3
REMARK VINA RESULT:      -9.9      6.026     10.714
REMARK SMILES C[C@@]1(O)CC(NCCCNC(=O)c2ccc(-c3c4nc(c(-c5c(F)c(F)c(F)c(F)c5F)c5ccc([nH]5)c(-c5c(F)c(F)c(F)c(F)c5F)c5nc(c(-c6c(F)c(F)c(F)c(F)c6F)c6ccc3[nH]6)C=C5)C=C4)cc2)=C(C(=O)Nc2ccccc2)[C@H](c2ccccc2C(=O)[O-])[C@@H]1C(=O)Nc1ccccc1
REMARK SMILES IDX 8 1 7 2 6 3 5 5 1 6 2 7 4 8 96 9 86 10 76 11 3 12 97 14
REMARK SMILES IDX 98 15 99 16 100 18 101 19 105 20 102 21 104 22 103 23 87 24
REMARK SMILES IDX 88 25 92 26 89 27 91 28 90 29 93 30 94 31 95 32 77 33 78 34
REMARK SMILES IDX 79 35 80 37 81 38 85 39 82 40 84 41 83 42 9 43 10 44 11 45
REMARK SMILES IDX 12 47 13 48 14 49 75 50 15 51 74 52 16 53 17 54 18 55 68 56
REMARK SMILES IDX 19 57 73 58 67 59 69 60 20 61 72 62 66 63 65 64 21 66 53 67
REMARK SMILES IDX 33 68 52 69 34 70 37 71 51 72 70 73 35 74 36 75 50 77 71 78
REMARK SMILES IDX 38 79 22 80 23 81 31 82 24 83 25 84 29 85 32 86 26 87 27 88
REMARK SMILES IDX 30 89 28 90 54 91 55 92 63 93 56 94 57 95 61 96 64 97 58 98
REMARK SMILES IDX 59 99 62 100 60 101 39 102 40 103 48 104 41 105 42 106
REMARK SMILES IDX 46 107 49 108 43 109 44 110 47 111 45 112
REMARK H PARENT 6 4 3 13 99 17 79 36 10 46 69 65 37 76
REMARK Flexibility Score: inf
ROOT
ATOM      1  C   UNL A   1      31.792  28.731  26.717  1.00  0.00     0.042 C 
ENDROOT
BRANCH   1   2
ATOM      2  C   UNL A   1      32.234  27.448  27.395  1.00  0.00     0.114 C 
BRANCH   2   3
ATOM      3  N   UNL A   1      31.770  26.280  26.649  1.00  0.00    -0.388 N 
ATOM      4  H   UNL A   1      30.804  26.218  26.471  1.00  0.00     0.160 HD
BRANCH   3   5
ATOM      5  C   UNL A   1      32.569  25.244  26.166  1.00  0.00     0.023 C 
ATOM      6  C   UNL A   1      34.797  23.101  28.046  1.00  0.00     0.043 C 
ATOM      7  C   UNL A   1      33.795  23.035  26.871  1.00  0.00     0.080 C 
ATOM      8  C   UNL A   1      32.676  24.062  27.095  1.00  0.00     0.089 C 
ATOM      9  C   UNL A   1      34.575  23.199  25.528  1.00  0.00     0.123 C 
ATOM     10  C   UNL A   1      33.776  23.930  24.389  1.00  0.00     0.073 C 
ATOM     11  C   UNL A   1      33.195  25.237  24.961  1.00  0.00     0.045 C 
BRANCH   7  12
ATOM     12  O   UNL A   1      33.129  21.773  27.005  1.00  0.00    -0.389 OA
ATOM     13  H   UNL A   1      33.756  21.108  27.328  1.00  0.00     0.211 HD
ENDBRANCH   7  12
BRANCH   9  14
ATOM     14  C   UNL A   1      35.339  21.920  25.140  1.00  0.00     0.231 C 
ATOM     15  O   UNL A   1      34.789  20.822  25.018  1.00  0.00    -0.274 OA
ATOM     16  N   UNL A   1      36.644  21.986  24.753  1.00  0.00    -0.326 N 
ATOM     17  H   UNL A   1      36.818  21.675  23.836  1.00  0.00     0.169 HD
BRANCH  16  18
ATOM     18  C   UNL A   1      37.775  22.425  25.449  1.00  0.00     0.041 A 
ATOM     19  C   UNL A   1      38.736  21.450  25.748  1.00  0.00     0.026 A 
ATOM     20  C   UNL A   1      37.897  23.703  25.986  1.00  0.00     0.026 A 
ATOM     21  C   UNL A   1      39.808  21.747  26.588  1.00  0.00     0.002 A 
ATOM     22  C   UNL A   1      38.967  23.995  26.840  1.00  0.00     0.002 A 
ATOM     23  C   UNL A   1      39.918  23.019  27.142  1.00  0.00     0.000 A 
ENDBRANCH  16  18
ENDBRANCH   9  14
BRANCH  10  24
ATOM     24  C   UNL A   1      32.812  23.259  23.334  1.00  0.00    -0.030 A 
ATOM     25  C   UNL A   1      33.013  23.585  21.965  1.00  0.00     0.005 A 
ATOM     26  C   UNL A   1      32.066  22.079  23.533  1.00  0.00     0.001 A 
ATOM     27  C   UNL A   1      32.785  22.673  20.923  1.00  0.00     0.000 A 
ATOM     28  C   UNL A   1      31.870  21.143  22.493  1.00  0.00     0.010 A 
ATOM     29  C   UNL A   1      32.283  21.416  21.200  1.00  0.00     0.001 A 
BRANCH  26  30
ATOM     30  C   UNL A   1      31.316  21.733  24.745  1.00  0.00     0.072 C 
ATOM     31  O   UNL A   1      30.557  22.477  25.345  1.00  0.00    -0.545 OA
ATOM     32  O   UNL A   1      31.605  20.490  25.151  1.00  0.00    -0.545 OA
ENDBRANCH  26  30
ENDBRANCH  10  24
BRANCH  11  33
ATOM     33  C   UNL A   1      33.204  26.554  24.203  1.00  0.00     0.253 C 
ATOM     34  O   UNL A   1      34.204  27.279  24.233  1.00  0.00    -0.269 OA
ATOM     35  N   UNL A   1      32.276  26.780  23.224  1.00  0.00    -0.322 N 
ATOM     36  H   UNL A   1      32.634  26.759  22.307  1.00  0.00     0.170 HD
BRANCH  35  37
ATOM     37  C   UNL A   1      30.895  27.039  23.308  1.00  0.00     0.041 A 
ATOM     38  C   UNL A   1      30.456  28.332  23.008  1.00  0.00     0.026 A 
ATOM     39  C   UNL A   1      29.963  26.114  23.767  1.00  0.00     0.026 A 
ATOM     40  C   UNL A   1      29.096  28.652  23.073  1.00  0.00     0.002 A 
ATOM     41  C   UNL A   1      28.603  26.419  23.814  1.00  0.00     0.002 A 
ATOM     42  C   UNL A   1      28.167  27.688  23.455  1.00  0.00     0.000 A 
ENDBRANCH  35  37
ENDBRANCH  11  33
ENDBRANCH   3   5
ENDBRANCH   2   3
ENDBRANCH   1   2
BRANCH   1  43
ATOM     43  C   UNL A   1      32.954  29.592  26.254  1.00  0.00     0.118 C 
BRANCH  43  44
ATOM     44  N   UNL A   1      32.752  31.009  26.535  1.00  0.00    -0.352 N 
ATOM     45  C   UNL A   1      33.459  31.852  27.354  1.00  0.00     0.251 C 
ATOM     46  H   UNL A   1      31.992  31.423  26.064  1.00  0.00     0.163 HD
ATOM     47  O   UNL A   1      33.035  32.975  27.606  1.00  0.00    -0.269 OA
BRANCH  45  48
ATOM     48  C   UNL A   1      34.729  31.393  27.953  1.00  0.00     0.039 A 
ATOM     49  C   UNL A   1      35.795  32.290  28.058  1.00  0.00     0.014 A 
ATOM     50  C   UNL A   1      34.864  30.082  28.414  1.00  0.00     0.014 A 
ATOM     51  C   UNL A   1      36.970  31.893  28.695  1.00  0.00     0.010 A 
ATOM     52  C   UNL A   1      35.998  29.716  29.128  1.00  0.00     0.010 A 
ATOM     53  C   UNL A   1      37.065  30.615  29.271  1.00  0.00    -0.014 A 
BRANCH  53  54
ATOM     54  C   UNL A   1      38.274  30.188  30.017  1.00  0.00     0.031 A 
ATOM     55  C   UNL A   1      38.486  30.656  31.429  1.00  0.00     0.074 A 
ATOM     56  C   UNL A   1      39.211  29.444  29.399  1.00  0.00     0.049 A 
ATOM     57  N   UNL A   1      39.516  30.477  32.216  1.00  0.00    -0.248 NA
ATOM     58  C   UNL A   1      37.409  31.463  32.024  1.00  0.00     0.031 C 
ATOM     59  C   UNL A   1      39.140  28.969  28.016  1.00  0.00     0.029 A 
ATOM     60  N   UNL A   1      40.416  28.968  29.852  1.00  0.00    -0.354 N 
ATOM     61  C   UNL A   1      39.218  31.162  33.386  1.00  0.00     0.074 A 
ATOM     62  C   UNL A   1      37.939  31.807  33.188  1.00  0.00     0.031 C 
ATOM     63  C   UNL A   1      40.241  28.250  27.741  1.00  0.00     0.029 A 
ATOM     64  C   UNL A   1      41.111  28.246  28.912  1.00  0.00     0.049 A 
ATOM     65  H   UNL A   1      40.750  29.129  30.764  1.00  0.00     0.167 HD
ATOM     66  C   UNL A   1      39.935  31.223  34.534  1.00  0.00     0.037 A 
ATOM     67  C   UNL A   1      42.319  27.656  28.988  1.00  0.00     0.037 A 
ATOM     68  C   UNL A   1      41.192  30.553  34.737  1.00  0.00     0.049 A 
ATOM     69  C   UNL A   1      43.096  27.742  30.274  1.00  0.00     0.074 A 
ATOM     70  C   UNL A   1      41.971  30.505  35.879  1.00  0.00     0.029 A 
ATOM     71  N   UNL A   1      41.854  29.812  33.768  1.00  0.00    -0.354 N 
ATOM     72  N   UNL A   1      42.776  28.339  31.396  1.00  0.00    -0.248 NA
ATOM     73  C   UNL A   1      44.401  27.067  30.304  1.00  0.00     0.031 C 
ATOM     74  C   UNL A   1      43.124  29.768  35.591  1.00  0.00     0.029 A 
ATOM     75  C   UNL A   1      43.041  29.316  34.283  1.00  0.00     0.049 A 
ATOM     76  H   UNL A   1      41.528  29.659  32.852  1.00  0.00     0.167 HD
ATOM     77  C   UNL A   1      43.822  28.087  32.274  1.00  0.00     0.074 A 
ATOM     78  C   UNL A   1      44.782  27.273  31.557  1.00  0.00     0.031 C 
ATOM     79  C   UNL A   1      43.976  28.495  33.557  1.00  0.00     0.037 A 
BRANCH  66  80
ATOM     80  C   UNL A   1      39.368  32.036  35.662  1.00  0.00     0.064 A 
ATOM     81  C   UNL A   1      39.694  33.391  35.825  1.00  0.00     0.173 A 
ATOM     82  C   UNL A   1      38.467  31.463  36.571  1.00  0.00     0.173 A 
ATOM     83  F   UNL A   1      40.561  33.983  34.991  1.00  0.00    -0.203 F 
ATOM     84  C   UNL A   1      39.162  34.134  36.876  1.00  0.00     0.198 A 
ATOM     85  C   UNL A   1      37.912  32.218  37.602  1.00  0.00     0.198 A 
ATOM     86  F   UNL A   1      38.119  30.172  36.457  1.00  0.00    -0.203 F 
ATOM     87  F   UNL A   1      39.527  35.412  37.043  1.00  0.00    -0.200 F 
ATOM     88  C   UNL A   1      38.266  33.550  37.758  1.00  0.00     0.200 A 
ATOM     89  F   UNL A   1      37.038  31.655  38.447  1.00  0.00    -0.200 F 
ATOM     90  F   UNL A   1      37.750  34.268  38.765  1.00  0.00    -0.200 F 
ENDBRANCH  66  80
BRANCH  67  91
ATOM     91  C   UNL A   1      42.855  26.906  27.822  1.00  0.00     0.064 A 
ATOM     92  C   UNL A   1      42.688  25.518  27.725  1.00  0.00     0.173 A 
ATOM     93  C   UNL A   1      43.550  27.554  26.792  1.00  0.00     0.173 A 
ATOM     94  F   UNL A   1      42.048  24.851  28.697  1.00  0.00    -0.203 F 
ATOM     95  C   UNL A   1      43.214  24.803  26.651  1.00  0.00     0.198 A 
ATOM     96  C   UNL A   1      44.052  26.842  25.704  1.00  0.00     0.198 A 
ATOM     97  F   UNL A   1      43.734  28.882  26.835  1.00  0.00    -0.203 F 
ATOM     98  F   UNL A   1      43.080  23.470  26.606  1.00  0.00    -0.200 F 
ATOM     99  C   UNL A   1      43.891  25.466  25.639  1.00  0.00     0.200 A 
ATOM    100  F   UNL A   1      44.694  27.488  24.721  1.00  0.00    -0.200 F 
ATOM    101  F   UNL A   1      44.395  24.778  24.605  1.00  0.00    -0.200 F 
ENDBRANCH  67  91
BRANCH  79 102
ATOM    102  C   UNL A   1      45.205  28.034  34.282  1.00  0.00     0.064 A 
ATOM    103  C   UNL A   1      46.371  28.811  34.322  1.00  0.00     0.173 A 
ATOM    104  C   UNL A   1      45.199  26.817  34.982  1.00  0.00     0.173 A 
ATOM    105  F   UNL A   1      46.431  29.974  33.655  1.00  0.00    -0.203 F 
ATOM    106  C   UNL A   1      47.497  28.375  35.017  1.00  0.00     0.198 A 
ATOM    107  C   UNL A   1      46.315  26.400  35.701  1.00  0.00     0.198 A 
ATOM    108  F   UNL A   1      44.105  26.041  34.981  1.00  0.00    -0.203 F 
ATOM    109  F   UNL A   1      48.616  29.112  35.005  1.00  0.00    -0.200 F 
ATOM    110  C   UNL A   1      47.465  27.176  35.712  1.00  0.00     0.200 A 
ATOM    111  F   UNL A   1      46.279  25.247  36.382  1.00  0.00    -0.200 F 
ATOM    112  F   UNL A   1      48.546  26.763  36.388  1.00  0.00    -0.200 F 
ENDBRANCH  79 102
ENDBRANCH  53  54
ENDBRANCH  45  48
ENDBRANCH  43  44
ENDBRANCH   1  43
TORSDOF 17
ENDMDL
