MODEL 1
REMARK VINA RESULT:     -12.5      0.000      0.000
REMARK SMILES O=C(NCCCNC(=O)C(Cl)(c1ccccc1)c1ccccc1)c1ccc(-c2c3nc(c(-c4c(F)c(F)c(F)c(F)c4F)c4ccc([nH]4)c(-c4c(F)c(F)c(F)c(F)c4F)c4nc(c(-c5c(F)c(F)c(F)c(F)c5F)c5ccc2[nH]5)C=C4)C=C3)cc1
REMARK SMILES IDX 4 1 3 2 1 3 2 4 24 6 25 7 86 8 26 9 85 10 27 11 28 12 29 13
REMARK SMILES IDX 79 14 30 15 84 16 78 17 80 18 31 19 83 20 77 21 76 22 32 24
REMARK SMILES IDX 64 25 44 26 63 27 45 28 48 29 62 30 81 31 46 32 47 33 61 35
REMARK SMILES IDX 82 36 49 37 33 38 34 39 42 40 35 41 36 42 40 43 43 44 37 45
REMARK SMILES IDX 38 46 41 47 39 48 65 49 66 50 74 51 67 52 68 53 72 54 75 55
REMARK SMILES IDX 69 56 70 57 73 58 71 59 50 60 51 61 59 62 52 63 53 64 57 65
REMARK SMILES IDX 60 66 54 67 55 68 58 69 56 70 5 71 6 72 7 73 8 74 9 76 10 77
REMARK SMILES IDX 11 78 12 79 13 80 17 81 14 82 16 83 15 84 18 85 19 86 23 87
REMARK SMILES IDX 20 88 22 89 21 90
REMARK H PARENT 3 5 80 23 48 34 7 75
REMARK Flexibility Score: inf
ROOT
ATOM      1  C   UNL A   1      32.571  32.457  26.876  1.00  0.00     0.118 C 
ENDROOT
BRANCH   1   2
ATOM      2  N   UNL A   1      32.381  33.807  27.395  1.00  0.00    -0.352 N 
ATOM      3  O   UNL A   1      32.556  35.524  28.844  1.00  0.00    -0.269 OA
ATOM      4  C   UNL A   1      33.010  34.461  28.426  1.00  0.00     0.251 C 
ATOM      5  H   UNL A   1      31.690  34.334  26.932  1.00  0.00     0.163 HD
BRANCH   4   6
ATOM      6  C   UNL A   1      34.223  33.886  29.046  1.00  0.00     0.039 A 
ATOM      7  C   UNL A   1      34.127  32.788  29.898  1.00  0.00     0.014 A 
ATOM      8  C   UNL A   1      35.479  34.428  28.751  1.00  0.00     0.014 A 
ATOM      9  C   UNL A   1      35.242  32.354  30.596  1.00  0.00     0.010 A 
ATOM     10  C   UNL A   1      36.626  33.900  29.354  1.00  0.00     0.010 A 
ATOM     11  C   UNL A   1      36.513  32.876  30.304  1.00  0.00    -0.014 A 
BRANCH  11  12
ATOM     12  C   UNL A   1      37.694  32.242  30.944  1.00  0.00     0.031 A 
ATOM     13  C   UNL A   1      38.105  32.579  32.348  1.00  0.00     0.074 A 
ATOM     14  C   UNL A   1      38.351  31.292  30.249  1.00  0.00     0.049 A 
ATOM     15  N   UNL A   1      39.072  32.061  33.065  1.00  0.00    -0.248 NA
ATOM     16  C   UNL A   1      37.347  33.631  33.039  1.00  0.00     0.031 C 
ATOM     17  C   UNL A   1      38.049  30.901  28.868  1.00  0.00     0.029 A 
ATOM     18  N   UNL A   1      39.376  30.456  30.608  1.00  0.00    -0.354 N 
ATOM     19  C   UNL A   1      39.048  32.733  34.280  1.00  0.00     0.074 A 
ATOM     20  C   UNL A   1      37.988  33.713  34.198  1.00  0.00     0.031 C 
ATOM     21  C   UNL A   1      38.813  29.857  28.526  1.00  0.00     0.029 A 
ATOM     22  C   UNL A   1      39.715  29.554  29.629  1.00  0.00     0.049 A 
ATOM     23  H   UNL A   1      39.824  30.497  31.484  1.00  0.00     0.167 HD
ATOM     24  C   UNL A   1      39.837  32.536  35.364  1.00  0.00     0.037 A 
ATOM     25  C   UNL A   1      40.662  28.600  29.609  1.00  0.00     0.037 A 
ATOM     26  C   UNL A   1      40.882  31.545  35.440  1.00  0.00     0.049 A 
ATOM     27  C   UNL A   1      41.521  28.416  30.825  1.00  0.00     0.074 A 
ATOM     28  C   UNL A   1      41.727  31.260  36.498  1.00  0.00     0.029 A 
ATOM     29  N   UNL A   1      41.222  30.674  34.415  1.00  0.00    -0.354 N 
ATOM     30  N   UNL A   1      41.476  29.048  31.972  1.00  0.00    -0.248 NA
ATOM     31  C   UNL A   1      42.570  27.392  30.741  1.00  0.00     0.031 C 
ATOM     32  C   UNL A   1      42.604  30.246  36.100  1.00  0.00     0.029 A 
ATOM     33  C   UNL A   1      42.275  29.864  34.811  1.00  0.00     0.049 A 
ATOM     34  H   UNL A   1      40.780  30.637  33.536  1.00  0.00     0.167 HD
ATOM     35  C   UNL A   1      42.483  28.497  32.748  1.00  0.00     0.074 A 
ATOM     36  C   UNL A   1      43.098  27.453  31.954  1.00  0.00     0.031 C 
ATOM     37  C   UNL A   1      42.876  28.835  34.001  1.00  0.00     0.037 A 
BRANCH  24  38
ATOM     38  C   UNL A   1      39.614  33.413  36.564  1.00  0.00     0.064 A 
ATOM     39  C   UNL A   1      40.200  34.683  36.664  1.00  0.00     0.173 A 
ATOM     40  C   UNL A   1      38.744  33.008  37.588  1.00  0.00     0.173 A 
ATOM     41  F   UNL A   1      41.048  35.112  35.718  1.00  0.00    -0.203 F 
ATOM     42  C   UNL A   1      39.932  35.512  37.751  1.00  0.00     0.198 A 
ATOM     43  C   UNL A   1      38.459  33.850  38.661  1.00  0.00     0.198 A 
ATOM     44  F   UNL A   1      38.152  31.806  37.538  1.00  0.00    -0.203 F 
ATOM     45  F   UNL A   1      40.526  36.710  37.842  1.00  0.00    -0.200 F 
ATOM     46  C   UNL A   1      39.054  35.099  38.743  1.00  0.00     0.200 A 
ATOM     47  F   UNL A   1      37.600  33.455  39.612  1.00  0.00    -0.200 F 
ATOM     48  F   UNL A   1      38.785  35.904  39.780  1.00  0.00    -0.200 F 
ENDBRANCH  24  38
BRANCH  25  49
ATOM     49  C   UNL A   1      40.856  27.770  28.392  1.00  0.00     0.064 A 
ATOM     50  C   UNL A   1      40.215  26.532  28.247  1.00  0.00     0.173 A 
ATOM     51  C   UNL A   1      41.690  28.199  27.348  1.00  0.00     0.173 A 
ATOM     52  F   UNL A   1      39.421  26.069  29.225  1.00  0.00    -0.203 F 
ATOM     53  C   UNL A   1      40.419  25.745  27.115  1.00  0.00     0.198 A 
ATOM     54  C   UNL A   1      41.865  27.429  26.203  1.00  0.00     0.198 A 
ATOM     55  F   UNL A   1      42.321  29.379  27.434  1.00  0.00    -0.203 F 
ATOM     56  F   UNL A   1      39.836  24.542  27.025  1.00  0.00    -0.200 F 
ATOM     57  C   UNL A   1      41.238  26.198  26.091  1.00  0.00     0.200 A 
ATOM     58  F   UNL A   1      42.640  27.881  25.207  1.00  0.00    -0.200 F 
ATOM     59  F   UNL A   1      41.430  25.443  25.001  1.00  0.00    -0.200 F 
ENDBRANCH  25  49
BRANCH  37  60
ATOM     60  C   UNL A   1      44.016  28.052  34.581  1.00  0.00     0.064 A 
ATOM     61  C   UNL A   1      45.344  28.484  34.446  1.00  0.00     0.173 A 
ATOM     62  C   UNL A   1      43.778  26.857  35.275  1.00  0.00     0.173 A 
ATOM     63  F   UNL A   1      45.622  29.612  33.773  1.00  0.00    -0.203 F 
ATOM     64  C   UNL A   1      46.396  27.728  34.954  1.00  0.00     0.198 A 
ATOM     65  C   UNL A   1      44.831  26.120  35.808  1.00  0.00     0.198 A 
ATOM     66  F   UNL A   1      42.526  26.404  35.435  1.00  0.00    -0.203 F 
ATOM     67  F   UNL A   1      47.660  28.128  34.759  1.00  0.00    -0.200 F 
ATOM     68  C   UNL A   1      46.139  26.549  35.638  1.00  0.00     0.200 A 
ATOM     69  F   UNL A   1      44.581  24.986  36.478  1.00  0.00    -0.200 F 
ATOM     70  F   UNL A   1      47.154  25.820  36.122  1.00  0.00    -0.200 F 
ENDBRANCH  37  60
ENDBRANCH  11  12
ENDBRANCH   4   6
ENDBRANCH   1   2
BRANCH   1  71
ATOM     71  C   UNL A   1      31.275  31.836  26.388  1.00  0.00     0.042 C 
BRANCH  71  72
ATOM     72  C   UNL A   1      31.403  30.350  26.088  1.00  0.00     0.117 C 
BRANCH  72  73
ATOM     73  N   UNL A   1      32.420  30.078  25.089  1.00  0.00    -0.354 N 
ATOM     74  C   UNL A   1      32.587  29.044  24.206  1.00  0.00     0.250 C 
ATOM     75  H   UNL A   1      33.121  30.766  25.035  1.00  0.00     0.163 HD
ATOM     76  O   UNL A   1      33.653  29.096  23.577  1.00  0.00    -0.272 OA
BRANCH  74  77
ATOM     77  C   UNL A   1      31.516  27.878  24.013  1.00  0.00     0.173 C 
ATOM     78  Cl  UNL A   1      31.172  27.398  25.760  1.00  0.00    -0.098 Cl
BRANCH  77  79
ATOM     79  C   UNL A   1      30.247  28.426  23.295  1.00  0.00    -0.013 A 
ATOM     80  C   UNL A   1      30.347  29.571  22.476  1.00  0.00     0.006 A 
ATOM     81  C   UNL A   1      28.948  27.915  23.501  1.00  0.00     0.006 A 
ATOM     82  C   UNL A   1      29.218  30.202  21.946  1.00  0.00     0.000 A 
ATOM     83  C   UNL A   1      27.814  28.577  23.013  1.00  0.00     0.000 A 
ATOM     84  C   UNL A   1      27.949  29.723  22.240  1.00  0.00     0.000 A 
ENDBRANCH  77  79
BRANCH  77  85
ATOM     85  C   UNL A   1      32.130  26.646  23.273  1.00  0.00    -0.013 A 
ATOM     86  C   UNL A   1      32.009  26.441  21.883  1.00  0.00     0.006 A 
ATOM     87  C   UNL A   1      32.849  25.661  23.987  1.00  0.00     0.006 A 
ATOM     88  C   UNL A   1      32.528  25.297  21.261  1.00  0.00     0.000 A 
ATOM     89  C   UNL A   1      33.392  24.533  23.364  1.00  0.00     0.000 A 
ATOM     90  C   UNL A   1      33.221  24.346  22.001  1.00  0.00     0.000 A 
ENDBRANCH  77  85
ENDBRANCH  74  77
ENDBRANCH  72  73
ENDBRANCH  71  72
ENDBRANCH   1  71
TORSDOF 12
ENDMDL
MODEL 2
REMARK VINA RESULT:     -12.5      0.098      1.623
REMARK SMILES O=C(NCCCNC(=O)C(Cl)(c1ccccc1)c1ccccc1)c1ccc(-c2c3nc(c(-c4c(F)c(F)c(F)c(F)c4F)c4ccc([nH]4)c(-c4c(F)c(F)c(F)c(F)c4F)c4nc(c(-c5c(F)c(F)c(F)c(F)c5F)c5ccc2[nH]5)C=C4)C=C3)cc1
REMARK SMILES IDX 4 1 3 2 1 3 2 4 24 6 25 7 86 8 26 9 85 10 27 11 28 12 29 13
REMARK SMILES IDX 79 14 30 15 84 16 78 17 80 18 31 19 83 20 77 21 76 22 32 24
REMARK SMILES IDX 64 25 44 26 63 27 45 28 48 29 62 30 81 31 46 32 47 33 61 35
REMARK SMILES IDX 82 36 49 37 33 38 34 39 42 40 35 41 36 42 40 43 43 44 37 45
REMARK SMILES IDX 38 46 41 47 39 48 65 49 66 50 74 51 67 52 68 53 72 54 75 55
REMARK SMILES IDX 69 56 70 57 73 58 71 59 50 60 51 61 59 62 52 63 53 64 57 65
REMARK SMILES IDX 60 66 54 67 55 68 58 69 56 70 5 71 6 72 7 73 8 74 9 76 10 77
REMARK SMILES IDX 11 78 12 79 13 80 17 81 14 82 16 83 15 84 18 85 19 86 23 87
REMARK SMILES IDX 20 88 22 89 21 90
REMARK H PARENT 3 5 80 23 48 34 7 75
REMARK Flexibility Score: inf
ROOT
ATOM      1  C   UNL A   1      32.568  32.451  26.875  1.00  0.00     0.118 C 
ENDROOT
BRANCH   1   2
ATOM      2  N   UNL A   1      32.378  33.804  27.387  1.00  0.00    -0.352 N 
ATOM      3  O   UNL A   1      32.559  35.529  28.825  1.00  0.00    -0.269 OA
ATOM      4  C   UNL A   1      33.012  34.464  28.411  1.00  0.00     0.251 C 
ATOM      5  H   UNL A   1      31.684  34.327  26.925  1.00  0.00     0.163 HD
BRANCH   4   6
ATOM      6  C   UNL A   1      34.229  33.894  29.027  1.00  0.00     0.039 A 
ATOM      7  C   UNL A   1      34.140  32.798  29.883  1.00  0.00     0.014 A 
ATOM      8  C   UNL A   1      35.482  34.438  28.725  1.00  0.00     0.014 A 
ATOM      9  C   UNL A   1      35.259  32.370  30.578  1.00  0.00     0.010 A 
ATOM     10  C   UNL A   1      36.633  33.915  29.324  1.00  0.00     0.010 A 
ATOM     11  C   UNL A   1      36.528  32.894  30.278  1.00  0.00    -0.014 A 
BRANCH  11  12
ATOM     12  C   UNL A   1      37.712  32.265  30.915  1.00  0.00     0.031 A 
ATOM     13  C   UNL A   1      38.137  32.617  32.311  1.00  0.00     0.074 A 
ATOM     14  C   UNL A   1      38.361  31.305  30.225  1.00  0.00     0.049 A 
ATOM     15  N   UNL A   1      39.110  32.107  33.026  1.00  0.00    -0.248 NA
ATOM     16  C   UNL A   1      37.387  33.680  32.996  1.00  0.00     0.031 C 
ATOM     17  C   UNL A   1      38.046  30.899  28.852  1.00  0.00     0.029 A 
ATOM     18  N   UNL A   1      39.388  30.471  30.585  1.00  0.00    -0.354 N 
ATOM     19  C   UNL A   1      39.098  32.793  34.232  1.00  0.00     0.074 A 
ATOM     20  C   UNL A   1      38.040  33.775  34.148  1.00  0.00     0.031 C 
ATOM     21  C   UNL A   1      38.804  29.848  28.515  1.00  0.00     0.029 A 
ATOM     22  C   UNL A   1      39.716  29.557  29.613  1.00  0.00     0.049 A 
ATOM     23  H   UNL A   1      39.844  30.522  31.456  1.00  0.00     0.167 HD
ATOM     24  C   UNL A   1      39.897  32.607  35.312  1.00  0.00     0.037 A 
ATOM     25  C   UNL A   1      40.661  28.601  29.597  1.00  0.00     0.037 A 
ATOM     26  C   UNL A   1      40.940  31.615  35.389  1.00  0.00     0.049 A 
ATOM     27  C   UNL A   1      41.530  28.429  30.807  1.00  0.00     0.074 A 
ATOM     28  C   UNL A   1      41.794  31.341  36.443  1.00  0.00     0.029 A 
ATOM     29  N   UNL A   1      41.269  30.731  34.372  1.00  0.00    -0.354 N 
ATOM     30  N   UNL A   1      41.497  29.075  31.947  1.00  0.00    -0.248 NA
ATOM     31  C   UNL A   1      42.576  27.402  30.726  1.00  0.00     0.031 C 
ATOM     32  C   UNL A   1      42.666  30.320  36.049  1.00  0.00     0.029 A 
ATOM     33  C   UNL A   1      42.324  29.924  34.768  1.00  0.00     0.049 A 
ATOM     34  H   UNL A   1      40.819  30.684  33.498  1.00  0.00     0.167 HD
ATOM     35  C   UNL A   1      42.510  28.531  32.720  1.00  0.00     0.074 A 
ATOM     36  C   UNL A   1      43.115  27.476  31.933  1.00  0.00     0.031 C 
ATOM     37  C   UNL A   1      42.915  28.883  33.965  1.00  0.00     0.037 A 
BRANCH  24  38
ATOM     38  C   UNL A   1      39.687  33.499  36.502  1.00  0.00     0.064 A 
ATOM     39  C   UNL A   1      40.285  34.764  36.587  1.00  0.00     0.173 A 
ATOM     40  C   UNL A   1      38.816  33.114  37.533  1.00  0.00     0.173 A 
ATOM     41  F   UNL A   1      41.135  35.174  35.633  1.00  0.00    -0.203 F 
ATOM     42  C   UNL A   1      40.030  35.607  37.666  1.00  0.00     0.198 A 
ATOM     43  C   UNL A   1      38.543  33.970  38.598  1.00  0.00     0.198 A 
ATOM     44  F   UNL A   1      38.212  31.917  37.498  1.00  0.00    -0.203 F 
ATOM     45  F   UNL A   1      40.636  36.800  37.742  1.00  0.00    -0.200 F 
ATOM     46  C   UNL A   1      39.151  35.213  38.666  1.00  0.00     0.200 A 
ATOM     47  F   UNL A   1      37.684  33.594  39.556  1.00  0.00    -0.200 F 
ATOM     48  F   UNL A   1      38.894  36.032  39.695  1.00  0.00    -0.200 F 
ENDBRANCH  24  38
BRANCH  25  49
ATOM     49  C   UNL A   1      40.841  27.755  28.388  1.00  0.00     0.064 A 
ATOM     50  C   UNL A   1      41.663  28.166  27.329  1.00  0.00     0.173 A 
ATOM     51  C   UNL A   1      40.191  26.517  28.268  1.00  0.00     0.173 A 
ATOM     52  F   UNL A   1      42.291  29.349  27.389  1.00  0.00    -0.203 F 
ATOM     53  C   UNL A   1      41.809  27.381  26.187  1.00  0.00     0.198 A 
ATOM     54  C   UNL A   1      40.367  25.718  27.142  1.00  0.00     0.198 A 
ATOM     55  F   UNL A   1      39.400  26.074  29.256  1.00  0.00    -0.203 F 
ATOM     56  F   UNL A   1      42.559  27.821  25.168  1.00  0.00    -0.200 F 
ATOM     57  C   UNL A   1      41.167  26.155  26.098  1.00  0.00     0.200 A 
ATOM     58  F   UNL A   1      39.761  24.524  27.070  1.00  0.00    -0.200 F 
ATOM     59  F   UNL A   1      41.312  25.399  25.001  1.00  0.00    -0.200 F 
ENDBRANCH  25  49
BRANCH  37  60
ATOM     60  C   UNL A   1      44.058  28.105  34.544  1.00  0.00     0.064 A 
ATOM     61  C   UNL A   1      43.847  26.918  35.261  1.00  0.00     0.173 A 
ATOM     62  C   UNL A   1      45.378  28.552  34.382  1.00  0.00     0.173 A 
ATOM     63  F   UNL A   1      42.600  26.461  35.458  1.00  0.00    -0.203 F 
ATOM     64  C   UNL A   1      44.914  26.225  35.827  1.00  0.00     0.198 A 
ATOM     65  C   UNL A   1      46.444  27.840  34.924  1.00  0.00     0.198 A 
ATOM     66  F   UNL A   1      45.632  29.678  33.701  1.00  0.00    -0.203 F 
ATOM     67  F   UNL A   1      44.683  25.128  36.561  1.00  0.00    -0.200 F 
ATOM     68  C   UNL A   1      46.211  26.684  35.655  1.00  0.00     0.200 A 
ATOM     69  F   UNL A   1      47.698  28.279  34.748  1.00  0.00    -0.200 F 
ATOM     70  F   UNL A   1      47.236  26.019  36.205  1.00  0.00    -0.200 F 
ENDBRANCH  37  60
ENDBRANCH  11  12
ENDBRANCH   4   6
ENDBRANCH   1   2
BRANCH   1  71
ATOM     71  C   UNL A   1      31.276  31.840  26.359  1.00  0.00     0.042 C 
BRANCH  71  72
ATOM     72  C   UNL A   1      31.399  30.355  26.060  1.00  0.00     0.117 C 
BRANCH  72  73
ATOM     73  N   UNL A   1      32.432  30.076  25.080  1.00  0.00    -0.354 N 
ATOM     74  C   UNL A   1      32.613  29.037  24.205  1.00  0.00     0.250 C 
ATOM     75  H   UNL A   1      33.135  30.763  25.034  1.00  0.00     0.163 HD
ATOM     76  O   UNL A   1      33.689  29.085  23.593  1.00  0.00    -0.272 OA
BRANCH  74  77
ATOM     77  C   UNL A   1      31.543  27.872  23.998  1.00  0.00     0.173 C 
ATOM     78  Cl  UNL A   1      31.185  27.386  25.742  1.00  0.00    -0.098 Cl
BRANCH  77  79
ATOM     79  C   UNL A   1      30.280  28.422  23.273  1.00  0.00    -0.013 A 
ATOM     80  C   UNL A   1      30.396  29.541  22.419  1.00  0.00     0.006 A 
ATOM     81  C   UNL A   1      28.974  27.942  23.501  1.00  0.00     0.006 A 
ATOM     82  C   UNL A   1      29.275  30.177  21.878  1.00  0.00     0.000 A 
ATOM     83  C   UNL A   1      27.849  28.610  23.001  1.00  0.00     0.000 A 
ATOM     84  C   UNL A   1      28.000  29.731  22.194  1.00  0.00     0.000 A 
ENDBRANCH  77  79
BRANCH  77  85
ATOM     85  C   UNL A   1      32.163  26.642  23.260  1.00  0.00    -0.013 A 
ATOM     86  C   UNL A   1      31.906  26.346  21.905  1.00  0.00     0.006 A 
ATOM     87  C   UNL A   1      33.030  25.756  23.938  1.00  0.00     0.006 A 
ATOM     88  C   UNL A   1      32.438  25.204  21.290  1.00  0.00     0.000 A 
ATOM     89  C   UNL A   1      33.585  24.633  23.317  1.00  0.00     0.000 A 
ATOM     90  C   UNL A   1      33.279  24.351  21.994  1.00  0.00     0.000 A 
ENDBRANCH  77  85
ENDBRANCH  74  77
ENDBRANCH  72  73
ENDBRANCH  71  72
ENDBRANCH   1  71
TORSDOF 12
ENDMDL
MODEL 3
REMARK VINA RESULT:     -12.3      3.887      6.934
REMARK SMILES O=C(NCCCNC(=O)C(Cl)(c1ccccc1)c1ccccc1)c1ccc(-c2c3nc(c(-c4c(F)c(F)c(F)c(F)c4F)c4ccc([nH]4)c(-c4c(F)c(F)c(F)c(F)c4F)c4nc(c(-c5c(F)c(F)c(F)c(F)c5F)c5ccc2[nH]5)C=C4)C=C3)cc1
REMARK SMILES IDX 4 1 3 2 1 3 2 4 24 6 25 7 86 8 26 9 85 10 27 11 28 12 29 13
REMARK SMILES IDX 79 14 30 15 84 16 78 17 80 18 31 19 83 20 77 21 76 22 32 24
REMARK SMILES IDX 64 25 44 26 63 27 45 28 48 29 62 30 81 31 46 32 47 33 61 35
REMARK SMILES IDX 82 36 49 37 33 38 34 39 42 40 35 41 36 42 40 43 43 44 37 45
REMARK SMILES IDX 38 46 41 47 39 48 65 49 66 50 74 51 67 52 68 53 72 54 75 55
REMARK SMILES IDX 69 56 70 57 73 58 71 59 50 60 51 61 59 62 52 63 53 64 57 65
REMARK SMILES IDX 60 66 54 67 55 68 58 69 56 70 5 71 6 72 7 73 8 74 9 76 10 77
REMARK SMILES IDX 11 78 12 79 13 80 17 81 14 82 16 83 15 84 18 85 19 86 23 87
REMARK SMILES IDX 20 88 22 89 21 90
REMARK H PARENT 3 5 80 23 48 34 7 75
REMARK Flexibility Score: inf
ROOT
ATOM      1  C   UNL A   1      34.722  33.067  28.043  1.00  0.00     0.118 C 
ENDROOT
BRANCH   1   2
ATOM      2  N   UNL A   1      34.006  31.863  27.637  1.00  0.00    -0.352 N 
ATOM      3  O   UNL A   1      33.736  29.730  26.962  1.00  0.00    -0.269 OA
ATOM      4  C   UNL A   1      34.441  30.565  27.527  1.00  0.00     0.251 C 
ATOM      5  H   UNL A   1      33.060  32.003  27.405  1.00  0.00     0.163 HD
BRANCH   4   6
ATOM      6  C   UNL A   1      35.758  30.168  28.070  1.00  0.00     0.039 A 
ATOM      7  C   UNL A   1      36.904  30.273  27.286  1.00  0.00     0.014 A 
ATOM      8  C   UNL A   1      35.857  29.714  29.389  1.00  0.00     0.014 A 
ATOM      9  C   UNL A   1      38.105  29.755  27.743  1.00  0.00     0.010 A 
ATOM     10  C   UNL A   1      37.098  29.317  29.898  1.00  0.00     0.010 A 
ATOM     11  C   UNL A   1      38.229  29.308  29.069  1.00  0.00    -0.014 A 
BRANCH  11  12
ATOM     12  C   UNL A   1      39.581  28.943  29.561  1.00  0.00     0.031 A 
ATOM     13  C   UNL A   1      40.248  29.700  30.672  1.00  0.00     0.074 A 
ATOM     14  C   UNL A   1      40.172  27.855  29.026  1.00  0.00     0.049 A 
ATOM     15  N   UNL A   1      41.397  29.461  31.254  1.00  0.00    -0.248 NA
ATOM     16  C   UNL A   1      39.547  30.880  31.199  1.00  0.00     0.031 C 
ATOM     17  C   UNL A   1      39.622  27.057  27.925  1.00  0.00     0.029 A 
ATOM     18  N   UNL A   1      41.334  27.206  29.352  1.00  0.00    -0.354 N 
ATOM     19  C   UNL A   1      41.564  30.464  32.199  1.00  0.00     0.074 A 
ATOM     20  C   UNL A   1      40.411  31.332  32.099  1.00  0.00     0.031 C 
ATOM     21  C   UNL A   1      40.402  25.989  27.720  1.00  0.00     0.029 A 
ATOM     22  C   UNL A   1      41.550  26.067  28.615  1.00  0.00     0.049 A 
ATOM     23  H   UNL A   1      41.954  27.526  30.046  1.00  0.00     0.167 HD
ATOM     24  C   UNL A   1      42.585  30.633  33.074  1.00  0.00     0.037 A 
ATOM     25  C   UNL A   1      42.568  25.189  28.640  1.00  0.00     0.037 A 
ATOM     26  C   UNL A   1      43.723  29.752  33.174  1.00  0.00     0.049 A 
ATOM     27  C   UNL A   1      43.684  25.412  29.616  1.00  0.00     0.074 A 
ATOM     28  C   UNL A   1      44.802  29.831  34.036  1.00  0.00     0.029 A 
ATOM     29  N   UNL A   1      43.925  28.628  32.386  1.00  0.00    -0.354 N 
ATOM     30  N   UNL A   1      43.820  26.356  30.515  1.00  0.00    -0.248 NA
ATOM     31  C   UNL A   1      44.794  24.452  29.578  1.00  0.00     0.031 C 
ATOM     32  C   UNL A   1      45.678  28.779  33.743  1.00  0.00     0.029 A 
ATOM     33  C   UNL A   1      45.121  28.017  32.731  1.00  0.00     0.049 A 
ATOM     34  H   UNL A   1      43.311  28.312  31.686  1.00  0.00     0.167 HD
ATOM     35  C   UNL A   1      45.024  26.104  31.151  1.00  0.00     0.074 A 
ATOM     36  C   UNL A   1      45.562  24.895  30.562  1.00  0.00     0.031 C 
ATOM     37  C   UNL A   1      45.639  26.817  32.126  1.00  0.00     0.037 A 
BRANCH  24  38
ATOM     38  C   UNL A   1      42.533  31.819  33.994  1.00  0.00     0.064 A 
ATOM     39  C   UNL A   1      43.120  33.044  33.647  1.00  0.00     0.173 A 
ATOM     40  C   UNL A   1      41.823  31.750  35.202  1.00  0.00     0.173 A 
ATOM     41  F   UNL A   1      43.820  33.159  32.508  1.00  0.00    -0.203 F 
ATOM     42  C   UNL A   1      43.008  34.154  34.480  1.00  0.00     0.198 A 
ATOM     43  C   UNL A   1      41.691  32.869  36.022  1.00  0.00     0.198 A 
ATOM     44  F   UNL A   1      41.237  30.605  35.580  1.00  0.00    -0.203 F 
ATOM     45  F   UNL A   1      43.602  35.308  34.143  1.00  0.00    -0.200 F 
ATOM     46  C   UNL A   1      42.285  34.069  35.662  1.00  0.00     0.200 A 
ATOM     47  F   UNL A   1      40.982  32.789  37.156  1.00  0.00    -0.200 F 
ATOM     48  F   UNL A   1      42.165  35.143  36.455  1.00  0.00    -0.200 F 
ENDBRANCH  24  38
BRANCH  25  49
ATOM     49  C   UNL A   1      42.582  24.040  27.697  1.00  0.00     0.064 A 
ATOM     50  C   UNL A   1      42.125  22.774  28.087  1.00  0.00     0.173 A 
ATOM     51  C   UNL A   1      43.057  24.187  26.385  1.00  0.00     0.173 A 
ATOM     52  F   UNL A   1      41.677  22.578  29.336  1.00  0.00    -0.203 F 
ATOM     53  C   UNL A   1      42.164  21.694  27.207  1.00  0.00     0.198 A 
ATOM     54  C   UNL A   1      43.062  23.117  25.496  1.00  0.00     0.198 A 
ATOM     55  F   UNL A   1      43.499  25.380  25.960  1.00  0.00    -0.203 F 
ATOM     56  F   UNL A   1      41.769  20.482  27.621  1.00  0.00    -0.200 F 
ATOM     57  C   UNL A   1      42.625  21.868  25.911  1.00  0.00     0.200 A 
ATOM     58  F   UNL A   1      43.489  23.295  24.238  1.00  0.00    -0.200 F 
ATOM     59  F   UNL A   1      42.658  20.830  25.064  1.00  0.00    -0.200 F 
ENDBRANCH  25  49
BRANCH  37  60
ATOM     60  C   UNL A   1      46.956  26.289  32.614  1.00  0.00     0.064 A 
ATOM     61  C   UNL A   1      48.168  26.702  32.039  1.00  0.00     0.173 A 
ATOM     62  C   UNL A   1      47.006  25.360  33.663  1.00  0.00     0.173 A 
ATOM     63  F   UNL A   1      48.169  27.575  31.020  1.00  0.00    -0.203 F 
ATOM     64  C   UNL A   1      49.381  26.175  32.474  1.00  0.00     0.198 A 
ATOM     65  C   UNL A   1      48.223  24.859  34.115  1.00  0.00     0.198 A 
ATOM     66  F   UNL A   1      45.876  24.938  34.247  1.00  0.00    -0.203 F 
ATOM     67  F   UNL A   1      50.521  26.537  31.870  1.00  0.00    -0.200 F 
ATOM     68  C   UNL A   1      49.408  25.257  33.514  1.00  0.00     0.200 A 
ATOM     69  F   UNL A   1      48.249  23.980  35.127  1.00  0.00    -0.200 F 
ATOM     70  F   UNL A   1      50.576  24.748  33.928  1.00  0.00    -0.200 F 
ENDBRANCH  37  60
ENDBRANCH  11  12
ENDBRANCH   4   6
ENDBRANCH   1   2
BRANCH   1  71
ATOM     71  C   UNL A   1      33.795  34.131  28.604  1.00  0.00     0.042 C 
BRANCH  71  72
ATOM     72  C   UNL A   1      34.029  34.404  30.082  1.00  0.00     0.117 C 
BRANCH  72  73
ATOM     73  N   UNL A   1      34.100  33.181  30.861  1.00  0.00    -0.354 N 
ATOM     74  C   UNL A   1      34.980  32.752  31.819  1.00  0.00     0.250 C 
ATOM     75  H   UNL A   1      33.379  32.540  30.664  1.00  0.00     0.163 HD
ATOM     76  O   UNL A   1      34.784  31.585  32.185  1.00  0.00    -0.272 OA
BRANCH  74  77
ATOM     77  C   UNL A   1      36.151  33.665  32.402  1.00  0.00     0.173 C 
ATOM     78  Cl  UNL A   1      35.292  35.285  32.602  1.00  0.00    -0.098 Cl
BRANCH  77  79
ATOM     79  C   UNL A   1      36.651  33.096  33.762  1.00  0.00    -0.013 A 
ATOM     80  C   UNL A   1      36.444  33.834  34.947  1.00  0.00     0.006 A 
ATOM     81  C   UNL A   1      37.418  31.918  33.884  1.00  0.00     0.006 A 
ATOM     82  C   UNL A   1      37.017  33.454  36.165  1.00  0.00     0.000 A 
ATOM     83  C   UNL A   1      38.035  31.566  35.092  1.00  0.00     0.000 A 
ATOM     84  C   UNL A   1      37.838  32.338  36.230  1.00  0.00     0.000 A 
ENDBRANCH  77  79
BRANCH  77  85
ATOM     85  C   UNL A   1      37.312  33.844  31.371  1.00  0.00    -0.013 A 
ATOM     86  C   UNL A   1      38.484  34.577  31.649  1.00  0.00     0.006 A 
ATOM     87  C   UNL A   1      37.230  33.265  30.084  1.00  0.00     0.006 A 
ATOM     88  C   UNL A   1      39.482  34.761  30.681  1.00  0.00     0.000 A 
ATOM     89  C   UNL A   1      38.237  33.423  29.128  1.00  0.00     0.000 A 
ATOM     90  C   UNL A   1      39.359  34.182  29.424  1.00  0.00     0.000 A 
ENDBRANCH  77  85
ENDBRANCH  74  77
ENDBRANCH  72  73
ENDBRANCH  71  72
ENDBRANCH   1  71
TORSDOF 12
ENDMDL
