MODEL 1
REMARK VINA RESULT:     -13.4      0.000      0.000
REMARK SMILES Cc1c(CC(=O)N[C@@H](CCO)C(=O)NCCCNC(=O)c2ccc(-c3c4nc(c(-c5c(F)c(F)c(F)c(F)c5F)c5ccc([nH]5)c(-c5c(F)c(F)c(F)c(F)c5F)c5nc(c(-c6c(F)c(F)c(F)c(F)c6F)c6ccc3[nH]6)C=C5)C=C4)cc2)cc(-c2ccc(S(C)(=O)=O)cc2)n1-c1ccc(F)cc1
REMARK SMILES IDX 12 1 13 2 14 3 8 5 7 6 5 7 6 8 4 10 3 11 1 12 2 13 96 14
REMARK SMILES IDX 84 15 85 16 97 17 98 18 103 19 99 20 102 21 100 22 101 23
REMARK SMILES IDX 86 24 87 25 95 26 88 27 94 28 89 29 90 30 91 31 92 32 93 33
REMARK SMILES IDX 9 34 10 35 11 36 15 38 16 39 17 40 18 41 19 42 20 44 21 45
REMARK SMILES IDX 22 46 83 47 23 48 82 49 24 50 25 51 26 52 76 53 27 54 81 55
REMARK SMILES IDX 75 56 77 57 28 58 80 59 74 60 73 61 29 63 61 64 41 65 60 66
REMARK SMILES IDX 42 67 45 68 59 69 78 70 43 71 44 72 58 74 79 75 46 76 30 77
REMARK SMILES IDX 31 78 39 79 32 80 33 81 37 82 40 83 34 84 35 85 38 86 36 87
REMARK SMILES IDX 62 88 63 89 71 90 64 91 65 92 69 93 72 94 66 95 67 96 70 97
REMARK SMILES IDX 68 98 47 99 48 100 56 101 49 102 50 103 54 104 57 105 51 106
REMARK SMILES IDX 52 107 55 108 53 109
REMARK H PARENT 14 4 7 9 11 37 18 43 77 62 45 73
REMARK Flexibility Score: inf
ROOT
ATOM      1  C   UNL A   1      34.945  21.982  24.346  1.00  0.00     0.242 C 
ATOM      2  O   UNL A   1      34.284  22.831  23.736  1.00  0.00    -0.273 OA
ATOM      3  N   UNL A   1      36.289  22.056  24.187  1.00  0.00    -0.354 N 
ATOM      4  H   UNL A   1      36.560  22.726  23.520  1.00  0.00     0.163 HD
ENDROOT
BRANCH   1   5
ATOM      5  C   UNL A   1      34.235  21.033  25.326  1.00  0.00     0.173 C 
BRANCH   5   6
ATOM      6  N   UNL A   1      34.008  21.614  26.644  1.00  0.00    -0.344 N 
ATOM      7  C   UNL A   1      32.918  22.339  27.058  1.00  0.00     0.225 C 
ATOM      8  O   UNL A   1      32.817  22.579  28.264  1.00  0.00    -0.275 OA
ATOM      9  H   UNL A   1      34.715  21.470  27.314  1.00  0.00     0.164 HD
BRANCH   7  10
ATOM     10  C   UNL A   1      31.859  22.815  26.060  1.00  0.00     0.137 C 
BRANCH  10  11
ATOM     11  C   UNL A   1      32.004  24.270  25.717  1.00  0.00    -0.017 A 
ATOM     12  C   UNL A   1      30.712  24.373  23.468  1.00  0.00     0.065 C 
ATOM     13  C   UNL A   1      31.442  24.943  24.642  1.00  0.00     0.024 A 
ATOM     14  N   UNL A   1      31.718  26.299  24.779  1.00  0.00    -0.314 N 
ATOM     15  C   UNL A   1      32.758  25.231  26.443  1.00  0.00     0.033 A 
ATOM     16  C   UNL A   1      32.546  26.482  25.886  1.00  0.00     0.053 A 
BRANCH  14  17
ATOM     17  C   UNL A   1      31.226  27.325  23.932  1.00  0.00     0.046 A 
ATOM     18  C   UNL A   1      29.857  27.620  23.922  1.00  0.00     0.029 A 
ATOM     19  C   UNL A   1      32.113  28.009  23.090  1.00  0.00     0.029 A 
ATOM     20  C   UNL A   1      29.381  28.622  23.079  1.00  0.00     0.041 A 
ATOM     21  C   UNL A   1      31.624  28.995  22.235  1.00  0.00     0.041 A 
ATOM     22  C   UNL A   1      30.266  29.296  22.242  1.00  0.00     0.123 A 
ATOM     23  F   UNL A   1      29.799  30.250  21.425  1.00  0.00    -0.207 F 
ENDBRANCH  14  17
BRANCH  16  24
ATOM     24  C   UNL A   1      32.994  27.780  26.409  1.00  0.00    -0.001 A 
ATOM     25  C   UNL A   1      34.357  28.045  26.621  1.00  0.00     0.011 A 
ATOM     26  C   UNL A   1      32.056  28.783  26.683  1.00  0.00     0.011 A 
ATOM     27  C   UNL A   1      34.773  29.275  27.140  1.00  0.00     0.021 A 
ATOM     28  C   UNL A   1      32.463  30.015  27.203  1.00  0.00     0.021 A 
ATOM     29  C   UNL A   1      33.818  30.249  27.445  1.00  0.00     0.067 A 
BRANCH  29  30
ATOM     30  S   UNL A   1      34.355  31.811  28.101  1.00  0.00     0.175 S 
ATOM     31  C   UNL A   1      33.031  32.926  27.710  1.00  0.00     0.163 C 
ATOM     32  O   UNL A   1      34.431  31.670  29.531  1.00  0.00    -0.224 OA
ATOM     33  O   UNL A   1      35.517  32.235  27.322  1.00  0.00    -0.224 OA
ENDBRANCH  29  30
ENDBRANCH  16  24
ENDBRANCH  10  11
ENDBRANCH   7  10
ENDBRANCH   5   6
BRANCH   5  34
ATOM     34  C   UNL A   1      33.031  20.259  24.757  1.00  0.00     0.063 C 
BRANCH  34  35
ATOM     35  C   UNL A   1      32.787  18.829  25.213  1.00  0.00     0.158 C 
BRANCH  35  36
ATOM     36  O   UNL A   1      32.868  18.652  26.618  1.00  0.00    -0.396 OA
ATOM     37  H   UNL A   1      31.973  18.570  26.984  1.00  0.00     0.210 HD
ENDBRANCH  35  36
ENDBRANCH  34  35
ENDBRANCH   5  34
ENDBRANCH   1   5
BRANCH   3  38
ATOM     38  C   UNL A   1      37.420  21.364  24.785  1.00  0.00     0.117 C 
BRANCH  38  39
ATOM     39  C   UNL A   1      38.431  22.288  25.464  1.00  0.00     0.042 C 
BRANCH  39  40
ATOM     40  C   UNL A   1      39.567  21.609  26.235  1.00  0.00     0.118 C 
BRANCH  40  41
ATOM     41  N   UNL A   1      40.903  21.966  25.807  1.00  0.00    -0.352 N 
ATOM     42  C   UNL A   1      41.562  23.147  26.106  1.00  0.00     0.251 C 
ATOM     43  H   UNL A   1      41.386  21.310  25.254  1.00  0.00     0.163 HD
ATOM     44  O   UNL A   1      42.716  23.312  25.722  1.00  0.00    -0.269 OA
BRANCH  42  45
ATOM     45  C   UNL A   1      40.827  24.260  26.799  1.00  0.00     0.039 A 
ATOM     46  C   UNL A   1      40.745  25.475  26.147  1.00  0.00     0.014 A 
ATOM     47  C   UNL A   1      40.290  24.187  28.096  1.00  0.00     0.014 A 
ATOM     48  C   UNL A   1      40.095  26.573  26.766  1.00  0.00     0.010 A 
ATOM     49  C   UNL A   1      39.722  25.348  28.765  1.00  0.00     0.010 A 
ATOM     50  C   UNL A   1      39.619  26.601  28.129  1.00  0.00    -0.014 A 
BRANCH  50  51
ATOM     51  C   UNL A   1      39.602  28.055  28.823  1.00  0.00     0.031 A 
ATOM     52  C   UNL A   1      41.002  28.519  28.575  1.00  0.00     0.074 A 
ATOM     53  C   UNL A   1      38.849  28.917  29.618  1.00  0.00     0.049 A 
ATOM     54  N   UNL A   1      41.995  27.789  29.005  1.00  0.00    -0.248 NA
ATOM     55  C   UNL A   1      41.350  29.472  27.519  1.00  0.00     0.031 C 
ATOM     56  C   UNL A   1      37.542  28.668  30.250  1.00  0.00     0.029 A 
ATOM     57  N   UNL A   1      39.072  30.262  30.061  1.00  0.00    -0.354 N 
ATOM     58  C   UNL A   1      43.137  28.346  28.486  1.00  0.00     0.074 A 
ATOM     59  C   UNL A   1      42.660  29.213  27.416  1.00  0.00     0.031 C 
ATOM     60  C   UNL A   1      37.034  29.797  30.830  1.00  0.00     0.029 A 
ATOM     61  C   UNL A   1      37.963  30.921  30.713  1.00  0.00     0.049 A 
ATOM     62  H   UNL A   1      39.936  30.715  29.927  1.00  0.00     0.167 HD
ATOM     63  C   UNL A   1      44.109  28.604  29.408  1.00  0.00     0.037 A 
ATOM     64  C   UNL A   1      37.818  32.227  31.185  1.00  0.00     0.037 A 
ATOM     65  C   UNL A   1      44.053  29.970  29.850  1.00  0.00     0.049 A 
ATOM     66  C   UNL A   1      39.175  32.708  31.459  1.00  0.00     0.074 A 
ATOM     67  C   UNL A   1      43.916  31.159  29.161  1.00  0.00     0.029 A 
ATOM     68  N   UNL A   1      43.614  30.204  31.135  1.00  0.00    -0.354 N 
ATOM     69  N   UNL A   1      39.818  32.359  32.531  1.00  0.00    -0.248 NA
ATOM     70  C   UNL A   1      39.844  33.684  30.607  1.00  0.00     0.031 C 
ATOM     71  C   UNL A   1      42.903  31.845  29.863  1.00  0.00     0.029 A 
ATOM     72  C   UNL A   1      42.799  31.312  31.140  1.00  0.00     0.049 A 
ATOM     73  H   UNL A   1      43.848  29.663  31.924  1.00  0.00     0.167 HD
ATOM     74  C   UNL A   1      41.106  32.611  32.192  1.00  0.00     0.074 A 
ATOM     75  C   UNL A   1      41.045  33.658  31.189  1.00  0.00     0.031 C 
ATOM     76  C   UNL A   1      41.948  31.553  32.275  1.00  0.00     0.037 A 
BRANCH  63  77
ATOM     77  C   UNL A   1      44.408  27.431  30.298  1.00  0.00     0.064 A 
ATOM     78  C   UNL A   1      44.627  26.182  29.709  1.00  0.00     0.173 A 
ATOM     79  C   UNL A   1      44.331  27.478  31.707  1.00  0.00     0.173 A 
ATOM     80  F   UNL A   1      44.776  26.085  28.379  1.00  0.00    -0.203 F 
ATOM     81  C   UNL A   1      44.696  25.026  30.485  1.00  0.00     0.198 A 
ATOM     82  C   UNL A   1      44.325  26.316  32.471  1.00  0.00     0.198 A 
ATOM     83  F   UNL A   1      44.277  28.654  32.355  1.00  0.00    -0.203 F 
ATOM     84  F   UNL A   1      44.942  23.846  29.901  1.00  0.00    -0.200 F 
ATOM     85  C   UNL A   1      44.504  25.089  31.858  1.00  0.00     0.200 A 
ATOM     86  F   UNL A   1      44.150  26.391  33.798  1.00  0.00    -0.200 F 
ATOM     87  F   UNL A   1      44.520  23.969  32.595  1.00  0.00    -0.200 F 
ENDBRANCH  63  77
BRANCH  64  88
ATOM     88  C   UNL A   1      36.809  33.296  31.693  1.00  0.00     0.064 A 
ATOM     89  C   UNL A   1      36.060  34.115  30.772  1.00  0.00     0.173 A 
ATOM     90  C   UNL A   1      36.244  33.247  32.974  1.00  0.00     0.173 A 
ATOM     91  F   UNL A   1      36.476  34.313  29.514  1.00  0.00    -0.203 F 
ATOM     92  C   UNL A   1      34.815  34.696  31.065  1.00  0.00     0.198 A 
ATOM     93  C   UNL A   1      35.005  33.870  33.280  1.00  0.00     0.198 A 
ATOM     94  F   UNL A   1      36.828  32.517  33.933  1.00  0.00    -0.203 F 
ATOM     95  F   UNL A   1      34.118  35.322  30.102  1.00  0.00    -0.200 F 
ATOM     96  C   UNL A   1      34.275  34.556  32.318  1.00  0.00     0.200 A 
ATOM     97  F   UNL A   1      34.475  33.739  34.505  1.00  0.00    -0.200 F 
ATOM     98  F   UNL A   1      33.054  35.046  32.588  1.00  0.00    -0.200 F 
ENDBRANCH  64  88
BRANCH  76  99
ATOM     99  C   UNL A   1      41.811  30.666  33.500  1.00  0.00     0.064 A 
ATOM    100  C   UNL A   1      42.148  30.990  34.837  1.00  0.00     0.173 A 
ATOM    101  C   UNL A   1      41.396  29.345  33.278  1.00  0.00     0.173 A 
ATOM    102  F   UNL A   1      42.444  32.242  35.217  1.00  0.00    -0.203 F 
ATOM    103  C   UNL A   1      42.163  30.023  35.848  1.00  0.00     0.198 A 
ATOM    104  C   UNL A   1      41.356  28.397  34.299  1.00  0.00     0.198 A 
ATOM    105  F   UNL A   1      41.010  28.963  32.050  1.00  0.00    -0.203 F 
ATOM    106  F   UNL A   1      42.562  30.349  37.087  1.00  0.00    -0.200 F 
ATOM    107  C   UNL A   1      41.768  28.727  35.577  1.00  0.00     0.200 A 
ATOM    108  F   UNL A   1      40.919  27.160  34.034  1.00  0.00    -0.200 F 
ATOM    109  F   UNL A   1      41.768  27.801  36.546  1.00  0.00    -0.200 F 
ENDBRANCH  76  99
ENDBRANCH  50  51
ENDBRANCH  42  45
ENDBRANCH  40  41
ENDBRANCH  39  40
ENDBRANCH  38  39
ENDBRANCH   3  38
TORSDOF 19
ENDMDL
MODEL 2
REMARK VINA RESULT:     -12.0      4.036      8.721
REMARK SMILES Cc1c(CC(=O)N[C@@H](CCO)C(=O)NCCCNC(=O)c2ccc(-c3c4nc(c(-c5c(F)c(F)c(F)c(F)c5F)c5ccc([nH]5)c(-c5c(F)c(F)c(F)c(F)c5F)c5nc(c(-c6c(F)c(F)c(F)c(F)c6F)c6ccc3[nH]6)C=C5)C=C4)cc2)cc(-c2ccc(S(C)(=O)=O)cc2)n1-c1ccc(F)cc1
REMARK SMILES IDX 12 1 13 2 14 3 8 5 7 6 5 7 6 8 4 10 3 11 1 12 2 13 96 14
REMARK SMILES IDX 84 15 85 16 97 17 98 18 103 19 99 20 102 21 100 22 101 23
REMARK SMILES IDX 86 24 87 25 95 26 88 27 94 28 89 29 90 30 91 31 92 32 93 33
REMARK SMILES IDX 9 34 10 35 11 36 15 38 16 39 17 40 18 41 19 42 20 44 21 45
REMARK SMILES IDX 22 46 83 47 23 48 82 49 24 50 25 51 26 52 76 53 27 54 81 55
REMARK SMILES IDX 75 56 77 57 28 58 80 59 74 60 73 61 29 63 61 64 41 65 60 66
REMARK SMILES IDX 42 67 45 68 59 69 78 70 43 71 44 72 58 74 79 75 46 76 30 77
REMARK SMILES IDX 31 78 39 79 32 80 33 81 37 82 40 83 34 84 35 85 38 86 36 87
REMARK SMILES IDX 62 88 63 89 71 90 64 91 65 92 69 93 72 94 66 95 67 96 70 97
REMARK SMILES IDX 68 98 47 99 48 100 56 101 49 102 50 103 54 104 57 105 51 106
REMARK SMILES IDX 52 107 55 108 53 109
REMARK H PARENT 14 4 7 9 11 37 18 43 77 62 45 73
REMARK Flexibility Score: inf
ROOT
ATOM      1  C   UNL A   1      34.173  22.280  23.713  1.00  0.00     0.242 C 
ATOM      2  O   UNL A   1      33.260  22.733  23.012  1.00  0.00    -0.273 OA
ATOM      3  N   UNL A   1      35.380  22.881  23.571  1.00  0.00    -0.354 N 
ATOM      4  H   UNL A   1      35.394  23.546  22.846  1.00  0.00     0.163 HD
ENDROOT
BRANCH   1   5
ATOM      5  C   UNL A   1      33.854  21.208  24.768  1.00  0.00     0.173 C 
BRANCH   5   6
ATOM      6  N   UNL A   1      33.845  21.715  26.136  1.00  0.00    -0.344 N 
ATOM      7  C   UNL A   1      32.853  22.440  26.747  1.00  0.00     0.225 C 
ATOM      8  O   UNL A   1      32.940  22.611  27.967  1.00  0.00    -0.275 OA
ATOM      9  H   UNL A   1      34.639  21.515  26.681  1.00  0.00     0.164 HD
BRANCH   7  10
ATOM     10  C   UNL A   1      31.673  22.998  25.948  1.00  0.00     0.137 C 
BRANCH  10  11
ATOM     11  C   UNL A   1      31.830  24.458  25.633  1.00  0.00    -0.017 A 
ATOM     12  C   UNL A   1      30.556  24.611  23.376  1.00  0.00     0.065 C 
ATOM     13  C   UNL A   1      31.281  25.154  24.567  1.00  0.00     0.024 A 
ATOM     14  N   UNL A   1      31.565  26.506  24.730  1.00  0.00    -0.314 N 
ATOM     15  C   UNL A   1      32.585  25.401  26.383  1.00  0.00     0.033 A 
ATOM     16  C   UNL A   1      32.386  26.663  25.846  1.00  0.00     0.053 A 
BRANCH  14  17
ATOM     17  C   UNL A   1      31.086  27.550  23.898  1.00  0.00     0.046 A 
ATOM     18  C   UNL A   1      29.721  27.863  23.892  1.00  0.00     0.029 A 
ATOM     19  C   UNL A   1      31.983  28.235  23.066  1.00  0.00     0.029 A 
ATOM     20  C   UNL A   1      29.259  28.883  23.063  1.00  0.00     0.041 A 
ATOM     21  C   UNL A   1      31.507  29.240  22.226  1.00  0.00     0.041 A 
ATOM     22  C   UNL A   1      30.153  29.559  22.237  1.00  0.00     0.123 A 
ATOM     23  F   UNL A   1      29.699  30.530  21.434  1.00  0.00    -0.207 F 
ENDBRANCH  14  17
BRANCH  16  24
ATOM     24  C   UNL A   1      32.839  27.948  26.397  1.00  0.00    -0.001 A 
ATOM     25  C   UNL A   1      31.930  28.986  26.657  1.00  0.00     0.011 A 
ATOM     26  C   UNL A   1      34.194  28.141  26.692  1.00  0.00     0.011 A 
ATOM     27  C   UNL A   1      32.373  30.214  27.160  1.00  0.00     0.021 A 
ATOM     28  C   UNL A   1      34.646  29.364  27.195  1.00  0.00     0.021 A 
ATOM     29  C   UNL A   1      33.736  30.401  27.410  1.00  0.00     0.067 A 
BRANCH  29  30
ATOM     30  S   UNL A   1      34.290  31.962  28.054  1.00  0.00     0.175 S 
ATOM     31  C   UNL A   1      32.985  33.091  27.642  1.00  0.00     0.163 C 
ATOM     32  O   UNL A   1      34.355  31.834  29.486  1.00  0.00    -0.224 OA
ATOM     33  O   UNL A   1      35.464  32.361  27.279  1.00  0.00    -0.224 OA
ENDBRANCH  29  30
ENDBRANCH  16  24
ENDBRANCH  10  11
ENDBRANCH   7  10
ENDBRANCH   5   6
BRANCH   5  34
ATOM     34  C   UNL A   1      32.684  20.263  24.433  1.00  0.00     0.063 C 
BRANCH  34  35
ATOM     35  C   UNL A   1      32.637  18.885  25.074  1.00  0.00     0.158 C 
BRANCH  35  36
ATOM     36  O   UNL A   1      33.009  18.875  26.443  1.00  0.00    -0.396 OA
ATOM     37  H   UNL A   1      33.968  18.752  26.515  1.00  0.00     0.210 HD
ENDBRANCH  35  36
ENDBRANCH  34  35
ENDBRANCH   5  34
ENDBRANCH   1   5
BRANCH   3  38
ATOM     38  C   UNL A   1      36.659  22.761  24.252  1.00  0.00     0.117 C 
BRANCH  38  39
ATOM     39  C   UNL A   1      36.830  23.716  25.434  1.00  0.00     0.042 C 
BRANCH  39  40
ATOM     40  C   UNL A   1      38.136  23.596  26.224  1.00  0.00     0.118 C 
BRANCH  40  41
ATOM     41  N   UNL A   1      38.626  22.247  26.408  1.00  0.00    -0.352 N 
ATOM     42  C   UNL A   1      39.941  21.887  26.650  1.00  0.00     0.251 C 
ATOM     43  H   UNL A   1      37.965  21.519  26.355  1.00  0.00     0.163 HD
ATOM     44  O   UNL A   1      40.224  20.708  26.836  1.00  0.00    -0.269 OA
BRANCH  42  45
ATOM     45  C   UNL A   1      41.027  22.924  26.576  1.00  0.00     0.039 A 
ATOM     46  C   UNL A   1      42.207  22.569  25.950  1.00  0.00     0.014 A 
ATOM     47  C   UNL A   1      40.969  24.199  27.165  1.00  0.00     0.014 A 
ATOM     48  C   UNL A   1      43.281  23.493  25.879  1.00  0.00     0.010 A 
ATOM     49  C   UNL A   1      42.113  25.097  27.181  1.00  0.00     0.010 A 
ATOM     50  C   UNL A   1      43.330  24.769  26.552  1.00  0.00    -0.014 A 
BRANCH  50  51
ATOM     51  C   UNL A   1      44.806  25.289  26.937  1.00  0.00     0.031 A 
ATOM     52  C   UNL A   1      44.722  25.344  28.428  1.00  0.00     0.074 A 
ATOM     53  C   UNL A   1      45.999  25.787  26.415  1.00  0.00     0.049 A 
ATOM     54  N   UNL A   1      43.792  26.074  28.983  1.00  0.00    -0.248 NA
ATOM     55  C   UNL A   1      45.297  24.315  29.298  1.00  0.00     0.031 C 
ATOM     56  C   UNL A   1      46.319  26.103  25.013  1.00  0.00     0.029 A 
ATOM     57  N   UNL A   1      47.248  26.134  27.026  1.00  0.00    -0.354 N 
ATOM     58  C   UNL A   1      43.831  25.796  30.325  1.00  0.00     0.074 A 
ATOM     59  C   UNL A   1      44.600  24.560  30.415  1.00  0.00     0.031 C 
ATOM     60  C   UNL A   1      47.639  26.426  24.853  1.00  0.00     0.029 A 
ATOM     61  C   UNL A   1      48.346  26.427  26.134  1.00  0.00     0.049 A 
ATOM     62  H   UNL A   1      47.353  26.169  28.005  1.00  0.00     0.167 HD
ATOM     63  C   UNL A   1      43.911  26.896  31.128  1.00  0.00     0.037 A 
ATOM     64  C   UNL A   1      49.688  26.717  26.390  1.00  0.00     0.037 A 
ATOM     65  C   UNL A   1      45.273  27.171  31.494  1.00  0.00     0.049 A 
ATOM     66  C   UNL A   1      49.728  27.263  27.749  1.00  0.00     0.074 A 
ATOM     67  C   UNL A   1      46.294  26.355  31.938  1.00  0.00     0.029 A 
ATOM     68  N   UNL A   1      45.867  28.282  30.934  1.00  0.00    -0.354 N 
ATOM     69  N   UNL A   1      49.383  28.488  28.000  1.00  0.00    -0.248 NA
ATOM     70  C   UNL A   1      50.253  26.507  28.880  1.00  0.00     0.031 C 
ATOM     71  C   UNL A   1      47.394  26.717  31.132  1.00  0.00     0.029 A 
ATOM     72  C   UNL A   1      47.166  27.977  30.597  1.00  0.00     0.049 A 
ATOM     73  H   UNL A   1      45.431  29.154  30.797  1.00  0.00     0.167 HD
ATOM     74  C   UNL A   1      49.124  28.450  29.331  1.00  0.00     0.074 A 
ATOM     75  C   UNL A   1      49.932  27.363  29.852  1.00  0.00     0.031 C 
ATOM     76  C   UNL A   1      47.879  28.841  29.693  1.00  0.00     0.037 A 
BRANCH  63  77
ATOM     77  C   UNL A   1      42.886  27.944  30.800  1.00  0.00     0.064 A 
ATOM     78  C   UNL A   1      41.826  28.145  31.688  1.00  0.00     0.173 A 
ATOM     79  C   UNL A   1      42.842  28.637  29.571  1.00  0.00     0.173 A 
ATOM     80  F   UNL A   1      41.845  27.565  32.898  1.00  0.00    -0.203 F 
ATOM     81  C   UNL A   1      40.739  28.945  31.337  1.00  0.00     0.198 A 
ATOM     82  C   UNL A   1      41.724  29.373  29.194  1.00  0.00     0.198 A 
ATOM     83  F   UNL A   1      43.892  28.620  28.732  1.00  0.00    -0.203 F 
ATOM     84  F   UNL A   1      39.751  29.151  32.218  1.00  0.00    -0.200 F 
ATOM     85  C   UNL A   1      40.670  29.523  30.077  1.00  0.00     0.200 A 
ATOM     86  F   UNL A   1      41.674  29.937  27.979  1.00  0.00    -0.200 F 
ATOM     87  F   UNL A   1      39.600  30.250  29.724  1.00  0.00    -0.200 F 
ENDBRANCH  63  77
BRANCH  64  88
ATOM     88  C   UNL A   1      51.106  26.854  25.766  1.00  0.00     0.064 A 
ATOM     89  C   UNL A   1      51.958  25.705  25.586  1.00  0.00     0.173 A 
ATOM     90  C   UNL A   1      51.472  27.944  24.967  1.00  0.00     0.173 A 
ATOM     91  F   UNL A   1      51.784  24.585  26.301  1.00  0.00    -0.203 F 
ATOM     92  C   UNL A   1      52.968  25.616  24.613  1.00  0.00     0.198 A 
ATOM     93  C   UNL A   1      52.521  27.866  24.012  1.00  0.00     0.198 A 
ATOM     94  F   UNL A   1      50.764  29.080  25.022  1.00  0.00    -0.203 F 
ATOM     95  F   UNL A   1      53.618  24.456  24.418  1.00  0.00    -0.200 F 
ATOM     96  C   UNL A   1      53.237  26.693  23.809  1.00  0.00     0.200 A 
ATOM     97  F   UNL A   1      52.790  28.919  23.226  1.00  0.00    -0.200 F 
ATOM     98  F   UNL A   1      54.150  26.596  22.829  1.00  0.00    -0.200 F 
ENDBRANCH  64  88
BRANCH  76  99
ATOM     99  C   UNL A   1      47.325  30.078  29.008  1.00  0.00     0.064 A 
ATOM    100  C   UNL A   1      46.657  30.143  27.761  1.00  0.00     0.173 A 
ATOM    101  C   UNL A   1      47.585  31.310  29.626  1.00  0.00     0.173 A 
ATOM    102  F   UNL A   1      46.238  29.043  27.116  1.00  0.00    -0.203 F 
ATOM    103  C   UNL A   1      46.370  31.364  27.141  1.00  0.00     0.198 A 
ATOM    104  C   UNL A   1      47.245  32.524  29.033  1.00  0.00     0.198 A 
ATOM    105  F   UNL A   1      48.170  31.340  30.833  1.00  0.00    -0.203 F 
ATOM    106  F   UNL A   1      45.805  31.385  25.924  1.00  0.00    -0.200 F 
ATOM    107  C   UNL A   1      46.665  32.553  27.779  1.00  0.00     0.200 A 
ATOM    108  F   UNL A   1      47.487  33.668  29.687  1.00  0.00    -0.200 F 
ATOM    109  F   UNL A   1      46.378  33.725  27.195  1.00  0.00    -0.200 F 
ENDBRANCH  76  99
ENDBRANCH  50  51
ENDBRANCH  42  45
ENDBRANCH  40  41
ENDBRANCH  39  40
ENDBRANCH  38  39
ENDBRANCH   3  38
TORSDOF 19
ENDMDL
MODEL 3
REMARK VINA RESULT:     -11.7      5.936     11.350
REMARK SMILES Cc1c(CC(=O)N[C@@H](CCO)C(=O)NCCCNC(=O)c2ccc(-c3c4nc(c(-c5c(F)c(F)c(F)c(F)c5F)c5ccc([nH]5)c(-c5c(F)c(F)c(F)c(F)c5F)c5nc(c(-c6c(F)c(F)c(F)c(F)c6F)c6ccc3[nH]6)C=C5)C=C4)cc2)cc(-c2ccc(S(C)(=O)=O)cc2)n1-c1ccc(F)cc1
REMARK SMILES IDX 12 1 13 2 14 3 8 5 7 6 5 7 6 8 4 10 3 11 1 12 2 13 96 14
REMARK SMILES IDX 84 15 85 16 97 17 98 18 103 19 99 20 102 21 100 22 101 23
REMARK SMILES IDX 86 24 87 25 95 26 88 27 94 28 89 29 90 30 91 31 92 32 93 33
REMARK SMILES IDX 9 34 10 35 11 36 15 38 16 39 17 40 18 41 19 42 20 44 21 45
REMARK SMILES IDX 22 46 83 47 23 48 82 49 24 50 25 51 26 52 76 53 27 54 81 55
REMARK SMILES IDX 75 56 77 57 28 58 80 59 74 60 73 61 29 63 61 64 41 65 60 66
REMARK SMILES IDX 42 67 45 68 59 69 78 70 43 71 44 72 58 74 79 75 46 76 30 77
REMARK SMILES IDX 31 78 39 79 32 80 33 81 37 82 40 83 34 84 35 85 38 86 36 87
REMARK SMILES IDX 62 88 63 89 71 90 64 91 65 92 69 93 72 94 66 95 67 96 70 97
REMARK SMILES IDX 68 98 47 99 48 100 56 101 49 102 50 103 54 104 57 105 51 106
REMARK SMILES IDX 52 107 55 108 53 109
REMARK H PARENT 14 4 7 9 11 37 18 43 77 62 45 73
REMARK Flexibility Score: inf
ROOT
ATOM      1  C   UNL A   1      43.936  25.572  25.234  1.00  0.00     0.242 C 
ATOM      2  O   UNL A   1      43.074  26.448  25.095  1.00  0.00    -0.273 OA
ATOM      3  N   UNL A   1      43.664  24.379  24.649  1.00  0.00    -0.354 N 
ATOM      4  H   UNL A   1      42.758  24.337  24.269  1.00  0.00     0.163 HD
ENDROOT
BRANCH   1   5
ATOM      5  C   UNL A   1      45.275  25.929  25.901  1.00  0.00     0.173 C 
BRANCH   5   6
ATOM      6  N   UNL A   1      45.755  27.267  25.575  1.00  0.00    -0.344 N 
ATOM      7  C   UNL A   1      46.673  27.611  24.615  1.00  0.00     0.225 C 
ATOM      8  O   UNL A   1      46.805  28.810  24.355  1.00  0.00    -0.275 OA
ATOM      9  H   UNL A   1      45.378  28.007  26.103  1.00  0.00     0.164 HD
BRANCH   7  10
ATOM     10  C   UNL A   1      47.487  26.543  23.880  1.00  0.00     0.137 C 
BRANCH  10  11
ATOM     11  C   UNL A   1      48.968  26.746  24.027  1.00  0.00    -0.017 A 
ATOM     12  C   UNL A   1      49.356  25.805  26.415  1.00  0.00     0.065 C 
ATOM     13  C   UNL A   1      49.772  26.355  25.088  1.00  0.00     0.024 A 
ATOM     14  N   UNL A   1      51.096  26.615  24.756  1.00  0.00    -0.314 N 
ATOM     15  C   UNL A   1      49.823  27.389  23.090  1.00  0.00     0.033 A 
ATOM     16  C   UNL A   1      51.133  27.270  23.525  1.00  0.00     0.053 A 
BRANCH  14  17
ATOM     17  C   UNL A   1      52.223  26.262  25.541  1.00  0.00     0.046 A 
ATOM     18  C   UNL A   1      52.745  27.181  26.460  1.00  0.00     0.029 A 
ATOM     19  C   UNL A   1      52.821  25.006  25.364  1.00  0.00     0.029 A 
ATOM     20  C   UNL A   1      53.859  26.828  27.219  1.00  0.00     0.041 A 
ATOM     21  C   UNL A   1      53.947  24.671  26.115  1.00  0.00     0.041 A 
ATOM     22  C   UNL A   1      54.451  25.581  27.038  1.00  0.00     0.123 A 
ATOM     23  F   UNL A   1      55.529  25.254  27.763  1.00  0.00    -0.207 F 
ENDBRANCH  14  17
BRANCH  16  24
ATOM     24  C   UNL A   1      52.353  27.642  22.794  1.00  0.00    -0.001 A 
ATOM     25  C   UNL A   1      53.000  26.727  21.948  1.00  0.00     0.011 A 
ATOM     26  C   UNL A   1      52.872  28.937  22.918  1.00  0.00     0.011 A 
ATOM     27  C   UNL A   1      54.172  27.083  21.273  1.00  0.00     0.021 A 
ATOM     28  C   UNL A   1      54.044  29.302  22.248  1.00  0.00     0.021 A 
ATOM     29  C   UNL A   1      54.697  28.367  21.443  1.00  0.00     0.067 A 
BRANCH  29  30
ATOM     30  S   UNL A   1      56.185  28.814  20.579  1.00  0.00     0.175 S 
ATOM     31  C   UNL A   1      56.850  27.264  20.027  1.00  0.00     0.163 C 
ATOM     32  O   UNL A   1      55.795  29.585  19.428  1.00  0.00    -0.224 OA
ATOM     33  O   UNL A   1      57.118  29.353  21.567  1.00  0.00    -0.224 OA
ENDBRANCH  29  30
ENDBRANCH  16  24
ENDBRANCH  10  11
ENDBRANCH   7  10
ENDBRANCH   5   6
BRANCH   5  34
ATOM     34  C   UNL A   1      45.404  25.553  27.389  1.00  0.00     0.063 C 
BRANCH  34  35
ATOM     35  C   UNL A   1      46.036  24.221  27.766  1.00  0.00     0.158 C 
BRANCH  35  36
ATOM     36  O   UNL A   1      46.876  23.679  26.760  1.00  0.00    -0.396 OA
ATOM     37  H   UNL A   1      47.731  24.137  26.774  1.00  0.00     0.210 HD
ENDBRANCH  35  36
ENDBRANCH  34  35
ENDBRANCH   5  34
ENDBRANCH   1   5
BRANCH   3  38
ATOM     38  C   UNL A   1      44.415  23.148  24.461  1.00  0.00     0.117 C 
BRANCH  38  39
ATOM     39  C   UNL A   1      43.751  21.912  25.069  1.00  0.00     0.042 C 
BRANCH  39  40
ATOM     40  C   UNL A   1      43.822  21.778  26.593  1.00  0.00     0.118 C 
BRANCH  40  41
ATOM     41  N   UNL A   1      42.687  21.125  27.209  1.00  0.00    -0.352 N 
ATOM     42  C   UNL A   1      41.529  21.749  27.642  1.00  0.00     0.251 C 
ATOM     43  H   UNL A   1      42.744  20.150  27.332  1.00  0.00     0.163 HD
ATOM     44  O   UNL A   1      40.614  21.076  28.107  1.00  0.00    -0.269 OA
BRANCH  42  45
ATOM     45  C   UNL A   1      41.441  23.249  27.641  1.00  0.00     0.039 A 
ATOM     46  C   UNL A   1      42.154  23.931  28.610  1.00  0.00     0.014 A 
ATOM     47  C   UNL A   1      40.627  24.011  26.786  1.00  0.00     0.014 A 
ATOM     48  C   UNL A   1      42.082  25.345  28.682  1.00  0.00     0.010 A 
ATOM     49  C   UNL A   1      40.477  25.450  26.938  1.00  0.00     0.010 A 
ATOM     50  C   UNL A   1      41.188  26.177  27.912  1.00  0.00    -0.014 A 
BRANCH  50  51
ATOM     51  C   UNL A   1      40.755  27.560  28.617  1.00  0.00     0.031 A 
ATOM     52  C   UNL A   1      41.884  28.458  28.228  1.00  0.00     0.074 A 
ATOM     53  C   UNL A   1      39.841  28.140  29.496  1.00  0.00     0.049 A 
ATOM     54  N   UNL A   1      43.103  28.115  28.544  1.00  0.00    -0.248 NA
ATOM     55  C   UNL A   1      41.782  29.445  27.151  1.00  0.00     0.031 C 
ATOM     56  C   UNL A   1      38.766  27.484  30.259  1.00  0.00     0.029 A 
ATOM     57  N   UNL A   1      39.643  29.493  29.926  1.00  0.00    -0.354 N 
ATOM     58  C   UNL A   1      43.932  29.008  27.914  1.00  0.00     0.074 A 
ATOM     59  C   UNL A   1      43.085  29.637  26.908  1.00  0.00     0.031 C 
ATOM     60  C   UNL A   1      37.970  28.393  30.900  1.00  0.00     0.029 A 
ATOM     61  C   UNL A   1      38.451  29.760  30.697  1.00  0.00     0.049 A 
ATOM     62  H   UNL A   1      40.287  30.205  29.706  1.00  0.00     0.167 HD
ATOM     63  C   UNL A   1      44.850  29.601  28.731  1.00  0.00     0.037 A 
ATOM     64  C   UNL A   1      37.925  30.953  31.194  1.00  0.00     0.037 A 
ATOM     65  C   UNL A   1      44.384  30.881  29.189  1.00  0.00     0.049 A 
ATOM     66  C   UNL A   1      39.061  31.868  31.329  1.00  0.00     0.074 A 
ATOM     67  C   UNL A   1      43.786  31.937  28.530  1.00  0.00     0.029 A 
ATOM     68  N   UNL A   1      44.026  30.987  30.516  1.00  0.00    -0.354 N 
ATOM     69  N   UNL A   1      39.890  31.782  32.323  1.00  0.00    -0.248 NA
ATOM     70  C   UNL A   1      39.273  32.989  30.420  1.00  0.00     0.031 C 
ATOM     71  C   UNL A   1      42.679  32.262  29.341  1.00  0.00     0.029 A 
ATOM     72  C   UNL A   1      42.891  31.758  30.617  1.00  0.00     0.049 A 
ATOM     73  H   UNL A   1      44.507  30.577  31.271  1.00  0.00     0.167 HD
ATOM     74  C   UNL A   1      40.977  32.443  31.854  1.00  0.00     0.074 A 
ATOM     75  C   UNL A   1      40.466  33.382  30.873  1.00  0.00     0.031 C 
ATOM     76  C   UNL A   1      42.129  31.730  31.838  1.00  0.00     0.037 A 
BRANCH  63  77
ATOM     77  C   UNL A   1      45.615  28.620  29.573  1.00  0.00     0.064 A 
ATOM     78  C   UNL A   1      46.935  28.322  29.221  1.00  0.00     0.173 A 
ATOM     79  C   UNL A   1      45.035  27.860  30.612  1.00  0.00     0.173 A 
ATOM     80  F   UNL A   1      47.561  29.054  28.288  1.00  0.00    -0.203 F 
ATOM     81  C   UNL A   1      47.618  27.270  29.830  1.00  0.00     0.198 A 
ATOM     82  C   UNL A   1      45.691  26.766  31.163  1.00  0.00     0.198 A 
ATOM     83  F   UNL A   1      43.830  28.185  31.112  1.00  0.00    -0.203 F 
ATOM     84  F   UNL A   1      48.894  27.026  29.501  1.00  0.00    -0.200 F 
ATOM     85  C   UNL A   1      46.983  26.468  30.768  1.00  0.00     0.200 A 
ATOM     86  F   UNL A   1      45.071  26.007  32.078  1.00  0.00    -0.200 F 
ATOM     87  F   UNL A   1      47.626  25.427  31.314  1.00  0.00    -0.200 F 
ENDBRANCH  63  77
BRANCH  64  88
ATOM     88  C   UNL A   1      36.673  31.636  31.815  1.00  0.00     0.064 A 
ATOM     89  C   UNL A   1      36.619  31.965  33.218  1.00  0.00     0.173 A 
ATOM     90  C   UNL A   1      35.747  32.350  31.045  1.00  0.00     0.173 A 
ATOM     91  F   UNL A   1      37.403  31.347  34.113  1.00  0.00    -0.203 F 
ATOM     92  C   UNL A   1      35.829  32.994  33.758  1.00  0.00     0.198 A 
ATOM     93  C   UNL A   1      34.919  33.362  31.600  1.00  0.00     0.198 A 
ATOM     94  F   UNL A   1      35.688  32.154  29.721  1.00  0.00    -0.203 F 
ATOM     95  F   UNL A   1      35.949  33.328  35.054  1.00  0.00    -0.200 F 
ATOM     96  C   UNL A   1      34.990  33.709  32.943  1.00  0.00     0.200 A 
ATOM     97  F   UNL A   1      34.094  34.061  30.806  1.00  0.00    -0.200 F 
ATOM     98  F   UNL A   1      34.285  34.741  33.434  1.00  0.00    -0.200 F 
ENDBRANCH  64  88
BRANCH  76  99
ATOM     99  C   UNL A   1      42.424  30.881  33.061  1.00  0.00     0.064 A 
ATOM    100  C   UNL A   1      41.947  29.575  33.336  1.00  0.00     0.173 A 
ATOM    101  C   UNL A   1      43.171  31.485  34.083  1.00  0.00     0.173 A 
ATOM    102  F   UNL A   1      41.324  28.832  32.409  1.00  0.00    -0.203 F 
ATOM    103  C   UNL A   1      42.126  28.974  34.587  1.00  0.00     0.198 A 
ATOM    104  C   UNL A   1      43.397  30.860  35.307  1.00  0.00     0.198 A 
ATOM    105  F   UNL A   1      43.703  32.702  33.890  1.00  0.00    -0.203 F 
ATOM    106  F   UNL A   1      41.594  27.767  34.836  1.00  0.00    -0.200 F 
ATOM    107  C   UNL A   1      42.850  29.618  35.571  1.00  0.00     0.200 A 
ATOM    108  F   UNL A   1      44.148  31.472  36.232  1.00  0.00    -0.200 F 
ATOM    109  F   UNL A   1      43.036  29.038  36.765  1.00  0.00    -0.200 F 
ENDBRANCH  76  99
ENDBRANCH  50  51
ENDBRANCH  42  45
ENDBRANCH  40  41
ENDBRANCH  39  40
ENDBRANCH  38  39
ENDBRANCH   3  38
TORSDOF 19
ENDMDL
