MODEL 1
REMARK VINA RESULT:     -13.7      0.000      0.000
REMARK SMILES COC(=O)c1ccc(C)c(NC(=O)[C@H]2CC=CC[C@H]2C(=O)NCCCNC(=O)c2ccc(-c3c4nc(c(-c5c(F)c(F)c(F)c(F)c5F)c5ccc([nH]5)c(-c5c(F)c(F)c(F)c(F)c5F)c5nc(c(-c6c(F)c(F)c(F)c(F)c6F)c6ccc3[nH]6)C=C5)C=C4)cc2)c1
REMARK SMILES IDX 23 1 22 2 20 3 21 4 19 6 14 7 15 8 16 9 18 10 17 11 12 12
REMARK SMILES IDX 11 13 13 15 10 16 5 17 6 18 92 19 7 20 8 21 9 22 3 23 4 24
REMARK SMILES IDX 2 25 1 26 24 27 25 28 26 29 27 30 28 32 29 33 30 34 91 35
REMARK SMILES IDX 31 36 90 37 32 38 33 39 34 40 84 41 35 42 89 43 83 44 85 45
REMARK SMILES IDX 36 46 88 47 82 48 81 49 37 51 69 52 49 53 68 54 50 55 53 56
REMARK SMILES IDX 67 57 86 58 51 59 52 60 66 62 87 63 54 64 38 65 39 66 47 67
REMARK SMILES IDX 40 68 41 69 45 70 48 71 42 72 43 73 46 74 44 75 70 76 71 77
REMARK SMILES IDX 79 78 72 79 73 80 77 81 80 82 74 83 75 84 78 85 76 86 55 87
REMARK SMILES IDX 56 88 64 89 57 90 58 91 62 92 65 93 59 94 60 95 63 96 61 97
REMARK H PARENT 22 5 11 14 26 31 85 50 53 61
REMARK Flexibility Score: inf
ROOT
ATOM      1  C   UNL A   1      36.081  20.488  25.008  1.00  0.00     0.117 C 
ENDROOT
BRANCH   1   2
ATOM      2  N   UNL A   1      35.388  21.130  26.107  1.00  0.00    -0.356 N 
ATOM      3  C   UNL A   1      34.369  22.010  26.206  1.00  0.00     0.224 C 
ATOM      4  O   UNL A   1      34.147  22.392  27.365  1.00  0.00    -0.275 OA
ATOM      5  H   UNL A   1      35.743  20.863  26.985  1.00  0.00     0.163 HD
BRANCH   3   6
ATOM      6  C   UNL A   1      33.399  22.453  25.101  1.00  0.00     0.095 C 
ATOM      7  C   UNL A   1      31.973  23.024  25.359  1.00  0.00     0.095 C 
ATOM      8  C   UNL A   1      31.179  23.335  24.081  1.00  0.00     0.041 C 
ATOM      9  C   UNL A   1      31.997  23.699  22.883  1.00  0.00    -0.030 C 
ATOM     10  C   UNL A   1      34.190  23.011  23.902  1.00  0.00     0.041 C 
ATOM     11  C   UNL A   1      33.327  23.561  22.801  1.00  0.00    -0.030 C 
BRANCH   7  12
ATOM     12  C   UNL A   1      31.533  23.876  26.557  1.00  0.00     0.228 C 
ATOM     13  N   UNL A   1      31.656  25.207  26.801  1.00  0.00    -0.326 N 
ATOM     14  H   UNL A   1      31.357  25.420  27.714  1.00  0.00     0.169 HD
ATOM     15  O   UNL A   1      30.872  23.288  27.438  1.00  0.00    -0.274 OA
BRANCH  13  16
ATOM     16  C   UNL A   1      32.084  26.371  26.137  1.00  0.00     0.044 A 
ATOM     17  C   UNL A   1      31.952  28.790  25.924  1.00  0.00     0.062 A 
ATOM     18  C   UNL A   1      32.603  28.736  24.692  1.00  0.00     0.016 A 
ATOM     19  C   UNL A   1      31.575  27.597  26.573  1.00  0.00     0.042 A 
ATOM     20  C   UNL A   1      33.136  27.528  24.280  1.00  0.00     0.006 A 
ATOM     21  C   UNL A   1      33.074  26.444  25.166  1.00  0.00    -0.027 A 
ATOM     22  C   UNL A   1      34.439  25.950  25.572  1.00  0.00     0.046 C 
BRANCH  17  23
ATOM     23  C   UNL A   1      31.976  30.103  26.632  1.00  0.00     0.337 C 
ATOM     24  O   UNL A   1      31.411  31.101  26.237  1.00  0.00    -0.246 OA
BRANCH  23  25
ATOM     25  O   UNL A   1      32.964  30.064  27.563  1.00  0.00    -0.465 OA
ATOM     26  C   UNL A   1      33.875  31.164  27.477  1.00  0.00     0.282 C 
ENDBRANCH  23  25
ENDBRANCH  17  23
ENDBRANCH  13  16
ENDBRANCH   7  12
ENDBRANCH   3   6
ENDBRANCH   1   2
BRANCH   1  27
ATOM     27  C   UNL A   1      37.577  20.670  25.118  1.00  0.00     0.042 C 
BRANCH  27  28
ATOM     28  C   UNL A   1      38.037  22.013  25.614  1.00  0.00     0.118 C 
BRANCH  28  29
ATOM     29  N   UNL A   1      39.259  21.968  26.393  1.00  0.00    -0.352 N 
ATOM     30  C   UNL A   1      40.089  23.006  26.775  1.00  0.00     0.251 C 
ATOM     31  H   UNL A   1      39.537  21.072  26.692  1.00  0.00     0.163 HD
ATOM     32  O   UNL A   1      41.199  22.745  27.229  1.00  0.00    -0.269 OA
BRANCH  30  33
ATOM     33  C   UNL A   1      39.562  24.398  26.859  1.00  0.00     0.039 A 
ATOM     34  C   UNL A   1      40.301  25.355  26.146  1.00  0.00     0.014 A 
ATOM     35  C   UNL A   1      38.804  24.797  27.946  1.00  0.00     0.014 A 
ATOM     36  C   UNL A   1      40.563  26.579  26.736  1.00  0.00     0.010 A 
ATOM     37  C   UNL A   1      39.252  25.874  28.652  1.00  0.00     0.010 A 
ATOM     38  C   UNL A   1      40.160  26.744  28.051  1.00  0.00    -0.014 A 
BRANCH  38  39
ATOM     39  C   UNL A   1      40.476  27.870  28.888  1.00  0.00     0.031 A 
ATOM     40  C   UNL A   1      39.484  28.957  28.888  1.00  0.00     0.074 A 
ATOM     41  C   UNL A   1      41.461  27.721  29.800  1.00  0.00     0.049 A 
ATOM     42  N   UNL A   1      39.689  30.107  29.407  1.00  0.00    -0.248 NA
ATOM     43  C   UNL A   1      38.160  28.841  28.276  1.00  0.00     0.031 C 
ATOM     44  C   UNL A   1      41.695  28.495  31.013  1.00  0.00     0.029 A 
ATOM     45  N   UNL A   1      42.592  26.891  29.703  1.00  0.00    -0.354 N 
ATOM     46  C   UNL A   1      38.475  30.752  29.486  1.00  0.00     0.074 A 
ATOM     47  C   UNL A   1      37.570  29.964  28.693  1.00  0.00     0.031 C 
ATOM     48  C   UNL A   1      42.989  28.373  31.362  1.00  0.00     0.029 A 
ATOM     49  C   UNL A   1      43.641  27.638  30.293  1.00  0.00     0.049 A 
ATOM     50  H   UNL A   1      42.643  25.989  29.313  1.00  0.00     0.167 HD
ATOM     51  C   UNL A   1      38.384  31.803  30.344  1.00  0.00     0.037 A 
ATOM     52  C   UNL A   1      44.653  28.131  29.516  1.00  0.00     0.037 A 
ATOM     53  C   UNL A   1      39.694  32.050  30.939  1.00  0.00     0.049 A 
ATOM     54  C   UNL A   1      44.695  29.641  29.514  1.00  0.00     0.074 A 
ATOM     55  C   UNL A   1      40.275  31.646  32.129  1.00  0.00     0.029 A 
ATOM     56  N   UNL A   1      40.732  32.440  30.105  1.00  0.00    -0.354 N 
ATOM     57  N   UNL A   1      43.655  30.403  29.733  1.00  0.00    -0.248 NA
ATOM     58  C   UNL A   1      45.921  30.411  29.340  1.00  0.00     0.031 C 
ATOM     59  C   UNL A   1      41.681  31.794  32.000  1.00  0.00     0.029 A 
ATOM     60  C   UNL A   1      41.947  32.294  30.735  1.00  0.00     0.049 A 
ATOM     61  H   UNL A   1      40.615  32.777  29.187  1.00  0.00     0.167 HD
ATOM     62  C   UNL A   1      44.049  31.719  29.791  1.00  0.00     0.074 A 
ATOM     63  C   UNL A   1      45.476  31.665  29.533  1.00  0.00     0.031 C 
ATOM     64  C   UNL A   1      43.165  32.729  30.073  1.00  0.00     0.037 A 
BRANCH  51  65
ATOM     65  C   UNL A   1      37.122  32.466  30.831  1.00  0.00     0.064 A 
ATOM     66  C   UNL A   1      36.382  33.296  29.956  1.00  0.00     0.173 A 
ATOM     67  C   UNL A   1      36.583  32.345  32.125  1.00  0.00     0.173 A 
ATOM     68  F   UNL A   1      36.747  33.474  28.681  1.00  0.00    -0.203 F 
ATOM     69  C   UNL A   1      35.236  33.983  30.357  1.00  0.00     0.198 A 
ATOM     70  C   UNL A   1      35.451  33.060  32.535  1.00  0.00     0.198 A 
ATOM     71  F   UNL A   1      37.091  31.496  33.023  1.00  0.00    -0.203 F 
ATOM     72  F   UNL A   1      34.582  34.751  29.473  1.00  0.00    -0.200 F 
ATOM     73  C   UNL A   1      34.778  33.879  31.652  1.00  0.00     0.200 A 
ATOM     74  F   UNL A   1      35.011  32.939  33.796  1.00  0.00    -0.200 F 
ATOM     75  F   UNL A   1      33.683  34.545  32.039  1.00  0.00    -0.200 F 
ENDBRANCH  51  65
BRANCH  52  76
ATOM     76  C   UNL A   1      44.969  27.205  28.385  1.00  0.00     0.064 A 
ATOM     77  C   UNL A   1      45.449  25.926  28.743  1.00  0.00     0.173 A 
ATOM     78  C   UNL A   1      44.334  27.327  27.143  1.00  0.00     0.173 A 
ATOM     79  F   UNL A   1      46.097  25.760  29.909  1.00  0.00    -0.203 F 
ATOM     80  C   UNL A   1      45.111  24.793  28.007  1.00  0.00     0.198 A 
ATOM     81  C   UNL A   1      44.040  26.189  26.382  1.00  0.00     0.198 A 
ATOM     82  F   UNL A   1      43.868  28.514  26.731  1.00  0.00    -0.203 F 
ATOM     83  F   UNL A   1      45.416  23.574  28.476  1.00  0.00    -0.200 F 
ATOM     84  C   UNL A   1      44.367  24.923  26.849  1.00  0.00     0.200 A 
ATOM     85  F   UNL A   1      43.339  26.309  25.244  1.00  0.00    -0.200 F 
ATOM     86  F   UNL A   1      43.929  23.830  26.207  1.00  0.00    -0.200 F 
ENDBRANCH  52  76
BRANCH  64  87
ATOM     87  C   UNL A   1      43.329  34.227  29.841  1.00  0.00     0.064 A 
ATOM     88  C   UNL A   1      43.451  35.187  30.855  1.00  0.00     0.173 A 
ATOM     89  C   UNL A   1      43.535  34.736  28.524  1.00  0.00     0.173 A 
ATOM     90  F   UNL A   1      43.389  34.861  32.149  1.00  0.00    -0.203 F 
ATOM     91  C   UNL A   1      43.709  36.535  30.580  1.00  0.00     0.198 A 
ATOM     92  C   UNL A   1      43.879  36.060  28.261  1.00  0.00     0.198 A 
ATOM     93  F   UNL A   1      43.439  33.967  27.431  1.00  0.00    -0.203 F 
ATOM     94  F   UNL A   1      43.761  37.415  31.590  1.00  0.00    -0.200 F 
ATOM     95  C   UNL A   1      43.947  36.968  29.290  1.00  0.00     0.200 A 
ATOM     96  F   UNL A   1      44.166  36.435  27.006  1.00  0.00    -0.200 F 
ATOM     97  F   UNL A   1      44.257  38.246  29.042  1.00  0.00    -0.200 F 
ENDBRANCH  64  87
ENDBRANCH  38  39
ENDBRANCH  30  33
ENDBRANCH  28  29
ENDBRANCH  27  28
ENDBRANCH   1  27
TORSDOF 14
ENDMDL
MODEL 2
REMARK VINA RESULT:     -13.7      2.846      9.081
REMARK SMILES COC(=O)c1ccc(C)c(NC(=O)[C@H]2CC=CC[C@H]2C(=O)NCCCNC(=O)c2ccc(-c3c4nc(c(-c5c(F)c(F)c(F)c(F)c5F)c5ccc([nH]5)c(-c5c(F)c(F)c(F)c(F)c5F)c5nc(c(-c6c(F)c(F)c(F)c(F)c6F)c6ccc3[nH]6)C=C5)C=C4)cc2)c1
REMARK SMILES IDX 23 1 22 2 20 3 21 4 19 6 14 7 15 8 16 9 18 10 17 11 12 12
REMARK SMILES IDX 11 13 13 15 10 16 5 17 6 18 92 19 7 20 8 21 9 22 3 23 4 24
REMARK SMILES IDX 2 25 1 26 24 27 25 28 26 29 27 30 28 32 29 33 30 34 91 35
REMARK SMILES IDX 31 36 90 37 32 38 33 39 34 40 84 41 35 42 89 43 83 44 85 45
REMARK SMILES IDX 36 46 88 47 82 48 81 49 37 51 69 52 49 53 68 54 50 55 53 56
REMARK SMILES IDX 67 57 86 58 51 59 52 60 66 62 87 63 54 64 38 65 39 66 47 67
REMARK SMILES IDX 40 68 41 69 45 70 48 71 42 72 43 73 46 74 44 75 70 76 71 77
REMARK SMILES IDX 79 78 72 79 73 80 77 81 80 82 74 83 75 84 78 85 76 86 55 87
REMARK SMILES IDX 56 88 64 89 57 90 58 91 62 92 65 93 59 94 60 95 63 96 61 97
REMARK H PARENT 22 5 11 14 26 31 85 50 53 61
REMARK Flexibility Score: inf
ROOT
ATOM      1  C   UNL A   1      32.714  29.381  24.883  1.00  0.00     0.117 C 
ENDROOT
BRANCH   1   2
ATOM      2  N   UNL A   1      31.889  29.435  23.694  1.00  0.00    -0.356 N 
ATOM      3  C   UNL A   1      31.195  28.528  22.974  1.00  0.00     0.224 C 
ATOM      4  O   UNL A   1      30.693  28.988  21.937  1.00  0.00    -0.275 OA
ATOM      5  H   UNL A   1      31.817  30.344  23.325  1.00  0.00     0.163 HD
BRANCH   3   6
ATOM      6  C   UNL A   1      30.848  27.084  23.365  1.00  0.00     0.095 C 
ATOM      7  C   UNL A   1      31.522  25.820  22.752  1.00  0.00     0.095 C 
ATOM      8  C   UNL A   1      30.952  24.490  23.268  1.00  0.00     0.041 C 
ATOM      9  C   UNL A   1      30.392  24.522  24.655  1.00  0.00    -0.030 C 
ATOM     10  C   UNL A   1      30.433  27.027  24.848  1.00  0.00     0.041 C 
ATOM     11  C   UNL A   1      30.163  25.639  25.356  1.00  0.00    -0.030 C 
BRANCH   7  12
ATOM     12  C   UNL A   1      32.974  25.701  22.271  1.00  0.00     0.228 C 
ATOM     13  N   UNL A   1      34.085  25.223  22.891  1.00  0.00    -0.326 N 
ATOM     14  H   UNL A   1      34.884  25.383  22.340  1.00  0.00     0.169 HD
ATOM     15  O   UNL A   1      33.189  26.014  21.082  1.00  0.00    -0.274 OA
BRANCH  13  16
ATOM     16  C   UNL A   1      34.431  24.567  24.087  1.00  0.00     0.044 A 
ATOM     17  C   UNL A   1      35.904  23.005  25.229  1.00  0.00     0.062 A 
ATOM     18  C   UNL A   1      35.032  22.949  26.316  1.00  0.00     0.016 A 
ATOM     19  C   UNL A   1      35.532  23.705  24.064  1.00  0.00     0.042 A 
ATOM     20  C   UNL A   1      33.964  23.826  26.351  1.00  0.00     0.006 A 
ATOM     21  C   UNL A   1      33.869  24.789  25.337  1.00  0.00    -0.027 A 
ATOM     22  C   UNL A   1      33.962  26.198  25.865  1.00  0.00     0.046 C 
BRANCH  17  23
ATOM     23  C   UNL A   1      37.313  22.583  25.483  1.00  0.00     0.337 C 
ATOM     24  O   UNL A   1      38.095  23.201  26.173  1.00  0.00    -0.246 OA
BRANCH  23  25
ATOM     25  O   UNL A   1      37.636  21.620  24.582  1.00  0.00    -0.465 OA
ATOM     26  C   UNL A   1      37.130  20.326  24.921  1.00  0.00     0.282 C 
ENDBRANCH  23  25
ENDBRANCH  17  23
ENDBRANCH  13  16
ENDBRANCH   7  12
ENDBRANCH   3   6
ENDBRANCH   1   2
BRANCH   1  27
ATOM     27  C   UNL A   1      32.241  30.365  25.928  1.00  0.00     0.042 C 
BRANCH  27  28
ATOM     28  C   UNL A   1      32.956  30.308  27.250  1.00  0.00     0.118 C 
BRANCH  28  29
ATOM     29  N   UNL A   1      33.911  31.380  27.451  1.00  0.00    -0.352 N 
ATOM     30  C   UNL A   1      35.156  31.338  28.052  1.00  0.00     0.251 C 
ATOM     31  H   UNL A   1      33.634  32.261  27.112  1.00  0.00     0.163 HD
ATOM     32  O   UNL A   1      35.714  32.393  28.339  1.00  0.00    -0.269 OA
BRANCH  30  33
ATOM     33  C   UNL A   1      35.908  30.054  28.134  1.00  0.00     0.039 A 
ATOM     34  C   UNL A   1      36.069  29.544  29.431  1.00  0.00     0.014 A 
ATOM     35  C   UNL A   1      36.821  29.712  27.151  1.00  0.00     0.014 A 
ATOM     36  C   UNL A   1      37.299  29.030  29.805  1.00  0.00     0.010 A 
ATOM     37  C   UNL A   1      38.098  29.457  27.553  1.00  0.00     0.010 A 
ATOM     38  C   UNL A   1      38.334  29.150  28.893  1.00  0.00    -0.014 A 
BRANCH  38  39
ATOM     39  C   UNL A   1      39.714  28.828  29.146  1.00  0.00     0.031 A 
ATOM     40  C   UNL A   1      40.113  27.450  28.819  1.00  0.00     0.074 A 
ATOM     41  C   UNL A   1      40.568  29.850  29.367  1.00  0.00     0.049 A 
ATOM     42  N   UNL A   1      41.231  26.934  29.161  1.00  0.00    -0.248 NA
ATOM     43  C   UNL A   1      39.261  26.517  28.080  1.00  0.00     0.031 C 
ATOM     44  C   UNL A   1      42.019  29.862  29.226  1.00  0.00     0.029 A 
ATOM     45  N   UNL A   1      40.274  31.095  29.951  1.00  0.00    -0.354 N 
ATOM     46  C   UNL A   1      41.386  25.765  28.450  1.00  0.00     0.074 A 
ATOM     47  C   UNL A   1      40.101  25.503  27.859  1.00  0.00     0.031 C 
ATOM     48  C   UNL A   1      42.520  30.855  29.983  1.00  0.00     0.029 A 
ATOM     49  C   UNL A   1      41.409  31.402  30.741  1.00  0.00     0.049 A 
ATOM     50  H   UNL A   1      39.458  31.634  29.836  1.00  0.00     0.167 HD
ATOM     51  C   UNL A   1      42.643  25.258  28.353  1.00  0.00     0.037 A 
ATOM     52  C   UNL A   1      41.319  31.392  32.106  1.00  0.00     0.037 A 
ATOM     53  C   UNL A   1      43.554  26.083  29.141  1.00  0.00     0.049 A 
ATOM     54  C   UNL A   1      42.199  30.337  32.734  1.00  0.00     0.074 A 
ATOM     55  C   UNL A   1      44.387  27.139  28.811  1.00  0.00     0.029 A 
ATOM     56  N   UNL A   1      43.366  26.141  30.514  1.00  0.00    -0.354 N 
ATOM     57  N   UNL A   1      42.571  29.239  32.129  1.00  0.00    -0.248 NA
ATOM     58  C   UNL A   1      42.791  30.469  34.059  1.00  0.00     0.031 C 
ATOM     59  C   UNL A   1      44.695  27.840  30.007  1.00  0.00     0.029 A 
ATOM     60  C   UNL A   1      44.055  27.202  31.057  1.00  0.00     0.049 A 
ATOM     61  H   UNL A   1      42.815  25.509  31.030  1.00  0.00     0.167 HD
ATOM     62  C   UNL A   1      43.468  28.557  32.917  1.00  0.00     0.074 A 
ATOM     63  C   UNL A   1      43.564  29.370  34.116  1.00  0.00     0.031 C 
ATOM     64  C   UNL A   1      44.069  27.398  32.497  1.00  0.00     0.037 A 
BRANCH  51  65
ATOM     65  C   UNL A   1      43.118  24.190  27.402  1.00  0.00     0.064 A 
ATOM     66  C   UNL A   1      43.880  24.549  26.266  1.00  0.00     0.173 A 
ATOM     67  C   UNL A   1      42.865  22.812  27.529  1.00  0.00     0.173 A 
ATOM     68  F   UNL A   1      44.238  25.818  26.033  1.00  0.00    -0.203 F 
ATOM     69  C   UNL A   1      44.305  23.619  25.317  1.00  0.00     0.198 A 
ATOM     70  C   UNL A   1      43.264  21.883  26.559  1.00  0.00     0.198 A 
ATOM     71  F   UNL A   1      42.273  22.302  28.613  1.00  0.00    -0.203 F 
ATOM     72  F   UNL A   1      45.028  24.030  24.265  1.00  0.00    -0.200 F 
ATOM     73  C   UNL A   1      43.984  22.287  25.454  1.00  0.00     0.200 A 
ATOM     74  F   UNL A   1      42.952  20.588  26.713  1.00  0.00    -0.200 F 
ATOM     75  F   UNL A   1      44.383  21.395  24.539  1.00  0.00    -0.200 F 
ENDBRANCH  51  65
BRANCH  52  76
ATOM     76  C   UNL A   1      39.971  31.850  32.564  1.00  0.00     0.064 A 
ATOM     77  C   UNL A   1      39.632  33.187  32.261  1.00  0.00     0.173 A 
ATOM     78  C   UNL A   1      38.917  30.947  32.748  1.00  0.00     0.173 A 
ATOM     79  F   UNL A   1      40.603  34.103  32.108  1.00  0.00    -0.203 F 
ATOM     80  C   UNL A   1      38.326  33.548  31.935  1.00  0.00     0.198 A 
ATOM     81  C   UNL A   1      37.599  31.329  32.466  1.00  0.00     0.198 A 
ATOM     82  F   UNL A   1      39.164  29.666  33.054  1.00  0.00    -0.203 F 
ATOM     83  F   UNL A   1      38.069  34.776  31.463  1.00  0.00    -0.200 F 
ATOM     84  C   UNL A   1      37.318  32.604  31.995  1.00  0.00     0.200 A 
ATOM     85  F   UNL A   1      36.611  30.425  32.547  1.00  0.00    -0.200 F 
ATOM     86  F   UNL A   1      36.087  32.909  31.560  1.00  0.00    -0.200 F 
ENDBRANCH  52  76
BRANCH  64  87
ATOM     87  C   UNL A   1      44.791  26.346  33.331  1.00  0.00     0.064 A 
ATOM     88  C   UNL A   1      44.164  25.450  34.209  1.00  0.00     0.173 A 
ATOM     89  C   UNL A   1      46.183  26.099  33.137  1.00  0.00     0.173 A 
ATOM     90  F   UNL A   1      42.847  25.475  34.424  1.00  0.00    -0.203 F 
ATOM     91  C   UNL A   1      44.868  24.432  34.865  1.00  0.00     0.198 A 
ATOM     92  C   UNL A   1      46.860  25.032  33.723  1.00  0.00     0.198 A 
ATOM     93  F   UNL A   1      46.948  26.866  32.347  1.00  0.00    -0.203 F 
ATOM     94  F   UNL A   1      44.223  23.641  35.734  1.00  0.00    -0.200 F 
ATOM     95  C   UNL A   1      46.205  24.208  34.606  1.00  0.00     0.200 A 
ATOM     96  F   UNL A   1      48.141  24.802  33.403  1.00  0.00    -0.200 F 
ATOM     97  F   UNL A   1      46.855  23.192  35.188  1.00  0.00    -0.200 F 
ENDBRANCH  64  87
ENDBRANCH  38  39
ENDBRANCH  30  33
ENDBRANCH  28  29
ENDBRANCH  27  28
ENDBRANCH   1  27
TORSDOF 14
ENDMDL
MODEL 3
REMARK VINA RESULT:     -13.5      2.891      9.077
REMARK SMILES COC(=O)c1ccc(C)c(NC(=O)[C@H]2CC=CC[C@H]2C(=O)NCCCNC(=O)c2ccc(-c3c4nc(c(-c5c(F)c(F)c(F)c(F)c5F)c5ccc([nH]5)c(-c5c(F)c(F)c(F)c(F)c5F)c5nc(c(-c6c(F)c(F)c(F)c(F)c6F)c6ccc3[nH]6)C=C5)C=C4)cc2)c1
REMARK SMILES IDX 23 1 22 2 20 3 21 4 19 6 14 7 15 8 16 9 18 10 17 11 12 12
REMARK SMILES IDX 11 13 13 15 10 16 5 17 6 18 92 19 7 20 8 21 9 22 3 23 4 24
REMARK SMILES IDX 2 25 1 26 24 27 25 28 26 29 27 30 28 32 29 33 30 34 91 35
REMARK SMILES IDX 31 36 90 37 32 38 33 39 34 40 84 41 35 42 89 43 83 44 85 45
REMARK SMILES IDX 36 46 88 47 82 48 81 49 37 51 69 52 49 53 68 54 50 55 53 56
REMARK SMILES IDX 67 57 86 58 51 59 52 60 66 62 87 63 54 64 38 65 39 66 47 67
REMARK SMILES IDX 40 68 41 69 45 70 48 71 42 72 43 73 46 74 44 75 70 76 71 77
REMARK SMILES IDX 79 78 72 79 73 80 77 81 80 82 74 83 75 84 78 85 76 86 55 87
REMARK SMILES IDX 56 88 64 89 57 90 58 91 62 92 65 93 59 94 60 95 63 96 61 97
REMARK H PARENT 22 5 11 14 26 31 85 50 53 61
REMARK Flexibility Score: inf
ROOT
ATOM      1  C   UNL A   1      31.585  29.515  25.616  1.00  0.00     0.117 C 
ENDROOT
BRANCH   1   2
ATOM      2  N   UNL A   1      30.887  29.830  24.386  1.00  0.00    -0.356 N 
ATOM      3  C   UNL A   1      30.559  29.139  23.273  1.00  0.00     0.224 C 
ATOM      4  O   UNL A   1      30.035  29.833  22.388  1.00  0.00    -0.275 OA
ATOM      5  H   UNL A   1      30.580  30.765  24.354  1.00  0.00     0.163 HD
BRANCH   3   6
ATOM      6  C   UNL A   1      30.626  27.621  23.056  1.00  0.00     0.095 C 
ATOM      7  C   UNL A   1      31.924  26.840  22.692  1.00  0.00     0.095 C 
ATOM      8  C   UNL A   1      31.711  25.335  22.467  1.00  0.00     0.041 C 
ATOM      9  C   UNL A   1      30.579  24.721  23.228  1.00  0.00    -0.030 C 
ATOM     10  C   UNL A   1      29.594  26.916  23.958  1.00  0.00     0.041 C 
ATOM     11  C   UNL A   1      29.644  25.416  23.890  1.00  0.00    -0.030 C 
BRANCH   7  12
ATOM     12  C   UNL A   1      33.351  27.181  23.140  1.00  0.00     0.228 C 
ATOM     13  N   UNL A   1      34.198  26.542  23.990  1.00  0.00    -0.326 N 
ATOM     14  H   UNL A   1      35.008  27.081  24.139  1.00  0.00     0.169 HD
ATOM     15  O   UNL A   1      33.885  28.162  22.583  1.00  0.00    -0.274 OA
BRANCH  13  16
ATOM     16  C   UNL A   1      34.260  25.341  24.720  1.00  0.00     0.044 A 
ATOM     17  C   UNL A   1      33.428  24.014  26.580  1.00  0.00     0.062 A 
ATOM     18  C   UNL A   1      34.503  23.134  26.457  1.00  0.00     0.016 A 
ATOM     19  C   UNL A   1      33.387  25.188  25.801  1.00  0.00     0.042 A 
ATOM     20  C   UNL A   1      35.344  23.268  25.368  1.00  0.00     0.006 A 
ATOM     21  C   UNL A   1      35.016  24.222  24.395  1.00  0.00    -0.027 A 
ATOM     22  C   UNL A   1      34.743  23.606  23.047  1.00  0.00     0.046 C 
BRANCH  17  23
ATOM     23  C   UNL A   1      32.227  23.501  27.302  1.00  0.00     0.337 C 
ATOM     24  O   UNL A   1      32.234  22.537  28.037  1.00  0.00    -0.246 OA
BRANCH  23  25
ATOM     25  O   UNL A   1      31.125  24.073  26.751  1.00  0.00    -0.465 OA
ATOM     26  C   UNL A   1      29.954  23.257  26.836  1.00  0.00     0.282 C 
ENDBRANCH  23  25
ENDBRANCH  17  23
ENDBRANCH  13  16
ENDBRANCH   7  12
ENDBRANCH   3   6
ENDBRANCH   1   2
BRANCH   1  27
ATOM     27  C   UNL A   1      32.429  30.678  26.085  1.00  0.00     0.042 C 
BRANCH  27  28
ATOM     28  C   UNL A   1      33.108  30.498  27.415  1.00  0.00     0.118 C 
BRANCH  28  29
ATOM     29  N   UNL A   1      34.073  31.533  27.729  1.00  0.00    -0.352 N 
ATOM     30  C   UNL A   1      35.295  31.421  28.367  1.00  0.00     0.251 C 
ATOM     31  H   UNL A   1      33.824  32.443  27.448  1.00  0.00     0.163 HD
ATOM     32  O   UNL A   1      35.861  32.440  28.752  1.00  0.00    -0.269 OA
BRANCH  30  33
ATOM     33  C   UNL A   1      36.022  30.120  28.377  1.00  0.00     0.039 A 
ATOM     34  C   UNL A   1      36.239  29.573  29.651  1.00  0.00     0.014 A 
ATOM     35  C   UNL A   1      36.873  29.784  27.338  1.00  0.00     0.014 A 
ATOM     36  C   UNL A   1      37.476  29.024  29.945  1.00  0.00     0.010 A 
ATOM     37  C   UNL A   1      38.164  29.491  27.665  1.00  0.00     0.010 A 
ATOM     38  C   UNL A   1      38.464  29.145  28.982  1.00  0.00    -0.014 A 
BRANCH  38  39
ATOM     39  C   UNL A   1      39.847  28.787  29.153  1.00  0.00     0.031 A 
ATOM     40  C   UNL A   1      40.195  27.407  28.781  1.00  0.00     0.074 A 
ATOM     41  C   UNL A   1      40.736  29.786  29.343  1.00  0.00     0.049 A 
ATOM     42  N   UNL A   1      41.317  26.859  29.053  1.00  0.00    -0.248 NA
ATOM     43  C   UNL A   1      39.282  26.506  28.076  1.00  0.00     0.031 C 
ATOM     44  C   UNL A   1      42.177  29.768  29.121  1.00  0.00     0.029 A 
ATOM     45  N   UNL A   1      40.504  31.027  29.962  1.00  0.00    -0.354 N 
ATOM     46  C   UNL A   1      41.405  25.700  28.315  1.00  0.00     0.074 A 
ATOM     47  C   UNL A   1      40.084  25.477  27.792  1.00  0.00     0.031 C 
ATOM     48  C   UNL A   1      42.742  30.736  29.865  1.00  0.00     0.029 A 
ATOM     49  C   UNL A   1      41.688  31.294  30.693  1.00  0.00     0.049 A 
ATOM     50  H   UNL A   1      39.697  31.586  29.901  1.00  0.00     0.167 HD
ATOM     51  C   UNL A   1      42.643  25.166  28.140  1.00  0.00     0.037 A 
ATOM     52  C   UNL A   1      41.673  31.263  32.059  1.00  0.00     0.037 A 
ATOM     53  C   UNL A   1      43.615  25.957  28.890  1.00  0.00     0.049 A 
ATOM     54  C   UNL A   1      42.562  30.177  32.620  1.00  0.00     0.074 A 
ATOM     55  C   UNL A   1      44.453  26.999  28.531  1.00  0.00     0.029 A 
ATOM     56  N   UNL A   1      43.505  25.995  30.272  1.00  0.00    -0.354 N 
ATOM     57  N   UNL A   1      42.874  29.082  31.978  1.00  0.00    -0.248 NA
ATOM     58  C   UNL A   1      43.229  30.273  33.913  1.00  0.00     0.031 C 
ATOM     59  C   UNL A   1      44.843  27.672  29.719  1.00  0.00     0.029 A 
ATOM     60  C   UNL A   1      44.248  27.031  30.793  1.00  0.00     0.049 A 
ATOM     61  H   UNL A   1      42.968  25.367  30.808  1.00  0.00     0.167 HD
ATOM     62  C   UNL A   1      43.797  28.366  32.704  1.00  0.00     0.074 A 
ATOM     63  C   UNL A   1      43.978  29.155  33.909  1.00  0.00     0.031 C 
ATOM     64  C   UNL A   1      44.346  27.201  32.233  1.00  0.00     0.037 A 
BRANCH  51  65
ATOM     65  C   UNL A   1      43.039  24.104  27.147  1.00  0.00     0.064 A 
ATOM     66  C   UNL A   1      42.684  22.755  27.384  1.00  0.00     0.173 A 
ATOM     67  C   UNL A   1      43.761  24.323  25.960  1.00  0.00     0.173 A 
ATOM     68  F   UNL A   1      41.959  22.397  28.451  1.00  0.00    -0.203 F 
ATOM     69  C   UNL A   1      43.064  21.715  26.536  1.00  0.00     0.198 A 
ATOM     70  C   UNL A   1      44.169  23.275  25.126  1.00  0.00     0.198 A 
ATOM     71  F   UNL A   1      44.054  25.554  25.532  1.00  0.00    -0.203 F 
ATOM     72  F   UNL A   1      42.690  20.459  26.820  1.00  0.00    -0.200 F 
ATOM     73  C   UNL A   1      43.821  21.972  25.414  1.00  0.00     0.200 A 
ATOM     74  F   UNL A   1      44.896  23.542  24.032  1.00  0.00    -0.200 F 
ATOM     75  F   UNL A   1      44.193  20.972  24.604  1.00  0.00    -0.200 F 
ENDBRANCH  51  65
BRANCH  52  76
ATOM     76  C   UNL A   1      40.365  31.743  32.600  1.00  0.00     0.064 A 
ATOM     77  C   UNL A   1      40.030  33.086  32.317  1.00  0.00     0.173 A 
ATOM     78  C   UNL A   1      39.308  30.858  32.848  1.00  0.00     0.173 A 
ATOM     79  F   UNL A   1      41.006  33.985  32.105  1.00  0.00    -0.203 F 
ATOM     80  C   UNL A   1      38.713  33.469  32.072  1.00  0.00     0.198 A 
ATOM     81  C   UNL A   1      37.982  31.262  32.647  1.00  0.00     0.198 A 
ATOM     82  F   UNL A   1      39.551  29.573  33.138  1.00  0.00    -0.203 F 
ATOM     83  F   UNL A   1      38.449  34.702  31.617  1.00  0.00    -0.200 F 
ATOM     84  C   UNL A   1      37.694  32.542  32.194  1.00  0.00     0.200 A 
ATOM     85  F   UNL A   1      36.986  30.375  32.788  1.00  0.00    -0.200 F 
ATOM     86  F   UNL A   1      36.444  32.869  31.835  1.00  0.00    -0.200 F 
ENDBRANCH  52  76
BRANCH  64  87
ATOM     87  C   UNL A   1      45.087  26.118  33.008  1.00  0.00     0.064 A 
ATOM     88  C   UNL A   1      46.461  25.858  32.908  1.00  0.00     0.173 A 
ATOM     89  C   UNL A   1      44.426  25.385  34.039  1.00  0.00     0.173 A 
ATOM     90  F   UNL A   1      47.248  26.531  32.065  1.00  0.00    -0.203 F 
ATOM     91  C   UNL A   1      47.106  24.922  33.727  1.00  0.00     0.198 A 
ATOM     92  C   UNL A   1      45.088  24.523  34.909  1.00  0.00     0.198 A 
ATOM     93  F   UNL A   1      43.109  25.493  34.269  1.00  0.00    -0.203 F 
ATOM     94  F   UNL A   1      48.411  24.679  33.546  1.00  0.00    -0.200 F 
ATOM     95  C   UNL A   1      46.428  24.275  34.741  1.00  0.00     0.200 A 
ATOM     96  F   UNL A   1      44.416  23.957  35.923  1.00  0.00    -0.200 F 
ATOM     97  F   UNL A   1      47.066  23.430  35.561  1.00  0.00    -0.200 F 
ENDBRANCH  64  87
ENDBRANCH  38  39
ENDBRANCH  30  33
ENDBRANCH  28  29
ENDBRANCH  27  28
ENDBRANCH   1  27
TORSDOF 14
ENDMDL
