MODEL 1
REMARK VINA RESULT:     -12.0      0.000      0.000
REMARK SMILES [NH3+][C@@]1(C(=O)NCCCNC(=O)c2ccc(-c3c4nc(c(-c5c(F)c(F)c(F)c(F)c5F)c5ccc([nH]5)c(-c5c(F)c(F)c(F)c(F)c5F)c5nc(c(-c6c(F)c(F)c(F)c(F)c6F)c6ccc3[nH]6)C=C5)C=C4)cc2)CCC[C@H]1CCOc1ccccc1
REMARK SMILES IDX 6 1 5 2 3 3 4 4 2 6 75 7 78 8 76 9 77 10 1 11 79 15 80 16
REMARK SMILES IDX 81 17 82 18 83 19 87 20 84 21 86 22 85 23 7 24 8 25 9 26
REMARK SMILES IDX 10 27 11 29 12 30 13 31 74 32 14 33 73 34 15 35 16 36 17 37
REMARK SMILES IDX 67 38 18 39 72 40 66 41 68 42 19 43 71 44 65 45 64 46 20 48
REMARK SMILES IDX 52 49 32 50 51 51 33 52 36 53 50 54 69 55 34 56 35 57 49 59
REMARK SMILES IDX 70 60 37 61 21 62 22 63 30 64 23 65 24 66 28 67 31 68 25 69
REMARK SMILES IDX 26 70 29 71 27 72 53 73 54 74 62 75 55 76 56 77 60 78 63 79
REMARK SMILES IDX 57 80 58 81 61 82 59 83 38 84 39 85 47 86 40 87 41 88 45 89
REMARK SMILES IDX 48 90 42 91 43 92 46 93 44 94
REMARK H PARENT 5 5 1 12 1 13 1 14 9 28 68 47 36 58
REMARK Flexibility Score: inf
ROOT
ATOM      1  C   UNL A   1      31.588  30.769  26.131  1.00  0.00     0.118 C 
ENDROOT
BRANCH   1   2
ATOM      2  N   UNL A   1      32.723  30.096  26.723  1.00  0.00    -0.351 N 
ATOM      3  C   UNL A   1      33.181  28.822  26.657  1.00  0.00     0.281 C 
ATOM      4  O   UNL A   1      34.281  28.634  27.203  1.00  0.00    -0.268 OA
ATOM      5  H   UNL A   1      33.274  30.682  27.291  1.00  0.00     0.163 HD
BRANCH   3   6
ATOM      6  C   UNL A   1      32.441  27.609  25.961  1.00  0.00     0.176 C 
ATOM      7  C   UNL A   1      33.302  26.340  25.863  1.00  0.00     0.079 C 
ATOM      8  C   UNL A   1      31.954  27.938  24.525  1.00  0.00     0.064 C 
ATOM      9  C   UNL A   1      33.652  26.111  24.405  1.00  0.00     0.008 C 
ATOM     10  C   UNL A   1      32.738  26.998  23.579  1.00  0.00     0.011 C 
BRANCH   6  11
ATOM     11  N   UNL A   1      31.317  27.259  26.881  1.00  0.00    -0.345 N 
ATOM     12  H   UNL A   1      31.542  27.572  27.826  1.00  0.00     0.345 HD
ATOM     13  H   UNL A   1      31.179  26.249  26.881  1.00  0.00     0.345 HD
ATOM     14  H   UNL A   1      30.464  27.720  26.565  1.00  0.00     0.345 HD
ENDBRANCH   6  11
BRANCH   8  15
ATOM     15  C   UNL A   1      30.441  27.791  24.199  1.00  0.00     0.052 C 
BRANCH  15  16
ATOM     16  C   UNL A   1      29.949  28.156  22.792  1.00  0.00     0.230 C 
BRANCH  16  17
ATOM     17  O   UNL A   1      28.614  28.678  22.821  1.00  0.00    -0.494 OA
BRANCH  17  18
ATOM     18  C   UNL A   1      28.554  30.015  22.552  1.00  0.00     0.119 A 
ATOM     19  C   UNL A   1      28.848  30.991  23.502  1.00  0.00     0.046 A 
ATOM     20  C   UNL A   1      28.104  30.378  21.286  1.00  0.00     0.046 A 
ATOM     21  C   UNL A   1      28.768  32.340  23.148  1.00  0.00     0.004 A 
ATOM     22  C   UNL A   1      28.029  31.721  20.933  1.00  0.00     0.004 A 
ATOM     23  C   UNL A   1      28.377  32.703  21.859  1.00  0.00     0.000 A 
ENDBRANCH  17  18
ENDBRANCH  16  17
ENDBRANCH  15  16
ENDBRANCH   8  15
ENDBRANCH   3   6
ENDBRANCH   1   2
BRANCH   1  24
ATOM     24  C   UNL A   1      31.401  32.199  26.617  1.00  0.00     0.042 C 
BRANCH  24  25
ATOM     25  C   UNL A   1      32.662  32.828  27.194  1.00  0.00     0.118 C 
BRANCH  25  26
ATOM     26  N   UNL A   1      32.461  34.203  27.626  1.00  0.00    -0.352 N 
ATOM     27  C   UNL A   1      33.060  34.894  28.649  1.00  0.00     0.251 C 
ATOM     28  H   UNL A   1      31.797  34.713  27.108  1.00  0.00     0.163 HD
ATOM     29  O   UNL A   1      32.625  35.998  28.978  1.00  0.00    -0.269 OA
BRANCH  27  30
ATOM     30  C   UNL A   1      34.212  34.317  29.376  1.00  0.00     0.039 A 
ATOM     31  C   UNL A   1      33.975  33.556  30.524  1.00  0.00     0.014 A 
ATOM     32  C   UNL A   1      35.523  34.544  28.948  1.00  0.00     0.014 A 
ATOM     33  C   UNL A   1      35.047  32.979  31.210  1.00  0.00     0.010 A 
ATOM     34  C   UNL A   1      36.583  33.903  29.585  1.00  0.00     0.010 A 
ATOM     35  C   UNL A   1      36.359  33.125  30.731  1.00  0.00    -0.014 A 
BRANCH  35  36
ATOM     36  C   UNL A   1      37.512  32.504  31.436  1.00  0.00     0.031 A 
ATOM     37  C   UNL A   1      38.248  31.355  30.799  1.00  0.00     0.074 A 
ATOM     38  C   UNL A   1      37.865  32.933  32.664  1.00  0.00     0.049 A 
ATOM     39  N   UNL A   1      39.225  30.626  31.280  1.00  0.00    -0.248 NA
ATOM     40  C   UNL A   1      37.813  30.954  29.450  1.00  0.00     0.031 C 
ATOM     41  C   UNL A   1      37.210  34.013  33.403  1.00  0.00     0.029 A 
ATOM     42  N   UNL A   1      38.855  32.503  33.514  1.00  0.00    -0.354 N 
ATOM     43  C   UNL A   1      39.503  29.676  30.307  1.00  0.00     0.074 A 
ATOM     44  C   UNL A   1      38.564  29.885  29.227  1.00  0.00     0.031 C 
ATOM     45  C   UNL A   1      37.826  34.173  34.586  1.00  0.00     0.029 A 
ATOM     46  C   UNL A   1      38.890  33.181  34.710  1.00  0.00     0.049 A 
ATOM     47  H   UNL A   1      39.481  31.778  33.287  1.00  0.00     0.167 HD
ATOM     48  C   UNL A   1      40.469  28.727  30.303  1.00  0.00     0.037 A 
ATOM     49  C   UNL A   1      39.682  33.012  35.786  1.00  0.00     0.037 A 
ATOM     50  C   UNL A   1      41.427  28.545  31.361  1.00  0.00     0.049 A 
ATOM     51  C   UNL A   1      40.743  31.940  35.756  1.00  0.00     0.074 A 
ATOM     52  C   UNL A   1      42.486  27.655  31.420  1.00  0.00     0.029 A 
ATOM     53  N   UNL A   1      41.444  29.266  32.544  1.00  0.00    -0.354 N 
ATOM     54  N   UNL A   1      41.041  31.096  34.798  1.00  0.00    -0.248 NA
ATOM     55  C   UNL A   1      41.581  31.802  36.956  1.00  0.00     0.031 C 
ATOM     56  C   UNL A   1      43.110  27.801  32.662  1.00  0.00     0.029 A 
ATOM     57  C   UNL A   1      42.480  28.824  33.351  1.00  0.00     0.049 A 
ATOM     58  H   UNL A   1      40.813  29.986  32.777  1.00  0.00     0.167 HD
ATOM     59  C   UNL A   1      42.123  30.359  35.263  1.00  0.00     0.074 A 
ATOM     60  C   UNL A   1      42.436  30.862  36.583  1.00  0.00     0.031 C 
ATOM     61  C   UNL A   1      42.798  29.356  34.650  1.00  0.00     0.037 A 
BRANCH  48  62
ATOM     62  C   UNL A   1      40.553  27.810  29.117  1.00  0.00     0.064 A 
ATOM     63  C   UNL A   1      41.451  28.043  28.066  1.00  0.00     0.173 A 
ATOM     64  C   UNL A   1      39.774  26.643  29.067  1.00  0.00     0.173 A 
ATOM     65  F   UNL A   1      42.210  29.149  28.060  1.00  0.00    -0.203 F 
ATOM     66  C   UNL A   1      41.555  27.152  27.001  1.00  0.00     0.198 A 
ATOM     67  C   UNL A   1      39.903  25.739  28.017  1.00  0.00     0.198 A 
ATOM     68  F   UNL A   1      38.903  26.368  30.051  1.00  0.00    -0.203 F 
ATOM     69  F   UNL A   1      42.394  27.415  25.989  1.00  0.00    -0.200 F 
ATOM     70  C   UNL A   1      40.789  25.996  26.983  1.00  0.00     0.200 A 
ATOM     71  F   UNL A   1      39.174  24.614  28.010  1.00  0.00    -0.200 F 
ATOM     72  F   UNL A   1      40.905  25.130  25.966  1.00  0.00    -0.200 F 
ENDBRANCH  48  62
BRANCH  49  73
ATOM     73  C   UNL A   1      39.517  33.875  36.987  1.00  0.00     0.064 A 
ATOM     74  C   UNL A   1      38.756  33.447  38.085  1.00  0.00     0.173 A 
ATOM     75  C   UNL A   1      40.074  35.160  37.045  1.00  0.00     0.173 A 
ATOM     76  F   UNL A   1      38.185  32.233  38.071  1.00  0.00    -0.203 F 
ATOM     77  C   UNL A   1      38.528  34.284  39.176  1.00  0.00     0.198 A 
ATOM     78  C   UNL A   1      39.875  35.984  38.152  1.00  0.00     0.198 A 
ATOM     79  F   UNL A   1      40.815  35.619  36.025  1.00  0.00    -0.203 F 
ATOM     80  F   UNL A   1      37.743  33.873  40.180  1.00  0.00    -0.200 F 
ATOM     81  C   UNL A   1      39.090  35.551  39.209  1.00  0.00     0.200 A 
ATOM     82  F   UNL A   1      40.432  37.202  38.187  1.00  0.00    -0.200 F 
ATOM     83  F   UNL A   1      38.866  36.358  40.256  1.00  0.00    -0.200 F 
ENDBRANCH  49  73
BRANCH  61  84
ATOM     84  C   UNL A   1      43.981  28.773  35.368  1.00  0.00     0.064 A 
ATOM     85  C   UNL A   1      45.277  29.280  35.193  1.00  0.00     0.173 A 
ATOM     86  C   UNL A   1      43.802  27.727  36.287  1.00  0.00     0.173 A 
ATOM     87  F   UNL A   1      45.502  30.270  34.316  1.00  0.00    -0.203 F 
ATOM     88  C   UNL A   1      46.353  28.745  35.895  1.00  0.00     0.198 A 
ATOM     89  C   UNL A   1      44.876  27.218  37.012  1.00  0.00     0.198 A 
ATOM     90  F   UNL A   1      42.581  27.213  36.497  1.00  0.00    -0.203 F 
ATOM     91  F   UNL A   1      47.590  29.214  35.678  1.00  0.00    -0.200 F 
ATOM     92  C   UNL A   1      46.151  27.723  36.810  1.00  0.00     0.200 A 
ATOM     93  F   UNL A   1      44.674  26.242  37.908  1.00  0.00    -0.200 F 
ATOM     94  F   UNL A   1      47.188  27.219  37.495  1.00  0.00    -0.200 F 
ENDBRANCH  61  84
ENDBRANCH  35  36
ENDBRANCH  27  30
ENDBRANCH  25  26
ENDBRANCH  24  25
ENDBRANCH   1  24
TORSDOF 15
ENDMDL
MODEL 2
REMARK VINA RESULT:     -11.9      1.257      3.106
REMARK SMILES [NH3+][C@@]1(C(=O)NCCCNC(=O)c2ccc(-c3c4nc(c(-c5c(F)c(F)c(F)c(F)c5F)c5ccc([nH]5)c(-c5c(F)c(F)c(F)c(F)c5F)c5nc(c(-c6c(F)c(F)c(F)c(F)c6F)c6ccc3[nH]6)C=C5)C=C4)cc2)CCC[C@H]1CCOc1ccccc1
REMARK SMILES IDX 6 1 5 2 3 3 4 4 2 6 75 7 78 8 76 9 77 10 1 11 79 15 80 16
REMARK SMILES IDX 81 17 82 18 83 19 87 20 84 21 86 22 85 23 7 24 8 25 9 26
REMARK SMILES IDX 10 27 11 29 12 30 13 31 74 32 14 33 73 34 15 35 16 36 17 37
REMARK SMILES IDX 67 38 18 39 72 40 66 41 68 42 19 43 71 44 65 45 64 46 20 48
REMARK SMILES IDX 52 49 32 50 51 51 33 52 36 53 50 54 69 55 34 56 35 57 49 59
REMARK SMILES IDX 70 60 37 61 21 62 22 63 30 64 23 65 24 66 28 67 31 68 25 69
REMARK SMILES IDX 26 70 29 71 27 72 53 73 54 74 62 75 55 76 56 77 60 78 63 79
REMARK SMILES IDX 57 80 58 81 61 82 59 83 38 84 39 85 47 86 40 87 41 88 45 89
REMARK SMILES IDX 48 90 42 91 43 92 46 93 44 94
REMARK H PARENT 5 5 1 12 1 13 1 14 9 28 68 47 36 58
REMARK Flexibility Score: inf
ROOT
ATOM      1  C   UNL A   1      31.648  30.765  26.102  1.00  0.00     0.118 C 
ENDROOT
BRANCH   1   2
ATOM      2  N   UNL A   1      30.873  30.584  24.895  1.00  0.00    -0.351 N 
ATOM      3  C   UNL A   1      30.651  29.517  24.088  1.00  0.00     0.281 C 
ATOM      4  O   UNL A   1      29.809  29.704  23.196  1.00  0.00    -0.268 OA
ATOM      5  H   UNL A   1      30.412  31.402  24.598  1.00  0.00     0.163 HD
BRANCH   3   6
ATOM      6  C   UNL A   1      31.365  28.110  24.201  1.00  0.00     0.176 C 
ATOM      7  C   UNL A   1      30.749  27.035  23.292  1.00  0.00     0.079 C 
ATOM      8  C   UNL A   1      31.360  27.540  25.645  1.00  0.00     0.064 C 
ATOM      9  C   UNL A   1      30.046  26.014  24.167  1.00  0.00     0.008 C 
ATOM     10  C   UNL A   1      30.518  26.243  25.592  1.00  0.00     0.011 C 
BRANCH   6  11
ATOM     11  N   UNL A   1      32.747  28.332  23.679  1.00  0.00    -0.345 N 
ATOM     12  H   UNL A   1      32.713  28.446  22.665  1.00  0.00     0.345 HD
ATOM     13  H   UNL A   1      33.331  27.529  23.911  1.00  0.00     0.345 HD
ATOM     14  H   UNL A   1      33.140  29.172  24.103  1.00  0.00     0.345 HD
ENDBRANCH   6  11
BRANCH   8  15
ATOM     15  C   UNL A   1      32.719  27.201  26.318  1.00  0.00     0.052 C 
BRANCH  15  16
ATOM     16  C   UNL A   1      33.302  25.792  26.138  1.00  0.00     0.230 C 
BRANCH  16  17
ATOM     17  O   UNL A   1      34.048  25.684  24.918  1.00  0.00    -0.494 OA
BRANCH  17  18
ATOM     18  C   UNL A   1      33.639  24.647  24.129  1.00  0.00     0.119 A 
ATOM     19  C   UNL A   1      33.291  23.400  24.641  1.00  0.00     0.046 A 
ATOM     20  C   UNL A   1      33.657  24.865  22.755  1.00  0.00     0.046 A 
ATOM     21  C   UNL A   1      32.878  22.390  23.768  1.00  0.00     0.004 A 
ATOM     22  C   UNL A   1      33.242  23.861  21.887  1.00  0.00     0.004 A 
ATOM     23  C   UNL A   1      32.836  22.628  22.394  1.00  0.00     0.000 A 
ENDBRANCH  17  18
ENDBRANCH  16  17
ENDBRANCH  15  16
ENDBRANCH   8  15
ENDBRANCH   3   6
ENDBRANCH   1   2
BRANCH   1  24
ATOM     24  C   UNL A   1      31.415  32.105  26.785  1.00  0.00     0.042 C 
BRANCH  24  25
ATOM     25  C   UNL A   1      32.693  32.871  27.098  1.00  0.00     0.118 C 
BRANCH  25  26
ATOM     26  N   UNL A   1      32.438  34.204  27.625  1.00  0.00    -0.352 N 
ATOM     27  C   UNL A   1      33.004  34.841  28.700  1.00  0.00     0.251 C 
ATOM     28  H   UNL A   1      31.759  34.725  27.139  1.00  0.00     0.163 HD
ATOM     29  O   UNL A   1      32.527  35.902  29.103  1.00  0.00    -0.269 OA
BRANCH  27  30
ATOM     30  C   UNL A   1      34.172  34.256  29.394  1.00  0.00     0.039 A 
ATOM     31  C   UNL A   1      33.960  33.473  30.533  1.00  0.00     0.014 A 
ATOM     32  C   UNL A   1      35.474  34.497  28.947  1.00  0.00     0.014 A 
ATOM     33  C   UNL A   1      35.047  32.888  31.188  1.00  0.00     0.010 A 
ATOM     34  C   UNL A   1      36.549  33.849  29.552  1.00  0.00     0.010 A 
ATOM     35  C   UNL A   1      36.350  33.049  30.687  1.00  0.00    -0.014 A 
BRANCH  35  36
ATOM     36  C   UNL A   1      37.519  32.420  31.359  1.00  0.00     0.031 A 
ATOM     37  C   UNL A   1      38.239  31.278  30.692  1.00  0.00     0.074 A 
ATOM     38  C   UNL A   1      37.900  32.837  32.582  1.00  0.00     0.049 A 
ATOM     39  N   UNL A   1      39.226  30.543  31.143  1.00  0.00    -0.248 NA
ATOM     40  C   UNL A   1      37.772  30.891  29.351  1.00  0.00     0.031 C 
ATOM     41  C   UNL A   1      37.263  33.910  33.347  1.00  0.00     0.029 A 
ATOM     42  N   UNL A   1      38.910  32.398  33.404  1.00  0.00    -0.354 N 
ATOM     43  C   UNL A   1      39.481  29.603  30.154  1.00  0.00     0.074 A 
ATOM     44  C   UNL A   1      38.516  29.824  29.099  1.00  0.00     0.031 C 
ATOM     45  C   UNL A   1      37.907  34.057  34.517  1.00  0.00     0.029 A 
ATOM     46  C   UNL A   1      38.973  33.064  34.605  1.00  0.00     0.049 A 
ATOM     47  H   UNL A   1      39.530  31.675  33.156  1.00  0.00     0.167 HD
ATOM     48  C   UNL A   1      40.446  28.654  30.119  1.00  0.00     0.037 A 
ATOM     49  C   UNL A   1      39.790  32.883  35.662  1.00  0.00     0.037 A 
ATOM     50  C   UNL A   1      41.428  28.461  31.152  1.00  0.00     0.049 A 
ATOM     51  C   UNL A   1      40.849  31.811  35.596  1.00  0.00     0.074 A 
ATOM     52  C   UNL A   1      42.488  27.570  31.177  1.00  0.00     0.029 A 
ATOM     53  N   UNL A   1      41.473  29.170  32.342  1.00  0.00    -0.354 N 
ATOM     54  N   UNL A   1      41.124  30.977  34.623  1.00  0.00    -0.248 NA
ATOM     55  C   UNL A   1      41.714  31.661  36.775  1.00  0.00     0.031 C 
ATOM     56  C   UNL A   1      43.140  27.703  32.405  1.00  0.00     0.029 A 
ATOM     57  C   UNL A   1      42.527  28.719  33.119  1.00  0.00     0.049 A 
ATOM     58  H   UNL A   1      40.848  29.887  32.597  1.00  0.00     0.167 HD
ATOM     59  C   UNL A   1      42.216  30.235  35.054  1.00  0.00     0.074 A 
ATOM     60  C   UNL A   1      42.560  30.724  36.372  1.00  0.00     0.031 C 
ATOM     61  C   UNL A   1      42.875  29.237  34.416  1.00  0.00     0.037 A 
BRANCH  48  62
ATOM     62  C   UNL A   1      40.501  27.749  28.922  1.00  0.00     0.064 A 
ATOM     63  C   UNL A   1      39.725  26.582  28.843  1.00  0.00     0.173 A 
ATOM     64  C   UNL A   1      41.285  28.090  27.809  1.00  0.00     0.173 A 
ATOM     65  F   UNL A   1      38.968  26.204  29.884  1.00  0.00    -0.203 F 
ATOM     66  C   UNL A   1      39.747  25.783  27.703  1.00  0.00     0.198 A 
ATOM     67  C   UNL A   1      41.279  27.307  26.659  1.00  0.00     0.198 A 
ATOM     68  F   UNL A   1      42.040  29.200  27.829  1.00  0.00    -0.203 F 
ATOM     69  F   UNL A   1      39.026  24.654  27.665  1.00  0.00    -0.200 F 
ATOM     70  C   UNL A   1      40.514  26.151  26.609  1.00  0.00     0.200 A 
ATOM     71  F   UNL A   1      42.009  27.673  25.597  1.00  0.00    -0.200 F 
ATOM     72  F   UNL A   1      40.518  25.391  25.504  1.00  0.00    -0.200 F 
ENDBRANCH  48  62
BRANCH  49  73
ATOM     73  C   UNL A   1      39.653  33.734  36.875  1.00  0.00     0.064 A 
ATOM     74  C   UNL A   1      38.851  33.332  37.953  1.00  0.00     0.173 A 
ATOM     75  C   UNL A   1      40.281  34.985  36.965  1.00  0.00     0.173 A 
ATOM     76  F   UNL A   1      38.212  32.153  37.908  1.00  0.00    -0.203 F 
ATOM     77  C   UNL A   1      38.652  34.162  39.054  1.00  0.00     0.198 A 
ATOM     78  C   UNL A   1      40.110  35.800  38.082  1.00  0.00     0.198 A 
ATOM     79  F   UNL A   1      41.064  35.417  35.965  1.00  0.00    -0.203 F 
ATOM     80  F   UNL A   1      37.827  33.780  40.038  1.00  0.00    -0.200 F 
ATOM     81  C   UNL A   1      39.284  35.394  39.119  1.00  0.00     0.200 A 
ATOM     82  F   UNL A   1      40.735  36.984  38.148  1.00  0.00    -0.200 F 
ATOM     83  F   UNL A   1      39.088  36.196  40.176  1.00  0.00    -0.200 F 
ENDBRANCH  49  73
BRANCH  61  84
ATOM     84  C   UNL A   1      44.075  28.647  35.100  1.00  0.00     0.064 A 
ATOM     85  C   UNL A   1      45.362  29.173  34.924  1.00  0.00     0.173 A 
ATOM     86  C   UNL A   1      43.920  27.572  35.990  1.00  0.00     0.173 A 
ATOM     87  F   UNL A   1      45.565  30.192  34.074  1.00  0.00    -0.203 F 
ATOM     88  C   UNL A   1      46.454  28.630  35.595  1.00  0.00     0.198 A 
ATOM     89  C   UNL A   1      45.009  27.054  36.685  1.00  0.00     0.198 A 
ATOM     90  F   UNL A   1      42.708  27.038  36.201  1.00  0.00    -0.203 F 
ATOM     91  F   UNL A   1      47.683  29.119  35.376  1.00  0.00    -0.200 F 
ATOM     92  C   UNL A   1      46.275  27.578  36.481  1.00  0.00     0.200 A 
ATOM     93  F   UNL A   1      44.830  26.049  37.554  1.00  0.00    -0.200 F 
ATOM     94  F   UNL A   1      47.327  27.066  37.137  1.00  0.00    -0.200 F 
ENDBRANCH  61  84
ENDBRANCH  35  36
ENDBRANCH  27  30
ENDBRANCH  25  26
ENDBRANCH  24  25
ENDBRANCH   1  24
TORSDOF 15
ENDMDL
MODEL 3
REMARK VINA RESULT:     -11.9      6.107     11.380
REMARK SMILES [NH3+][C@@]1(C(=O)NCCCNC(=O)c2ccc(-c3c4nc(c(-c5c(F)c(F)c(F)c(F)c5F)c5ccc([nH]5)c(-c5c(F)c(F)c(F)c(F)c5F)c5nc(c(-c6c(F)c(F)c(F)c(F)c6F)c6ccc3[nH]6)C=C5)C=C4)cc2)CCC[C@H]1CCOc1ccccc1
REMARK SMILES IDX 6 1 5 2 3 3 4 4 2 6 75 7 78 8 76 9 77 10 1 11 79 15 80 16
REMARK SMILES IDX 81 17 82 18 83 19 87 20 84 21 86 22 85 23 7 24 8 25 9 26
REMARK SMILES IDX 10 27 11 29 12 30 13 31 74 32 14 33 73 34 15 35 16 36 17 37
REMARK SMILES IDX 67 38 18 39 72 40 66 41 68 42 19 43 71 44 65 45 64 46 20 48
REMARK SMILES IDX 52 49 32 50 51 51 33 52 36 53 50 54 69 55 34 56 35 57 49 59
REMARK SMILES IDX 70 60 37 61 21 62 22 63 30 64 23 65 24 66 28 67 31 68 25 69
REMARK SMILES IDX 26 70 29 71 27 72 53 73 54 74 62 75 55 76 56 77 60 78 63 79
REMARK SMILES IDX 57 80 58 81 61 82 59 83 38 84 39 85 47 86 40 87 41 88 45 89
REMARK SMILES IDX 48 90 42 91 43 92 46 93 44 94
REMARK H PARENT 5 5 1 12 1 13 1 14 9 28 68 47 36 58
REMARK Flexibility Score: inf
ROOT
ATOM      1  C   UNL A   1      36.966  20.484  25.008  1.00  0.00     0.118 C 
ENDROOT
BRANCH   1   2
ATOM      2  N   UNL A   1      35.715  19.759  24.999  1.00  0.00    -0.351 N 
ATOM      3  C   UNL A   1      34.421  20.149  24.901  1.00  0.00     0.281 C 
ATOM      4  O   UNL A   1      33.603  19.220  24.795  1.00  0.00    -0.268 OA
ATOM      5  H   UNL A   1      35.826  18.785  25.082  1.00  0.00     0.163 HD
BRANCH   3   6
ATOM      6  C   UNL A   1      33.902  21.643  24.912  1.00  0.00     0.176 C 
ATOM      7  C   UNL A   1      32.394  21.772  24.648  1.00  0.00     0.079 C 
ATOM      8  C   UNL A   1      34.622  22.544  23.874  1.00  0.00     0.064 C 
ATOM      9  C   UNL A   1      32.199  22.406  23.285  1.00  0.00     0.008 C 
ATOM     10  C   UNL A   1      33.536  22.991  22.866  1.00  0.00     0.011 C 
BRANCH   6  11
ATOM     11  N   UNL A   1      34.104  22.114  26.316  1.00  0.00    -0.345 N 
ATOM     12  H   UNL A   1      34.769  22.888  26.322  1.00  0.00     0.345 HD
ATOM     13  H   UNL A   1      34.468  21.349  26.882  1.00  0.00     0.345 HD
ATOM     14  H   UNL A   1      33.212  22.428  26.700  1.00  0.00     0.345 HD
ENDBRANCH   6  11
BRANCH   8  15
ATOM     15  C   UNL A   1      35.361  23.817  24.376  1.00  0.00     0.052 C 
BRANCH  15  16
ATOM     16  C   UNL A   1      34.572  25.126  24.507  1.00  0.00     0.230 C 
BRANCH  16  17
ATOM     17  O   UNL A   1      33.827  25.171  25.732  1.00  0.00    -0.494 OA
BRANCH  17  18
ATOM     18  C   UNL A   1      32.497  25.411  25.543  1.00  0.00     0.119 A 
ATOM     19  C   UNL A   1      31.510  24.899  26.382  1.00  0.00     0.046 A 
ATOM     20  C   UNL A   1      32.149  26.140  24.410  1.00  0.00     0.046 A 
ATOM     21  C   UNL A   1      30.169  25.193  26.125  1.00  0.00     0.004 A 
ATOM     22  C   UNL A   1      30.814  26.436  24.157  1.00  0.00     0.004 A 
ATOM     23  C   UNL A   1      29.824  25.976  25.023  1.00  0.00     0.000 A 
ENDBRANCH  17  18
ENDBRANCH  16  17
ENDBRANCH  15  16
ENDBRANCH   8  15
ENDBRANCH   3   6
ENDBRANCH   1   2
BRANCH   1  24
ATOM     24  C   UNL A   1      38.196  19.588  24.967  1.00  0.00     0.042 C 
BRANCH  24  25
ATOM     25  C   UNL A   1      39.242  19.923  26.021  1.00  0.00     0.118 C 
BRANCH  25  26
ATOM     26  N   UNL A   1      40.342  18.970  26.047  1.00  0.00    -0.352 N 
ATOM     27  C   UNL A   1      41.693  19.197  26.129  1.00  0.00     0.251 C 
ATOM     28  H   UNL A   1      40.079  18.022  25.998  1.00  0.00     0.163 HD
ATOM     29  O   UNL A   1      42.481  18.267  25.954  1.00  0.00    -0.269 OA
BRANCH  27  30
ATOM     30  C   UNL A   1      42.214  20.552  26.408  1.00  0.00     0.039 A 
ATOM     31  C   UNL A   1      42.627  21.352  25.339  1.00  0.00     0.014 A 
ATOM     32  C   UNL A   1      42.324  21.029  27.717  1.00  0.00     0.014 A 
ATOM     33  C   UNL A   1      43.097  22.646  25.577  1.00  0.00     0.010 A 
ATOM     34  C   UNL A   1      42.716  22.346  27.948  1.00  0.00     0.010 A 
ATOM     35  C   UNL A   1      43.121  23.165  26.883  1.00  0.00    -0.014 A 
BRANCH  35  36
ATOM     36  C   UNL A   1      43.600  24.546  27.156  1.00  0.00     0.031 A 
ATOM     37  C   UNL A   1      42.633  25.588  27.654  1.00  0.00     0.074 A 
ATOM     38  C   UNL A   1      44.882  24.877  26.911  1.00  0.00     0.049 A 
ATOM     39  N   UNL A   1      42.831  26.864  27.877  1.00  0.00    -0.248 NA
ATOM     40  C   UNL A   1      41.254  25.145  27.913  1.00  0.00     0.031 C 
ATOM     41  C   UNL A   1      45.908  23.969  26.395  1.00  0.00     0.029 A 
ATOM     42  N   UNL A   1      45.541  26.075  27.050  1.00  0.00    -0.354 N 
ATOM     43  C   UNL A   1      41.604  27.373  28.279  1.00  0.00     0.074 A 
ATOM     44  C   UNL A   1      40.654  26.284  28.225  1.00  0.00     0.031 C 
ATOM     45  C   UNL A   1      47.068  24.636  26.277  1.00  0.00     0.029 A 
ATOM     46  C   UNL A   1      46.861  26.027  26.668  1.00  0.00     0.049 A 
ATOM     47  H   UNL A   1      45.109  26.891  27.391  1.00  0.00     0.167 HD
ATOM     48  C   UNL A   1      41.300  28.630  28.680  1.00  0.00     0.037 A 
ATOM     49  C   UNL A   1      47.794  26.999  26.626  1.00  0.00     0.037 A 
ATOM     50  C   UNL A   1      42.255  29.703  28.770  1.00  0.00     0.049 A 
ATOM     51  C   UNL A   1      47.422  28.392  27.068  1.00  0.00     0.074 A 
ATOM     52  C   UNL A   1      42.058  30.995  29.227  1.00  0.00     0.029 A 
ATOM     53  N   UNL A   1      43.586  29.609  28.396  1.00  0.00    -0.354 N 
ATOM     54  N   UNL A   1      46.275  28.842  27.515  1.00  0.00    -0.248 NA
ATOM     55  C   UNL A   1      48.480  29.412  27.005  1.00  0.00     0.031 C 
ATOM     56  C   UNL A   1      43.258  31.697  29.079  1.00  0.00     0.029 A 
ATOM     57  C   UNL A   1      44.217  30.827  28.589  1.00  0.00     0.049 A 
ATOM     58  H   UNL A   1      44.019  28.797  28.045  1.00  0.00     0.167 HD
ATOM     59  C   UNL A   1      46.483  30.179  27.825  1.00  0.00     0.074 A 
ATOM     60  C   UNL A   1      47.870  30.467  27.525  1.00  0.00     0.031 C 
ATOM     61  C   UNL A   1      45.606  31.089  28.314  1.00  0.00     0.037 A 
BRANCH  48  62
ATOM     62  C   UNL A   1      39.878  28.925  29.061  1.00  0.00     0.064 A 
ATOM     63  C   UNL A   1      38.931  29.339  28.112  1.00  0.00     0.173 A 
ATOM     64  C   UNL A   1      39.440  28.722  30.379  1.00  0.00     0.173 A 
ATOM     65  F   UNL A   1      39.300  29.559  26.842  1.00  0.00    -0.203 F 
ATOM     66  C   UNL A   1      37.603  29.554  28.473  1.00  0.00     0.198 A 
ATOM     67  C   UNL A   1      38.106  28.907  30.728  1.00  0.00     0.198 A 
ATOM     68  F   UNL A   1      40.304  28.320  31.324  1.00  0.00    -0.203 F 
ATOM     69  F   UNL A   1      36.724  29.985  27.557  1.00  0.00    -0.200 F 
ATOM     70  C   UNL A   1      37.190  29.328  29.777  1.00  0.00     0.200 A 
ATOM     71  F   UNL A   1      37.705  28.672  31.985  1.00  0.00    -0.200 F 
ATOM     72  F   UNL A   1      35.907  29.517  30.117  1.00  0.00    -0.200 F 
ENDBRANCH  48  62
BRANCH  49  73
ATOM     73  C   UNL A   1      49.174  26.701  26.155  1.00  0.00     0.064 A 
ATOM     74  C   UNL A   1      50.150  26.217  27.039  1.00  0.00     0.173 A 
ATOM     75  C   UNL A   1      49.560  26.936  24.828  1.00  0.00     0.173 A 
ATOM     76  F   UNL A   1      49.837  25.995  28.325  1.00  0.00    -0.203 F 
ATOM     77  C   UNL A   1      51.465  26.016  26.623  1.00  0.00     0.198 A 
ATOM     78  C   UNL A   1      50.867  26.701  24.404  1.00  0.00     0.198 A 
ATOM     79  F   UNL A   1      48.666  27.394  23.939  1.00  0.00    -0.203 F 
ATOM     80  F   UNL A   1      52.389  25.617  27.505  1.00  0.00    -0.200 F 
ATOM     81  C   UNL A   1      51.821  26.256  25.305  1.00  0.00     0.200 A 
ATOM     82  F   UNL A   1      51.203  26.920  23.125  1.00  0.00    -0.200 F 
ATOM     83  F   UNL A   1      53.087  26.068  24.906  1.00  0.00    -0.200 F 
ENDBRANCH  49  73
BRANCH  61  84
ATOM     84  C   UNL A   1      46.125  32.464  28.618  1.00  0.00     0.064 A 
ATOM     85  C   UNL A   1      46.091  33.497  27.670  1.00  0.00     0.173 A 
ATOM     86  C   UNL A   1      46.614  32.765  29.900  1.00  0.00     0.173 A 
ATOM     87  F   UNL A   1      45.645  33.257  26.427  1.00  0.00    -0.203 F 
ATOM     88  C   UNL A   1      46.548  34.773  27.986  1.00  0.00     0.198 A 
ATOM     89  C   UNL A   1      47.039  34.050  30.222  1.00  0.00     0.198 A 
ATOM     90  F   UNL A   1      46.661  31.815  30.846  1.00  0.00    -0.203 F 
ATOM     91  F   UNL A   1      46.548  35.732  27.050  1.00  0.00    -0.200 F 
ATOM     92  C   UNL A   1      47.012  35.051  29.263  1.00  0.00     0.200 A 
ATOM     93  F   UNL A   1      47.470  34.321  31.462  1.00  0.00    -0.200 F 
ATOM     94  F   UNL A   1      47.439  36.285  29.568  1.00  0.00    -0.200 F 
ENDBRANCH  61  84
ENDBRANCH  35  36
ENDBRANCH  27  30
ENDBRANCH  25  26
ENDBRANCH  24  25
ENDBRANCH   1  24
TORSDOF 15
ENDMDL
