MODEL 1
REMARK VINA RESULT:     -12.0      0.000      0.000
REMARK SMILES COc1cc([C@@H]2CC[NH2+][C@@H]2C(=O)NCCCNC(=O)c2ccc(-c3c4nc(c(-c5c(F)c(F)c(F)c(F)c5F)c5ccc([nH]5)c(-c5c(F)c(F)c(F)c(F)c5F)c5nc(c(-c6c(F)c(F)c(F)c(F)c6F)c6ccc3[nH]6)C=C5)C=C4)cc2)cc(OC)c1OC
REMARK SMILES IDX 15 1 14 2 13 3 11 4 12 5 10 7 6 8 7 9 8 10 9 11 5 14 3 15
REMARK SMILES IDX 4 16 87 17 84 18 83 19 2 20 1 21 88 22 89 23 85 24 86 25
REMARK SMILES IDX 16 26 17 27 18 28 19 30 20 31 21 32 82 33 22 34 81 35 23 36
REMARK SMILES IDX 24 37 25 38 75 39 26 40 80 41 74 42 76 43 27 44 79 45 73 46
REMARK SMILES IDX 72 47 28 49 60 50 40 51 59 52 41 53 44 54 58 55 77 56 42 57
REMARK SMILES IDX 43 58 57 60 78 61 45 62 29 63 30 64 38 65 31 66 32 67 36 68
REMARK SMILES IDX 39 69 33 70 34 71 37 72 35 73 61 74 62 75 70 76 63 77 64 78
REMARK SMILES IDX 68 79 71 80 65 81 66 82 69 83 67 84 46 85 47 86 55 87 48 88
REMARK SMILES IDX 49 89 53 90 56 91 50 92 51 93 54 94 52 95
REMARK H PARENT 13 6 9 12 9 13 17 29 76 48 44 59
REMARK Flexibility Score: inf
ROOT
ATOM      1  C   UNL A   1      31.404  32.004  26.539  1.00  0.00     0.042 C 
ENDROOT
BRANCH   1   2
ATOM      2  C   UNL A   1      31.323  30.492  26.699  1.00  0.00     0.118 C 
BRANCH   2   3
ATOM      3  N   UNL A   1      32.641  29.881  26.648  1.00  0.00    -0.351 N 
ATOM      4  C   UNL A   1      33.298  29.172  25.693  1.00  0.00     0.278 C 
ATOM      5  O   UNL A   1      34.408  28.725  26.020  1.00  0.00    -0.268 OA
ATOM      6  H   UNL A   1      33.164  30.008  27.473  1.00  0.00     0.163 HD
BRANCH   4   7
ATOM      7  C   UNL A   1      32.798  28.945  24.259  1.00  0.00     0.280 C 
ATOM      8  C   UNL A   1      32.342  27.503  23.927  1.00  0.00     0.093 C 
ATOM      9  C   UNL A   1      32.800  27.332  22.474  1.00  0.00     0.076 C 
ATOM     10  C   UNL A   1      34.005  28.240  22.349  1.00  0.00     0.262 C 
ATOM     11  N   UNL A   1      33.691  29.419  23.164  1.00  0.00    -0.335 N 
ATOM     12  H   UNL A   1      33.213  30.122  22.599  1.00  0.00     0.346 HD
ATOM     13  H   UNL A   1      34.537  29.849  23.536  1.00  0.00     0.346 HD
BRANCH   8  14
ATOM     14  C   UNL A   1      32.808  26.337  24.785  1.00  0.00    -0.031 A 
ATOM     15  C   UNL A   1      32.331  24.640  26.486  1.00  0.00     0.164 A 
ATOM     16  C   UNL A   1      31.953  25.777  25.744  1.00  0.00     0.055 A 
ATOM     17  C   UNL A   1      33.581  24.023  26.289  1.00  0.00     0.203 A 
ATOM     18  C   UNL A   1      34.448  24.592  25.338  1.00  0.00     0.164 A 
ATOM     19  C   UNL A   1      34.046  25.719  24.601  1.00  0.00     0.055 A 
BRANCH  15  20
ATOM     20  O   UNL A   1      31.366  24.071  27.281  1.00  0.00    -0.493 OA
ATOM     21  C   UNL A   1      30.362  23.401  26.519  1.00  0.00     0.278 C 
ENDBRANCH  15  20
BRANCH  17  22
ATOM     22  O   UNL A   1      34.020  22.884  26.904  1.00  0.00    -0.490 OA
ATOM     23  C   UNL A   1      33.663  21.607  26.409  1.00  0.00     0.278 C 
ENDBRANCH  17  22
BRANCH  18  24
ATOM     24  O   UNL A   1      35.714  24.196  24.976  1.00  0.00    -0.493 OA
ATOM     25  C   UNL A   1      35.878  23.306  23.886  1.00  0.00     0.278 C 
ENDBRANCH  18  24
ENDBRANCH   8  14
ENDBRANCH   4   7
ENDBRANCH   2   3
ENDBRANCH   1   2
BRANCH   1  26
ATOM     26  C   UNL A   1      32.601  32.615  27.259  1.00  0.00     0.118 C 
BRANCH  26  27
ATOM     27  N   UNL A   1      32.398  34.023  27.584  1.00  0.00    -0.352 N 
ATOM     28  C   UNL A   1      32.983  34.796  28.552  1.00  0.00     0.251 C 
ATOM     29  H   UNL A   1      31.740  34.489  27.020  1.00  0.00     0.163 HD
ATOM     30  O   UNL A   1      32.533  35.915  28.802  1.00  0.00    -0.269 OA
BRANCH  28  31
ATOM     31  C   UNL A   1      34.142  34.288  29.312  1.00  0.00     0.039 A 
ATOM     32  C   UNL A   1      33.922  33.629  30.524  1.00  0.00     0.014 A 
ATOM     33  C   UNL A   1      35.445  34.473  28.841  1.00  0.00     0.014 A 
ATOM     34  C   UNL A   1      35.003  33.094  31.227  1.00  0.00     0.010 A 
ATOM     35  C   UNL A   1      36.510  33.865  29.497  1.00  0.00     0.010 A 
ATOM     36  C   UNL A   1      36.301  33.174  30.698  1.00  0.00    -0.014 A 
BRANCH  36  37
ATOM     37  C   UNL A   1      37.454  32.537  31.384  1.00  0.00     0.031 A 
ATOM     38  C   UNL A   1      38.174  31.385  30.741  1.00  0.00     0.074 A 
ATOM     39  C   UNL A   1      37.804  32.952  32.618  1.00  0.00     0.049 A 
ATOM     40  N   UNL A   1      39.150  30.651  31.213  1.00  0.00    -0.248 NA
ATOM     41  C   UNL A   1      37.718  30.986  29.401  1.00  0.00     0.031 C 
ATOM     42  C   UNL A   1      37.149  34.026  33.365  1.00  0.00     0.029 A 
ATOM     43  N   UNL A   1      38.791  32.512  33.464  1.00  0.00    -0.354 N 
ATOM     44  C   UNL A   1      39.411  29.698  30.237  1.00  0.00     0.074 A 
ATOM     45  C   UNL A   1      38.456  29.909  29.172  1.00  0.00     0.031 C 
ATOM     46  C   UNL A   1      37.766  34.178  34.548  1.00  0.00     0.029 A 
ATOM     47  C   UNL A   1      38.831  33.186  34.661  1.00  0.00     0.049 A 
ATOM     48  H   UNL A   1      39.411  31.783  33.236  1.00  0.00     0.167 HD
ATOM     49  C   UNL A   1      40.377  28.749  30.221  1.00  0.00     0.037 A 
ATOM     50  C   UNL A   1      39.629  33.015  35.731  1.00  0.00     0.037 A 
ATOM     51  C   UNL A   1      41.339  28.558  31.274  1.00  0.00     0.049 A 
ATOM     52  C   UNL A   1      40.687  31.946  35.690  1.00  0.00     0.074 A 
ATOM     53  C   UNL A   1      42.395  27.665  31.328  1.00  0.00     0.029 A 
ATOM     54  N   UNL A   1      41.359  29.272  32.464  1.00  0.00    -0.354 N 
ATOM     55  N   UNL A   1      40.972  31.098  34.733  1.00  0.00    -0.248 NA
ATOM     56  C   UNL A   1      41.540  31.815  36.880  1.00  0.00     0.031 C 
ATOM     57  C   UNL A   1      43.021  27.801  32.571  1.00  0.00     0.029 A 
ATOM     58  C   UNL A   1      42.393  28.821  33.270  1.00  0.00     0.049 A 
ATOM     59  H   UNL A   1      40.731  29.991  32.702  1.00  0.00     0.167 HD
ATOM     60  C   UNL A   1      42.053  30.356  35.188  1.00  0.00     0.074 A 
ATOM     61  C   UNL A   1      42.383  30.864  36.504  1.00  0.00     0.031 C 
ATOM     62  C   UNL A   1      42.714  29.344  34.573  1.00  0.00     0.037 A 
BRANCH  49  63
ATOM     63  C   UNL A   1      40.443  27.844  29.023  1.00  0.00     0.064 A 
ATOM     64  C   UNL A   1      39.682  26.667  28.945  1.00  0.00     0.173 A 
ATOM     65  C   UNL A   1      41.250  28.176  27.923  1.00  0.00     0.173 A 
ATOM     66  F   UNL A   1      38.903  26.298  29.973  1.00  0.00    -0.203 F 
ATOM     67  C   UNL A   1      39.750  25.841  27.827  1.00  0.00     0.198 A 
ATOM     68  C   UNL A   1      41.289  27.364  26.792  1.00  0.00     0.198 A 
ATOM     69  F   UNL A   1      41.993  29.292  27.941  1.00  0.00    -0.203 F 
ATOM     70  F   UNL A   1      39.055  24.696  27.799  1.00  0.00    -0.200 F 
ATOM     71  C   UNL A   1      40.548  26.194  26.749  1.00  0.00     0.200 A 
ATOM     72  F   UNL A   1      42.048  27.714  25.745  1.00  0.00    -0.200 F 
ATOM     73  F   UNL A   1      40.605  25.403  25.669  1.00  0.00    -0.200 F 
ENDBRANCH  49  63
BRANCH  50  74
ATOM     74  C   UNL A   1      39.473  33.891  36.922  1.00  0.00     0.064 A 
ATOM     75  C   UNL A   1      38.723  33.472  38.029  1.00  0.00     0.173 A 
ATOM     76  C   UNL A   1      40.061  35.162  36.976  1.00  0.00     0.173 A 
ATOM     77  F   UNL A   1      38.123  32.271  38.017  1.00  0.00    -0.203 F 
ATOM     78  C   UNL A   1      38.549  34.300  39.137  1.00  0.00     0.198 A 
ATOM     79  C   UNL A   1      39.912  35.977  38.098  1.00  0.00     0.198 A 
ATOM     80  F   UNL A   1      40.793  35.610  35.946  1.00  0.00    -0.203 F 
ATOM     81  F   UNL A   1      37.786  33.893  40.161  1.00  0.00    -0.200 F 
ATOM     82  C   UNL A   1      39.148  35.549  39.173  1.00  0.00     0.200 A 
ATOM     83  F   UNL A   1      40.507  37.177  38.134  1.00  0.00    -0.200 F 
ATOM     84  F   UNL A   1      38.983  36.344  40.239  1.00  0.00    -0.200 F 
ENDBRANCH  50  74
BRANCH  62  85
ATOM     85  C   UNL A   1      43.885  28.744  35.298  1.00  0.00     0.064 A 
ATOM     86  C   UNL A   1      43.729  27.691  36.209  1.00  0.00     0.173 A 
ATOM     87  C   UNL A   1      45.185  29.207  35.044  1.00  0.00     0.173 A 
ATOM     88  F   UNL A   1      42.505  27.223  36.499  1.00  0.00    -0.203 F 
ATOM     89  C   UNL A   1      44.829  27.142  36.863  1.00  0.00     0.198 A 
ATOM     90  C   UNL A   1      46.286  28.633  35.672  1.00  0.00     0.198 A 
ATOM     91  F   UNL A   1      45.390  30.208  34.174  1.00  0.00    -0.203 F 
ATOM     92  F   UNL A   1      44.652  26.171  37.768  1.00  0.00    -0.200 F 
ATOM     93  C   UNL A   1      46.107  27.607  36.587  1.00  0.00     0.200 A 
ATOM     94  F   UNL A   1      47.521  29.073  35.393  1.00  0.00    -0.200 F 
ATOM     95  F   UNL A   1      47.166  27.071  37.210  1.00  0.00    -0.200 F 
ENDBRANCH  62  85
ENDBRANCH  36  37
ENDBRANCH  28  31
ENDBRANCH  26  27
ENDBRANCH   1  26
TORSDOF 14
ENDMDL
MODEL 2
REMARK VINA RESULT:     -12.0      0.111      1.953
REMARK SMILES COc1cc([C@@H]2CC[NH2+][C@@H]2C(=O)NCCCNC(=O)c2ccc(-c3c4nc(c(-c5c(F)c(F)c(F)c(F)c5F)c5ccc([nH]5)c(-c5c(F)c(F)c(F)c(F)c5F)c5nc(c(-c6c(F)c(F)c(F)c(F)c6F)c6ccc3[nH]6)C=C5)C=C4)cc2)cc(OC)c1OC
REMARK SMILES IDX 15 1 14 2 13 3 11 4 12 5 10 7 6 8 7 9 8 10 9 11 5 14 3 15
REMARK SMILES IDX 4 16 87 17 84 18 83 19 2 20 1 21 88 22 89 23 85 24 86 25
REMARK SMILES IDX 16 26 17 27 18 28 19 30 20 31 21 32 82 33 22 34 81 35 23 36
REMARK SMILES IDX 24 37 25 38 75 39 26 40 80 41 74 42 76 43 27 44 79 45 73 46
REMARK SMILES IDX 72 47 28 49 60 50 40 51 59 52 41 53 44 54 58 55 77 56 42 57
REMARK SMILES IDX 43 58 57 60 78 61 45 62 29 63 30 64 38 65 31 66 32 67 36 68
REMARK SMILES IDX 39 69 33 70 34 71 37 72 35 73 61 74 62 75 70 76 63 77 64 78
REMARK SMILES IDX 68 79 71 80 65 81 66 82 69 83 67 84 46 85 47 86 55 87 48 88
REMARK SMILES IDX 49 89 53 90 56 91 50 92 51 93 54 94 52 95
REMARK H PARENT 13 6 9 12 9 13 17 29 76 48 44 59
REMARK Flexibility Score: inf
ROOT
ATOM      1  C   UNL A   1      31.450  32.077  26.553  1.00  0.00     0.042 C 
ENDROOT
BRANCH   1   2
ATOM      2  C   UNL A   1      31.382  30.566  26.729  1.00  0.00     0.118 C 
BRANCH   2   3
ATOM      3  N   UNL A   1      32.703  29.964  26.666  1.00  0.00    -0.351 N 
ATOM      4  C   UNL A   1      33.355  29.259  25.705  1.00  0.00     0.278 C 
ATOM      5  O   UNL A   1      34.470  28.819  26.021  1.00  0.00    -0.268 OA
ATOM      6  H   UNL A   1      33.233  30.094  27.486  1.00  0.00     0.163 HD
BRANCH   4   7
ATOM      7  C   UNL A   1      32.843  29.029  24.275  1.00  0.00     0.280 C 
ATOM      8  C   UNL A   1      32.383  27.587  23.950  1.00  0.00     0.093 C 
ATOM      9  C   UNL A   1      32.829  27.412  22.493  1.00  0.00     0.076 C 
ATOM     10  C   UNL A   1      34.033  28.320  22.357  1.00  0.00     0.262 C 
ATOM     11  N   UNL A   1      33.726  29.501  23.172  1.00  0.00    -0.335 N 
ATOM     12  H   UNL A   1      33.244  30.202  22.610  1.00  0.00     0.346 HD
ATOM     13  H   UNL A   1      34.576  29.931  23.536  1.00  0.00     0.346 HD
BRANCH   8  14
ATOM     14  C   UNL A   1      32.857  26.422  24.807  1.00  0.00    -0.031 A 
ATOM     15  C   UNL A   1      32.392  24.726  26.512  1.00  0.00     0.164 A 
ATOM     16  C   UNL A   1      32.009  25.862  25.771  1.00  0.00     0.055 A 
ATOM     17  C   UNL A   1      33.642  24.111  26.309  1.00  0.00     0.203 A 
ATOM     18  C   UNL A   1      34.502  24.680  25.351  1.00  0.00     0.164 A 
ATOM     19  C   UNL A   1      34.094  25.806  24.616  1.00  0.00     0.055 A 
BRANCH  15  20
ATOM     20  O   UNL A   1      31.433  24.157  27.314  1.00  0.00    -0.493 OA
ATOM     21  C   UNL A   1      30.347  23.619  26.560  1.00  0.00     0.278 C 
ENDBRANCH  15  20
BRANCH  17  22
ATOM     22  O   UNL A   1      34.086  22.973  26.922  1.00  0.00    -0.490 OA
ATOM     23  C   UNL A   1      33.730  21.695  26.430  1.00  0.00     0.278 C 
ENDBRANCH  17  22
BRANCH  18  24
ATOM     24  O   UNL A   1      35.767  24.286  24.983  1.00  0.00    -0.493 OA
ATOM     25  C   UNL A   1      35.924  23.370  23.913  1.00  0.00     0.278 C 
ENDBRANCH  18  24
ENDBRANCH   8  14
ENDBRANCH   4   7
ENDBRANCH   2   3
ENDBRANCH   1   2
BRANCH   1  26
ATOM     26  C   UNL A   1      32.656  32.702  27.247  1.00  0.00     0.118 C 
BRANCH  26  27
ATOM     27  N   UNL A   1      32.435  34.102  27.596  1.00  0.00    -0.352 N 
ATOM     28  C   UNL A   1      33.010  34.865  28.579  1.00  0.00     0.251 C 
ATOM     29  H   UNL A   1      31.771  34.570  27.040  1.00  0.00     0.163 HD
ATOM     30  O   UNL A   1      32.546  35.973  28.848  1.00  0.00    -0.269 OA
BRANCH  28  31
ATOM     31  C   UNL A   1      34.175  34.358  29.331  1.00  0.00     0.039 A 
ATOM     32  C   UNL A   1      33.965  33.708  30.549  1.00  0.00     0.014 A 
ATOM     33  C   UNL A   1      35.473  34.535  28.846  1.00  0.00     0.014 A 
ATOM     34  C   UNL A   1      35.050  33.174  31.245  1.00  0.00     0.010 A 
ATOM     35  C   UNL A   1      36.543  33.928  29.494  1.00  0.00     0.010 A 
ATOM     36  C   UNL A   1      36.344  33.245  30.703  1.00  0.00    -0.014 A 
BRANCH  36  37
ATOM     37  C   UNL A   1      37.501  32.610  31.382  1.00  0.00     0.031 A 
ATOM     38  C   UNL A   1      38.222  31.463  30.731  1.00  0.00     0.074 A 
ATOM     39  C   UNL A   1      37.854  33.019  32.616  1.00  0.00     0.049 A 
ATOM     40  N   UNL A   1      39.202  30.729  31.195  1.00  0.00    -0.248 NA
ATOM     41  C   UNL A   1      37.763  31.068  29.390  1.00  0.00     0.031 C 
ATOM     42  C   UNL A   1      37.199  34.088  33.371  1.00  0.00     0.029 A 
ATOM     43  N   UNL A   1      38.845  32.579  33.456  1.00  0.00    -0.354 N 
ATOM     44  C   UNL A   1      39.463  29.782  30.214  1.00  0.00     0.074 A 
ATOM     45  C   UNL A   1      38.503  29.995  29.154  1.00  0.00     0.031 C 
ATOM     46  C   UNL A   1      37.819  34.237  34.552  1.00  0.00     0.029 A 
ATOM     47  C   UNL A   1      38.888  33.247  34.656  1.00  0.00     0.049 A 
ATOM     48  H   UNL A   1      39.468  31.853  33.222  1.00  0.00     0.167 HD
ATOM     49  C   UNL A   1      40.432  28.836  30.190  1.00  0.00     0.037 A 
ATOM     50  C   UNL A   1      39.690  33.074  35.723  1.00  0.00     0.037 A 
ATOM     51  C   UNL A   1      41.398  28.643  31.239  1.00  0.00     0.049 A 
ATOM     52  C   UNL A   1      40.752  32.008  35.673  1.00  0.00     0.074 A 
ATOM     53  C   UNL A   1      42.457  27.754  31.284  1.00  0.00     0.029 A 
ATOM     54  N   UNL A   1      41.420  29.352  32.432  1.00  0.00    -0.354 N 
ATOM     55  N   UNL A   1      41.036  31.166  34.711  1.00  0.00    -0.248 NA
ATOM     56  C   UNL A   1      41.610  31.875  36.859  1.00  0.00     0.031 C 
ATOM     57  C   UNL A   1      43.087  27.886  32.526  1.00  0.00     0.029 A 
ATOM     58  C   UNL A   1      42.459  28.900  33.231  1.00  0.00     0.049 A 
ATOM     59  H   UNL A   1      40.791  30.068  32.675  1.00  0.00     0.167 HD
ATOM     60  C   UNL A   1      42.121  30.425  35.158  1.00  0.00     0.074 A 
ATOM     61  C   UNL A   1      42.454  30.928  36.475  1.00  0.00     0.031 C 
ATOM     62  C   UNL A   1      42.782  29.419  34.536  1.00  0.00     0.037 A 
BRANCH  49  63
ATOM     63  C   UNL A   1      40.497  27.937  28.988  1.00  0.00     0.064 A 
ATOM     64  C   UNL A   1      41.306  28.242  27.882  1.00  0.00     0.173 A 
ATOM     65  C   UNL A   1      39.770  26.737  28.955  1.00  0.00     0.173 A 
ATOM     66  F   UNL A   1      42.014  29.381  27.857  1.00  0.00    -0.203 F 
ATOM     67  C   UNL A   1      41.360  27.397  26.777  1.00  0.00     0.198 A 
ATOM     68  C   UNL A   1      39.852  25.877  27.862  1.00  0.00     0.198 A 
ATOM     69  F   UNL A   1      38.985  26.393  29.988  1.00  0.00    -0.203 F 
ATOM     70  F   UNL A   1      42.099  27.736  25.712  1.00  0.00    -0.200 F 
ATOM     71  C   UNL A   1      40.639  26.212  26.771  1.00  0.00     0.200 A 
ATOM     72  F   UNL A   1      39.167  24.726  27.865  1.00  0.00    -0.200 F 
ATOM     73  F   UNL A   1      40.699  25.394  25.712  1.00  0.00    -0.200 F 
ENDBRANCH  49  63
BRANCH  50  74
ATOM     74  C   UNL A   1      39.536  33.944  36.918  1.00  0.00     0.064 A 
ATOM     75  C   UNL A   1      40.149  35.203  36.975  1.00  0.00     0.173 A 
ATOM     76  C   UNL A   1      38.781  33.535  38.027  1.00  0.00     0.173 A 
ATOM     77  F   UNL A   1      40.898  35.631  35.947  1.00  0.00    -0.203 F 
ATOM     78  C   UNL A   1      40.032  36.011  38.105  1.00  0.00     0.198 A 
ATOM     79  C   UNL A   1      38.639  34.357  39.143  1.00  0.00     0.198 A 
ATOM     80  F   UNL A   1      38.170  32.342  38.022  1.00  0.00    -0.203 F 
ATOM     81  F   UNL A   1      40.669  37.189  38.152  1.00  0.00    -0.200 F 
ATOM     82  C   UNL A   1      39.273  35.590  39.186  1.00  0.00     0.200 A 
ATOM     83  F   UNL A   1      37.891  33.954  40.179  1.00  0.00    -0.200 F 
ATOM     84  F   UNL A   1      39.157  36.368  40.270  1.00  0.00    -0.200 F 
ENDBRANCH  50  74
BRANCH  62  85
ATOM     85  C   UNL A   1      43.959  28.819  35.254  1.00  0.00     0.064 A 
ATOM     86  C   UNL A   1      45.257  29.323  35.092  1.00  0.00     0.173 A 
ATOM     87  C   UNL A   1      43.774  27.751  36.144  1.00  0.00     0.173 A 
ATOM     88  F   UNL A   1      45.489  30.334  34.241  1.00  0.00    -0.203 F 
ATOM     89  C   UNL A   1      46.332  28.760  35.775  1.00  0.00     0.198 A 
ATOM     90  C   UNL A   1      44.846  27.213  36.850  1.00  0.00     0.198 A 
ATOM     91  F   UNL A   1      42.551  27.237  36.341  1.00  0.00    -0.203 F 
ATOM     92  F   UNL A   1      47.572  29.224  35.566  1.00  0.00    -0.200 F 
ATOM     93  C   UNL A   1      46.125  27.712  36.659  1.00  0.00     0.200 A 
ATOM     94  F   UNL A   1      44.640  26.210  37.717  1.00  0.00    -0.200 F 
ATOM     95  F   UNL A   1      47.160  27.177  37.322  1.00  0.00    -0.200 F 
ENDBRANCH  62  85
ENDBRANCH  36  37
ENDBRANCH  28  31
ENDBRANCH  26  27
ENDBRANCH   1  26
TORSDOF 14
ENDMDL
MODEL 3
REMARK VINA RESULT:     -11.9      5.700     11.158
REMARK SMILES COc1cc([C@@H]2CC[NH2+][C@@H]2C(=O)NCCCNC(=O)c2ccc(-c3c4nc(c(-c5c(F)c(F)c(F)c(F)c5F)c5ccc([nH]5)c(-c5c(F)c(F)c(F)c(F)c5F)c5nc(c(-c6c(F)c(F)c(F)c(F)c6F)c6ccc3[nH]6)C=C5)C=C4)cc2)cc(OC)c1OC
REMARK SMILES IDX 15 1 14 2 13 3 11 4 12 5 10 7 6 8 7 9 8 10 9 11 5 14 3 15
REMARK SMILES IDX 4 16 87 17 84 18 83 19 2 20 1 21 88 22 89 23 85 24 86 25
REMARK SMILES IDX 16 26 17 27 18 28 19 30 20 31 21 32 82 33 22 34 81 35 23 36
REMARK SMILES IDX 24 37 25 38 75 39 26 40 80 41 74 42 76 43 27 44 79 45 73 46
REMARK SMILES IDX 72 47 28 49 60 50 40 51 59 52 41 53 44 54 58 55 77 56 42 57
REMARK SMILES IDX 43 58 57 60 78 61 45 62 29 63 30 64 38 65 31 66 32 67 36 68
REMARK SMILES IDX 39 69 33 70 34 71 37 72 35 73 61 74 62 75 70 76 63 77 64 78
REMARK SMILES IDX 68 79 71 80 65 81 66 82 69 83 67 84 46 85 47 86 55 87 48 88
REMARK SMILES IDX 49 89 53 90 56 91 50 92 51 93 54 94 52 95
REMARK H PARENT 13 6 9 12 9 13 17 29 76 48 44 59
REMARK Flexibility Score: inf
ROOT
ATOM      1  C   UNL A   1      37.984  19.718  24.998  1.00  0.00     0.042 C 
ENDROOT
BRANCH   1   2
ATOM      2  C   UNL A   1      37.300  20.860  24.259  1.00  0.00     0.118 C 
BRANCH   2   3
ATOM      3  N   UNL A   1      37.214  22.051  25.087  1.00  0.00    -0.351 N 
ATOM      4  C   UNL A   1      36.219  22.584  25.844  1.00  0.00     0.278 C 
ATOM      5  O   UNL A   1      36.468  23.679  26.370  1.00  0.00    -0.268 OA
ATOM      6  H   UNL A   1      38.045  22.579  25.103  1.00  0.00     0.163 HD
BRANCH   4   7
ATOM      7  C   UNL A   1      34.868  21.912  26.130  1.00  0.00     0.280 C 
ATOM      8  C   UNL A   1      33.636  22.564  25.456  1.00  0.00     0.093 C 
ATOM      9  C   UNL A   1      32.543  22.396  26.517  1.00  0.00     0.076 C 
ATOM     10  C   UNL A   1      33.294  22.384  27.832  1.00  0.00     0.262 C 
ATOM     11  N   UNL A   1      34.543  21.663  27.563  1.00  0.00    -0.335 N 
ATOM     12  H   UNL A   1      34.417  20.664  27.727  1.00  0.00     0.346 HD
ATOM     13  H   UNL A   1      35.294  21.982  28.173  1.00  0.00     0.346 HD
BRANCH   8  14
ATOM     14  C   UNL A   1      33.705  24.004  24.969  1.00  0.00    -0.031 A 
ATOM     15  C   UNL A   1      33.831  25.608  23.122  1.00  0.00     0.164 A 
ATOM     16  C   UNL A   1      33.857  24.285  23.605  1.00  0.00     0.055 A 
ATOM     17  C   UNL A   1      33.649  26.699  23.994  1.00  0.00     0.203 A 
ATOM     18  C   UNL A   1      33.511  26.422  25.367  1.00  0.00     0.164 A 
ATOM     19  C   UNL A   1      33.529  25.093  25.825  1.00  0.00     0.055 A 
BRANCH  15  20
ATOM     20  O   UNL A   1      33.825  25.770  21.759  1.00  0.00    -0.493 OA
ATOM     21  C   UNL A   1      32.527  25.578  21.196  1.00  0.00     0.278 C 
ENDBRANCH  15  20
BRANCH  17  22
ATOM     22  O   UNL A   1      33.543  28.011  23.627  1.00  0.00    -0.490 OA
ATOM     23  C   UNL A   1      32.290  28.572  23.283  1.00  0.00     0.278 C 
ENDBRANCH  17  22
BRANCH  18  24
ATOM     24  O   UNL A   1      33.344  27.298  26.413  1.00  0.00    -0.493 OA
ATOM     25  C   UNL A   1      32.035  27.592  26.869  1.00  0.00     0.278 C 
ENDBRANCH  18  24
ENDBRANCH   8  14
ENDBRANCH   4   7
ENDBRANCH   2   3
ENDBRANCH   1   2
BRANCH   1  26
ATOM     26  C   UNL A   1      39.158  20.182  25.854  1.00  0.00     0.118 C 
BRANCH  26  27
ATOM     27  N   UNL A   1      40.194  19.162  25.980  1.00  0.00    -0.352 N 
ATOM     28  C   UNL A   1      41.549  19.298  26.129  1.00  0.00     0.251 C 
ATOM     29  H   UNL A   1      39.869  18.233  25.954  1.00  0.00     0.163 HD
ATOM     30  O   UNL A   1      42.283  18.316  26.015  1.00  0.00    -0.269 OA
BRANCH  28  31
ATOM     31  C   UNL A   1      42.139  20.622  26.410  1.00  0.00     0.039 A 
ATOM     32  C   UNL A   1      42.571  21.412  25.342  1.00  0.00     0.014 A 
ATOM     33  C   UNL A   1      42.280  21.080  27.723  1.00  0.00     0.014 A 
ATOM     34  C   UNL A   1      43.080  22.688  25.587  1.00  0.00     0.010 A 
ATOM     35  C   UNL A   1      42.705  22.383  27.959  1.00  0.00     0.010 A 
ATOM     36  C   UNL A   1      43.113  23.199  26.895  1.00  0.00    -0.014 A 
BRANCH  36  37
ATOM     37  C   UNL A   1      43.568  24.585  27.170  1.00  0.00     0.031 A 
ATOM     38  C   UNL A   1      42.598  25.610  27.688  1.00  0.00     0.074 A 
ATOM     39  C   UNL A   1      44.837  24.937  26.884  1.00  0.00     0.049 A 
ATOM     40  N   UNL A   1      42.784  26.886  27.917  1.00  0.00    -0.248 NA
ATOM     41  C   UNL A   1      41.228  25.147  27.959  1.00  0.00     0.031 C 
ATOM     42  C   UNL A   1      45.856  24.045  26.330  1.00  0.00     0.029 A 
ATOM     43  N   UNL A   1      45.483  26.141  27.010  1.00  0.00    -0.354 N 
ATOM     44  C   UNL A   1      41.556  27.376  28.341  1.00  0.00     0.074 A 
ATOM     45  C   UNL A   1      40.618  26.277  28.284  1.00  0.00     0.031 C 
ATOM     46  C   UNL A   1      47.005  24.725  26.186  1.00  0.00     0.029 A 
ATOM     47  C   UNL A   1      46.792  26.110  26.596  1.00  0.00     0.049 A 
ATOM     48  H   UNL A   1      45.049  26.951  27.363  1.00  0.00     0.167 HD
ATOM     49  C   UNL A   1      41.246  28.625  28.763  1.00  0.00     0.037 A 
ATOM     50  C   UNL A   1      47.714  27.089  26.545  1.00  0.00     0.037 A 
ATOM     51  C   UNL A   1      42.189  29.709  28.838  1.00  0.00     0.049 A 
ATOM     52  C   UNL A   1      47.339  28.471  27.010  1.00  0.00     0.074 A 
ATOM     53  C   UNL A   1      41.990  30.996  29.309  1.00  0.00     0.029 A 
ATOM     54  N   UNL A   1      43.512  29.635  28.427  1.00  0.00    -0.354 N 
ATOM     55  N   UNL A   1      46.195  28.906  27.478  1.00  0.00    -0.248 NA
ATOM     56  C   UNL A   1      48.390  29.496  26.947  1.00  0.00     0.031 C 
ATOM     57  C   UNL A   1      43.177  31.714  29.132  1.00  0.00     0.029 A 
ATOM     58  C   UNL A   1      44.134  30.860  28.608  1.00  0.00     0.049 A 
ATOM     59  H   UNL A   1      43.945  28.831  28.060  1.00  0.00     0.167 HD
ATOM     60  C   UNL A   1      46.394  30.243  27.792  1.00  0.00     0.074 A 
ATOM     61  C   UNL A   1      47.775  30.544  27.476  1.00  0.00     0.031 C 
ATOM     62  C   UNL A   1      45.513  31.141  28.297  1.00  0.00     0.037 A 
BRANCH  49  63
ATOM     63  C   UNL A   1      39.826  28.886  29.180  1.00  0.00     0.064 A 
ATOM     64  C   UNL A   1      38.862  29.342  28.268  1.00  0.00     0.173 A 
ATOM     65  C   UNL A   1      39.414  28.642  30.500  1.00  0.00     0.173 A 
ATOM     66  F   UNL A   1      39.204  29.601  26.997  1.00  0.00    -0.203 F 
ATOM     67  C   UNL A   1      37.548  29.575  28.667  1.00  0.00     0.198 A 
ATOM     68  C   UNL A   1      38.092  28.844  30.887  1.00  0.00     0.198 A 
ATOM     69  F   UNL A   1      40.293  28.199  31.412  1.00  0.00    -0.203 F 
ATOM     70  F   UNL A   1      36.659  30.061  27.791  1.00  0.00    -0.200 F 
ATOM     71  C   UNL A   1      37.163  29.318  29.974  1.00  0.00     0.200 A 
ATOM     72  F   UNL A   1      37.717  28.581  32.147  1.00  0.00    -0.200 F 
ATOM     73  F   UNL A   1      35.897  29.534  30.356  1.00  0.00    -0.200 F 
ENDBRANCH  49  63
BRANCH  50  74
ATOM     74  C   UNL A   1      49.086  26.794  26.054  1.00  0.00     0.064 A 
ATOM     75  C   UNL A   1      50.075  26.320  26.927  1.00  0.00     0.173 A 
ATOM     76  C   UNL A   1      49.439  26.985  24.710  1.00  0.00     0.173 A 
ATOM     77  F   UNL A   1      49.792  26.141  28.226  1.00  0.00    -0.203 F 
ATOM     78  C   UNL A   1      51.371  26.069  26.479  1.00  0.00     0.198 A 
ATOM     79  C   UNL A   1      50.726  26.703  24.257  1.00  0.00     0.198 A 
ATOM     80  F   UNL A   1      48.529  27.432  23.833  1.00  0.00    -0.203 F 
ATOM     81  F   UNL A   1      52.310  25.664  27.345  1.00  0.00    -0.200 F 
ATOM     82  C   UNL A   1      51.694  26.255  25.144  1.00  0.00     0.200 A 
ATOM     83  F   UNL A   1      51.030  26.870  22.963  1.00  0.00    -0.200 F 
ATOM     84  F   UNL A   1      52.939  26.011  24.712  1.00  0.00    -0.200 F 
ENDBRANCH  50  74
BRANCH  62  85
ATOM     85  C   UNL A   1      46.024  32.525  28.578  1.00  0.00     0.064 A 
ATOM     86  C   UNL A   1      46.610  32.861  29.806  1.00  0.00     0.173 A 
ATOM     87  C   UNL A   1      45.959  33.517  27.587  1.00  0.00     0.173 A 
ATOM     88  F   UNL A   1      46.682  31.953  30.792  1.00  0.00    -0.203 F 
ATOM     89  C   UNL A   1      47.087  34.148  30.043  1.00  0.00     0.198 A 
ATOM     90  C   UNL A   1      46.469  34.792  27.815  1.00  0.00     0.198 A 
ATOM     91  F   UNL A   1      45.415  33.245  26.391  1.00  0.00    -0.203 F 
ATOM     92  F   UNL A   1      47.597  34.461  31.242  1.00  0.00    -0.200 F 
ATOM     93  C   UNL A   1      47.024  35.109  29.044  1.00  0.00     0.200 A 
ATOM     94  F   UNL A   1      46.421  35.715  26.843  1.00  0.00    -0.200 F 
ATOM     95  F   UNL A   1      47.492  36.344  29.271  1.00  0.00    -0.200 F 
ENDBRANCH  62  85
ENDBRANCH  36  37
ENDBRANCH  28  31
ENDBRANCH  26  27
ENDBRANCH   1  26
TORSDOF 14
ENDMDL
