MODEL 1
REMARK VINA RESULT:     -11.7      0.000      0.000
REMARK SMILES O=C(NCCCNC(=O)[C@@H]1CC[C@@H](CNC(=O)c2ccno2)O1)c1ccc(-c2c3nc(c(-c4c(F)c(F)c(F)c(F)c4F)c4ccc([nH]4)c(-c4c(F)c(F)c(F)c(F)c4F)c4nc(c(-c5c(F)c(F)c(F)c(F)c5F)c5ccc2[nH]5)C=C4)C=C3)cc1
REMARK SMILES IDX 5 1 4 2 3 3 1 4 2 5 24 7 25 8 86 9 26 10 85 11 27 12 28 13
REMARK SMILES IDX 29 14 79 15 30 16 84 17 78 18 80 19 31 20 83 21 77 22 76 23
REMARK SMILES IDX 32 25 64 26 44 27 63 28 45 29 48 30 62 31 81 32 46 33 47 34
REMARK SMILES IDX 61 36 82 37 49 38 33 39 34 40 42 41 35 42 36 43 40 44 43 45
REMARK SMILES IDX 37 46 38 47 41 48 39 49 65 50 66 51 74 52 67 53 68 54 72 55
REMARK SMILES IDX 75 56 69 57 70 58 73 59 71 60 50 61 51 62 59 63 52 64 53 65
REMARK SMILES IDX 57 66 60 67 54 68 55 69 58 70 56 71 6 72 7 73 8 74 9 76
REMARK SMILES IDX 10 77 11 78 23 79 12 80 13 81 14 82 15 83 16 84 17 86 18 87
REMARK SMILES IDX 19 88 22 89 20 90 21 91
REMARK H PARENT 3 6 80 24 48 35 7 75 15 85
REMARK Flexibility Score: inf
ROOT
ATOM      1  C   UNL A   1      34.644  33.655  28.160  1.00  0.00     0.042 C 
ENDROOT
BRANCH   1   2
ATOM      2  C   UNL A   1      34.896  32.451  29.064  1.00  0.00     0.118 C 
BRANCH   2   3
ATOM      3  N   UNL A   1      34.272  31.239  28.552  1.00  0.00    -0.352 N 
ATOM      4  O   UNL A   1      34.141  29.244  27.531  1.00  0.00    -0.269 OA
ATOM      5  C   UNL A   1      34.829  30.054  28.146  1.00  0.00     0.251 C 
ATOM      6  H   UNL A   1      33.290  31.278  28.486  1.00  0.00     0.163 HD
BRANCH   5   7
ATOM      7  C   UNL A   1      36.245  29.741  28.431  1.00  0.00     0.039 A 
ATOM      8  C   UNL A   1      36.636  29.201  29.660  1.00  0.00     0.014 A 
ATOM      9  C   UNL A   1      37.191  29.924  27.417  1.00  0.00     0.014 A 
ATOM     10  C   UNL A   1      37.983  28.951  29.913  1.00  0.00     0.010 A 
ATOM     11  C   UNL A   1      38.532  29.611  27.649  1.00  0.00     0.010 A 
ATOM     12  C   UNL A   1      38.941  29.144  28.906  1.00  0.00    -0.014 A 
BRANCH  12  13
ATOM     13  C   UNL A   1      40.363  28.811  29.164  1.00  0.00     0.031 A 
ATOM     14  C   UNL A   1      41.245  29.753  29.932  1.00  0.00     0.074 A 
ATOM     15  C   UNL A   1      40.858  27.651  28.697  1.00  0.00     0.049 A 
ATOM     16  N   UNL A   1      42.515  29.640  30.228  1.00  0.00    -0.248 NA
ATOM     17  C   UNL A   1      40.620  30.991  30.425  1.00  0.00     0.031 C 
ATOM     18  C   UNL A   1      40.101  26.662  27.926  1.00  0.00     0.029 A 
ATOM     19  N   UNL A   1      42.111  27.105  28.801  1.00  0.00    -0.354 N 
ATOM     20  C   UNL A   1      42.847  30.795  30.922  1.00  0.00     0.074 A 
ATOM     21  C   UNL A   1      41.650  31.607  30.988  1.00  0.00     0.031 C 
ATOM     22  C   UNL A   1      40.898  25.620  27.649  1.00  0.00     0.029 A 
ATOM     23  C   UNL A   1      42.230  25.886  28.180  1.00  0.00     0.049 A 
ATOM     24  H   UNL A   1      42.854  27.544  29.275  1.00  0.00     0.167 HD
ATOM     25  C   UNL A   1      44.041  31.141  31.460  1.00  0.00     0.037 A 
ATOM     26  C   UNL A   1      43.299  25.079  28.043  1.00  0.00     0.037 A 
ATOM     27  C   UNL A   1      45.224  30.322  31.409  1.00  0.00     0.049 A 
ATOM     28  C   UNL A   1      44.611  25.489  28.643  1.00  0.00     0.074 A 
ATOM     29  C   UNL A   1      46.470  30.568  31.960  1.00  0.00     0.029 A 
ATOM     30  N   UNL A   1      45.307  29.095  30.766  1.00  0.00    -0.354 N 
ATOM     31  N   UNL A   1      44.905  26.569  29.323  1.00  0.00    -0.248 NA
ATOM     32  C   UNL A   1      45.741  24.570  28.454  1.00  0.00     0.031 C 
ATOM     33  C   UNL A   1      47.316  29.506  31.623  1.00  0.00     0.029 A 
ATOM     34  C   UNL A   1      46.588  28.580  30.893  1.00  0.00     0.049 A 
ATOM     35  H   UNL A   1      44.566  28.655  30.291  1.00  0.00     0.167 HD
ATOM     36  C   UNL A   1      46.247  26.456  29.656  1.00  0.00     0.074 A 
ATOM     37  C   UNL A   1      46.707  25.194  29.114  1.00  0.00     0.031 C 
ATOM     38  C   UNL A   1      47.026  27.322  30.348  1.00  0.00     0.037 A 
BRANCH  25  39
ATOM     39  C   UNL A   1      44.132  32.474  32.140  1.00  0.00     0.064 A 
ATOM     40  C   UNL A   1      44.488  33.634  31.436  1.00  0.00     0.173 A 
ATOM     41  C   UNL A   1      43.826  32.598  33.502  1.00  0.00     0.173 A 
ATOM     42  F   UNL A   1      44.804  33.564  30.134  1.00  0.00    -0.203 F 
ATOM     43  C   UNL A   1      44.557  34.867  32.079  1.00  0.00     0.198 A 
ATOM     44  C   UNL A   1      43.874  33.837  34.137  1.00  0.00     0.198 A 
ATOM     45  F   UNL A   1      43.476  31.519  34.219  1.00  0.00    -0.203 F 
ATOM     46  F   UNL A   1      44.939  35.956  31.397  1.00  0.00    -0.200 F 
ATOM     47  C   UNL A   1      44.245  34.968  33.427  1.00  0.00     0.200 A 
ATOM     48  F   UNL A   1      43.567  33.935  35.438  1.00  0.00    -0.200 F 
ATOM     49  F   UNL A   1      44.311  36.157  34.043  1.00  0.00    -0.200 F 
ENDBRANCH  25  39
BRANCH  26  50
ATOM     50  C   UNL A   1      43.153  23.800  27.306  1.00  0.00     0.064 A 
ATOM     51  C   UNL A   1      43.538  23.697  25.963  1.00  0.00     0.173 A 
ATOM     52  C   UNL A   1      42.662  22.649  27.939  1.00  0.00     0.173 A 
ATOM     53  F   UNL A   1      43.996  24.776  25.314  1.00  0.00    -0.203 F 
ATOM     54  C   UNL A   1      43.436  22.488  25.279  1.00  0.00     0.198 A 
ATOM     55  C   UNL A   1      42.580  21.437  27.260  1.00  0.00     0.198 A 
ATOM     56  F   UNL A   1      42.285  22.701  29.225  1.00  0.00    -0.203 F 
ATOM     57  F   UNL A   1      43.789  22.419  23.988  1.00  0.00    -0.200 F 
ATOM     58  C   UNL A   1      42.964  21.357  25.930  1.00  0.00     0.200 A 
ATOM     59  F   UNL A   1      42.136  20.343  27.897  1.00  0.00    -0.200 F 
ATOM     60  F   UNL A   1      42.878  20.192  25.274  1.00  0.00    -0.200 F 
ENDBRANCH  26  50
BRANCH  38  61
ATOM     61  C   UNL A   1      48.452  26.922  30.575  1.00  0.00     0.064 A 
ATOM     62  C   UNL A   1      49.475  27.343  29.713  1.00  0.00     0.173 A 
ATOM     63  C   UNL A   1      48.803  26.142  31.686  1.00  0.00     0.173 A 
ATOM     64  F   UNL A   1      49.185  28.077  28.629  1.00  0.00    -0.203 F 
ATOM     65  C   UNL A   1      50.799  26.983  29.948  1.00  0.00     0.198 A 
ATOM     66  C   UNL A   1      50.130  25.802  31.930  1.00  0.00     0.198 A 
ATOM     67  F   UNL A   1      47.859  25.719  32.540  1.00  0.00    -0.203 F 
ATOM     68  F   UNL A   1      51.757  27.366  29.095  1.00  0.00    -0.200 F 
ATOM     69  C   UNL A   1      51.126  26.219  31.059  1.00  0.00     0.200 A 
ATOM     70  F   UNL A   1      50.445  25.068  33.007  1.00  0.00    -0.200 F 
ATOM     71  F   UNL A   1      52.402  25.876  31.286  1.00  0.00    -0.200 F 
ENDBRANCH  38  61
ENDBRANCH  12  13
ENDBRANCH   5   7
ENDBRANCH   2   3
ENDBRANCH   1   2
BRANCH   1  72
ATOM     72  C   UNL A   1      33.302  34.334  28.408  1.00  0.00     0.117 C 
BRANCH  72  73
ATOM     73  N   UNL A   1      33.415  35.781  28.390  1.00  0.00    -0.354 N 
ATOM     74  C   UNL A   1      33.187  36.679  29.394  1.00  0.00     0.249 C 
ATOM     75  H   UNL A   1      33.697  36.170  27.530  1.00  0.00     0.163 HD
ATOM     76  O   UNL A   1      33.294  37.878  29.135  1.00  0.00    -0.272 OA
BRANCH  74  77
ATOM     77  C   UNL A   1      32.775  36.161  30.782  1.00  0.00     0.207 C 
ATOM     78  C   UNL A   1      33.287  37.092  31.875  1.00  0.00     0.045 C 
ATOM     79  O   UNL A   1      33.299  34.857  31.058  1.00  0.00    -0.363 OA
ATOM     80  C   UNL A   1      33.719  36.138  32.965  1.00  0.00     0.037 C 
ATOM     81  C   UNL A   1      34.218  34.953  32.161  1.00  0.00     0.138 C 
BRANCH  81  82
ATOM     82  C   UNL A   1      34.220  33.631  32.940  1.00  0.00     0.148 C 
BRANCH  82  83
ATOM     83  N   UNL A   1      34.687  33.850  34.301  1.00  0.00    -0.347 N 
ATOM     84  C   UNL A   1      35.930  33.780  34.871  1.00  0.00     0.289 C 
ATOM     85  H   UNL A   1      33.974  34.096  34.933  1.00  0.00     0.164 HD
ATOM     86  O   UNL A   1      35.980  33.777  36.104  1.00  0.00    -0.266 OA
BRANCH  84  87
ATOM     87  C   UNL A   1      37.101  33.721  34.040  1.00  0.00     0.224 A 
ATOM     88  C   UNL A   1      37.715  32.732  33.303  1.00  0.00     0.079 A 
ATOM     89  O   UNL A   1      37.784  34.889  33.847  1.00  0.00    -0.351 OA
ATOM     90  C   UNL A   1      38.810  33.372  32.700  1.00  0.00     0.159 A 
ATOM     91  N   UNL A   1      38.877  34.664  33.025  1.00  0.00    -0.088 NA
ENDBRANCH  84  87
ENDBRANCH  82  83
ENDBRANCH  81  82
ENDBRANCH  74  77
ENDBRANCH  72  73
ENDBRANCH   1  72
TORSDOF 13
ENDMDL
MODEL 2
REMARK VINA RESULT:     -11.7      1.763      2.659
REMARK SMILES O=C(NCCCNC(=O)[C@@H]1CC[C@@H](CNC(=O)c2ccno2)O1)c1ccc(-c2c3nc(c(-c4c(F)c(F)c(F)c(F)c4F)c4ccc([nH]4)c(-c4c(F)c(F)c(F)c(F)c4F)c4nc(c(-c5c(F)c(F)c(F)c(F)c5F)c5ccc2[nH]5)C=C4)C=C3)cc1
REMARK SMILES IDX 5 1 4 2 3 3 1 4 2 5 24 7 25 8 86 9 26 10 85 11 27 12 28 13
REMARK SMILES IDX 29 14 79 15 30 16 84 17 78 18 80 19 31 20 83 21 77 22 76 23
REMARK SMILES IDX 32 25 64 26 44 27 63 28 45 29 48 30 62 31 81 32 46 33 47 34
REMARK SMILES IDX 61 36 82 37 49 38 33 39 34 40 42 41 35 42 36 43 40 44 43 45
REMARK SMILES IDX 37 46 38 47 41 48 39 49 65 50 66 51 74 52 67 53 68 54 72 55
REMARK SMILES IDX 75 56 69 57 70 58 73 59 71 60 50 61 51 62 59 63 52 64 53 65
REMARK SMILES IDX 57 66 60 67 54 68 55 69 58 70 56 71 6 72 7 73 8 74 9 76
REMARK SMILES IDX 10 77 11 78 23 79 12 80 13 81 14 82 15 83 16 84 17 86 18 87
REMARK SMILES IDX 19 88 22 89 20 90 21 91
REMARK H PARENT 3 6 80 24 48 35 7 75 15 85
REMARK Flexibility Score: inf
ROOT
ATOM      1  C   UNL A   1      33.560  34.006  28.148  1.00  0.00     0.042 C 
ENDROOT
BRANCH   1   2
ATOM      2  C   UNL A   1      34.494  32.807  28.006  1.00  0.00     0.118 C 
BRANCH   2   3
ATOM      3  N   UNL A   1      33.769  31.572  27.749  1.00  0.00    -0.352 N 
ATOM      4  O   UNL A   1      33.471  29.416  27.197  1.00  0.00    -0.269 OA
ATOM      5  C   UNL A   1      34.217  30.280  27.648  1.00  0.00     0.251 C 
ATOM      6  H   UNL A   1      32.798  31.683  27.626  1.00  0.00     0.163 HD
BRANCH   5   7
ATOM      7  C   UNL A   1      35.586  29.915  28.069  1.00  0.00     0.039 A 
ATOM      8  C   UNL A   1      36.679  30.090  27.215  1.00  0.00     0.014 A 
ATOM      9  C   UNL A   1      35.788  29.458  29.376  1.00  0.00     0.014 A 
ATOM     10  C   UNL A   1      37.953  29.703  27.627  1.00  0.00     0.010 A 
ATOM     11  C   UNL A   1      37.074  29.132  29.810  1.00  0.00     0.010 A 
ATOM     12  C   UNL A   1      38.163  29.230  28.931  1.00  0.00    -0.014 A 
BRANCH  12  13
ATOM     13  C   UNL A   1      39.533  28.884  29.381  1.00  0.00     0.031 A 
ATOM     14  C   UNL A   1      40.278  29.778  30.330  1.00  0.00     0.074 A 
ATOM     15  C   UNL A   1      40.106  27.756  28.924  1.00  0.00     0.049 A 
ATOM     16  N   UNL A   1      41.490  29.648  30.808  1.00  0.00    -0.248 NA
ATOM     17  C   UNL A   1      39.572  30.981  30.798  1.00  0.00     0.031 C 
ATOM     18  C   UNL A   1      39.485  26.816  27.988  1.00  0.00     0.029 A 
ATOM     19  N   UNL A   1      41.335  27.206  29.183  1.00  0.00    -0.354 N 
ATOM     20  C   UNL A   1      41.701  30.758  31.614  1.00  0.00     0.074 A 
ATOM     21  C   UNL A   1      40.499  31.562  31.547  1.00  0.00     0.031 C 
ATOM     22  C   UNL A   1      40.326  25.795  27.771  1.00  0.00     0.029 A 
ATOM     23  C   UNL A   1      41.560  26.029  28.514  1.00  0.00     0.049 A 
ATOM     24  H   UNL A   1      41.992  27.616  29.790  1.00  0.00     0.167 HD
ATOM     25  C   UNL A   1      42.795  31.071  32.347  1.00  0.00     0.037 A 
ATOM     26  C   UNL A   1      42.645  25.234  28.490  1.00  0.00     0.037 A 
ATOM     27  C   UNL A   1      43.982  30.259  32.426  1.00  0.00     0.049 A 
ATOM     28  C   UNL A   1      43.848  25.607  29.307  1.00  0.00     0.074 A 
ATOM     29  C   UNL A   1      45.127  30.472  33.173  1.00  0.00     0.029 A 
ATOM     30  N   UNL A   1      44.175  29.075  31.729  1.00  0.00    -0.354 N 
ATOM     31  N   UNL A   1      44.024  26.644  30.089  1.00  0.00    -0.248 NA
ATOM     32  C   UNL A   1      45.003  24.704  29.234  1.00  0.00     0.031 C 
ATOM     33  C   UNL A   1      46.026  29.434  32.904  1.00  0.00     0.029 A 
ATOM     34  C   UNL A   1      45.427  28.555  32.016  1.00  0.00     0.049 A 
ATOM     35  H   UNL A   1      43.519  28.664  31.120  1.00  0.00     0.167 HD
ATOM     36  C   UNL A   1      45.301  26.512  30.613  1.00  0.00     0.074 A 
ATOM     37  C   UNL A   1      45.851  25.287  30.071  1.00  0.00     0.031 C 
ATOM     38  C   UNL A   1      45.957  27.334  31.468  1.00  0.00     0.037 A 
BRANCH  25  39
ATOM     39  C   UNL A   1      42.768  32.359  33.113  1.00  0.00     0.064 A 
ATOM     40  C   UNL A   1      43.169  33.570  32.529  1.00  0.00     0.173 A 
ATOM     41  C   UNL A   1      42.302  32.389  34.436  1.00  0.00     0.173 A 
ATOM     42  F   UNL A   1      43.635  33.591  31.271  1.00  0.00    -0.203 F 
ATOM     43  C   UNL A   1      43.126  34.760  33.250  1.00  0.00     0.198 A 
ATOM     44  C   UNL A   1      42.240  33.585  35.147  1.00  0.00     0.198 A 
ATOM     45  F   UNL A   1      41.905  31.259  35.039  1.00  0.00    -0.203 F 
ATOM     46  F   UNL A   1      43.553  35.899  32.686  1.00  0.00    -0.200 F 
ATOM     47  C   UNL A   1      42.658  34.768  34.556  1.00  0.00     0.200 A 
ATOM     48  F   UNL A   1      41.782  33.592  36.406  1.00  0.00    -0.200 F 
ATOM     49  F   UNL A   1      42.617  35.915  35.247  1.00  0.00    -0.200 F 
ENDBRANCH  25  39
BRANCH  26  50
ATOM     50  C   UNL A   1      42.627  24.003  27.663  1.00  0.00     0.064 A 
ATOM     51  C   UNL A   1      43.005  24.039  26.314  1.00  0.00     0.173 A 
ATOM     52  C   UNL A   1      42.268  22.764  28.212  1.00  0.00     0.173 A 
ATOM     53  F   UNL A   1      43.339  25.205  25.743  1.00  0.00    -0.203 F 
ATOM     54  C   UNL A   1      43.023  22.879  25.544  1.00  0.00     0.198 A 
ATOM     55  C   UNL A   1      42.307  21.602  27.447  1.00  0.00     0.198 A 
ATOM     56  F   UNL A   1      41.903  22.682  29.500  1.00  0.00    -0.203 F 
ATOM     57  F   UNL A   1      43.366  22.941  24.250  1.00  0.00    -0.200 F 
ATOM     58  C   UNL A   1      42.681  21.660  26.113  1.00  0.00     0.200 A 
ATOM     59  F   UNL A   1      41.989  20.425  28.004  1.00  0.00    -0.200 F 
ATOM     60  F   UNL A   1      42.711  20.542  25.374  1.00  0.00    -0.200 F 
ENDBRANCH  26  50
BRANCH  38  61
ATOM     61  C   UNL A   1      47.336  26.923  31.883  1.00  0.00     0.064 A 
ATOM     62  C   UNL A   1      47.546  26.059  32.967  1.00  0.00     0.173 A 
ATOM     63  C   UNL A   1      48.456  27.369  31.166  1.00  0.00     0.173 A 
ATOM     64  F   UNL A   1      46.507  25.620  33.691  1.00  0.00    -0.203 F 
ATOM     65  C   UNL A   1      48.833  25.668  33.328  1.00  0.00     0.198 A 
ATOM     66  C   UNL A   1      49.739  26.960  31.517  1.00  0.00     0.198 A 
ATOM     67  F   UNL A   1      48.304  28.195  30.120  1.00  0.00    -0.203 F 
ATOM     68  F   UNL A   1      49.015  24.869  34.388  1.00  0.00    -0.200 F 
ATOM     69  C   UNL A   1      49.926  26.113  32.600  1.00  0.00     0.200 A 
ATOM     70  F   UNL A   1      50.794  27.386  30.809  1.00  0.00    -0.200 F 
ATOM     71  F   UNL A   1      51.164  25.733  32.947  1.00  0.00    -0.200 F 
ENDBRANCH  38  61
ENDBRANCH  12  13
ENDBRANCH   5   7
ENDBRANCH   2   3
ENDBRANCH   1   2
BRANCH   1  72
ATOM     72  C   UNL A   1      34.116  35.109  29.041  1.00  0.00     0.117 C 
BRANCH  72  73
ATOM     73  N   UNL A   1      33.509  35.097  30.360  1.00  0.00    -0.354 N 
ATOM     74  C   UNL A   1      33.968  34.534  31.517  1.00  0.00     0.249 C 
ATOM     75  H   UNL A   1      32.644  35.560  30.430  1.00  0.00     0.163 HD
ATOM     76  O   UNL A   1      33.253  34.601  32.518  1.00  0.00    -0.272 OA
BRANCH  74  77
ATOM     77  C   UNL A   1      35.327  33.816  31.513  1.00  0.00     0.207 C 
ATOM     78  C   UNL A   1      35.136  32.304  31.525  1.00  0.00     0.045 C 
ATOM     79  O   UNL A   1      36.126  34.149  32.654  1.00  0.00    -0.363 OA
ATOM     80  C   UNL A   1      36.230  31.825  32.451  1.00  0.00     0.037 C 
ATOM     81  C   UNL A   1      36.314  32.964  33.449  1.00  0.00     0.138 C 
BRANCH  81  82
ATOM     82  C   UNL A   1      37.659  33.049  34.182  1.00  0.00     0.148 C 
BRANCH  82  83
ATOM     83  N   UNL A   1      38.229  31.719  34.344  1.00  0.00    -0.347 N 
ATOM     84  C   UNL A   1      38.555  30.985  35.452  1.00  0.00     0.289 C 
ATOM     85  H   UNL A   1      38.415  31.259  33.493  1.00  0.00     0.164 HD
ATOM     86  O   UNL A   1      39.253  29.984  35.274  1.00  0.00    -0.266 OA
BRANCH  84  87
ATOM     87  C   UNL A   1      38.082  31.388  36.748  1.00  0.00     0.224 A 
ATOM     88  C   UNL A   1      38.097  32.569  37.458  1.00  0.00     0.079 A 
ATOM     89  O   UNL A   1      37.404  30.454  37.480  1.00  0.00    -0.351 OA
ATOM     90  C   UNL A   1      37.427  32.267  38.655  1.00  0.00     0.159 A 
ATOM     91  N   UNL A   1      37.015  30.999  38.693  1.00  0.00    -0.088 NA
ENDBRANCH  84  87
ENDBRANCH  82  83
ENDBRANCH  81  82
ENDBRANCH  74  77
ENDBRANCH  72  73
ENDBRANCH   1  72
TORSDOF 13
ENDMDL
MODEL 3
REMARK VINA RESULT:     -11.7      0.962      2.898
REMARK SMILES O=C(NCCCNC(=O)[C@@H]1CC[C@@H](CNC(=O)c2ccno2)O1)c1ccc(-c2c3nc(c(-c4c(F)c(F)c(F)c(F)c4F)c4ccc([nH]4)c(-c4c(F)c(F)c(F)c(F)c4F)c4nc(c(-c5c(F)c(F)c(F)c(F)c5F)c5ccc2[nH]5)C=C4)C=C3)cc1
REMARK SMILES IDX 5 1 4 2 3 3 1 4 2 5 24 7 25 8 86 9 26 10 85 11 27 12 28 13
REMARK SMILES IDX 29 14 79 15 30 16 84 17 78 18 80 19 31 20 83 21 77 22 76 23
REMARK SMILES IDX 32 25 64 26 44 27 63 28 45 29 48 30 62 31 81 32 46 33 47 34
REMARK SMILES IDX 61 36 82 37 49 38 33 39 34 40 42 41 35 42 36 43 40 44 43 45
REMARK SMILES IDX 37 46 38 47 41 48 39 49 65 50 66 51 74 52 67 53 68 54 72 55
REMARK SMILES IDX 75 56 69 57 70 58 73 59 71 60 50 61 51 62 59 63 52 64 53 65
REMARK SMILES IDX 57 66 60 67 54 68 55 69 58 70 56 71 6 72 7 73 8 74 9 76
REMARK SMILES IDX 10 77 11 78 23 79 12 80 13 81 14 82 15 83 16 84 17 86 18 87
REMARK SMILES IDX 19 88 22 89 20 90 21 91
REMARK H PARENT 3 6 80 24 48 35 7 75 15 85
REMARK Flexibility Score: inf
ROOT
ATOM      1  C   UNL A   1      35.740  33.222  29.122  1.00  0.00     0.042 C 
ENDROOT
BRANCH   1   2
ATOM      2  C   UNL A   1      34.775  32.212  29.736  1.00  0.00     0.118 C 
BRANCH   2   3
ATOM      3  N   UNL A   1      34.241  31.288  28.746  1.00  0.00    -0.352 N 
ATOM      4  O   UNL A   1      34.268  29.834  27.035  1.00  0.00    -0.269 OA
ATOM      5  C   UNL A   1      34.872  30.348  27.973  1.00  0.00     0.251 C 
ATOM      6  H   UNL A   1      33.267  31.349  28.609  1.00  0.00     0.163 HD
BRANCH   5   7
ATOM      7  C   UNL A   1      36.268  29.949  28.248  1.00  0.00     0.039 A 
ATOM      8  C   UNL A   1      37.297  30.238  27.348  1.00  0.00     0.014 A 
ATOM      9  C   UNL A   1      36.563  29.337  29.472  1.00  0.00     0.014 A 
ATOM     10  C   UNL A   1      38.598  29.818  27.619  1.00  0.00     0.010 A 
ATOM     11  C   UNL A   1      37.878  28.975  29.772  1.00  0.00     0.010 A 
ATOM     12  C   UNL A   1      38.901  29.192  28.837  1.00  0.00    -0.014 A 
BRANCH  12  13
ATOM     13  C   UNL A   1      40.300  28.808  29.144  1.00  0.00     0.031 A 
ATOM     14  C   UNL A   1      41.185  29.714  29.950  1.00  0.00     0.074 A 
ATOM     15  C   UNL A   1      40.772  27.635  28.685  1.00  0.00     0.049 A 
ATOM     16  N   UNL A   1      42.439  29.555  30.291  1.00  0.00    -0.248 NA
ATOM     17  C   UNL A   1      40.586  30.969  30.431  1.00  0.00     0.031 C 
ATOM     18  C   UNL A   1      40.010  26.678  27.880  1.00  0.00     0.029 A 
ATOM     19  N   UNL A   1      42.001  27.045  28.830  1.00  0.00    -0.354 N 
ATOM     20  C   UNL A   1      42.786  30.693  31.006  1.00  0.00     0.074 A 
ATOM     21  C   UNL A   1      41.615  31.546  31.035  1.00  0.00     0.031 C 
ATOM     22  C   UNL A   1      40.780  25.611  27.623  1.00  0.00     0.029 A 
ATOM     23  C   UNL A   1      42.101  25.827  28.204  1.00  0.00     0.049 A 
ATOM     24  H   UNL A   1      42.741  27.455  29.334  1.00  0.00     0.167 HD
ATOM     25  C   UNL A   1      43.970  30.994  31.590  1.00  0.00     0.037 A 
ATOM     26  C   UNL A   1      43.145  24.985  28.099  1.00  0.00     0.037 A 
ATOM     27  C   UNL A   1      45.125  30.135  31.575  1.00  0.00     0.049 A 
ATOM     28  C   UNL A   1      44.449  25.345  28.750  1.00  0.00     0.074 A 
ATOM     29  C   UNL A   1      46.358  30.334  32.172  1.00  0.00     0.029 A 
ATOM     30  N   UNL A   1      45.190  28.911  30.926  1.00  0.00    -0.354 N 
ATOM     31  N   UNL A   1      44.755  26.410  29.448  1.00  0.00    -0.248 NA
ATOM     32  C   UNL A   1      45.553  24.389  28.594  1.00  0.00     0.031 C 
ATOM     33  C   UNL A   1      47.179  29.246  31.858  1.00  0.00     0.029 A 
ATOM     34  C   UNL A   1      46.447  28.351  31.094  1.00  0.00     0.049 A 
ATOM     35  H   UNL A   1      44.452  28.500  30.420  1.00  0.00     0.167 HD
ATOM     36  C   UNL A   1      46.079  26.249  29.828  1.00  0.00     0.074 A 
ATOM     37  C   UNL A   1      46.514  24.975  29.294  1.00  0.00     0.031 C 
ATOM     38  C   UNL A   1      46.861  27.082  30.555  1.00  0.00     0.037 A 
BRANCH  25  39
ATOM     39  C   UNL A   1      44.082  32.318  32.283  1.00  0.00     0.064 A 
ATOM     40  C   UNL A   1      44.510  33.469  31.604  1.00  0.00     0.173 A 
ATOM     41  C   UNL A   1      43.724  32.446  33.632  1.00  0.00     0.173 A 
ATOM     42  F   UNL A   1      44.877  33.395  30.315  1.00  0.00    -0.203 F 
ATOM     43  C   UNL A   1      44.597  34.694  32.259  1.00  0.00     0.198 A 
ATOM     44  C   UNL A   1      43.791  33.678  34.278  1.00  0.00     0.198 A 
ATOM     45  F   UNL A   1      43.305  31.376  34.326  1.00  0.00    -0.203 F 
ATOM     46  F   UNL A   1      45.048  35.772  31.601  1.00  0.00    -0.200 F 
ATOM     47  C   UNL A   1      44.233  34.799  33.593  1.00  0.00     0.200 A 
ATOM     48  F   UNL A   1      43.434  33.779  35.566  1.00  0.00    -0.200 F 
ATOM     49  F   UNL A   1      44.317  35.980  34.220  1.00  0.00    -0.200 F 
ENDBRANCH  25  39
BRANCH  26  50
ATOM     50  C   UNL A   1      42.983  23.717  27.347  1.00  0.00     0.064 A 
ATOM     51  C   UNL A   1      43.398  23.614  26.013  1.00  0.00     0.173 A 
ATOM     52  C   UNL A   1      42.445  22.574  27.957  1.00  0.00     0.173 A 
ATOM     53  F   UNL A   1      43.901  24.686  25.385  1.00  0.00    -0.203 F 
ATOM     54  C   UNL A   1      43.279  22.415  25.316  1.00  0.00     0.198 A 
ATOM     55  C   UNL A   1      42.347  21.371  27.266  1.00  0.00     0.198 A 
ATOM     56  F   UNL A   1      42.038  22.625  29.234  1.00  0.00    -0.203 F 
ATOM     57  F   UNL A   1      43.661  22.348  24.033  1.00  0.00    -0.200 F 
ATOM     58  C   UNL A   1      42.761  21.292  25.945  1.00  0.00     0.200 A 
ATOM     59  F   UNL A   1      41.858  20.284  27.881  1.00  0.00    -0.200 F 
ATOM     60  F   UNL A   1      42.659  20.135  25.276  1.00  0.00    -0.200 F 
ENDBRANCH  26  50
BRANCH  38  61
ATOM     61  C   UNL A   1      48.263  26.632  30.830  1.00  0.00     0.064 A 
ATOM     62  C   UNL A   1      48.568  25.818  31.931  1.00  0.00     0.173 A 
ATOM     63  C   UNL A   1      49.306  26.987  29.963  1.00  0.00     0.173 A 
ATOM     64  F   UNL A   1      47.605  25.466  32.796  1.00  0.00    -0.203 F 
ATOM     65  C   UNL A   1      49.872  25.389  32.162  1.00  0.00     0.198 A 
ATOM     66  C   UNL A   1      50.605  26.539  30.184  1.00  0.00     0.198 A 
ATOM     67  F   UNL A   1      49.063  27.762  28.894  1.00  0.00    -0.203 F 
ATOM     68  F   UNL A   1      50.148  24.641  33.238  1.00  0.00    -0.200 F 
ATOM     69  C   UNL A   1      50.887  25.744  31.286  1.00  0.00     0.200 A 
ATOM     70  F   UNL A   1      51.584  26.878  29.335  1.00  0.00    -0.200 F 
ATOM     71  F   UNL A   1      52.142  25.327  31.508  1.00  0.00    -0.200 F 
ENDBRANCH  38  61
ENDBRANCH  12  13
ENDBRANCH   5   7
ENDBRANCH   2   3
ENDBRANCH   1   2
BRANCH   1  72
ATOM     72  C   UNL A   1      36.979  33.476  29.972  1.00  0.00     0.117 C 
BRANCH  72  73
ATOM     73  N   UNL A   1      37.324  32.325  30.786  1.00  0.00    -0.354 N 
ATOM     74  C   UNL A   1      37.530  32.250  32.135  1.00  0.00     0.249 C 
ATOM     75  H   UNL A   1      37.424  31.477  30.296  1.00  0.00     0.163 HD
ATOM     76  O   UNL A   1      37.870  31.167  32.610  1.00  0.00    -0.272 OA
BRANCH  74  77
ATOM     77  C   UNL A   1      37.364  33.517  32.989  1.00  0.00     0.207 C 
ATOM     78  C   UNL A   1      36.916  33.158  34.401  1.00  0.00     0.045 C 
ATOM     79  O   UNL A   1      36.387  34.416  32.452  1.00  0.00    -0.363 OA
ATOM     80  C   UNL A   1      35.920  34.246  34.734  1.00  0.00     0.037 C 
ATOM     81  C   UNL A   1      35.292  34.518  33.381  1.00  0.00     0.138 C 
BRANCH  81  82
ATOM     82  C   UNL A   1      34.648  35.905  33.262  1.00  0.00     0.148 C 
BRANCH  82  83
ATOM     83  N   UNL A   1      33.197  35.786  33.237  1.00  0.00    -0.347 N 
ATOM     84  C   UNL A   1      32.269  36.046  32.265  1.00  0.00     0.289 C 
ATOM     85  H   UNL A   1      32.810  35.454  34.079  1.00  0.00     0.164 HD
ATOM     86  O   UNL A   1      31.087  36.084  32.618  1.00  0.00    -0.266 OA
BRANCH  84  87
ATOM     87  C   UNL A   1      32.687  36.253  30.906  1.00  0.00     0.224 A 
ATOM     88  C   UNL A   1      32.898  35.427  29.824  1.00  0.00     0.079 A 
ATOM     89  O   UNL A   1      32.889  37.545  30.508  1.00  0.00    -0.351 OA
ATOM     90  C   UNL A   1      33.268  36.297  28.785  1.00  0.00     0.159 A 
ATOM     91  N   UNL A   1      33.282  37.571  29.179  1.00  0.00    -0.088 NA
ENDBRANCH  84  87
ENDBRANCH  82  83
ENDBRANCH  81  82
ENDBRANCH  74  77
ENDBRANCH  72  73
ENDBRANCH   1  72
TORSDOF 13
ENDMDL
