MODEL 1
REMARK VINA RESULT:     -11.4      0.000      0.000
REMARK SMILES O=C(COC1CC[NH+](Cc2nccs2)CC1)NCCCNC(=O)c1ccc(-c2c3nc(c(-c4c(F)c(F)c(F)c(F)c4F)c4ccc([nH]4)c(-c4c(F)c(F)c(F)c(F)c4F)c4nc(c(-c5c(F)c(F)c(F)c(F)c5F)c5ccc2[nH]5)C=C4)C=C3)cc1
REMARK SMILES IDX 18 1 17 2 1 3 2 4 3 6 4 7 5 8 6 9 16 10 7 11 15 12 8 13 9 15
REMARK SMILES IDX 10 16 11 17 14 18 12 19 13 20 19 21 20 22 21 23 22 24 23 26
REMARK SMILES IDX 24 27 25 28 86 29 26 30 85 31 27 32 28 33 29 34 79 35 30 36
REMARK SMILES IDX 84 37 78 38 80 39 31 40 83 41 77 42 76 43 32 45 64 46 44 47
REMARK SMILES IDX 63 48 45 49 48 50 62 51 81 52 46 53 47 54 61 56 82 57 49 58
REMARK SMILES IDX 33 59 34 60 42 61 35 62 36 63 40 64 43 65 37 66 38 67 41 68
REMARK SMILES IDX 39 69 65 70 66 71 74 72 67 73 68 74 72 75 75 76 69 77 70 78
REMARK SMILES IDX 73 79 71 80 50 81 51 82 59 83 52 84 53 85 57 86 60 87 54 88
REMARK SMILES IDX 55 89 58 90 56 91
REMARK H PARENT 17 5 8 14 21 25 80 44 48 55
REMARK Flexibility Score: inf
ROOT
ATOM      1  C   UNL A   1      31.449  30.676  26.846  1.00  0.00     0.117 C 
ENDROOT
BRANCH   1   2
ATOM      2  N   UNL A   1      32.198  29.961  25.834  1.00  0.00    -0.354 N 
ATOM      3  O   UNL A   1      33.991  29.396  27.167  1.00  0.00    -0.272 OA
ATOM      4  C   UNL A   1      33.347  29.254  26.132  1.00  0.00     0.246 C 
ATOM      5  H   UNL A   1      31.878  29.979  24.903  1.00  0.00     0.163 HD
BRANCH   4   6
ATOM      6  C   UNL A   1      33.724  28.240  25.050  1.00  0.00     0.260 C 
BRANCH   6   7
ATOM      7  O   UNL A   1      32.689  27.308  24.737  1.00  0.00    -0.368 OA
BRANCH   7   8
ATOM      8  C   UNL A   1      32.594  26.961  23.342  1.00  0.00     0.130 C 
ATOM      9  C   UNL A   1      32.399  28.252  22.542  1.00  0.00     0.093 C 
ATOM     10  C   UNL A   1      31.393  26.058  23.055  1.00  0.00     0.093 C 
ATOM     11  C   UNL A   1      31.053  28.913  22.861  1.00  0.00     0.265 C 
ATOM     12  C   UNL A   1      30.086  26.755  23.441  1.00  0.00     0.265 C 
ATOM     13  N   UNL A   1      29.919  27.992  22.677  1.00  0.00    -0.329 N 
ATOM     14  H   UNL A   1      29.909  27.730  21.691  1.00  0.00     0.348 HD
BRANCH  13  15
ATOM     15  C   UNL A   1      28.617  28.649  22.959  1.00  0.00     0.331 C 
BRANCH  15  16
ATOM     16  C   UNL A   1      28.409  30.018  22.342  1.00  0.00     0.147 A 
ATOM     17  N   UNL A   1      28.281  30.237  21.046  1.00  0.00    -0.244 NA
ATOM     18  S   UNL A   1      28.314  31.427  23.329  1.00  0.00    -0.122 S 
ATOM     19  C   UNL A   1      28.149  31.588  20.805  1.00  0.00     0.123 A 
ATOM     20  C   UNL A   1      28.136  32.391  21.924  1.00  0.00     0.087 A 
ENDBRANCH  15  16
ENDBRANCH  13  15
ENDBRANCH   7   8
ENDBRANCH   6   7
ENDBRANCH   4   6
ENDBRANCH   1   2
BRANCH   1  21
ATOM     21  C   UNL A   1      31.401  32.175  26.619  1.00  0.00     0.042 C 
BRANCH  21  22
ATOM     22  C   UNL A   1      32.655  32.919  27.062  1.00  0.00     0.118 C 
BRANCH  22  23
ATOM     23  N   UNL A   1      32.388  34.231  27.636  1.00  0.00    -0.352 N 
ATOM     24  C   UNL A   1      33.010  34.888  28.669  1.00  0.00     0.251 C 
ATOM     25  H   UNL A   1      31.646  34.724  27.217  1.00  0.00     0.163 HD
ATOM     26  O   UNL A   1      32.548  35.957  29.071  1.00  0.00    -0.269 OA
BRANCH  24  27
ATOM     27  C   UNL A   1      34.207  34.319  29.326  1.00  0.00     0.039 A 
ATOM     28  C   UNL A   1      34.030  33.499  30.445  1.00  0.00     0.014 A 
ATOM     29  C   UNL A   1      35.499  34.596  28.871  1.00  0.00     0.014 A 
ATOM     30  C   UNL A   1      35.136  32.908  31.060  1.00  0.00     0.010 A 
ATOM     31  C   UNL A   1      36.592  33.934  29.427  1.00  0.00     0.010 A 
ATOM     32  C   UNL A   1      36.425  33.087  30.532  1.00  0.00    -0.014 A 
BRANCH  32  33
ATOM     33  C   UNL A   1      37.596  32.392  31.129  1.00  0.00     0.031 A 
ATOM     34  C   UNL A   1      38.100  32.773  32.496  1.00  0.00     0.074 A 
ATOM     35  C   UNL A   1      38.235  31.438  30.422  1.00  0.00     0.049 A 
ATOM     36  N   UNL A   1      39.105  32.279  33.176  1.00  0.00    -0.248 NA
ATOM     37  C   UNL A   1      37.400  33.871  33.179  1.00  0.00     0.031 C 
ATOM     38  C   UNL A   1      37.887  31.020  29.064  1.00  0.00     0.029 A 
ATOM     39  N   UNL A   1      39.310  30.649  30.746  1.00  0.00    -0.354 N 
ATOM     40  C   UNL A   1      39.160  33.007  34.357  1.00  0.00     0.074 A 
ATOM     41  C   UNL A   1      38.129  34.020  34.275  1.00  0.00     0.031 C 
ATOM     42  C   UNL A   1      38.705  30.026  28.685  1.00  0.00     0.029 A 
ATOM     43  C   UNL A   1      39.661  29.762  29.758  1.00  0.00     0.049 A 
ATOM     44  H   UNL A   1      39.784  30.712  31.607  1.00  0.00     0.167 HD
ATOM     45  C   UNL A   1      39.974  32.831  35.425  1.00  0.00     0.037 A 
ATOM     46  C   UNL A   1      40.640  28.838  29.719  1.00  0.00     0.037 A 
ATOM     47  C   UNL A   1      40.989  31.812  35.512  1.00  0.00     0.049 A 
ATOM     48  C   UNL A   1      41.532  28.664  30.919  1.00  0.00     0.074 A 
ATOM     49  C   UNL A   1      41.827  31.516  36.573  1.00  0.00     0.029 A 
ATOM     50  N   UNL A   1      41.307  30.924  34.494  1.00  0.00    -0.354 N 
ATOM     51  N   UNL A   1      41.519  29.304  32.062  1.00  0.00    -0.248 NA
ATOM     52  C   UNL A   1      42.568  27.626  30.825  1.00  0.00     0.031 C 
ATOM     53  C   UNL A   1      42.687  30.487  36.179  1.00  0.00     0.029 A 
ATOM     54  C   UNL A   1      42.345  30.098  34.893  1.00  0.00     0.049 A 
ATOM     55  H   UNL A   1      40.862  30.888  33.616  1.00  0.00     0.167 HD
ATOM     56  C   UNL A   1      42.520  28.728  32.834  1.00  0.00     0.074 A 
ATOM     57  C   UNL A   1      43.106  27.674  32.035  1.00  0.00     0.031 C 
ATOM     58  C   UNL A   1      42.918  29.047  34.090  1.00  0.00     0.037 A 
BRANCH  45  59
ATOM     59  C   UNL A   1      39.801  33.760  36.593  1.00  0.00     0.064 A 
ATOM     60  C   UNL A   1      40.459  35.000  36.653  1.00  0.00     0.173 A 
ATOM     61  C   UNL A   1      38.938  33.428  37.648  1.00  0.00     0.173 A 
ATOM     62  F   UNL A   1      41.304  35.364  35.676  1.00  0.00    -0.203 F 
ATOM     63  C   UNL A   1      40.284  35.855  37.738  1.00  0.00     0.198 A 
ATOM     64  C   UNL A   1      38.739  34.301  38.716  1.00  0.00     0.198 A 
ATOM     65  F   UNL A   1      38.278  32.260  37.642  1.00  0.00    -0.203 F 
ATOM     66  F   UNL A   1      40.964  37.007  37.797  1.00  0.00    -0.200 F 
ATOM     67  C   UNL A   1      39.418  35.509  38.764  1.00  0.00     0.200 A 
ATOM     68  F   UNL A   1      37.890  33.971  39.699  1.00  0.00    -0.200 F 
ATOM     69  F   UNL A   1      39.244  36.336  39.803  1.00  0.00    -0.200 F 
ENDBRANCH  45  59
BRANCH  46  70
ATOM     70  C   UNL A   1      40.810  27.983  28.514  1.00  0.00     0.064 A 
ATOM     71  C   UNL A   1      41.598  28.405  27.434  1.00  0.00     0.173 A 
ATOM     72  C   UNL A   1      40.180  26.734  28.411  1.00  0.00     0.173 A 
ATOM     73  F   UNL A   1      42.205  29.600  27.476  1.00  0.00    -0.203 F 
ATOM     74  C   UNL A   1      41.728  27.624  26.288  1.00  0.00     0.198 A 
ATOM     75  C   UNL A   1      40.337  25.939  27.278  1.00  0.00     0.198 A 
ATOM     76  F   UNL A   1      39.419  26.280  29.419  1.00  0.00    -0.203 F 
ATOM     77  F   UNL A   1      42.443  28.078  25.249  1.00  0.00    -0.200 F 
ATOM     78  C   UNL A   1      41.102  26.390  26.213  1.00  0.00     0.200 A 
ATOM     79  F   UNL A   1      39.743  24.740  27.216  1.00  0.00    -0.200 F 
ATOM     80  F   UNL A   1      41.228  25.638  25.111  1.00  0.00    -0.200 F 
ENDBRANCH  46  70
BRANCH  58  81
ATOM     81  C   UNL A   1      44.017  28.217  34.694  1.00  0.00     0.064 A 
ATOM     82  C   UNL A   1      45.365  28.593  34.601  1.00  0.00     0.173 A 
ATOM     83  C   UNL A   1      43.713  27.037  35.389  1.00  0.00     0.173 A 
ATOM     84  F   UNL A   1      45.712  29.705  33.936  1.00  0.00    -0.203 F 
ATOM     85  C   UNL A   1      46.370  27.800  35.148  1.00  0.00     0.198 A 
ATOM     86  C   UNL A   1      44.717  26.265  35.967  1.00  0.00     0.198 A 
ATOM     87  F   UNL A   1      42.439  26.634  35.516  1.00  0.00    -0.203 F 
ATOM     88  F   UNL A   1      47.655  28.147  34.993  1.00  0.00    -0.200 F 
ATOM     89  C   UNL A   1      46.045  26.640  35.836  1.00  0.00     0.200 A 
ATOM     90  F   UNL A   1      44.398  25.153  36.645  1.00  0.00    -0.200 F 
ATOM     91  F   UNL A   1      47.013  25.879  36.364  1.00  0.00    -0.200 F 
ENDBRANCH  58  81
ENDBRANCH  32  33
ENDBRANCH  24  27
ENDBRANCH  22  23
ENDBRANCH  21  22
ENDBRANCH   1  21
TORSDOF 14
ENDMDL
MODEL 2
REMARK VINA RESULT:     -11.3      0.537      7.539
REMARK SMILES O=C(COC1CC[NH+](Cc2nccs2)CC1)NCCCNC(=O)c1ccc(-c2c3nc(c(-c4c(F)c(F)c(F)c(F)c4F)c4ccc([nH]4)c(-c4c(F)c(F)c(F)c(F)c4F)c4nc(c(-c5c(F)c(F)c(F)c(F)c5F)c5ccc2[nH]5)C=C4)C=C3)cc1
REMARK SMILES IDX 18 1 17 2 1 3 2 4 3 6 4 7 5 8 6 9 16 10 7 11 15 12 8 13 9 15
REMARK SMILES IDX 10 16 11 17 14 18 12 19 13 20 19 21 20 22 21 23 22 24 23 26
REMARK SMILES IDX 24 27 25 28 86 29 26 30 85 31 27 32 28 33 29 34 79 35 30 36
REMARK SMILES IDX 84 37 78 38 80 39 31 40 83 41 77 42 76 43 32 45 64 46 44 47
REMARK SMILES IDX 63 48 45 49 48 50 62 51 81 52 46 53 47 54 61 56 82 57 49 58
REMARK SMILES IDX 33 59 34 60 42 61 35 62 36 63 40 64 43 65 37 66 38 67 41 68
REMARK SMILES IDX 39 69 65 70 66 71 74 72 67 73 68 74 72 75 75 76 69 77 70 78
REMARK SMILES IDX 73 79 71 80 50 81 51 82 59 83 52 84 53 85 57 86 60 87 54 88
REMARK SMILES IDX 55 89 58 90 56 91
REMARK H PARENT 17 5 8 14 21 25 80 44 48 55
REMARK Flexibility Score: inf
ROOT
ATOM      1  C   UNL A   1      31.416  30.723  26.751  1.00  0.00     0.117 C 
ENDROOT
BRANCH   1   2
ATOM      2  N   UNL A   1      32.122  30.026  25.697  1.00  0.00    -0.354 N 
ATOM      3  O   UNL A   1      34.006  29.514  26.921  1.00  0.00    -0.272 OA
ATOM      4  C   UNL A   1      33.306  29.352  25.927  1.00  0.00     0.246 C 
ATOM      5  H   UNL A   1      31.747  30.031  24.787  1.00  0.00     0.163 HD
BRANCH   4   6
ATOM      6  C   UNL A   1      33.645  28.344  24.825  1.00  0.00     0.260 C 
BRANCH   6   7
ATOM      7  O   UNL A   1      32.686  27.298  24.675  1.00  0.00    -0.368 OA
BRANCH   7   8
ATOM      8  C   UNL A   1      32.496  26.846  23.321  1.00  0.00     0.130 C 
ATOM      9  C   UNL A   1      32.290  28.076  22.433  1.00  0.00     0.093 C 
ATOM     10  C   UNL A   1      31.254  25.963  23.179  1.00  0.00     0.093 C 
ATOM     11  C   UNL A   1      30.986  28.804  22.775  1.00  0.00     0.265 C 
ATOM     12  C   UNL A   1      29.994  26.732  23.582  1.00  0.00     0.265 C 
ATOM     13  N   UNL A   1      29.816  27.909  22.732  1.00  0.00    -0.329 N 
ATOM     14  H   UNL A   1      29.739  27.571  21.773  1.00  0.00     0.348 HD
BRANCH  13  15
ATOM     15  C   UNL A   1      28.553  28.630  23.035  1.00  0.00     0.331 C 
BRANCH  15  16
ATOM     16  C   UNL A   1      28.381  29.986  22.382  1.00  0.00     0.147 A 
ATOM     17  N   UNL A   1      28.228  30.171  21.083  1.00  0.00    -0.244 NA
ATOM     18  S   UNL A   1      28.363  31.427  23.327  1.00  0.00    -0.122 S 
ATOM     19  C   UNL A   1      28.140  31.518  20.803  1.00  0.00     0.123 A 
ATOM     20  C   UNL A   1      28.186  32.354  21.897  1.00  0.00     0.087 A 
ENDBRANCH  15  16
ENDBRANCH  13  15
ENDBRANCH   7   8
ENDBRANCH   6   7
ENDBRANCH   4   6
ENDBRANCH   1   2
BRANCH   1  21
ATOM     21  C   UNL A   1      31.405  32.231  26.580  1.00  0.00     0.042 C 
BRANCH  21  22
ATOM     22  C   UNL A   1      32.644  32.934  27.119  1.00  0.00     0.118 C 
BRANCH  22  23
ATOM     23  N   UNL A   1      32.388  34.281  27.610  1.00  0.00    -0.352 N 
ATOM     24  C   UNL A   1      32.989  34.981  28.627  1.00  0.00     0.251 C 
ATOM     25  H   UNL A   1      31.673  34.766  27.139  1.00  0.00     0.163 HD
ATOM     26  O   UNL A   1      32.539  36.080  28.954  1.00  0.00    -0.269 OA
BRANCH  24  27
ATOM     27  C   UNL A   1      34.150  34.424  29.357  1.00  0.00     0.039 A 
ATOM     28  C   UNL A   1      33.913  33.620  30.476  1.00  0.00     0.014 A 
ATOM     29  C   UNL A   1      35.464  34.697  28.968  1.00  0.00     0.014 A 
ATOM     30  C   UNL A   1      34.985  33.040  31.159  1.00  0.00     0.010 A 
ATOM     31  C   UNL A   1      36.526  34.045  29.592  1.00  0.00     0.010 A 
ATOM     32  C   UNL A   1      36.301  33.215  30.699  1.00  0.00    -0.014 A 
BRANCH  32  33
ATOM     33  C   UNL A   1      37.439  32.530  31.369  1.00  0.00     0.031 A 
ATOM     34  C   UNL A   1      38.145  31.383  30.699  1.00  0.00     0.074 A 
ATOM     35  C   UNL A   1      37.814  32.919  32.604  1.00  0.00     0.049 A 
ATOM     36  N   UNL A   1      39.155  30.666  31.129  1.00  0.00    -0.248 NA
ATOM     37  C   UNL A   1      37.636  30.966  29.383  1.00  0.00     0.031 C 
ATOM     38  C   UNL A   1      37.172  33.974  33.388  1.00  0.00     0.029 A 
ATOM     39  N   UNL A   1      38.825  32.470  33.417  1.00  0.00    -0.354 N 
ATOM     40  C   UNL A   1      39.394  29.716  30.144  1.00  0.00     0.074 A 
ATOM     41  C   UNL A   1      38.385  29.904  29.124  1.00  0.00     0.031 C 
ATOM     42  C   UNL A   1      37.827  34.120  34.551  1.00  0.00     0.029 A 
ATOM     43  C   UNL A   1      38.910  33.142  34.612  1.00  0.00     0.049 A 
ATOM     44  H   UNL A   1      39.432  31.737  33.168  1.00  0.00     0.167 HD
ATOM     45  C   UNL A   1      40.381  28.791  30.081  1.00  0.00     0.037 A 
ATOM     46  C   UNL A   1      39.765  32.990  35.642  1.00  0.00     0.037 A 
ATOM     47  C   UNL A   1      41.394  28.616  31.089  1.00  0.00     0.049 A 
ATOM     48  C   UNL A   1      40.852  31.954  35.546  1.00  0.00     0.074 A 
ATOM     49  C   UNL A   1      42.471  27.745  31.090  1.00  0.00     0.029 A 
ATOM     50  N   UNL A   1      41.455  29.324  32.281  1.00  0.00    -0.354 N 
ATOM     51  N   UNL A   1      41.118  31.118  34.572  1.00  0.00    -0.248 NA
ATOM     52  C   UNL A   1      41.768  31.851  36.691  1.00  0.00     0.031 C 
ATOM     53  C   UNL A   1      43.149  27.887  32.305  1.00  0.00     0.029 A 
ATOM     54  C   UNL A   1      42.534  28.891  33.035  1.00  0.00     0.049 A 
ATOM     55  H   UNL A   1      40.823  30.029  32.552  1.00  0.00     0.167 HD
ATOM     56  C   UNL A   1      42.245  30.413  34.971  1.00  0.00     0.074 A 
ATOM     57  C   UNL A   1      42.625  30.934  36.267  1.00  0.00     0.031 C 
ATOM     58  C   UNL A   1      42.905  29.421  34.323  1.00  0.00     0.037 A 
BRANCH  45  59
ATOM     59  C   UNL A   1      40.417  27.894  28.876  1.00  0.00     0.064 A 
ATOM     60  C   UNL A   1      41.168  28.221  27.735  1.00  0.00     0.173 A 
ATOM     61  C   UNL A   1      39.724  26.673  28.873  1.00  0.00     0.173 A 
ATOM     62  F   UNL A   1      41.840  29.381  27.679  1.00  0.00    -0.203 F 
ATOM     63  C   UNL A   1      41.198  27.376  26.628  1.00  0.00     0.198 A 
ATOM     64  C   UNL A   1      39.785  25.815  27.777  1.00  0.00     0.198 A 
ATOM     65  F   UNL A   1      38.996  26.305  29.938  1.00  0.00    -0.203 F 
ATOM     66  F   UNL A   1      41.879  27.737  25.532  1.00  0.00    -0.200 F 
ATOM     67  C   UNL A   1      40.514  26.170  26.653  1.00  0.00     0.200 A 
ATOM     68  F   UNL A   1      39.135  24.643  27.810  1.00  0.00    -0.200 F 
ATOM     69  F   UNL A   1      40.552  25.355  25.591  1.00  0.00    -0.200 F 
ENDBRANCH  45  59
BRANCH  46  70
ATOM     70  C   UNL A   1      39.651  33.864  36.840  1.00  0.00     0.064 A 
ATOM     71  C   UNL A   1      38.877  33.478  37.944  1.00  0.00     0.173 A 
ATOM     72  C   UNL A   1      40.300  35.105  36.904  1.00  0.00     0.173 A 
ATOM     73  F   UNL A   1      38.220  32.308  37.923  1.00  0.00    -0.203 F 
ATOM     74  C   UNL A   1      38.735  34.310  39.052  1.00  0.00     0.198 A 
ATOM     75  C   UNL A   1      40.184  35.923  38.026  1.00  0.00     0.198 A 
ATOM     76  F   UNL A   1      41.057  35.521  35.877  1.00  0.00    -0.203 F 
ATOM     77  F   UNL A   1      37.945  33.938  40.069  1.00  0.00    -0.200 F 
ATOM     78  C   UNL A   1      39.393  35.529  39.095  1.00  0.00     0.200 A 
ATOM     79  F   UNL A   1      40.834  37.093  38.069  1.00  0.00    -0.200 F 
ATOM     80  F   UNL A   1      39.258  36.329  40.161  1.00  0.00    -0.200 F 
ENDBRANCH  46  70
BRANCH  58  81
ATOM     81  C   UNL A   1      44.131  28.862  34.990  1.00  0.00     0.064 A 
ATOM     82  C   UNL A   1      44.066  27.757  35.852  1.00  0.00     0.173 A 
ATOM     83  C   UNL A   1      45.391  29.430  34.748  1.00  0.00     0.173 A 
ATOM     84  F   UNL A   1      42.885  27.184  36.128  1.00  0.00    -0.203 F 
ATOM     85  C   UNL A   1      45.210  27.267  36.476  1.00  0.00     0.198 A 
ATOM     86  C   UNL A   1      46.538  28.914  35.345  1.00  0.00     0.198 A 
ATOM     87  F   UNL A   1      45.512  30.483  33.924  1.00  0.00    -0.203 F 
ATOM     88  F   UNL A   1      45.114  26.250  37.345  1.00  0.00    -0.200 F 
ATOM     89  C   UNL A   1      46.445  27.842  36.217  1.00  0.00     0.200 A 
ATOM     90  F   UNL A   1      47.733  29.462  35.080  1.00  0.00    -0.200 F 
ATOM     91  F   UNL A   1      47.545  27.367  36.818  1.00  0.00    -0.200 F 
ENDBRANCH  58  81
ENDBRANCH  32  33
ENDBRANCH  24  27
ENDBRANCH  22  23
ENDBRANCH  21  22
ENDBRANCH   1  21
TORSDOF 14
ENDMDL
MODEL 3
REMARK VINA RESULT:     -11.2      4.470      7.918
REMARK SMILES O=C(COC1CC[NH+](Cc2nccs2)CC1)NCCCNC(=O)c1ccc(-c2c3nc(c(-c4c(F)c(F)c(F)c(F)c4F)c4ccc([nH]4)c(-c4c(F)c(F)c(F)c(F)c4F)c4nc(c(-c5c(F)c(F)c(F)c(F)c5F)c5ccc2[nH]5)C=C4)C=C3)cc1
REMARK SMILES IDX 18 1 17 2 1 3 2 4 3 6 4 7 5 8 6 9 16 10 7 11 15 12 8 13 9 15
REMARK SMILES IDX 10 16 11 17 14 18 12 19 13 20 19 21 20 22 21 23 22 24 23 26
REMARK SMILES IDX 24 27 25 28 86 29 26 30 85 31 27 32 28 33 29 34 79 35 30 36
REMARK SMILES IDX 84 37 78 38 80 39 31 40 83 41 77 42 76 43 32 45 64 46 44 47
REMARK SMILES IDX 63 48 45 49 48 50 62 51 81 52 46 53 47 54 61 56 82 57 49 58
REMARK SMILES IDX 33 59 34 60 42 61 35 62 36 63 40 64 43 65 37 66 38 67 41 68
REMARK SMILES IDX 39 69 65 70 66 71 74 72 67 73 68 74 72 75 75 76 69 77 70 78
REMARK SMILES IDX 73 79 71 80 50 81 51 82 59 83 52 84 53 85 57 86 60 87 54 88
REMARK SMILES IDX 55 89 58 90 56 91
REMARK H PARENT 17 5 8 14 21 25 80 44 48 55
REMARK Flexibility Score: inf
ROOT
ATOM      1  C   UNL A   1      33.687  35.159  29.072  1.00  0.00     0.117 C 
ENDROOT
BRANCH   1   2
ATOM      2  N   UNL A   1      34.239  35.639  30.321  1.00  0.00    -0.354 N 
ATOM      3  O   UNL A   1      32.429  35.110  31.644  1.00  0.00    -0.272 OA
ATOM      4  C   UNL A   1      33.606  35.434  31.532  1.00  0.00     0.246 C 
ATOM      5  H   UNL A   1      35.094  36.127  30.308  1.00  0.00     0.163 HD
BRANCH   4   6
ATOM      6  C   UNL A   1      34.537  35.618  32.733  1.00  0.00     0.260 C 
BRANCH   6   7
ATOM      7  O   UNL A   1      35.355  34.484  33.017  1.00  0.00    -0.368 OA
BRANCH   7   8
ATOM      8  C   UNL A   1      36.770  34.713  32.879  1.00  0.00     0.130 C 
ATOM      9  C   UNL A   1      37.274  33.885  31.693  1.00  0.00     0.093 C 
ATOM     10  C   UNL A   1      37.549  34.263  34.117  1.00  0.00     0.093 C 
ATOM     11  C   UNL A   1      37.159  32.382  31.968  1.00  0.00     0.265 C 
ATOM     12  C   UNL A   1      37.354  32.765  34.365  1.00  0.00     0.265 C 
ATOM     13  N   UNL A   1      37.829  31.988  33.220  1.00  0.00    -0.329 N 
ATOM     14  H   UNL A   1      38.819  32.207  33.106  1.00  0.00     0.348 HD
BRANCH  13  15
ATOM     15  C   UNL A   1      37.739  30.526  33.462  1.00  0.00     0.331 C 
BRANCH  15  16
ATOM     16  C   UNL A   1      39.051  29.767  33.491  1.00  0.00     0.147 A 
ATOM     17  N   UNL A   1      39.255  28.612  32.885  1.00  0.00    -0.244 NA
ATOM     18  S   UNL A   1      40.414  30.392  34.341  1.00  0.00    -0.122 S 
ATOM     19  C   UNL A   1      40.533  28.164  33.137  1.00  0.00     0.123 A 
ATOM     20  C   UNL A   1      41.314  29.000  33.904  1.00  0.00     0.087 A 
ENDBRANCH  15  16
ENDBRANCH  13  15
ENDBRANCH   7   8
ENDBRANCH   6   7
ENDBRANCH   4   6
ENDBRANCH   1   2
BRANCH   1  21
ATOM     21  C   UNL A   1      34.621  34.237  28.310  1.00  0.00     0.042 C 
BRANCH  21  22
ATOM     22  C   UNL A   1      34.887  32.903  28.996  1.00  0.00     0.118 C 
BRANCH  22  23
ATOM     23  N   UNL A   1      34.124  31.794  28.439  1.00  0.00    -0.352 N 
ATOM     24  C   UNL A   1      34.528  30.527  28.094  1.00  0.00     0.251 C 
ATOM     25  H   UNL A   1      33.170  31.981  28.287  1.00  0.00     0.163 HD
ATOM     26  O   UNL A   1      33.736  29.773  27.529  1.00  0.00    -0.269 OA
BRANCH  24  27
ATOM     27  C   UNL A   1      35.908  30.065  28.363  1.00  0.00     0.039 A 
ATOM     28  C   UNL A   1      36.867  30.202  27.354  1.00  0.00     0.014 A 
ATOM     29  C   UNL A   1      36.266  29.485  29.582  1.00  0.00     0.014 A 
ATOM     30  C   UNL A   1      38.190  29.820  27.591  1.00  0.00     0.010 A 
ATOM     31  C   UNL A   1      37.602  29.190  29.849  1.00  0.00     0.010 A 
ATOM     32  C   UNL A   1      38.579  29.347  28.856  1.00  0.00    -0.014 A 
BRANCH  32  33
ATOM     33  C   UNL A   1      40.001  29.020  29.142  1.00  0.00     0.031 A 
ATOM     34  C   UNL A   1      40.865  29.973  29.923  1.00  0.00     0.074 A 
ATOM     35  C   UNL A   1      40.530  27.876  28.664  1.00  0.00     0.049 A 
ATOM     36  N   UNL A   1      42.124  29.858  30.269  1.00  0.00    -0.248 NA
ATOM     37  C   UNL A   1      40.242  31.235  30.353  1.00  0.00     0.031 C 
ATOM     38  C   UNL A   1      39.818  26.898  27.840  1.00  0.00     0.029 A 
ATOM     39  N   UNL A   1      41.787  27.343  28.799  1.00  0.00    -0.354 N 
ATOM     40  C   UNL A   1      42.441  31.029  30.945  1.00  0.00     0.074 A 
ATOM     41  C   UNL A   1      41.264  31.870  30.907  1.00  0.00     0.031 C 
ATOM     42  C   UNL A   1      40.636  25.866  27.576  1.00  0.00     0.029 A 
ATOM     43  C   UNL A   1      41.941  26.127  28.178  1.00  0.00     0.049 A 
ATOM     44  H   UNL A   1      42.511  27.789  29.295  1.00  0.00     0.167 HD
ATOM     45  C   UNL A   1      43.597  31.362  31.567  1.00  0.00     0.037 A 
ATOM     46  C   UNL A   1      43.011  25.313  28.103  1.00  0.00     0.037 A 
ATOM     47  C   UNL A   1      44.763  30.517  31.619  1.00  0.00     0.049 A 
ATOM     48  C   UNL A   1      44.284  25.707  28.802  1.00  0.00     0.074 A 
ATOM     49  C   UNL A   1      45.963  30.740  32.272  1.00  0.00     0.029 A 
ATOM     50  N   UNL A   1      44.876  29.287  30.987  1.00  0.00    -0.354 N 
ATOM     51  N   UNL A   1      44.544  26.779  29.509  1.00  0.00    -0.248 NA
ATOM     52  C   UNL A   1      45.409  24.767  28.702  1.00  0.00     0.031 C 
ATOM     53  C   UNL A   1      46.820  29.672  31.991  1.00  0.00     0.029 A 
ATOM     54  C   UNL A   1      46.134  28.752  31.214  1.00  0.00     0.049 A 
ATOM     55  H   UNL A   1      44.168  28.857  30.455  1.00  0.00     0.167 HD
ATOM     56  C   UNL A   1      45.848  26.630  29.963  1.00  0.00     0.074 A 
ATOM     57  C   UNL A   1      46.317  25.354  29.468  1.00  0.00     0.031 C 
ATOM     58  C   UNL A   1      46.589  27.476  30.720  1.00  0.00     0.037 A 
BRANCH  45  59
ATOM     59  C   UNL A   1      43.661  32.700  32.248  1.00  0.00     0.064 A 
ATOM     60  C   UNL A   1      43.535  32.825  33.641  1.00  0.00     0.173 A 
ATOM     61  C   UNL A   1      43.889  33.869  31.506  1.00  0.00     0.173 A 
ATOM     62  F   UNL A   1      43.304  31.741  34.398  1.00  0.00    -0.203 F 
ATOM     63  C   UNL A   1      43.603  34.071  34.260  1.00  0.00     0.198 A 
ATOM     64  C   UNL A   1      43.990  35.109  32.133  1.00  0.00     0.198 A 
ATOM     65  F   UNL A   1      44.024  33.810  30.173  1.00  0.00    -0.203 F 
ATOM     66  F   UNL A   1      43.425  34.168  35.585  1.00  0.00    -0.200 F 
ATOM     67  C   UNL A   1      43.839  35.210  33.507  1.00  0.00     0.200 A 
ATOM     68  F   UNL A   1      44.234  36.208  31.405  1.00  0.00    -0.200 F 
ATOM     69  F   UNL A   1      43.913  36.407  34.106  1.00  0.00    -0.200 F 
ENDBRANCH  45  59
BRANCH  46  70
ATOM     70  C   UNL A   1      42.916  24.025  27.365  1.00  0.00     0.064 A 
ATOM     71  C   UNL A   1      42.518  22.848  28.015  1.00  0.00     0.173 A 
ATOM     72  C   UNL A   1      43.231  23.940  26.002  1.00  0.00     0.173 A 
ATOM     73  F   UNL A   1      42.226  22.873  29.324  1.00  0.00    -0.203 F 
ATOM     74  C   UNL A   1      42.466  21.632  27.337  1.00  0.00     0.198 A 
ATOM     75  C   UNL A   1      43.147  22.730  25.316  1.00  0.00     0.198 A 
ATOM     76  F   UNL A   1      43.612  25.037  25.330  1.00  0.00    -0.203 F 
ATOM     77  F   UNL A   1      42.135  20.514  27.998  1.00  0.00    -0.200 F 
ATOM     78  C   UNL A   1      42.775  21.575  25.988  1.00  0.00     0.200 A 
ATOM     79  F   UNL A   1      43.431  22.682  24.008  1.00  0.00    -0.200 F 
ATOM     80  F   UNL A   1      42.723  20.406  25.335  1.00  0.00    -0.200 F 
ENDBRANCH  46  70
BRANCH  58  81
ATOM     81  C   UNL A   1      47.975  27.029  31.093  1.00  0.00     0.064 A 
ATOM     82  C   UNL A   1      48.213  26.202  32.201  1.00  0.00     0.173 A 
ATOM     83  C   UNL A   1      49.078  27.419  30.318  1.00  0.00     0.173 A 
ATOM     84  F   UNL A   1      47.196  25.810  32.982  1.00  0.00    -0.203 F 
ATOM     85  C   UNL A   1      49.507  25.815  32.541  1.00  0.00     0.198 A 
ATOM     86  C   UNL A   1      50.367  27.001  30.640  1.00  0.00     0.198 A 
ATOM     87  F   UNL A   1      48.907  28.202  29.242  1.00  0.00    -0.203 F 
ATOM     88  F   UNL A   1      49.716  25.077  33.640  1.00  0.00    -0.200 F 
ATOM     89  C   UNL A   1      50.581  26.210  31.758  1.00  0.00     0.200 A 
ATOM     90  F   UNL A   1      51.401  27.370  29.872  1.00  0.00    -0.200 F 
ATOM     91  F   UNL A   1      51.825  25.835  32.086  1.00  0.00    -0.200 F 
ENDBRANCH  58  81
ENDBRANCH  32  33
ENDBRANCH  24  27
ENDBRANCH  22  23
ENDBRANCH  21  22
ENDBRANCH   1  21
TORSDOF 14
ENDMDL
