MODEL 1
REMARK VINA RESULT:     -10.8      0.000      0.000
REMARK SMILES C#CCN(CC(=O)NCCCNC(=O)c1ccc(-c2c3nc(c(-c4c(F)c(F)c(F)c(F)c4F)c4ccc([nH]4)c(-c4c(F)c(F)c(F)c(F)c4F)c4nc(c(-c5c(F)c(F)c(F)c(F)c5F)c5ccc2[nH]5)C=C4)C=C3)cc1)C(=O)c1c[nH]c(=O)[nH]1
REMARK SMILES IDX 9 1 8 2 6 3 7 4 5 6 4 7 3 8 2 9 1 10 78 11 79 12 80 13 81 14
REMARK SMILES IDX 85 15 82 16 83 17 84 20 10 21 11 22 12 23 13 24 14 26 15 27
REMARK SMILES IDX 16 28 77 29 17 30 76 31 18 32 19 33 20 34 70 35 21 36 75 37
REMARK SMILES IDX 69 38 71 39 22 40 74 41 68 42 67 43 23 45 55 46 35 47 54 48
REMARK SMILES IDX 36 49 39 50 53 51 72 52 37 53 38 54 52 56 73 57 40 58 24 59
REMARK SMILES IDX 25 60 33 61 26 62 27 63 31 64 34 65 28 66 29 67 32 68 30 69
REMARK SMILES IDX 56 70 57 71 65 72 58 73 59 74 63 75 66 76 60 77 61 78 64 79
REMARK SMILES IDX 62 80 41 81 42 82 50 83 43 84 44 85 48 86 51 87 45 88 46 89
REMARK SMILES IDX 49 90 47 91
REMARK H PARENT 8 5 85 18 82 19 12 25 71 44 39 55
REMARK Flexibility Score: inf
ROOT
ATOM      1  C   UNL A   1      36.969  20.400  24.683  1.00  0.00     0.117 C 
ENDROOT
BRANCH   1   2
ATOM      2  N   UNL A   1      35.663  19.930  25.094  1.00  0.00    -0.354 N 
ATOM      3  C   UNL A   1      34.437  20.500  24.924  1.00  0.00     0.239 C 
ATOM      4  O   UNL A   1      33.458  19.760  25.052  1.00  0.00    -0.273 OA
ATOM      5  H   UNL A   1      35.661  19.067  25.568  1.00  0.00     0.163 HD
BRANCH   3   6
ATOM      6  C   UNL A   1      34.258  21.966  24.489  1.00  0.00     0.220 C 
BRANCH   6   7
ATOM      7  N   UNL A   1      34.457  22.962  25.547  1.00  0.00    -0.317 N 
BRANCH   7   8
ATOM      8  C   UNL A   1      35.314  24.109  25.252  1.00  0.00     0.210 C 
BRANCH   8   9
ATOM      9  C   UNL A   1      36.737  23.897  25.740  1.00  0.00    -0.085 C 
ATOM     10  C   UNL A   1      37.959  23.715  26.160  1.00  0.00     0.006 C 
ENDBRANCH   8   9
ENDBRANCH   7   8
BRANCH   7  11
ATOM     11  C   UNL A   1      33.803  22.938  26.775  1.00  0.00     0.273 C 
ATOM     12  O   UNL A   1      34.374  22.680  27.833  1.00  0.00    -0.267 OA
BRANCH  11  13
ATOM     13  C   UNL A   1      32.361  23.286  26.822  1.00  0.00     0.125 A 
ATOM     14  C   UNL A   1      31.756  24.440  26.501  1.00  0.00     0.119 A 
ATOM     15  N   UNL A   1      31.391  22.361  27.137  1.00  0.00    -0.302 N 
ATOM     16  N   UNL A   1      30.400  24.279  26.650  1.00  0.00    -0.312 N 
ATOM     17  C   UNL A   1      30.132  22.962  27.046  1.00  0.00     0.323 A 
ATOM     18  H   UNL A   1      31.557  21.424  27.387  1.00  0.00     0.172 HD
ATOM     19  H   UNL A   1      29.724  24.979  26.502  1.00  0.00     0.171 HD
ATOM     20  O   UNL A   1      29.045  22.457  27.254  1.00  0.00    -0.248 OA
ENDBRANCH  11  13
ENDBRANCH   7  11
ENDBRANCH   6   7
ENDBRANCH   3   6
ENDBRANCH   1   2
BRANCH   1  21
ATOM     21  C   UNL A   1      38.096  19.421  24.998  1.00  0.00     0.042 C 
BRANCH  21  22
ATOM     22  C   UNL A   1      39.188  19.980  25.903  1.00  0.00     0.118 C 
BRANCH  22  23
ATOM     23  N   UNL A   1      40.380  19.145  25.920  1.00  0.00    -0.352 N 
ATOM     24  C   UNL A   1      41.706  19.468  26.028  1.00  0.00     0.251 C 
ATOM     25  H   UNL A   1      40.201  18.181  25.842  1.00  0.00     0.163 HD
ATOM     26  O   UNL A   1      42.546  18.605  25.788  1.00  0.00    -0.269 OA
BRANCH  24  27
ATOM     27  C   UNL A   1      42.145  20.825  26.425  1.00  0.00     0.039 A 
ATOM     28  C   UNL A   1      42.121  21.157  27.785  1.00  0.00     0.014 A 
ATOM     29  C   UNL A   1      42.498  21.794  25.484  1.00  0.00     0.014 A 
ATOM     30  C   UNL A   1      42.484  22.442  28.195  1.00  0.00     0.010 A 
ATOM     31  C   UNL A   1      42.947  23.046  25.900  1.00  0.00     0.010 A 
ATOM     32  C   UNL A   1      42.925  23.390  27.260  1.00  0.00    -0.014 A 
BRANCH  32  33
ATOM     33  C   UNL A   1      43.342  24.749  27.693  1.00  0.00     0.031 A 
ATOM     34  C   UNL A   1      42.312  25.795  28.026  1.00  0.00     0.074 A 
ATOM     35  C   UNL A   1      44.654  25.049  27.762  1.00  0.00     0.049 A 
ATOM     36  N   UNL A   1      42.484  27.035  28.411  1.00  0.00    -0.248 NA
ATOM     37  C   UNL A   1      40.900  25.405  27.885  1.00  0.00     0.031 C 
ATOM     38  C   UNL A   1      45.748  24.138  27.422  1.00  0.00     0.029 A 
ATOM     39  N   UNL A   1      45.292  26.205  28.142  1.00  0.00    -0.354 N 
ATOM     40  C   UNL A   1      41.209  27.569  28.551  1.00  0.00     0.074 A 
ATOM     41  C   UNL A   1      40.275  26.542  28.149  1.00  0.00     0.031 C 
ATOM     42  C   UNL A   1      46.919  24.755  27.642  1.00  0.00     0.029 A 
ATOM     43  C   UNL A   1      46.661  26.118  28.095  1.00  0.00     0.049 A 
ATOM     44  H   UNL A   1      44.812  27.019  28.421  1.00  0.00     0.167 HD
ATOM     45  C   UNL A   1      40.850  28.795  29.003  1.00  0.00     0.037 A 
ATOM     46  C   UNL A   1      47.604  27.036  28.381  1.00  0.00     0.037 A 
ATOM     47  C   UNL A   1      41.784  29.810  29.417  1.00  0.00     0.049 A 
ATOM     48  C   UNL A   1      47.175  28.400  28.855  1.00  0.00     0.074 A 
ATOM     49  C   UNL A   1      41.521  31.064  29.937  1.00  0.00     0.029 A 
ATOM     50  N   UNL A   1      43.165  29.687  29.351  1.00  0.00    -0.354 N 
ATOM     51  N   UNL A   1      45.967  28.866  29.058  1.00  0.00    -0.248 NA
ATOM     52  C   UNL A   1      48.246  29.364  29.147  1.00  0.00     0.031 C 
ATOM     53  C   UNL A   1      42.738  31.724  30.128  1.00  0.00     0.029 A 
ATOM     54  C   UNL A   1      43.765  30.856  29.792  1.00  0.00     0.049 A 
ATOM     55  H   UNL A   1      43.646  28.889  29.036  1.00  0.00     0.167 HD
ATOM     56  C   UNL A   1      46.131  30.162  29.528  1.00  0.00     0.074 A 
ATOM     57  C   UNL A   1      47.558  30.400  29.604  1.00  0.00     0.031 C 
ATOM     58  C   UNL A   1      45.187  31.076  29.866  1.00  0.00     0.037 A 
BRANCH  45  59
ATOM     59  C   UNL A   1      39.381  29.108  29.078  1.00  0.00     0.064 A 
ATOM     60  C   UNL A   1      38.686  29.097  30.297  1.00  0.00     0.173 A 
ATOM     61  C   UNL A   1      38.669  29.467  27.923  1.00  0.00     0.173 A 
ATOM     62  F   UNL A   1      39.314  28.752  31.431  1.00  0.00    -0.203 F 
ATOM     63  C   UNL A   1      37.327  29.401  30.352  1.00  0.00     0.198 A 
ATOM     64  C   UNL A   1      37.319  29.805  27.987  1.00  0.00     0.198 A 
ATOM     65  F   UNL A   1      39.284  29.502  26.731  1.00  0.00    -0.203 F 
ATOM     66  F   UNL A   1      36.674  29.331  31.520  1.00  0.00    -0.200 F 
ATOM     67  C   UNL A   1      36.648  29.763  29.199  1.00  0.00     0.200 A 
ATOM     68  F   UNL A   1      36.668  30.171  26.875  1.00  0.00    -0.200 F 
ATOM     69  F   UNL A   1      35.344  30.066  29.255  1.00  0.00    -0.200 F 
ENDBRANCH  45  59
BRANCH  46  70
ATOM     70  C   UNL A   1      49.045  26.696  28.247  1.00  0.00     0.064 A 
ATOM     71  C   UNL A   1      49.796  26.283  29.357  1.00  0.00     0.173 A 
ATOM     72  C   UNL A   1      49.708  26.798  27.015  1.00  0.00     0.173 A 
ATOM     73  F   UNL A   1      49.213  26.187  30.561  1.00  0.00    -0.203 F 
ATOM     74  C   UNL A   1      51.159  26.015  29.247  1.00  0.00     0.198 A 
ATOM     75  C   UNL A   1      51.064  26.497  26.899  1.00  0.00     0.198 A 
ATOM     76  F   UNL A   1      49.037  27.184  25.920  1.00  0.00    -0.203 F 
ATOM     77  F   UNL A   1      51.864  25.680  30.336  1.00  0.00    -0.200 F 
ATOM     78  C   UNL A   1      51.791  26.118  28.016  1.00  0.00     0.200 A 
ATOM     79  F   UNL A   1      51.666  26.580  25.704  1.00  0.00    -0.200 F 
ATOM     80  F   UNL A   1      53.101  25.860  27.912  1.00  0.00    -0.200 F 
ENDBRANCH  46  70
BRANCH  58  81
ATOM     81  C   UNL A   1      45.667  32.404  30.379  1.00  0.00     0.064 A 
ATOM     82  C   UNL A   1      45.925  32.622  31.741  1.00  0.00     0.173 A 
ATOM     83  C   UNL A   1      45.901  33.466  29.491  1.00  0.00     0.173 A 
ATOM     84  F   UNL A   1      45.706  31.644  32.634  1.00  0.00    -0.203 F 
ATOM     85  C   UNL A   1      46.364  33.861  32.198  1.00  0.00     0.198 A 
ATOM     86  C   UNL A   1      46.375  34.692  29.947  1.00  0.00     0.198 A 
ATOM     87  F   UNL A   1      45.679  33.311  28.177  1.00  0.00    -0.203 F 
ATOM     88  F   UNL A   1      46.545  34.064  33.511  1.00  0.00    -0.200 F 
ATOM     89  C   UNL A   1      46.597  34.892  31.300  1.00  0.00     0.200 A 
ATOM     90  F   UNL A   1      46.616  35.682  29.075  1.00  0.00    -0.200 F 
ATOM     91  F   UNL A   1      47.025  36.083  31.741  1.00  0.00    -0.200 F 
ENDBRANCH  58  81
ENDBRANCH  32  33
ENDBRANCH  24  27
ENDBRANCH  22  23
ENDBRANCH  21  22
ENDBRANCH   1  21
TORSDOF 15
ENDMDL
MODEL 2
REMARK VINA RESULT:     -10.7      0.889      7.637
REMARK SMILES C#CCN(CC(=O)NCCCNC(=O)c1ccc(-c2c3nc(c(-c4c(F)c(F)c(F)c(F)c4F)c4ccc([nH]4)c(-c4c(F)c(F)c(F)c(F)c4F)c4nc(c(-c5c(F)c(F)c(F)c(F)c5F)c5ccc2[nH]5)C=C4)C=C3)cc1)C(=O)c1c[nH]c(=O)[nH]1
REMARK SMILES IDX 9 1 8 2 6 3 7 4 5 6 4 7 3 8 2 9 1 10 78 11 79 12 80 13 81 14
REMARK SMILES IDX 85 15 82 16 83 17 84 20 10 21 11 22 12 23 13 24 14 26 15 27
REMARK SMILES IDX 16 28 77 29 17 30 76 31 18 32 19 33 20 34 70 35 21 36 75 37
REMARK SMILES IDX 69 38 71 39 22 40 74 41 68 42 67 43 23 45 55 46 35 47 54 48
REMARK SMILES IDX 36 49 39 50 53 51 72 52 37 53 38 54 52 56 73 57 40 58 24 59
REMARK SMILES IDX 25 60 33 61 26 62 27 63 31 64 34 65 28 66 29 67 32 68 30 69
REMARK SMILES IDX 56 70 57 71 65 72 58 73 59 74 63 75 66 76 60 77 61 78 64 79
REMARK SMILES IDX 62 80 41 81 42 82 50 83 43 84 44 85 48 86 51 87 45 88 46 89
REMARK SMILES IDX 49 90 47 91
REMARK H PARENT 8 5 85 18 82 19 12 25 71 44 39 55
REMARK Flexibility Score: inf
ROOT
ATOM      1  C   UNL A   1      37.014  20.339  24.668  1.00  0.00     0.117 C 
ENDROOT
BRANCH   1   2
ATOM      2  N   UNL A   1      35.718  19.888  25.126  1.00  0.00    -0.354 N 
ATOM      3  C   UNL A   1      34.494  20.470  24.991  1.00  0.00     0.239 C 
ATOM      4  O   UNL A   1      33.511  19.742  25.157  1.00  0.00    -0.273 OA
ATOM      5  H   UNL A   1      35.721  19.029  25.607  1.00  0.00     0.163 HD
BRANCH   3   6
ATOM      6  C   UNL A   1      34.316  21.935  24.550  1.00  0.00     0.220 C 
BRANCH   6   7
ATOM      7  N   UNL A   1      34.518  22.935  25.604  1.00  0.00    -0.317 N 
BRANCH   7   8
ATOM      8  C   UNL A   1      35.398  24.065  25.312  1.00  0.00     0.210 C 
BRANCH   8   9
ATOM      9  C   UNL A   1      36.810  23.833  25.825  1.00  0.00    -0.085 C 
ATOM     10  C   UNL A   1      38.021  23.635  26.266  1.00  0.00     0.006 C 
ENDBRANCH   8   9
ENDBRANCH   7   8
BRANCH   7  11
ATOM     11  C   UNL A   1      33.846  22.931  26.822  1.00  0.00     0.273 C 
ATOM     12  O   UNL A   1      34.400  22.680  27.892  1.00  0.00    -0.267 OA
BRANCH  11  13
ATOM     13  C   UNL A   1      32.407  23.294  26.845  1.00  0.00     0.125 A 
ATOM     14  C   UNL A   1      31.819  24.454  26.517  1.00  0.00     0.119 A 
ATOM     15  N   UNL A   1      31.423  22.377  27.140  1.00  0.00    -0.302 N 
ATOM     16  N   UNL A   1      30.460  24.307  26.642  1.00  0.00    -0.312 N 
ATOM     17  C   UNL A   1      30.172  22.991  27.028  1.00  0.00     0.323 A 
ATOM     18  H   UNL A   1      31.575  21.437  27.390  1.00  0.00     0.172 HD
ATOM     19  H   UNL A   1      29.793  25.013  26.484  1.00  0.00     0.171 HD
ATOM     20  O   UNL A   1      29.076  22.496  27.216  1.00  0.00    -0.248 OA
ENDBRANCH  11  13
ENDBRANCH   7  11
ENDBRANCH   6   7
ENDBRANCH   3   6
ENDBRANCH   1   2
BRANCH   1  21
ATOM     21  C   UNL A   1      38.147  19.369  24.990  1.00  0.00     0.042 C 
BRANCH  21  22
ATOM     22  C   UNL A   1      39.178  19.901  25.979  1.00  0.00     0.118 C 
BRANCH  22  23
ATOM     23  N   UNL A   1      40.398  19.109  25.993  1.00  0.00    -0.352 N 
ATOM     24  C   UNL A   1      41.715  19.481  26.050  1.00  0.00     0.251 C 
ATOM     25  H   UNL A   1      40.251  18.136  25.956  1.00  0.00     0.163 HD
ATOM     26  O   UNL A   1      42.578  18.638  25.819  1.00  0.00    -0.269 OA
BRANCH  24  27
ATOM     27  C   UNL A   1      42.116  20.866  26.384  1.00  0.00     0.039 A 
ATOM     28  C   UNL A   1      42.273  21.204  27.733  1.00  0.00     0.014 A 
ATOM     29  C   UNL A   1      42.260  21.851  25.405  1.00  0.00     0.014 A 
ATOM     30  C   UNL A   1      42.606  22.512  28.091  1.00  0.00     0.010 A 
ATOM     31  C   UNL A   1      42.681  23.132  25.755  1.00  0.00     0.010 A 
ATOM     32  C   UNL A   1      42.839  23.482  27.104  1.00  0.00    -0.014 A 
BRANCH  32  33
ATOM     33  C   UNL A   1      43.224  24.868  27.477  1.00  0.00     0.031 A 
ATOM     34  C   UNL A   1      44.641  25.342  27.296  1.00  0.00     0.074 A 
ATOM     35  C   UNL A   1      42.298  25.694  28.004  1.00  0.00     0.049 A 
ATOM     36  N   UNL A   1      45.166  26.511  27.573  1.00  0.00    -0.248 NA
ATOM     37  C   UNL A   1      45.604  24.370  26.756  1.00  0.00     0.031 C 
ATOM     38  C   UNL A   1      40.904  25.339  28.270  1.00  0.00     0.029 A 
ATOM     39  N   UNL A   1      42.390  27.003  28.409  1.00  0.00    -0.354 N 
ATOM     40  C   UNL A   1      46.512  26.408  27.247  1.00  0.00     0.074 A 
ATOM     41  C   UNL A   1      46.739  25.048  26.813  1.00  0.00     0.031 C 
ATOM     42  C   UNL A   1      40.262  26.411  28.760  1.00  0.00     0.029 A 
ATOM     43  C   UNL A   1      41.208  27.516  28.884  1.00  0.00     0.049 A 
ATOM     44  H   UNL A   1      43.225  27.524  28.363  1.00  0.00     0.167 HD
ATOM     45  C   UNL A   1      47.466  27.371  27.278  1.00  0.00     0.037 A 
ATOM     46  C   UNL A   1      40.921  28.738  29.371  1.00  0.00     0.037 A 
ATOM     47  C   UNL A   1      47.232  28.728  27.697  1.00  0.00     0.049 A 
ATOM     48  C   UNL A   1      42.007  29.779  29.419  1.00  0.00     0.074 A 
ATOM     49  C   UNL A   1      48.118  29.789  27.718  1.00  0.00     0.029 A 
ATOM     50  N   UNL A   1      46.022  29.209  28.177  1.00  0.00    -0.354 N 
ATOM     51  N   UNL A   1      43.258  29.693  29.034  1.00  0.00    -0.248 NA
ATOM     52  C   UNL A   1      41.638  31.093  29.965  1.00  0.00     0.031 C 
ATOM     53  C   UNL A   1      47.464  30.896  28.265  1.00  0.00     0.029 A 
ATOM     54  C   UNL A   1      46.149  30.545  28.524  1.00  0.00     0.049 A 
ATOM     55  H   UNL A   1      45.197  28.679  28.259  1.00  0.00     0.167 HD
ATOM     56  C   UNL A   1      43.815  30.944  29.262  1.00  0.00     0.074 A 
ATOM     57  C   UNL A   1      42.759  31.780  29.796  1.00  0.00     0.031 C 
ATOM     58  C   UNL A   1      45.087  31.365  29.050  1.00  0.00     0.037 A 
BRANCH  45  59
ATOM     59  C   UNL A   1      48.854  26.990  26.844  1.00  0.00     0.064 A 
ATOM     60  C   UNL A   1      49.259  27.084  25.503  1.00  0.00     0.173 A 
ATOM     61  C   UNL A   1      49.806  26.567  27.785  1.00  0.00     0.173 A 
ATOM     62  F   UNL A   1      48.388  27.473  24.560  1.00  0.00    -0.203 F 
ATOM     63  C   UNL A   1      50.553  26.740  25.117  1.00  0.00     0.198 A 
ATOM     64  C   UNL A   1      51.109  26.258  27.400  1.00  0.00     0.198 A 
ATOM     65  F   UNL A   1      49.478  26.466  29.081  1.00  0.00    -0.203 F 
ATOM     66  F   UNL A   1      50.899  26.788  23.824  1.00  0.00    -0.200 F 
ATOM     67  C   UNL A   1      51.478  26.336  26.067  1.00  0.00     0.200 A 
ATOM     68  F   UNL A   1      52.006  25.884  28.322  1.00  0.00    -0.200 F 
ATOM     69  F   UNL A   1      52.725  26.016  25.696  1.00  0.00    -0.200 F 
ENDBRANCH  45  59
BRANCH  46  70
ATOM     70  C   UNL A   1      39.543  29.054  29.833  1.00  0.00     0.064 A 
ATOM     71  C   UNL A   1      38.600  29.619  28.962  1.00  0.00     0.173 A 
ATOM     72  C   UNL A   1      39.146  28.821  31.158  1.00  0.00     0.173 A 
ATOM     73  F   UNL A   1      38.936  29.880  27.690  1.00  0.00    -0.203 F 
ATOM     74  C   UNL A   1      37.326  29.967  29.405  1.00  0.00     0.198 A 
ATOM     75  C   UNL A   1      37.860  29.136  31.592  1.00  0.00     0.198 A 
ATOM     76  F   UNL A   1      40.006  28.277  32.032  1.00  0.00    -0.203 F 
ATOM     77  F   UNL A   1      36.466  30.561  28.567  1.00  0.00    -0.200 F 
ATOM     78  C   UNL A   1      36.956  29.721  30.720  1.00  0.00     0.200 A 
ATOM     79  F   UNL A   1      37.500  28.880  32.857  1.00  0.00    -0.200 F 
ATOM     80  F   UNL A   1      35.730  30.055  31.145  1.00  0.00    -0.200 F 
ENDBRANCH  46  70
BRANCH  58  81
ATOM     81  C   UNL A   1      45.398  32.801  29.365  1.00  0.00     0.064 A 
ATOM     82  C   UNL A   1      45.235  33.819  28.414  1.00  0.00     0.173 A 
ATOM     83  C   UNL A   1      45.838  33.167  30.646  1.00  0.00     0.173 A 
ATOM     84  F   UNL A   1      44.830  33.522  27.169  1.00  0.00    -0.203 F 
ATOM     85  C   UNL A   1      45.534  35.143  28.723  1.00  0.00     0.198 A 
ATOM     86  C   UNL A   1      46.100  34.497  30.963  1.00  0.00     0.198 A 
ATOM     87  F   UNL A   1      46.004  32.236  31.598  1.00  0.00    -0.203 F 
ATOM     88  F   UNL A   1      45.428  36.090  27.779  1.00  0.00    -0.200 F 
ATOM     89  C   UNL A   1      45.958  35.482  29.999  1.00  0.00     0.200 A 
ATOM     90  F   UNL A   1      46.492  34.824  32.202  1.00  0.00    -0.200 F 
ATOM     91  F   UNL A   1      46.239  36.758  30.296  1.00  0.00    -0.200 F 
ENDBRANCH  58  81
ENDBRANCH  32  33
ENDBRANCH  24  27
ENDBRANCH  22  23
ENDBRANCH  21  22
ENDBRANCH   1  21
TORSDOF 15
ENDMDL
MODEL 3
REMARK VINA RESULT:     -10.7      5.421      9.597
REMARK SMILES C#CCN(CC(=O)NCCCNC(=O)c1ccc(-c2c3nc(c(-c4c(F)c(F)c(F)c(F)c4F)c4ccc([nH]4)c(-c4c(F)c(F)c(F)c(F)c4F)c4nc(c(-c5c(F)c(F)c(F)c(F)c5F)c5ccc2[nH]5)C=C4)C=C3)cc1)C(=O)c1c[nH]c(=O)[nH]1
REMARK SMILES IDX 9 1 8 2 6 3 7 4 5 6 4 7 3 8 2 9 1 10 78 11 79 12 80 13 81 14
REMARK SMILES IDX 85 15 82 16 83 17 84 20 10 21 11 22 12 23 13 24 14 26 15 27
REMARK SMILES IDX 16 28 77 29 17 30 76 31 18 32 19 33 20 34 70 35 21 36 75 37
REMARK SMILES IDX 69 38 71 39 22 40 74 41 68 42 67 43 23 45 55 46 35 47 54 48
REMARK SMILES IDX 36 49 39 50 53 51 72 52 37 53 38 54 52 56 73 57 40 58 24 59
REMARK SMILES IDX 25 60 33 61 26 62 27 63 31 64 34 65 28 66 29 67 32 68 30 69
REMARK SMILES IDX 56 70 57 71 65 72 58 73 59 74 63 75 66 76 60 77 61 78 64 79
REMARK SMILES IDX 62 80 41 81 42 82 50 83 43 84 44 85 48 86 51 87 45 88 46 89
REMARK SMILES IDX 49 90 47 91
REMARK H PARENT 8 5 85 18 82 19 12 25 71 44 39 55
REMARK Flexibility Score: inf
ROOT
ATOM      1  C   UNL A   1      31.393  30.807  26.358  1.00  0.00     0.117 C 
ENDROOT
BRANCH   1   2
ATOM      2  N   UNL A   1      31.162  30.354  25.003  1.00  0.00    -0.354 N 
ATOM      3  C   UNL A   1      31.868  29.469  24.246  1.00  0.00     0.239 C 
ATOM      4  O   UNL A   1      31.290  28.991  23.266  1.00  0.00    -0.273 OA
ATOM      5  H   UNL A   1      30.373  30.745  24.562  1.00  0.00     0.163 HD
BRANCH   3   6
ATOM      6  C   UNL A   1      33.279  28.989  24.632  1.00  0.00     0.220 C 
BRANCH   6   7
ATOM      7  N   UNL A   1      33.326  27.762  25.435  1.00  0.00    -0.317 N 
BRANCH   7   8
ATOM      8  C   UNL A   1      33.491  27.898  26.881  1.00  0.00     0.210 C 
BRANCH   8   9
ATOM      9  C   UNL A   1      34.329  29.112  27.246  1.00  0.00    -0.085 C 
ATOM     10  C   UNL A   1      35.048  30.154  27.559  1.00  0.00     0.006 C 
ENDBRANCH   8   9
ENDBRANCH   7   8
BRANCH   7  11
ATOM     11  C   UNL A   1      33.121  26.485  24.920  1.00  0.00     0.273 C 
ATOM     12  O   UNL A   1      33.916  25.935  24.160  1.00  0.00    -0.267 OA
BRANCH  11  13
ATOM     13  C   UNL A   1      31.916  25.730  25.344  1.00  0.00     0.125 A 
ATOM     14  C   UNL A   1      30.679  25.747  24.825  1.00  0.00     0.119 A 
ATOM     15  N   UNL A   1      31.957  24.778  26.337  1.00  0.00    -0.302 N 
ATOM     16  N   UNL A   1      29.905  24.842  25.510  1.00  0.00    -0.312 N 
ATOM     17  C   UNL A   1      30.692  24.199  26.474  1.00  0.00     0.323 A 
ATOM     18  H   UNL A   1      32.751  24.541  26.868  1.00  0.00     0.172 HD
ATOM     19  H   UNL A   1      28.950  24.671  25.347  1.00  0.00     0.171 HD
ATOM     20  O   UNL A   1      30.348  23.327  27.251  1.00  0.00    -0.248 OA
ENDBRANCH  11  13
ENDBRANCH   7  11
ENDBRANCH   6   7
ENDBRANCH   3   6
ENDBRANCH   1   2
BRANCH   1  21
ATOM     21  C   UNL A   1      31.397  32.326  26.501  1.00  0.00     0.042 C 
BRANCH  21  22
ATOM     22  C   UNL A   1      32.739  32.922  26.914  1.00  0.00     0.118 C 
BRANCH  22  23
ATOM     23  N   UNL A   1      32.595  34.195  27.602  1.00  0.00    -0.352 N 
ATOM     24  C   UNL A   1      33.171  34.670  28.750  1.00  0.00     0.251 C 
ATOM     25  H   UNL A   1      31.978  34.825  27.166  1.00  0.00     0.163 HD
ATOM     26  O   UNL A   1      32.720  35.693  29.259  1.00  0.00    -0.269 OA
BRANCH  24  27
ATOM     27  C   UNL A   1      34.319  33.983  29.385  1.00  0.00     0.039 A 
ATOM     28  C   UNL A   1      35.611  34.364  29.006  1.00  0.00     0.014 A 
ATOM     29  C   UNL A   1      34.145  32.923  30.277  1.00  0.00     0.014 A 
ATOM     30  C   UNL A   1      36.718  33.708  29.548  1.00  0.00     0.010 A 
ATOM     31  C   UNL A   1      35.250  32.330  30.886  1.00  0.00     0.010 A 
ATOM     32  C   UNL A   1      36.549  32.703  30.512  1.00  0.00    -0.014 A 
BRANCH  32  33
ATOM     33  C   UNL A   1      37.725  32.022  31.116  1.00  0.00     0.031 A 
ATOM     34  C   UNL A   1      38.191  32.387  32.499  1.00  0.00     0.074 A 
ATOM     35  C   UNL A   1      38.388  31.091  30.403  1.00  0.00     0.049 A 
ATOM     36  N   UNL A   1      39.200  31.910  33.186  1.00  0.00    -0.248 NA
ATOM     37  C   UNL A   1      37.441  33.443  33.197  1.00  0.00     0.031 C 
ATOM     38  C   UNL A   1      38.062  30.682  29.036  1.00  0.00     0.029 A 
ATOM     39  N   UNL A   1      39.475  30.317  30.730  1.00  0.00    -0.354 N 
ATOM     40  C   UNL A   1      39.207  32.610  34.386  1.00  0.00     0.074 A 
ATOM     41  C   UNL A   1      38.144  33.588  34.310  1.00  0.00     0.031 C 
ATOM     42  C   UNL A   1      38.906  29.711  28.654  1.00  0.00     0.029 A 
ATOM     43  C   UNL A   1      39.859  29.458  29.730  1.00  0.00     0.049 A 
ATOM     44  H   UNL A   1      39.936  30.374  31.599  1.00  0.00     0.167 HD
ATOM     45  C   UNL A   1      40.008  32.433  35.465  1.00  0.00     0.037 A 
ATOM     46  C   UNL A   1      40.870  28.570  29.684  1.00  0.00     0.037 A 
ATOM     47  C   UNL A   1      41.054  31.448  35.542  1.00  0.00     0.049 A 
ATOM     48  C   UNL A   1      41.761  28.414  30.887  1.00  0.00     0.074 A 
ATOM     49  C   UNL A   1      41.888  31.156  36.606  1.00  0.00     0.029 A 
ATOM     50  N   UNL A   1      41.417  30.598  34.506  1.00  0.00    -0.354 N 
ATOM     51  N   UNL A   1      41.707  29.027  32.045  1.00  0.00    -0.248 NA
ATOM     52  C   UNL A   1      42.851  27.434  30.779  1.00  0.00     0.031 C 
ATOM     53  C   UNL A   1      42.793  30.172  36.197  1.00  0.00     0.029 A 
ATOM     54  C   UNL A   1      42.483  29.803  34.899  1.00  0.00     0.049 A 
ATOM     55  H   UNL A   1      40.983  30.567  33.623  1.00  0.00     0.167 HD
ATOM     56  C   UNL A   1      42.733  28.488  32.810  1.00  0.00     0.074 A 
ATOM     57  C   UNL A   1      43.377  27.480  31.994  1.00  0.00     0.031 C 
ATOM     58  C   UNL A   1      43.110  28.800  34.076  1.00  0.00     0.037 A 
BRANCH  45  59
ATOM     59  C   UNL A   1      39.780  33.323  36.655  1.00  0.00     0.064 A 
ATOM     60  C   UNL A   1      40.456  34.544  36.802  1.00  0.00     0.173 A 
ATOM     61  C   UNL A   1      38.841  32.974  37.638  1.00  0.00     0.173 A 
ATOM     62  F   UNL A   1      41.372  34.924  35.898  1.00  0.00    -0.203 F 
ATOM     63  C   UNL A   1      40.225  35.366  37.904  1.00  0.00     0.198 A 
ATOM     64  C   UNL A   1      38.587  33.815  38.720  1.00  0.00     0.198 A 
ATOM     65  F   UNL A   1      38.159  31.823  37.545  1.00  0.00    -0.203 F 
ATOM     66  F   UNL A   1      40.923  36.500  38.049  1.00  0.00    -0.200 F 
ATOM     67  C   UNL A   1      39.285  35.004  38.856  1.00  0.00     0.200 A 
ATOM     68  F   UNL A   1      37.666  33.472  39.630  1.00  0.00    -0.200 F 
ATOM     69  F   UNL A   1      39.056  35.800  39.910  1.00  0.00    -0.200 F 
ENDBRANCH  45  59
BRANCH  46  70
ATOM     70  C   UNL A   1      41.085  27.744  28.466  1.00  0.00     0.064 A 
ATOM     71  C   UNL A   1      41.970  28.158  27.459  1.00  0.00     0.173 A 
ATOM     72  C   UNL A   1      40.396  26.538  28.269  1.00  0.00     0.173 A 
ATOM     73  F   UNL A   1      42.639  29.313  27.590  1.00  0.00    -0.203 F 
ATOM     74  C   UNL A   1      42.134  27.416  26.292  1.00  0.00     0.198 A 
ATOM     75  C   UNL A   1      40.587  25.778  27.117  1.00  0.00     0.198 A 
ATOM     76  F   UNL A   1      39.542  26.092  29.202  1.00  0.00    -0.203 F 
ATOM     77  F   UNL A   1      42.941  27.866  25.322  1.00  0.00    -0.200 F 
ATOM     78  C   UNL A   1      41.445  26.223  26.124  1.00  0.00     0.200 A 
ATOM     79  F   UNL A   1      39.934  24.617  26.967  1.00  0.00    -0.200 F 
ATOM     80  F   UNL A   1      41.604  25.509  25.002  1.00  0.00    -0.200 F 
ENDBRANCH  46  70
BRANCH  58  81
ATOM     81  C   UNL A   1      44.250  28.019  34.666  1.00  0.00     0.064 A 
ATOM     82  C   UNL A   1      45.577  28.468  34.582  1.00  0.00     0.173 A 
ATOM     83  C   UNL A   1      44.008  26.819  35.352  1.00  0.00     0.173 A 
ATOM     84  F   UNL A   1      45.865  29.603  33.926  1.00  0.00    -0.203 F 
ATOM     85  C   UNL A   1      46.620  27.728  35.131  1.00  0.00     0.198 A 
ATOM     86  C   UNL A   1      45.049  26.100  35.932  1.00  0.00     0.198 A 
ATOM     87  F   UNL A   1      42.758  26.346  35.470  1.00  0.00    -0.203 F 
ATOM     88  F   UNL A   1      47.885  28.146  34.984  1.00  0.00    -0.200 F 
ATOM     89  C   UNL A   1      46.355  26.549  35.812  1.00  0.00     0.200 A 
ATOM     90  F   UNL A   1      44.789  24.971  36.605  1.00  0.00    -0.200 F 
ATOM     91  F   UNL A   1      47.360  25.841  36.345  1.00  0.00    -0.200 F 
ENDBRANCH  58  81
ENDBRANCH  32  33
ENDBRANCH  24  27
ENDBRANCH  22  23
ENDBRANCH  21  22
ENDBRANCH   1  21
TORSDOF 15
ENDMDL
