MODEL 1
REMARK VINA RESULT:     -12.5      0.000      0.000
REMARK SMILES O=C(NCCCNC(=O)c1ccc(-c2c3nc(c(-c4c(F)c(F)c(F)c(F)c4F)c4ccc([nH]4)c(-c4c(F)c(F)c(F)c(F)c4F)c4nc(c(-c5c(F)c(F)c(F)c(F)c5F)c5ccc2[nH]5)C=C4)C=C3)cc1)c1ccc(C#CC#C[C@H]2C[C@@H](O)C2)cc1
REMARK SMILES IDX 4 1 3 2 1 3 2 4 73 6 74 7 87 8 75 9 86 10 76 11 77 12 78 13
REMARK SMILES IDX 79 14 80 15 81 16 85 17 82 18 83 19 84 20 5 22 6 23 7 24
REMARK SMILES IDX 8 25 9 27 10 28 11 29 72 30 12 31 71 32 13 33 14 34 15 35
REMARK SMILES IDX 65 36 16 37 70 38 64 39 66 40 17 41 69 42 63 43 62 44 18 46
REMARK SMILES IDX 50 47 30 48 49 49 31 50 34 51 48 52 67 53 32 54 33 55 47 57
REMARK SMILES IDX 68 58 35 59 19 60 20 61 28 62 21 63 22 64 26 65 29 66 23 67
REMARK SMILES IDX 24 68 27 69 25 70 51 71 52 72 60 73 53 74 54 75 58 76 61 77
REMARK SMILES IDX 55 78 56 79 59 80 57 81 36 82 37 83 45 84 38 85 39 86 43 87
REMARK SMILES IDX 46 88 40 89 41 90 44 91 42 92
REMARK H PARENT 3 5 84 21 7 26 66 45 34 56
REMARK Flexibility Score: inf
ROOT
ATOM      1  C   UNL A   1      31.216  29.117  23.989  1.00  0.00     0.118 C 
ENDROOT
BRANCH   1   2
ATOM      2  N   UNL A   1      32.426  29.272  23.194  1.00  0.00    -0.352 N 
ATOM      3  O   UNL A   1      34.406  28.712  22.282  1.00  0.00    -0.269 OA
ATOM      4  C   UNL A   1      33.368  28.344  22.826  1.00  0.00     0.251 C 
ATOM      5  H   UNL A   1      32.595  30.187  22.872  1.00  0.00     0.163 HD
BRANCH   4   6
ATOM      6  C   UNL A   1      33.158  26.908  23.113  1.00  0.00     0.039 A 
ATOM      7  C   UNL A   1      33.658  26.317  24.277  1.00  0.00     0.015 A 
ATOM      8  C   UNL A   1      32.429  26.145  22.196  1.00  0.00     0.015 A 
ATOM      9  C   UNL A   1      33.540  24.939  24.463  1.00  0.00     0.018 A 
ATOM     10  C   UNL A   1      32.283  24.770  22.399  1.00  0.00     0.018 A 
ATOM     11  C   UNL A   1      32.863  24.166  23.518  1.00  0.00     0.026 A 
BRANCH  11  12
ATOM     12  C   UNL A   1      32.763  22.755  23.708  1.00  0.00    -0.053 C 
ATOM     13  C   UNL A   1      32.703  21.564  23.852  1.00  0.00    -0.010 C 
BRANCH  13  14
ATOM     14  C   UNL A   1      32.662  20.049  24.034  1.00  0.00    -0.015 C 
ATOM     15  C   UNL A   1      32.608  18.857  24.168  1.00  0.00    -0.085 C 
BRANCH  15  16
ATOM     16  C   UNL A   1      32.527  17.425  24.328  1.00  0.00     0.070 C 
ATOM     17  C   UNL A   1      33.671  16.608  23.677  1.00  0.00     0.048 C 
ATOM     18  C   UNL A   1      33.017  16.867  25.687  1.00  0.00     0.048 C 
ATOM     19  C   UNL A   1      33.598  15.667  24.902  1.00  0.00     0.116 C 
BRANCH  19  20
ATOM     20  O   UNL A   1      34.842  15.126  25.376  1.00  0.00    -0.393 OA
ATOM     21  H   UNL A   1      35.516  15.824  25.384  1.00  0.00     0.210 HD
ENDBRANCH  19  20
ENDBRANCH  15  16
ENDBRANCH  13  14
ENDBRANCH  11  12
ENDBRANCH   4   6
ENDBRANCH   1   2
BRANCH   1  22
ATOM     22  C   UNL A   1      31.483  29.152  25.486  1.00  0.00     0.042 C 
BRANCH  22  23
ATOM     23  C   UNL A   1      32.800  29.810  25.874  1.00  0.00     0.118 C 
BRANCH  23  24
ATOM     24  N   UNL A   1      32.635  31.191  26.302  1.00  0.00    -0.352 N 
ATOM     25  C   UNL A   1      33.296  31.928  27.251  1.00  0.00     0.251 C 
ATOM     26  H   UNL A   1      31.927  31.683  25.826  1.00  0.00     0.163 HD
ATOM     27  O   UNL A   1      32.848  33.026  27.572  1.00  0.00    -0.269 OA
BRANCH  25  28
ATOM     28  C   UNL A   1      34.522  31.420  27.907  1.00  0.00     0.039 A 
ATOM     29  C   UNL A   1      35.619  32.279  28.021  1.00  0.00     0.014 A 
ATOM     30  C   UNL A   1      34.626  30.105  28.369  1.00  0.00     0.014 A 
ATOM     31  C   UNL A   1      36.788  31.837  28.641  1.00  0.00     0.010 A 
ATOM     32  C   UNL A   1      35.752  29.700  29.081  1.00  0.00     0.010 A 
ATOM     33  C   UNL A   1      36.853  30.556  29.215  1.00  0.00    -0.014 A 
BRANCH  33  34
ATOM     34  C   UNL A   1      38.066  30.125  29.960  1.00  0.00     0.031 A 
ATOM     35  C   UNL A   1      38.315  30.591  31.369  1.00  0.00     0.074 A 
ATOM     36  C   UNL A   1      38.959  29.321  29.349  1.00  0.00     0.049 A 
ATOM     37  N   UNL A   1      39.299  30.286  32.178  1.00  0.00    -0.248 NA
ATOM     38  C   UNL A   1      37.349  31.542  31.941  1.00  0.00     0.031 C 
ATOM     39  C   UNL A   1      38.865  28.855  27.964  1.00  0.00     0.029 A 
ATOM     40  N   UNL A   1      40.116  28.747  29.813  1.00  0.00    -0.354 N 
ATOM     41  C   UNL A   1      39.073  31.007  33.343  1.00  0.00     0.074 A 
ATOM     42  C   UNL A   1      37.894  31.812  33.117  1.00  0.00     0.031 C 
ATOM     43  C   UNL A   1      39.893  28.032  27.706  1.00  0.00     0.029 A 
ATOM     44  C   UNL A   1      40.743  27.949  28.887  1.00  0.00     0.049 A 
ATOM     45  H   UNL A   1      40.464  28.893  30.722  1.00  0.00     0.167 HD
ATOM     46  C   UNL A   1      39.770  30.979  34.505  1.00  0.00     0.037 A 
ATOM     47  C   UNL A   1      41.880  27.232  28.978  1.00  0.00     0.037 A 
ATOM     48  C   UNL A   1      40.937  30.164  34.728  1.00  0.00     0.049 A 
ATOM     49  C   UNL A   1      42.635  27.224  30.280  1.00  0.00     0.074 A 
ATOM     50  C   UNL A   1      41.677  30.018  35.890  1.00  0.00     0.029 A 
ATOM     51  N   UNL A   1      41.546  29.370  33.767  1.00  0.00    -0.354 N 
ATOM     52  N   UNL A   1      42.357  27.838  31.404  1.00  0.00    -0.248 NA
ATOM     53  C   UNL A   1      43.857  26.412  30.326  1.00  0.00     0.031 C 
ATOM     54  C   UNL A   1      42.772  29.194  35.612  1.00  0.00     0.029 A 
ATOM     55  C   UNL A   1      42.672  28.761  34.300  1.00  0.00     0.049 A 
ATOM     56  H   UNL A   1      41.225  29.256  32.843  1.00  0.00     0.167 HD
ATOM     57  C   UNL A   1      43.353  27.466  32.298  1.00  0.00     0.074 A 
ATOM     58  C   UNL A   1      44.222  26.547  31.592  1.00  0.00     0.031 C 
ATOM     59  C   UNL A   1      43.535  27.854  33.585  1.00  0.00     0.037 A 
BRANCH  46  60
ATOM     60  C   UNL A   1      39.296  31.858  35.629  1.00  0.00     0.064 A 
ATOM     61  C   UNL A   1      38.365  31.410  36.579  1.00  0.00     0.173 A 
ATOM     62  C   UNL A   1      39.827  33.147  35.793  1.00  0.00     0.173 A 
ATOM     63  F   UNL A   1      37.818  30.191  36.467  1.00  0.00    -0.203 F 
ATOM     64  C   UNL A   1      37.963  32.229  37.633  1.00  0.00     0.198 A 
ATOM     65  C   UNL A   1      39.450  33.949  36.869  1.00  0.00     0.198 A 
ATOM     66  F   UNL A   1      40.725  33.627  34.920  1.00  0.00    -0.203 F 
ATOM     67  F   UNL A   1      37.035  31.797  38.498  1.00  0.00    -0.200 F 
ATOM     68  C   UNL A   1      38.513  33.492  37.782  1.00  0.00     0.200 A 
ATOM     69  F   UNL A   1      39.997  35.163  37.021  1.00  0.00    -0.200 F 
ATOM     70  F   UNL A   1      38.138  34.272  38.805  1.00  0.00    -0.200 F 
ENDBRANCH  46  60
BRANCH  47  71
ATOM     71  C   UNL A   1      42.369  26.454  27.807  1.00  0.00     0.064 A 
ATOM     72  C   UNL A   1      41.914  25.151  27.556  1.00  0.00     0.173 A 
ATOM     73  C   UNL A   1      43.321  26.989  26.926  1.00  0.00     0.173 A 
ATOM     74  F   UNL A   1      41.016  24.586  28.377  1.00  0.00    -0.203 F 
ATOM     75  C   UNL A   1      42.417  24.404  26.494  1.00  0.00     0.198 A 
ATOM     76  C   UNL A   1      43.795  26.255  25.842  1.00  0.00     0.198 A 
ATOM     77  F   UNL A   1      43.786  28.234  27.114  1.00  0.00    -0.203 F 
ATOM     78  F   UNL A   1      42.012  23.139  26.318  1.00  0.00    -0.200 F 
ATOM     79  C   UNL A   1      43.353  24.957  25.634  1.00  0.00     0.200 A 
ATOM     80  F   UNL A   1      44.683  26.803  25.001  1.00  0.00    -0.200 F 
ATOM     81  F   UNL A   1      43.837  24.238  24.612  1.00  0.00    -0.200 F 
ENDBRANCH  47  71
BRANCH  59  82
ATOM     82  C   UNL A   1      44.702  27.254  34.322  1.00  0.00     0.064 A 
ATOM     83  C   UNL A   1      45.958  27.880  34.357  1.00  0.00     0.173 A 
ATOM     84  C   UNL A   1      44.563  26.033  35.000  1.00  0.00     0.173 A 
ATOM     85  F   UNL A   1      46.152  29.044  33.717  1.00  0.00    -0.203 F 
ATOM     86  C   UNL A   1      47.041  27.281  34.996  1.00  0.00     0.198 A 
ATOM     87  C   UNL A   1      45.635  25.460  35.676  1.00  0.00     0.198 A 
ATOM     88  F   UNL A   1      43.382  25.395  35.011  1.00  0.00    -0.203 F 
ATOM     89  F   UNL A   1      48.249  27.859  34.946  1.00  0.00    -0.200 F 
ATOM     90  C   UNL A   1      46.878  26.074  35.659  1.00  0.00     0.200 A 
ATOM     91  F   UNL A   1      45.470  24.304  36.335  1.00  0.00    -0.200 F 
ATOM     92  F   UNL A   1      47.921  25.498  36.272  1.00  0.00    -0.200 F 
ENDBRANCH  59  82
ENDBRANCH  33  34
ENDBRANCH  25  28
ENDBRANCH  23  24
ENDBRANCH  22  23
ENDBRANCH   1  22
TORSDOF 14
ENDMDL
MODEL 2
REMARK VINA RESULT:     -12.5      4.753      7.711
REMARK SMILES O=C(NCCCNC(=O)c1ccc(-c2c3nc(c(-c4c(F)c(F)c(F)c(F)c4F)c4ccc([nH]4)c(-c4c(F)c(F)c(F)c(F)c4F)c4nc(c(-c5c(F)c(F)c(F)c(F)c5F)c5ccc2[nH]5)C=C4)C=C3)cc1)c1ccc(C#CC#C[C@H]2C[C@@H](O)C2)cc1
REMARK SMILES IDX 4 1 3 2 1 3 2 4 73 6 74 7 87 8 75 9 86 10 76 11 77 12 78 13
REMARK SMILES IDX 79 14 80 15 81 16 85 17 82 18 83 19 84 20 5 22 6 23 7 24
REMARK SMILES IDX 8 25 9 27 10 28 11 29 72 30 12 31 71 32 13 33 14 34 15 35
REMARK SMILES IDX 65 36 16 37 70 38 64 39 66 40 17 41 69 42 63 43 62 44 18 46
REMARK SMILES IDX 50 47 30 48 49 49 31 50 34 51 48 52 67 53 32 54 33 55 47 57
REMARK SMILES IDX 68 58 35 59 19 60 20 61 28 62 21 63 22 64 26 65 29 66 23 67
REMARK SMILES IDX 24 68 27 69 25 70 51 71 52 72 60 73 53 74 54 75 58 76 61 77
REMARK SMILES IDX 55 78 56 79 59 80 57 81 36 82 37 83 45 84 38 85 39 86 43 87
REMARK SMILES IDX 46 88 40 89 41 90 44 91 42 92
REMARK H PARENT 3 5 84 21 7 26 66 45 34 56
REMARK Flexibility Score: inf
ROOT
ATOM      1  C   UNL A   1      35.867  33.459  31.301  1.00  0.00     0.118 C 
ENDROOT
BRANCH   1   2
ATOM      2  N   UNL A   1      35.586  33.738  32.702  1.00  0.00    -0.352 N 
ATOM      3  O   UNL A   1      35.608  33.432  34.932  1.00  0.00    -0.269 OA
ATOM      4  C   UNL A   1      36.096  33.161  33.838  1.00  0.00     0.251 C 
ATOM      5  H   UNL A   1      34.927  34.451  32.859  1.00  0.00     0.163 HD
BRANCH   4   6
ATOM      6  C   UNL A   1      37.204  32.184  33.751  1.00  0.00     0.039 A 
ATOM      7  C   UNL A   1      37.008  30.905  33.221  1.00  0.00     0.015 A 
ATOM      8  C   UNL A   1      38.471  32.571  34.198  1.00  0.00     0.015 A 
ATOM      9  C   UNL A   1      38.045  29.972  33.257  1.00  0.00     0.018 A 
ATOM     10  C   UNL A   1      39.517  31.646  34.204  1.00  0.00     0.018 A 
ATOM     11  C   UNL A   1      39.295  30.340  33.759  1.00  0.00     0.026 A 
BRANCH  11  12
ATOM     12  C   UNL A   1      40.344  29.374  33.808  1.00  0.00    -0.053 C 
ATOM     13  C   UNL A   1      41.209  28.541  33.837  1.00  0.00    -0.010 C 
BRANCH  13  14
ATOM     14  C   UNL A   1      42.294  27.467  33.848  1.00  0.00    -0.015 C 
ATOM     15  C   UNL A   1      43.153  26.629  33.878  1.00  0.00    -0.085 C 
BRANCH  15  16
ATOM     16  C   UNL A   1      44.192  25.629  33.927  1.00  0.00     0.070 C 
ATOM     17  C   UNL A   1      44.061  24.576  35.057  1.00  0.00     0.048 C 
ATOM     18  C   UNL A   1      44.048  24.453  32.931  1.00  0.00     0.048 C 
ATOM     19  C   UNL A   1      44.598  23.534  34.047  1.00  0.00     0.116 C 
BRANCH  19  20
ATOM     20  O   UNL A   1      44.042  22.211  34.128  1.00  0.00    -0.393 OA
ATOM     21  H   UNL A   1      44.047  21.914  35.052  1.00  0.00     0.210 HD
ENDBRANCH  19  20
ENDBRANCH  15  16
ENDBRANCH  13  14
ENDBRANCH  11  12
ENDBRANCH   4   6
ENDBRANCH   1   2
BRANCH   1  22
ATOM     22  C   UNL A   1      34.743  32.700  30.612  1.00  0.00     0.042 C 
BRANCH  22  23
ATOM     23  C   UNL A   1      34.770  32.781  29.092  1.00  0.00     0.118 C 
BRANCH  23  24
ATOM     24  N   UNL A   1      34.101  31.656  28.456  1.00  0.00    -0.352 N 
ATOM     25  C   UNL A   1      34.581  30.449  28.019  1.00  0.00     0.251 C 
ATOM     26  H   UNL A   1      33.134  31.784  28.316  1.00  0.00     0.163 HD
ATOM     27  O   UNL A   1      33.858  29.732  27.332  1.00  0.00    -0.269 OA
BRANCH  25  28
ATOM     28  C   UNL A   1      35.956  30.003  28.340  1.00  0.00     0.039 A 
ATOM     29  C   UNL A   1      36.947  30.151  27.366  1.00  0.00     0.014 A 
ATOM     30  C   UNL A   1      36.274  29.403  29.561  1.00  0.00     0.014 A 
ATOM     31  C   UNL A   1      38.255  29.749  27.637  1.00  0.00     0.010 A 
ATOM     32  C   UNL A   1      37.599  29.102  29.870  1.00  0.00     0.010 A 
ATOM     33  C   UNL A   1      38.604  29.259  28.907  1.00  0.00    -0.014 A 
BRANCH  33  34
ATOM     34  C   UNL A   1      40.019  28.924  29.223  1.00  0.00     0.031 A 
ATOM     35  C   UNL A   1      40.868  29.853  30.047  1.00  0.00     0.074 A 
ATOM     36  C   UNL A   1      40.545  27.779  28.743  1.00  0.00     0.049 A 
ATOM     37  N   UNL A   1      42.107  29.703  30.447  1.00  0.00    -0.248 NA
ATOM     38  C   UNL A   1      40.261  31.128  30.459  1.00  0.00     0.031 C 
ATOM     39  C   UNL A   1      39.844  26.829  27.877  1.00  0.00     0.029 A 
ATOM     40  N   UNL A   1      41.783  27.215  28.919  1.00  0.00    -0.354 N 
ATOM     41  C   UNL A   1      42.424  30.859  31.148  1.00  0.00     0.074 A 
ATOM     42  C   UNL A   1      41.273  31.729  31.068  1.00  0.00     0.031 C 
ATOM     43  C   UNL A   1      40.646  25.780  27.635  1.00  0.00     0.029 A 
ATOM     44  C   UNL A   1      41.930  26.004  28.287  1.00  0.00     0.049 A 
ATOM     45  H   UNL A   1      42.499  27.639  29.446  1.00  0.00     0.167 HD
ATOM     46  C   UNL A   1      43.563  31.156  31.821  1.00  0.00     0.037 A 
ATOM     47  C   UNL A   1      42.985  25.168  28.236  1.00  0.00     0.037 A 
ATOM     48  C   UNL A   1      44.703  30.280  31.907  1.00  0.00     0.049 A 
ATOM     49  C   UNL A   1      44.238  25.528  28.988  1.00  0.00     0.074 A 
ATOM     50  C   UNL A   1      45.879  30.462  32.616  1.00  0.00     0.029 A 
ATOM     51  N   UNL A   1      44.818  29.061  31.253  1.00  0.00    -0.354 N 
ATOM     52  N   UNL A   1      44.490  26.582  29.725  1.00  0.00    -0.248 NA
ATOM     53  C   UNL A   1      45.349  24.571  28.911  1.00  0.00     0.031 C 
ATOM     54  C   UNL A   1      46.732  29.392  32.332  1.00  0.00     0.029 A 
ATOM     55  C   UNL A   1      46.060  28.500  31.512  1.00  0.00     0.049 A 
ATOM     56  H   UNL A   1      44.121  28.656  30.688  1.00  0.00     0.167 HD
ATOM     57  C   UNL A   1      45.776  26.404  30.218  1.00  0.00     0.074 A 
ATOM     58  C   UNL A   1      46.237  25.124  29.723  1.00  0.00     0.031 C 
ATOM     59  C   UNL A   1      46.511  27.228  31.007  1.00  0.00     0.037 A 
BRANCH  46  60
ATOM     60  C   UNL A   1      43.641  32.488  32.514  1.00  0.00     0.064 A 
ATOM     61  C   UNL A   1      43.266  32.648  33.857  1.00  0.00     0.173 A 
ATOM     62  C   UNL A   1      44.156  33.609  31.843  1.00  0.00     0.173 A 
ATOM     63  F   UNL A   1      42.759  31.614  34.545  1.00  0.00    -0.203 F 
ATOM     64  C   UNL A   1      43.376  33.884  34.492  1.00  0.00     0.198 A 
ATOM     65  C   UNL A   1      44.299  34.833  32.492  1.00  0.00     0.198 A 
ATOM     66  F   UNL A   1      44.537  33.514  30.560  1.00  0.00    -0.203 F 
ATOM     67  F   UNL A   1      42.964  34.022  35.760  1.00  0.00    -0.200 F 
ATOM     68  C   UNL A   1      43.902  34.971  33.813  1.00  0.00     0.200 A 
ATOM     69  F   UNL A   1      44.825  35.878  31.839  1.00  0.00    -0.200 F 
ATOM     70  F   UNL A   1      44.023  36.155  34.430  1.00  0.00    -0.200 F 
ENDBRANCH  46  60
BRANCH  47  71
ATOM     71  C   UNL A   1      42.900  23.905  27.453  1.00  0.00     0.064 A 
ATOM     72  C   UNL A   1      42.493  22.703  28.050  1.00  0.00     0.173 A 
ATOM     73  C   UNL A   1      43.249  23.869  26.094  1.00  0.00     0.173 A 
ATOM     74  F   UNL A   1      42.165  22.679  29.351  1.00  0.00    -0.203 F 
ATOM     75  C   UNL A   1      42.472  21.511  27.330  1.00  0.00     0.198 A 
ATOM     76  C   UNL A   1      43.190  22.683  25.365  1.00  0.00     0.198 A 
ATOM     77  F   UNL A   1      43.638  24.990  25.470  1.00  0.00    -0.203 F 
ATOM     78  F   UNL A   1      42.142  20.367  27.944  1.00  0.00    -0.200 F 
ATOM     79  C   UNL A   1      42.814  21.502  25.987  1.00  0.00     0.200 A 
ATOM     80  F   UNL A   1      43.501  22.685  24.062  1.00  0.00    -0.200 F 
ATOM     81  F   UNL A   1      42.794  20.356  25.294  1.00  0.00    -0.200 F 
ENDBRANCH  47  71
BRANCH  59  82
ATOM     82  C   UNL A   1      47.880  26.748  31.410  1.00  0.00     0.064 A 
ATOM     83  C   UNL A   1      48.093  26.023  32.593  1.00  0.00     0.173 A 
ATOM     84  C   UNL A   1      48.994  27.019  30.600  1.00  0.00     0.173 A 
ATOM     85  F   UNL A   1      47.065  25.745  33.410  1.00  0.00    -0.203 F 
ATOM     86  C   UNL A   1      49.375  25.637  32.976  1.00  0.00     0.198 A 
ATOM     87  C   UNL A   1      50.267  26.592  30.964  1.00  0.00     0.198 A 
ATOM     88  F   UNL A   1      48.848  27.697  29.452  1.00  0.00    -0.203 F 
ATOM     89  F   UNL A   1      49.563  25.018  34.150  1.00  0.00    -0.200 F 
ATOM     90  C   UNL A   1      50.460  25.917  32.160  1.00  0.00     0.200 A 
ATOM     91  F   UNL A   1      51.311  26.844  30.163  1.00  0.00    -0.200 F 
ATOM     92  F   UNL A   1      51.693  25.546  32.530  1.00  0.00    -0.200 F 
ENDBRANCH  59  82
ENDBRANCH  33  34
ENDBRANCH  25  28
ENDBRANCH  23  24
ENDBRANCH  22  23
ENDBRANCH   1  22
TORSDOF 14
ENDMDL
MODEL 3
REMARK VINA RESULT:     -12.4      4.776      7.880
REMARK SMILES O=C(NCCCNC(=O)c1ccc(-c2c3nc(c(-c4c(F)c(F)c(F)c(F)c4F)c4ccc([nH]4)c(-c4c(F)c(F)c(F)c(F)c4F)c4nc(c(-c5c(F)c(F)c(F)c(F)c5F)c5ccc2[nH]5)C=C4)C=C3)cc1)c1ccc(C#CC#C[C@H]2C[C@@H](O)C2)cc1
REMARK SMILES IDX 4 1 3 2 1 3 2 4 73 6 74 7 87 8 75 9 86 10 76 11 77 12 78 13
REMARK SMILES IDX 79 14 80 15 81 16 85 17 82 18 83 19 84 20 5 22 6 23 7 24
REMARK SMILES IDX 8 25 9 27 10 28 11 29 72 30 12 31 71 32 13 33 14 34 15 35
REMARK SMILES IDX 65 36 16 37 70 38 64 39 66 40 17 41 69 42 63 43 62 44 18 46
REMARK SMILES IDX 50 47 30 48 49 49 31 50 34 51 48 52 67 53 32 54 33 55 47 57
REMARK SMILES IDX 68 58 35 59 19 60 20 61 28 62 21 63 22 64 26 65 29 66 23 67
REMARK SMILES IDX 24 68 27 69 25 70 51 71 52 72 60 73 53 74 54 75 58 76 61 77
REMARK SMILES IDX 55 78 56 79 59 80 57 81 36 82 37 83 45 84 38 85 39 86 43 87
REMARK SMILES IDX 46 88 40 89 41 90 44 91 42 92
REMARK H PARENT 3 5 84 21 7 26 66 45 34 56
REMARK Flexibility Score: inf
ROOT
ATOM      1  C   UNL A   1      36.026  33.474  31.452  1.00  0.00     0.118 C 
ENDROOT
BRANCH   1   2
ATOM      2  N   UNL A   1      35.782  33.679  32.872  1.00  0.00    -0.352 N 
ATOM      3  O   UNL A   1      35.871  33.263  35.083  1.00  0.00    -0.269 OA
ATOM      4  C   UNL A   1      36.331  33.053  33.963  1.00  0.00     0.251 C 
ATOM      5  H   UNL A   1      35.119  34.375  33.083  1.00  0.00     0.163 HD
BRANCH   4   6
ATOM      6  C   UNL A   1      37.447  32.096  33.797  1.00  0.00     0.039 A 
ATOM      7  C   UNL A   1      37.246  30.830  33.239  1.00  0.00     0.015 A 
ATOM      8  C   UNL A   1      38.728  32.490  34.197  1.00  0.00     0.015 A 
ATOM      9  C   UNL A   1      38.296  29.912  33.200  1.00  0.00     0.018 A 
ATOM     10  C   UNL A   1      39.787  31.582  34.127  1.00  0.00     0.018 A 
ATOM     11  C   UNL A   1      39.562  30.285  33.654  1.00  0.00     0.026 A 
BRANCH  11  12
ATOM     12  C   UNL A   1      40.626  29.335  33.627  1.00  0.00    -0.053 C 
ATOM     13  C   UNL A   1      41.502  28.513  33.600  1.00  0.00    -0.010 C 
BRANCH  13  14
ATOM     14  C   UNL A   1      42.595  27.449  33.547  1.00  0.00    -0.015 C 
ATOM     15  C   UNL A   1      43.446  26.603  33.524  1.00  0.00    -0.085 C 
BRANCH  15  16
ATOM     16  C   UNL A   1      44.465  25.581  33.513  1.00  0.00     0.070 C 
ATOM     17  C   UNL A   1      44.483  24.633  34.739  1.00  0.00     0.048 C 
ATOM     18  C   UNL A   1      44.159  24.328  32.657  1.00  0.00     0.048 C 
ATOM     19  C   UNL A   1      44.850  23.493  33.760  1.00  0.00     0.116 C 
BRANCH  19  20
ATOM     20  O   UNL A   1      44.290  22.199  34.038  1.00  0.00    -0.393 OA
ATOM     21  H   UNL A   1      43.322  22.258  34.036  1.00  0.00     0.210 HD
ENDBRANCH  19  20
ENDBRANCH  15  16
ENDBRANCH  13  14
ENDBRANCH  11  12
ENDBRANCH   4   6
ENDBRANCH   1   2
BRANCH   1  22
ATOM     22  C   UNL A   1      34.980  32.587  30.793  1.00  0.00     0.042 C 
BRANCH  22  23
ATOM     23  C   UNL A   1      34.903  32.725  29.280  1.00  0.00     0.118 C 
BRANCH  23  24
ATOM     24  N   UNL A   1      34.196  31.620  28.648  1.00  0.00    -0.352 N 
ATOM     25  C   UNL A   1      34.645  30.416  28.170  1.00  0.00     0.251 C 
ATOM     26  H   UNL A   1      33.227  31.762  28.548  1.00  0.00     0.163 HD
ATOM     27  O   UNL A   1      33.887  29.721  27.499  1.00  0.00    -0.269 OA
BRANCH  25  28
ATOM     28  C   UNL A   1      36.026  29.949  28.431  1.00  0.00     0.039 A 
ATOM     29  C   UNL A   1      36.979  30.098  27.420  1.00  0.00     0.014 A 
ATOM     30  C   UNL A   1      36.384  29.327  29.629  1.00  0.00     0.014 A 
ATOM     31  C   UNL A   1      38.292  29.677  27.633  1.00  0.00     0.010 A 
ATOM     32  C   UNL A   1      37.716  29.006  29.881  1.00  0.00     0.010 A 
ATOM     33  C   UNL A   1      38.684  29.164  28.881  1.00  0.00    -0.014 A 
BRANCH  33  34
ATOM     34  C   UNL A   1      40.106  28.806  29.135  1.00  0.00     0.031 A 
ATOM     35  C   UNL A   1      41.017  29.742  29.883  1.00  0.00     0.074 A 
ATOM     36  C   UNL A   1      40.581  27.635  28.668  1.00  0.00     0.049 A 
ATOM     37  N   UNL A   1      42.271  29.577  30.224  1.00  0.00    -0.248 NA
ATOM     38  C   UNL A   1      40.459  31.045  30.281  1.00  0.00     0.031 C 
ATOM     39  C   UNL A   1      39.817  26.672  27.873  1.00  0.00     0.029 A 
ATOM     40  N   UNL A   1      41.815  27.048  28.800  1.00  0.00    -0.354 N 
ATOM     41  C   UNL A   1      42.649  30.748  30.868  1.00  0.00     0.074 A 
ATOM     42  C   UNL A   1      41.514  31.642  30.816  1.00  0.00     0.031 C 
ATOM     43  C   UNL A   1      40.582  25.598  27.627  1.00  0.00     0.029 A 
ATOM     44  C   UNL A   1      41.903  25.814  28.204  1.00  0.00     0.049 A 
ATOM     45  H   UNL A   1      42.566  27.472  29.276  1.00  0.00     0.167 HD
ATOM     46  C   UNL A   1      43.827  31.041  31.470  1.00  0.00     0.037 A 
ATOM     47  C   UNL A   1      42.936  24.952  28.128  1.00  0.00     0.037 A 
ATOM     48  C   UNL A   1      44.951  30.142  31.529  1.00  0.00     0.049 A 
ATOM     49  C   UNL A   1      44.234  25.308  28.802  1.00  0.00     0.074 A 
ATOM     50  C   UNL A   1      46.165  30.320  32.169  1.00  0.00     0.029 A 
ATOM     51  N   UNL A   1      45.006  28.900  30.911  1.00  0.00    -0.354 N 
ATOM     52  N   UNL A   1      44.546  26.380  29.489  1.00  0.00    -0.248 NA
ATOM     53  C   UNL A   1      45.318  24.323  28.701  1.00  0.00     0.031 C 
ATOM     54  C   UNL A   1      46.980  29.221  31.879  1.00  0.00     0.029 A 
ATOM     55  C   UNL A   1      46.247  28.319  31.126  1.00  0.00     0.049 A 
ATOM     56  H   UNL A   1      44.272  28.492  30.398  1.00  0.00     0.167 HD
ATOM     57  C   UNL A   1      45.852  26.189  29.921  1.00  0.00     0.074 A 
ATOM     58  C   UNL A   1      46.258  24.882  29.448  1.00  0.00     0.031 C 
ATOM     59  C   UNL A   1      46.644  27.021  30.643  1.00  0.00     0.037 A 
BRANCH  46  60
ATOM     60  C   UNL A   1      43.970  32.393  32.113  1.00  0.00     0.064 A 
ATOM     61  C   UNL A   1      44.445  33.506  31.402  1.00  0.00     0.173 A 
ATOM     62  C   UNL A   1      43.568  32.593  33.443  1.00  0.00     0.173 A 
ATOM     63  F   UNL A   1      44.851  33.372  30.130  1.00  0.00    -0.203 F 
ATOM     64  C   UNL A   1      44.539  34.758  32.005  1.00  0.00     0.198 A 
ATOM     65  C   UNL A   1      43.630  33.854  34.032  1.00  0.00     0.198 A 
ATOM     66  F   UNL A   1      43.100  31.567  34.171  1.00  0.00    -0.203 F 
ATOM     67  F   UNL A   1      45.043  35.794  31.320  1.00  0.00    -0.200 F 
ATOM     68  C   UNL A   1      44.122  34.933  33.315  1.00  0.00     0.200 A 
ATOM     69  F   UNL A   1      43.208  34.024  35.293  1.00  0.00    -0.200 F 
ATOM     70  F   UNL A   1      44.198  36.141  33.890  1.00  0.00    -0.200 F 
ENDBRANCH  46  60
BRANCH  47  71
ATOM     71  C   UNL A   1      42.783  23.666  27.394  1.00  0.00     0.064 A 
ATOM     72  C   UNL A   1      42.266  22.525  28.024  1.00  0.00     0.173 A 
ATOM     73  C   UNL A   1      43.176  23.545  26.052  1.00  0.00     0.173 A 
ATOM     74  F   UNL A   1      41.891  22.582  29.311  1.00  0.00    -0.203 F 
ATOM     75  C   UNL A   1      42.180  21.307  27.352  1.00  0.00     0.198 A 
ATOM     76  C   UNL A   1      43.053  22.337  25.371  1.00  0.00     0.198 A 
ATOM     77  F   UNL A   1      43.671  24.607  25.398  1.00  0.00    -0.203 F 
ATOM     78  F   UNL A   1      41.743  20.219  27.999  1.00  0.00    -0.200 F 
ATOM     79  C   UNL A   1      42.568  21.215  26.025  1.00  0.00     0.200 A 
ATOM     80  F   UNL A   1      43.409  22.259  24.081  1.00  0.00    -0.200 F 
ATOM     81  F   UNL A   1      42.485  20.044  25.379  1.00  0.00    -0.200 F 
ENDBRANCH  47  71
BRANCH  59  82
ATOM     82  C   UNL A   1      48.021  26.523  30.991  1.00  0.00     0.064 A 
ATOM     83  C   UNL A   1      49.104  26.660  30.109  1.00  0.00     0.173 A 
ATOM     84  C   UNL A   1      48.259  25.897  32.225  1.00  0.00     0.173 A 
ATOM     85  F   UNL A   1      48.932  27.241  28.911  1.00  0.00    -0.203 F 
ATOM     86  C   UNL A   1      50.358  26.142  30.426  1.00  0.00     0.198 A 
ATOM     87  C   UNL A   1      49.524  25.421  32.557  1.00  0.00     0.198 A 
ATOM     88  F   UNL A   1      47.264  25.749  33.113  1.00  0.00    -0.203 F 
ATOM     89  F   UNL A   1      51.355  26.214  29.533  1.00  0.00    -0.200 F 
ATOM     90  C   UNL A   1      50.568  25.528  31.651  1.00  0.00     0.200 A 
ATOM     91  F   UNL A   1      49.730  24.847  33.750  1.00  0.00    -0.200 F 
ATOM     92  F   UNL A   1      51.774  25.029  31.954  1.00  0.00    -0.200 F 
ENDBRANCH  59  82
ENDBRANCH  33  34
ENDBRANCH  25  28
ENDBRANCH  23  24
ENDBRANCH  22  23
ENDBRANCH   1  22
TORSDOF 14
ENDMDL
