MODEL 1
REMARK VINA RESULT:     -13.3      0.000      0.000
REMARK SMILES CC(C)=Cc1c(C(=O)NCCCNC(=O)c2ccc(-c3c4nc(c(-c5c(F)c(F)c(F)c(F)c5F)c5ccc([nH]5)c(-c5c(F)c(F)c(F)c(F)c5F)c5nc(c(-c6c(F)c(F)c(F)c(F)c6F)c6ccc3[nH]6)C=C5)C=C4)cc2)nnn1-c1ccc(C(C)C)cc1
REMARK SMILES IDX 11 1 10 2 9 3 7 4 8 5 6 7 5 8 81 9 79 10 80 11 4 12 1 13
REMARK SMILES IDX 2 14 3 15 82 16 83 17 90 18 84 19 89 20 85 21 86 22 87 23
REMARK SMILES IDX 88 24 12 25 13 26 14 27 15 29 16 30 17 31 78 32 18 33 77 34
REMARK SMILES IDX 19 35 20 36 21 37 71 38 22 39 76 40 70 41 72 42 23 43 75 44
REMARK SMILES IDX 69 45 68 46 24 48 56 49 36 50 55 51 37 52 40 53 54 54 73 55
REMARK SMILES IDX 38 56 39 57 53 59 74 60 41 61 25 62 26 63 34 64 27 65 28 66
REMARK SMILES IDX 32 67 35 68 29 69 30 70 33 71 31 72 57 73 58 74 66 75 59 76
REMARK SMILES IDX 60 77 64 78 67 79 61 80 62 81 65 82 63 83 42 84 43 85 51 86
REMARK SMILES IDX 44 87 45 88 49 89 52 90 46 91 47 92 50 93 48 94
REMARK H PARENT 9 6 13 28 72 47 40 58
REMARK Flexibility Score: inf
ROOT
ATOM      1  C   UNL A   1      36.465  23.242  24.971  1.00  0.00     0.042 C 
ENDROOT
BRANCH   1   2
ATOM      2  C   UNL A   1      35.164  24.039  25.085  1.00  0.00     0.118 C 
BRANCH   2   3
ATOM      3  N   UNL A   1      34.276  23.509  26.086  1.00  0.00    -0.351 N 
ATOM      4  C   UNL A   1      32.917  23.556  26.264  1.00  0.00     0.274 C 
ATOM      5  O   UNL A   1      32.526  22.904  27.238  1.00  0.00    -0.267 OA
ATOM      6  H   UNL A   1      34.743  23.007  26.793  1.00  0.00     0.163 HD
BRANCH   4   7
ATOM      7  C   UNL A   1      31.963  24.284  25.422  1.00  0.00     0.178 A 
ATOM      8  C   UNL A   1      31.287  25.505  25.475  1.00  0.00     0.100 A 
ATOM      9  N   UNL A   1      30.612  25.562  24.251  1.00  0.00    -0.213 N 
ATOM     10  N   UNL A   1      31.537  23.622  24.280  1.00  0.00    -0.124 NA
ATOM     11  N   UNL A   1      30.653  24.362  23.644  1.00  0.00    -0.061 NA
BRANCH   8  12
ATOM     12  C   UNL A   1      31.137  26.579  26.394  1.00  0.00     0.029 C 
ATOM     13  C   UNL A   1      33.438  27.591  25.977  1.00  0.00     0.039 C 
ATOM     14  C   UNL A   1      32.078  27.521  26.624  1.00  0.00    -0.074 C 
ATOM     15  C   UNL A   1      31.819  28.620  27.626  1.00  0.00     0.039 C 
ENDBRANCH   8  12
BRANCH   9  16
ATOM     16  C   UNL A   1      29.889  26.632  23.673  1.00  0.00     0.067 A 
ATOM     17  C   UNL A   1      28.509  26.695  23.875  1.00  0.00     0.029 A 
ATOM     18  C   UNL A   1      30.553  27.652  22.983  1.00  0.00     0.029 A 
ATOM     19  C   UNL A   1      27.815  27.837  23.480  1.00  0.00     0.006 A 
ATOM     20  C   UNL A   1      29.848  28.776  22.564  1.00  0.00     0.006 A 
ATOM     21  C   UNL A   1      28.478  28.894  22.834  1.00  0.00    -0.045 A 
BRANCH  21  22
ATOM     22  C   UNL A   1      27.744  30.157  22.431  1.00  0.00     0.013 C 
ATOM     23  C   UNL A   1      27.655  31.137  23.600  1.00  0.00     0.012 C 
ATOM     24  C   UNL A   1      28.397  30.801  21.205  1.00  0.00     0.012 C 
ENDBRANCH  21  22
ENDBRANCH   9  16
ENDBRANCH   4   7
ENDBRANCH   2   3
ENDBRANCH   1   2
BRANCH   1  25
ATOM     25  C   UNL A   1      37.465  23.682  26.023  1.00  0.00     0.118 C 
BRANCH  25  26
ATOM     26  N   UNL A   1      38.524  22.680  26.210  1.00  0.00    -0.352 N 
ATOM     27  C   UNL A   1      39.875  22.863  26.432  1.00  0.00     0.251 C 
ATOM     28  H   UNL A   1      38.226  21.742  26.171  1.00  0.00     0.163 HD
ATOM     29  O   UNL A   1      40.671  21.958  26.262  1.00  0.00    -0.269 OA
BRANCH  27  30
ATOM     30  C   UNL A   1      40.327  24.191  26.877  1.00  0.00     0.039 A 
ATOM     31  C   UNL A   1      40.073  25.339  26.125  1.00  0.00     0.014 A 
ATOM     32  C   UNL A   1      40.948  24.266  28.117  1.00  0.00     0.014 A 
ATOM     33  C   UNL A   1      40.372  26.576  26.689  1.00  0.00     0.010 A 
ATOM     34  C   UNL A   1      41.032  25.472  28.751  1.00  0.00     0.010 A 
ATOM     35  C   UNL A   1      40.823  26.630  28.019  1.00  0.00    -0.014 A 
BRANCH  35  36
ATOM     36  C   UNL A   1      40.956  27.896  28.725  1.00  0.00     0.031 A 
ATOM     37  C   UNL A   1      42.094  28.722  28.246  1.00  0.00     0.074 A 
ATOM     38  C   UNL A   1      40.007  28.364  29.567  1.00  0.00     0.049 A 
ATOM     39  N   UNL A   1      43.180  28.991  28.888  1.00  0.00    -0.248 NA
ATOM     40  C   UNL A   1      42.118  29.151  26.837  1.00  0.00     0.031 C 
ATOM     41  C   UNL A   1      38.690  27.788  29.872  1.00  0.00     0.029 A 
ATOM     42  N   UNL A   1      39.981  29.530  30.270  1.00  0.00    -0.354 N 
ATOM     43  C   UNL A   1      43.929  29.810  28.051  1.00  0.00     0.074 A 
ATOM     44  C   UNL A   1      43.331  29.704  26.747  1.00  0.00     0.031 C 
ATOM     45  C   UNL A   1      37.919  28.710  30.489  1.00  0.00     0.029 A 
ATOM     46  C   UNL A   1      38.731  29.874  30.782  1.00  0.00     0.049 A 
ATOM     47  H   UNL A   1      40.781  30.086  30.405  1.00  0.00     0.167 HD
ATOM     48  C   UNL A   1      44.807  30.708  28.576  1.00  0.00     0.037 A 
ATOM     49  C   UNL A   1      38.398  31.049  31.376  1.00  0.00     0.037 A 
ATOM     50  C   UNL A   1      45.072  30.406  29.963  1.00  0.00     0.049 A 
ATOM     51  C   UNL A   1      39.666  31.699  31.796  1.00  0.00     0.074 A 
ATOM     52  C   UNL A   1      45.597  29.319  30.635  1.00  0.00     0.029 A 
ATOM     53  N   UNL A   1      44.393  31.139  30.906  1.00  0.00    -0.354 N 
ATOM     54  N   UNL A   1      40.434  31.236  32.741  1.00  0.00    -0.248 NA
ATOM     55  C   UNL A   1      40.313  32.578  30.835  1.00  0.00     0.031 C 
ATOM     56  C   UNL A   1      44.809  29.201  31.818  1.00  0.00     0.029 A 
ATOM     57  C   UNL A   1      43.916  30.272  31.854  1.00  0.00     0.049 A 
ATOM     58  H   UNL A   1      44.271  32.115  30.902  1.00  0.00     0.167 HD
ATOM     59  C   UNL A   1      41.721  31.376  32.241  1.00  0.00     0.074 A 
ATOM     60  C   UNL A   1      41.589  32.280  31.099  1.00  0.00     0.031 C 
ATOM     61  C   UNL A   1      42.709  30.510  32.610  1.00  0.00     0.037 A 
BRANCH  48  62
ATOM     62  C   UNL A   1      45.101  32.070  27.994  1.00  0.00     0.064 A 
ATOM     63  C   UNL A   1      46.438  32.406  27.697  1.00  0.00     0.173 A 
ATOM     64  C   UNL A   1      44.193  33.151  28.005  1.00  0.00     0.173 A 
ATOM     65  F   UNL A   1      47.391  31.462  27.672  1.00  0.00    -0.203 F 
ATOM     66  C   UNL A   1      46.846  33.731  27.519  1.00  0.00     0.198 A 
ATOM     67  C   UNL A   1      44.595  34.466  27.774  1.00  0.00     0.198 A 
ATOM     68  F   UNL A   1      42.910  33.008  28.354  1.00  0.00    -0.203 F 
ATOM     69  F   UNL A   1      48.148  34.011  27.376  1.00  0.00    -0.200 F 
ATOM     70  C   UNL A   1      45.925  34.761  27.565  1.00  0.00     0.200 A 
ATOM     71  F   UNL A   1      43.689  35.451  27.843  1.00  0.00    -0.200 F 
ATOM     72  F   UNL A   1      46.321  36.035  27.459  1.00  0.00    -0.200 F 
ENDBRANCH  48  62
BRANCH  49  73
ATOM     73  C   UNL A   1      37.118  31.799  31.334  1.00  0.00     0.064 A 
ATOM     74  C   UNL A   1      36.368  32.013  32.505  1.00  0.00     0.173 A 
ATOM     75  C   UNL A   1      36.764  32.579  30.216  1.00  0.00     0.173 A 
ATOM     76  F   UNL A   1      36.664  31.341  33.627  1.00  0.00    -0.203 F 
ATOM     77  C   UNL A   1      35.356  32.978  32.566  1.00  0.00     0.198 A 
ATOM     78  C   UNL A   1      35.750  33.540  30.278  1.00  0.00     0.198 A 
ATOM     79  F   UNL A   1      37.461  32.498  29.075  1.00  0.00    -0.203 F 
ATOM     80  F   UNL A   1      34.715  33.203  33.722  1.00  0.00    -0.200 F 
ATOM     81  C   UNL A   1      35.059  33.752  31.457  1.00  0.00     0.200 A 
ATOM     82  F   UNL A   1      35.497  34.308  29.209  1.00  0.00    -0.200 F 
ATOM     83  F   UNL A   1      34.142  34.725  31.534  1.00  0.00    -0.200 F 
ENDBRANCH  49  73
BRANCH  61  84
ATOM     84  C   UNL A   1      42.447  29.600  33.780  1.00  0.00     0.064 A 
ATOM     85  C   UNL A   1      41.837  28.336  33.694  1.00  0.00     0.173 A 
ATOM     86  C   UNL A   1      42.956  29.983  35.029  1.00  0.00     0.173 A 
ATOM     87  F   UNL A   1      41.415  27.848  32.521  1.00  0.00    -0.203 F 
ATOM     88  C   UNL A   1      41.699  27.522  34.819  1.00  0.00     0.198 A 
ATOM     89  C   UNL A   1      42.854  29.153  36.139  1.00  0.00     0.198 A 
ATOM     90  F   UNL A   1      43.596  31.156  35.160  1.00  0.00    -0.203 F 
ATOM     91  F   UNL A   1      41.094  26.329  34.717  1.00  0.00    -0.200 F 
ATOM     92  C   UNL A   1      42.213  27.930  36.039  1.00  0.00     0.200 A 
ATOM     93  F   UNL A   1      43.399  29.531  37.303  1.00  0.00    -0.200 F 
ATOM     94  F   UNL A   1      42.114  27.133  37.113  1.00  0.00    -0.200 F 
ENDBRANCH  61  84
ENDBRANCH  35  36
ENDBRANCH  27  30
ENDBRANCH  25  26
ENDBRANCH   1  25
TORSDOF 13
ENDMDL
MODEL 2
REMARK VINA RESULT:     -13.2      3.504      8.910
REMARK SMILES CC(C)=Cc1c(C(=O)NCCCNC(=O)c2ccc(-c3c4nc(c(-c5c(F)c(F)c(F)c(F)c5F)c5ccc([nH]5)c(-c5c(F)c(F)c(F)c(F)c5F)c5nc(c(-c6c(F)c(F)c(F)c(F)c6F)c6ccc3[nH]6)C=C5)C=C4)cc2)nnn1-c1ccc(C(C)C)cc1
REMARK SMILES IDX 11 1 10 2 9 3 7 4 8 5 6 7 5 8 81 9 79 10 80 11 4 12 1 13
REMARK SMILES IDX 2 14 3 15 82 16 83 17 90 18 84 19 89 20 85 21 86 22 87 23
REMARK SMILES IDX 88 24 12 25 13 26 14 27 15 29 16 30 17 31 78 32 18 33 77 34
REMARK SMILES IDX 19 35 20 36 21 37 71 38 22 39 76 40 70 41 72 42 23 43 75 44
REMARK SMILES IDX 69 45 68 46 24 48 56 49 36 50 55 51 37 52 40 53 54 54 73 55
REMARK SMILES IDX 38 56 39 57 53 59 74 60 41 61 25 62 26 63 34 64 27 65 28 66
REMARK SMILES IDX 32 67 35 68 29 69 30 70 33 71 31 72 57 73 58 74 66 75 59 76
REMARK SMILES IDX 60 77 64 78 67 79 61 80 62 81 65 82 63 83 42 84 43 85 51 86
REMARK SMILES IDX 44 87 45 88 49 89 52 90 46 91 47 92 50 93 48 94
REMARK H PARENT 9 6 13 28 72 47 40 58
REMARK Flexibility Score: inf
ROOT
ATOM      1  C   UNL A   1      32.385  29.546  26.653  1.00  0.00     0.042 C 
ENDROOT
BRANCH   1   2
ATOM      2  C   UNL A   1      32.523  28.176  25.984  1.00  0.00     0.118 C 
BRANCH   2   3
ATOM      3  N   UNL A   1      31.813  28.097  24.734  1.00  0.00    -0.351 N 
ATOM      4  C   UNL A   1      31.670  27.114  23.789  1.00  0.00     0.274 C 
ATOM      5  O   UNL A   1      30.906  27.423  22.869  1.00  0.00    -0.267 OA
ATOM      6  H   UNL A   1      31.328  28.924  24.510  1.00  0.00     0.163 HD
BRANCH   4   7
ATOM      7  C   UNL A   1      32.325  25.802  23.805  1.00  0.00     0.178 A 
ATOM      8  C   UNL A   1      32.020  24.521  24.270  1.00  0.00     0.100 A 
ATOM      9  N   UNL A   1      33.103  23.748  23.836  1.00  0.00    -0.213 N 
ATOM     10  N   UNL A   1      33.609  25.762  23.283  1.00  0.00    -0.124 NA
ATOM     11  N   UNL A   1      34.097  24.544  23.401  1.00  0.00    -0.061 NA
BRANCH   8  12
ATOM     12  C   UNL A   1      30.981  23.895  25.011  1.00  0.00     0.029 C 
ATOM     13  C   UNL A   1      32.311  23.673  27.172  1.00  0.00     0.039 C 
ATOM     14  C   UNL A   1      31.089  23.519  26.304  1.00  0.00    -0.074 C 
ATOM     15  C   UNL A   1      29.923  22.857  26.998  1.00  0.00     0.039 C 
ENDBRANCH   8  12
BRANCH   9  16
ATOM     16  C   UNL A   1      33.277  22.344  23.877  1.00  0.00     0.067 A 
ATOM     17  C   UNL A   1      34.332  21.821  24.629  1.00  0.00     0.029 A 
ATOM     18  C   UNL A   1      32.364  21.492  23.247  1.00  0.00     0.029 A 
ATOM     19  C   UNL A   1      34.403  20.445  24.836  1.00  0.00     0.006 A 
ATOM     20  C   UNL A   1      32.459  20.117  23.433  1.00  0.00     0.006 A 
ATOM     21  C   UNL A   1      33.461  19.581  24.254  1.00  0.00    -0.045 A 
BRANCH  21  22
ATOM     22  C   UNL A   1      33.502  18.086  24.500  1.00  0.00     0.013 C 
ATOM     23  C   UNL A   1      32.589  17.695  25.661  1.00  0.00     0.012 C 
ATOM     24  C   UNL A   1      33.155  17.312  23.225  1.00  0.00     0.012 C 
ENDBRANCH  21  22
ENDBRANCH   9  16
ENDBRANCH   4   7
ENDBRANCH   2   3
ENDBRANCH   1   2
BRANCH   1  25
ATOM     25  C   UNL A   1      33.612  29.870  27.483  1.00  0.00     0.118 C 
BRANCH  25  26
ATOM     26  N   UNL A   1      34.088  31.237  27.224  1.00  0.00    -0.352 N 
ATOM     27  C   UNL A   1      35.243  31.859  27.658  1.00  0.00     0.251 C 
ATOM     28  H   UNL A   1      33.499  31.788  26.659  1.00  0.00     0.163 HD
ATOM     29  O   UNL A   1      35.358  33.071  27.624  1.00  0.00    -0.269 OA
BRANCH  27  30
ATOM     30  C   UNL A   1      36.332  31.013  28.168  1.00  0.00     0.039 A 
ATOM     31  C   UNL A   1      36.447  29.670  27.805  1.00  0.00     0.014 A 
ATOM     32  C   UNL A   1      37.290  31.626  28.966  1.00  0.00     0.014 A 
ATOM     33  C   UNL A   1      37.595  28.980  28.182  1.00  0.00     0.010 A 
ATOM     34  C   UNL A   1      38.501  31.020  29.142  1.00  0.00     0.010 A 
ATOM     35  C   UNL A   1      38.632  29.678  28.825  1.00  0.00    -0.014 A 
BRANCH  35  36
ATOM     36  C   UNL A   1      39.931  29.063  29.060  1.00  0.00     0.031 A 
ATOM     37  C   UNL A   1      40.230  28.849  30.499  1.00  0.00     0.074 A 
ATOM     38  C   UNL A   1      40.679  28.538  28.064  1.00  0.00     0.049 A 
ATOM     39  N   UNL A   1      41.116  29.464  31.206  1.00  0.00    -0.248 NA
ATOM     40  C   UNL A   1      39.334  27.989  31.292  1.00  0.00     0.031 C 
ATOM     41  C   UNL A   1      40.341  28.402  26.641  1.00  0.00     0.029 A 
ATOM     42  N   UNL A   1      41.887  27.913  28.134  1.00  0.00    -0.354 N 
ATOM     43  C   UNL A   1      41.044  28.911  32.479  1.00  0.00     0.074 A 
ATOM     44  C   UNL A   1      39.811  28.171  32.526  1.00  0.00     0.031 C 
ATOM     45  C   UNL A   1      41.195  27.538  26.047  1.00  0.00     0.029 A 
ATOM     46  C   UNL A   1      42.239  27.196  26.992  1.00  0.00     0.049 A 
ATOM     47  H   UNL A   1      42.465  27.965  28.928  1.00  0.00     0.167 HD
ATOM     48  C   UNL A   1      42.143  28.895  33.284  1.00  0.00     0.037 A 
ATOM     49  C   UNL A   1      43.304  26.363  26.859  1.00  0.00     0.037 A 
ATOM     50  C   UNL A   1      43.149  29.802  32.784  1.00  0.00     0.049 A 
ATOM     51  C   UNL A   1      44.258  26.699  27.947  1.00  0.00     0.074 A 
ATOM     52  C   UNL A   1      43.196  31.161  32.545  1.00  0.00     0.029 A 
ATOM     53  N   UNL A   1      44.180  29.257  32.057  1.00  0.00    -0.354 N 
ATOM     54  N   UNL A   1      44.920  27.820  28.003  1.00  0.00    -0.248 NA
ATOM     55  C   UNL A   1      44.098  25.999  29.211  1.00  0.00     0.031 C 
ATOM     56  C   UNL A   1      43.927  31.297  31.328  1.00  0.00     0.029 A 
ATOM     57  C   UNL A   1      44.370  30.032  30.943  1.00  0.00     0.049 A 
ATOM     58  H   UNL A   1      44.693  28.452  32.296  1.00  0.00     0.167 HD
ATOM     59  C   UNL A   1      44.852  28.194  29.337  1.00  0.00     0.074 A 
ATOM     60  C   UNL A   1      44.403  26.996  30.047  1.00  0.00     0.031 C 
ATOM     61  C   UNL A   1      44.870  29.512  29.693  1.00  0.00     0.037 A 
BRANCH  48  62
ATOM     62  C   UNL A   1      42.485  27.791  34.255  1.00  0.00     0.064 A 
ATOM     63  C   UNL A   1      43.058  26.603  33.756  1.00  0.00     0.173 A 
ATOM     64  C   UNL A   1      42.001  27.719  35.579  1.00  0.00     0.173 A 
ATOM     65  F   UNL A   1      43.539  26.549  32.504  1.00  0.00    -0.203 F 
ATOM     66  C   UNL A   1      43.060  25.416  34.493  1.00  0.00     0.198 A 
ATOM     67  C   UNL A   1      42.053  26.547  36.331  1.00  0.00     0.198 A 
ATOM     68  F   UNL A   1      41.353  28.734  36.162  1.00  0.00    -0.203 F 
ATOM     69  F   UNL A   1      43.491  24.282  33.925  1.00  0.00    -0.200 F 
ATOM     70  C   UNL A   1      42.550  25.387  35.778  1.00  0.00     0.200 A 
ATOM     71  F   UNL A   1      41.535  26.536  37.567  1.00  0.00    -0.200 F 
ATOM     72  F   UNL A   1      42.492  24.238  36.462  1.00  0.00    -0.200 F 
ENDBRANCH  48  62
BRANCH  49  73
ATOM     73  C   UNL A   1      43.426  25.107  26.078  1.00  0.00     0.064 A 
ATOM     74  C   UNL A   1      44.526  24.891  25.228  1.00  0.00     0.173 A 
ATOM     75  C   UNL A   1      42.643  23.976  26.382  1.00  0.00     0.173 A 
ATOM     76  F   UNL A   1      45.348  25.904  24.918  1.00  0.00    -0.203 F 
ATOM     77  C   UNL A   1      44.847  23.617  24.746  1.00  0.00     0.198 A 
ATOM     78  C   UNL A   1      42.963  22.705  25.897  1.00  0.00     0.198 A 
ATOM     79  F   UNL A   1      41.615  24.064  27.237  1.00  0.00    -0.203 F 
ATOM     80  F   UNL A   1      45.945  23.440  23.998  1.00  0.00    -0.200 F 
ATOM     81  C   UNL A   1      44.074  22.522  25.094  1.00  0.00     0.200 A 
ATOM     82  F   UNL A   1      42.228  21.648  26.272  1.00  0.00    -0.200 F 
ATOM     83  F   UNL A   1      44.420  21.291  24.695  1.00  0.00    -0.200 F 
ENDBRANCH  49  73
BRANCH  61  84
ATOM     84  C   UNL A   1      45.258  30.518  28.643  1.00  0.00     0.064 A 
ATOM     85  C   UNL A   1      44.373  31.094  27.715  1.00  0.00     0.173 A 
ATOM     86  C   UNL A   1      46.571  31.010  28.668  1.00  0.00     0.173 A 
ATOM     87  F   UNL A   1      43.077  30.757  27.691  1.00  0.00    -0.203 F 
ATOM     88  C   UNL A   1      44.801  32.078  26.822  1.00  0.00     0.198 A 
ATOM     89  C   UNL A   1      46.983  32.019  27.805  1.00  0.00     0.198 A 
ATOM     90  F   UNL A   1      47.447  30.536  29.568  1.00  0.00    -0.203 F 
ATOM     91  F   UNL A   1      43.942  32.598  25.931  1.00  0.00    -0.200 F 
ATOM     92  C   UNL A   1      46.104  32.543  26.873  1.00  0.00     0.200 A 
ATOM     93  F   UNL A   1      48.231  32.501  27.895  1.00  0.00    -0.200 F 
ATOM     94  F   UNL A   1      46.507  33.514  26.041  1.00  0.00    -0.200 F 
ENDBRANCH  61  84
ENDBRANCH  35  36
ENDBRANCH  27  30
ENDBRANCH  25  26
ENDBRANCH   1  25
TORSDOF 13
ENDMDL
MODEL 3
REMARK VINA RESULT:     -13.1      2.888      7.586
REMARK SMILES CC(C)=Cc1c(C(=O)NCCCNC(=O)c2ccc(-c3c4nc(c(-c5c(F)c(F)c(F)c(F)c5F)c5ccc([nH]5)c(-c5c(F)c(F)c(F)c(F)c5F)c5nc(c(-c6c(F)c(F)c(F)c(F)c6F)c6ccc3[nH]6)C=C5)C=C4)cc2)nnn1-c1ccc(C(C)C)cc1
REMARK SMILES IDX 11 1 10 2 9 3 7 4 8 5 6 7 5 8 81 9 79 10 80 11 4 12 1 13
REMARK SMILES IDX 2 14 3 15 82 16 83 17 90 18 84 19 89 20 85 21 86 22 87 23
REMARK SMILES IDX 88 24 12 25 13 26 14 27 15 29 16 30 17 31 78 32 18 33 77 34
REMARK SMILES IDX 19 35 20 36 21 37 71 38 22 39 76 40 70 41 72 42 23 43 75 44
REMARK SMILES IDX 69 45 68 46 24 48 56 49 36 50 55 51 37 52 40 53 54 54 73 55
REMARK SMILES IDX 38 56 39 57 53 59 74 60 41 61 25 62 26 63 34 64 27 65 28 66
REMARK SMILES IDX 32 67 35 68 29 69 30 70 33 71 31 72 57 73 58 74 66 75 59 76
REMARK SMILES IDX 60 77 64 78 67 79 61 80 62 81 65 82 63 83 42 84 43 85 51 86
REMARK SMILES IDX 44 87 45 88 49 89 52 90 46 91 47 92 50 93 48 94
REMARK H PARENT 9 6 13 28 72 47 40 58
REMARK Flexibility Score: inf
ROOT
ATOM      1  C   UNL A   1      38.463  19.530  25.095  1.00  0.00     0.042 C 
ENDROOT
BRANCH   1   2
ATOM      2  C   UNL A   1      37.344  20.572  25.032  1.00  0.00     0.118 C 
BRANCH   2   3
ATOM      3  N   UNL A   1      36.035  19.975  24.987  1.00  0.00    -0.351 N 
ATOM      4  C   UNL A   1      34.768  20.461  25.185  1.00  0.00     0.274 C 
ATOM      5  O   UNL A   1      33.883  19.622  24.986  1.00  0.00    -0.267 OA
ATOM      6  H   UNL A   1      36.053  19.015  24.768  1.00  0.00     0.163 HD
BRANCH   4   7
ATOM      7  C   UNL A   1      34.423  21.827  25.591  1.00  0.00     0.178 A 
ATOM      8  C   UNL A   1      34.112  23.029  24.950  1.00  0.00     0.100 A 
ATOM      9  N   UNL A   1      33.799  23.892  26.005  1.00  0.00    -0.213 N 
ATOM     10  N   UNL A   1      34.441  22.074  26.955  1.00  0.00    -0.124 NA
ATOM     11  N   UNL A   1      34.162  23.342  27.179  1.00  0.00    -0.061 NA
BRANCH   8  12
ATOM     12  C   UNL A   1      34.060  23.522  23.618  1.00  0.00     0.029 C 
ATOM     13  C   UNL A   1      32.097  22.070  22.890  1.00  0.00     0.039 C 
ATOM     14  C   UNL A   1      33.166  23.115  22.691  1.00  0.00    -0.074 C 
ATOM     15  C   UNL A   1      33.199  23.702  21.301  1.00  0.00     0.039 C 
ENDBRANCH   8  12
BRANCH   9  16
ATOM     16  C   UNL A   1      33.259  25.200  25.965  1.00  0.00     0.067 A 
ATOM     17  C   UNL A   1      31.894  25.369  26.207  1.00  0.00     0.029 A 
ATOM     18  C   UNL A   1      34.088  26.309  25.770  1.00  0.00     0.029 A 
ATOM     19  C   UNL A   1      31.385  26.657  26.361  1.00  0.00     0.006 A 
ATOM     20  C   UNL A   1      33.567  27.593  25.896  1.00  0.00     0.006 A 
ATOM     21  C   UNL A   1      32.217  27.781  26.222  1.00  0.00    -0.045 A 
BRANCH  21  22
ATOM     22  C   UNL A   1      31.687  29.186  26.423  1.00  0.00     0.013 C 
ATOM     23  C   UNL A   1      32.694  30.050  27.180  1.00  0.00     0.012 C 
ATOM     24  C   UNL A   1      31.294  29.819  25.085  1.00  0.00     0.012 C 
ENDBRANCH  21  22
ENDBRANCH   9  16
ENDBRANCH   4   7
ENDBRANCH   2   3
ENDBRANCH   1   2
BRANCH   1  25
ATOM     25  C   UNL A   1      39.607  20.014  25.965  1.00  0.00     0.118 C 
BRANCH  25  26
ATOM     26  N   UNL A   1      40.813  19.197  25.769  1.00  0.00    -0.352 N 
ATOM     27  C   UNL A   1      42.142  19.576  25.797  1.00  0.00     0.251 C 
ATOM     28  H   UNL A   1      40.650  18.242  25.592  1.00  0.00     0.163 HD
ATOM     29  O   UNL A   1      43.010  18.868  25.319  1.00  0.00    -0.269 OA
BRANCH  27  30
ATOM     30  C   UNL A   1      42.478  20.866  26.418  1.00  0.00     0.039 A 
ATOM     31  C   UNL A   1      42.600  22.033  25.662  1.00  0.00     0.014 A 
ATOM     32  C   UNL A   1      42.593  20.891  27.803  1.00  0.00     0.014 A 
ATOM     33  C   UNL A   1      42.744  23.242  26.335  1.00  0.00     0.010 A 
ATOM     34  C   UNL A   1      42.511  22.086  28.459  1.00  0.00     0.010 A 
ATOM     35  C   UNL A   1      42.666  23.259  27.738  1.00  0.00    -0.014 A 
BRANCH  35  36
ATOM     36  C   UNL A   1      42.606  24.509  28.481  1.00  0.00     0.031 A 
ATOM     37  C   UNL A   1      41.355  25.275  28.245  1.00  0.00     0.074 A 
ATOM     38  C   UNL A   1      43.491  24.822  29.453  1.00  0.00     0.049 A 
ATOM     39  N   UNL A   1      41.240  26.395  27.616  1.00  0.00    -0.248 NA
ATOM     40  C   UNL A   1      40.064  24.651  28.585  1.00  0.00     0.031 C 
ATOM     41  C   UNL A   1      44.580  24.000  29.998  1.00  0.00     0.029 A 
ATOM     42  N   UNL A   1      43.544  25.929  30.244  1.00  0.00    -0.354 N 
ATOM     43  C   UNL A   1      39.892  26.731  27.674  1.00  0.00     0.074 A 
ATOM     44  C   UNL A   1      39.199  25.541  28.092  1.00  0.00     0.031 C 
ATOM     45  C   UNL A   1      45.014  24.527  31.164  1.00  0.00     0.029 A 
ATOM     46  C   UNL A   1      44.365  25.808  31.363  1.00  0.00     0.049 A 
ATOM     47  H   UNL A   1      43.042  26.751  30.041  1.00  0.00     0.167 HD
ATOM     48  C   UNL A   1      39.508  28.037  27.633  1.00  0.00     0.037 A 
ATOM     49  C   UNL A   1      44.471  26.695  32.387  1.00  0.00     0.037 A 
ATOM     50  C   UNL A   1      40.595  28.870  27.172  1.00  0.00     0.049 A 
ATOM     51  C   UNL A   1      43.935  27.991  31.896  1.00  0.00     0.074 A 
ATOM     52  C   UNL A   1      41.346  28.930  26.014  1.00  0.00     0.029 A 
ATOM     53  N   UNL A   1      41.321  29.540  28.127  1.00  0.00    -0.354 N 
ATOM     54  N   UNL A   1      44.517  28.711  30.980  1.00  0.00    -0.248 NA
ATOM     55  C   UNL A   1      42.512  28.232  32.075  1.00  0.00     0.031 C 
ATOM     56  C   UNL A   1      42.676  29.198  26.452  1.00  0.00     0.029 A 
ATOM     57  C   UNL A   1      42.651  29.385  27.834  1.00  0.00     0.049 A 
ATOM     58  H   UNL A   1      40.951  30.043  28.886  1.00  0.00     0.167 HD
ATOM     59  C   UNL A   1      43.479  29.141  30.167  1.00  0.00     0.074 A 
ATOM     60  C   UNL A   1      42.261  28.881  30.934  1.00  0.00     0.031 C 
ATOM     61  C   UNL A   1      43.687  29.377  28.839  1.00  0.00     0.037 A 
BRANCH  48  62
ATOM     62  C   UNL A   1      38.332  28.615  28.383  1.00  0.00     0.064 A 
ATOM     63  C   UNL A   1      37.549  29.607  27.755  1.00  0.00     0.173 A 
ATOM     64  C   UNL A   1      38.129  28.474  29.772  1.00  0.00     0.173 A 
ATOM     65  F   UNL A   1      37.668  29.839  26.439  1.00  0.00    -0.203 F 
ATOM     66  C   UNL A   1      36.701  30.448  28.479  1.00  0.00     0.198 A 
ATOM     67  C   UNL A   1      37.242  29.281  30.483  1.00  0.00     0.198 A 
ATOM     68  F   UNL A   1      38.857  27.640  30.523  1.00  0.00    -0.203 F 
ATOM     69  F   UNL A   1      36.084  31.463  27.859  1.00  0.00    -0.200 F 
ATOM     70  C   UNL A   1      36.554  30.290  29.845  1.00  0.00     0.200 A 
ATOM     71  F   UNL A   1      37.129  29.123  31.809  1.00  0.00    -0.200 F 
ATOM     72  F   UNL A   1      35.793  31.135  30.551  1.00  0.00    -0.200 F 
ENDBRANCH  48  62
BRANCH  49  73
ATOM     73  C   UNL A   1      44.700  26.445  33.832  1.00  0.00     0.064 A 
ATOM     74  C   UNL A   1      44.015  25.417  34.503  1.00  0.00     0.173 A 
ATOM     75  C   UNL A   1      45.810  26.996  34.502  1.00  0.00     0.173 A 
ATOM     76  F   UNL A   1      42.971  24.810  33.921  1.00  0.00    -0.203 F 
ATOM     77  C   UNL A   1      44.439  24.939  35.749  1.00  0.00     0.198 A 
ATOM     78  C   UNL A   1      46.229  26.520  35.748  1.00  0.00     0.198 A 
ATOM     79  F   UNL A   1      46.569  27.932  33.918  1.00  0.00    -0.203 F 
ATOM     80  F   UNL A   1      43.802  23.908  36.323  1.00  0.00    -0.200 F 
ATOM     81  C   UNL A   1      45.555  25.481  36.363  1.00  0.00     0.200 A 
ATOM     82  F   UNL A   1      47.334  27.027  36.314  1.00  0.00    -0.200 F 
ATOM     83  F   UNL A   1      46.006  24.977  37.520  1.00  0.00    -0.200 F 
ENDBRANCH  49  73
BRANCH  61  84
ATOM     84  C   UNL A   1      45.109  29.448  28.351  1.00  0.00     0.064 A 
ATOM     85  C   UNL A   1      45.862  28.347  27.905  1.00  0.00     0.173 A 
ATOM     86  C   UNL A   1      45.688  30.717  28.215  1.00  0.00     0.173 A 
ATOM     87  F   UNL A   1      45.347  27.111  27.904  1.00  0.00    -0.203 F 
ATOM     88  C   UNL A   1      47.151  28.510  27.398  1.00  0.00     0.198 A 
ATOM     89  C   UNL A   1      46.957  30.881  27.671  1.00  0.00     0.198 A 
ATOM     90  F   UNL A   1      44.997  31.811  28.574  1.00  0.00    -0.203 F 
ATOM     91  F   UNL A   1      47.858  27.442  26.999  1.00  0.00    -0.200 F 
ATOM     92  C   UNL A   1      47.694  29.778  27.276  1.00  0.00     0.200 A 
ATOM     93  F   UNL A   1      47.455  32.115  27.507  1.00  0.00    -0.200 F 
ATOM     94  F   UNL A   1      48.919  29.940  26.754  1.00  0.00    -0.200 F 
ENDBRANCH  61  84
ENDBRANCH  35  36
ENDBRANCH  27  30
ENDBRANCH  25  26
ENDBRANCH   1  25
TORSDOF 13
ENDMDL
