MODEL 1
REMARK VINA RESULT:     -12.0      0.000      0.000
REMARK SMILES [NH3+]C1(C(=O)N2[C@@H](C(=O)NCCCNC(=O)c3ccc(-c4c5nc(c(-c6c(F)c(F)c(F)c(F)c6F)c6ccc([nH]6)c(-c6c(F)c(F)c(F)c(F)c6F)c6nc(c(-c7c(F)c(F)c(F)c(F)c7F)c7ccc4[nH]7)C=C6)C=C5)cc3)CC[C@@H]3CCCC[C@@H]32)CC1
REMARK SMILES IDX 10 1 9 2 7 3 8 4 6 6 5 7 86 8 79 9 81 10 85 11 80 12 82 13
REMARK SMILES IDX 84 14 83 15 3 16 4 17 2 18 87 19 88 20 1 21 11 25 12 26
REMARK SMILES IDX 13 27 14 28 15 30 16 31 17 32 78 33 18 34 77 35 19 36 20 37
REMARK SMILES IDX 21 38 71 39 22 40 76 41 70 42 72 43 23 44 75 45 69 46 68 47
REMARK SMILES IDX 24 49 56 50 36 51 55 52 37 53 40 54 54 55 73 56 38 57 39 58
REMARK SMILES IDX 53 60 74 61 41 62 25 63 26 64 34 65 27 66 28 67 32 68 35 69
REMARK SMILES IDX 29 70 30 71 33 72 31 73 57 74 58 75 66 76 59 77 60 78 64 79
REMARK SMILES IDX 67 80 61 81 62 82 65 83 63 84 42 85 43 86 51 87 44 88 45 89
REMARK SMILES IDX 49 90 52 91 46 92 47 93 50 94 48 95
REMARK H PARENT 9 5 1 22 1 23 1 24 13 29 72 48 40 59
REMARK Flexibility Score: inf
ROOT
ATOM      1  C   UNL A   1      34.720  23.571  24.385  1.00  0.00     0.117 C 
ENDROOT
BRANCH   1   2
ATOM      2  N   UNL A   1      34.344  24.154  23.115  1.00  0.00    -0.354 N 
ATOM      3  C   UNL A   1      33.658  25.292  22.845  1.00  0.00     0.242 C 
ATOM      4  O   UNL A   1      33.250  25.445  21.687  1.00  0.00    -0.273 OA
ATOM      5  H   UNL A   1      34.630  23.644  22.322  1.00  0.00     0.163 HD
BRANCH   3   6
ATOM      6  C   UNL A   1      33.240  26.281  23.950  1.00  0.00     0.175 C 
ATOM      7  N   UNL A   1      31.804  26.382  24.325  1.00  0.00    -0.322 N 
ATOM      8  C   UNL A   1      31.421  27.558  25.138  1.00  0.00     0.089 C 
ATOM      9  C   UNL A   1      33.823  27.643  23.484  1.00  0.00     0.036 C 
ATOM     10  C   UNL A   1      31.913  28.869  24.524  1.00  0.00     0.012 C 
ATOM     11  C   UNL A   1      31.901  27.377  26.596  1.00  0.00     0.025 C 
ATOM     12  C   UNL A   1      33.430  28.832  24.342  1.00  0.00     0.008 C 
ATOM     13  C   UNL A   1      31.445  30.037  25.399  1.00  0.00     0.006 C 
ATOM     14  C   UNL A   1      31.785  28.614  27.490  1.00  0.00     0.002 C 
ATOM     15  C   UNL A   1      32.009  29.963  26.811  1.00  0.00     0.000 C 
BRANCH   7  16
ATOM     16  C   UNL A   1      30.891  25.317  24.420  1.00  0.00     0.284 C 
ATOM     17  O   UNL A   1      29.808  25.347  23.829  1.00  0.00    -0.268 OA
BRANCH  16  18
ATOM     18  C   UNL A   1      31.167  24.048  25.201  1.00  0.00     0.174 C 
ATOM     19  C   UNL A   1      30.345  23.928  26.483  1.00  0.00     0.086 C 
ATOM     20  C   UNL A   1      31.833  23.965  26.550  1.00  0.00     0.086 C 
BRANCH  18  21
ATOM     21  N   UNL A   1      31.179  22.841  24.322  1.00  0.00    -0.345 N 
ATOM     22  H   UNL A   1      31.936  22.921  23.644  1.00  0.00     0.345 HD
ATOM     23  H   UNL A   1      30.288  22.770  23.830  1.00  0.00     0.345 HD
ATOM     24  H   UNL A   1      31.320  22.007  24.891  1.00  0.00     0.345 HD
ENDBRANCH  18  21
ENDBRANCH  16  18
ENDBRANCH   7  16
ENDBRANCH   3   6
ENDBRANCH   1   2
BRANCH   1  25
ATOM     25  C   UNL A   1      36.205  23.771  24.651  1.00  0.00     0.042 C 
BRANCH  25  26
ATOM     26  C   UNL A   1      36.622  23.424  26.073  1.00  0.00     0.118 C 
BRANCH  26  27
ATOM     27  N   UNL A   1      37.742  22.497  26.117  1.00  0.00    -0.352 N 
ATOM     28  C   UNL A   1      39.056  22.747  26.407  1.00  0.00     0.251 C 
ATOM     29  H   UNL A   1      37.525  21.560  25.911  1.00  0.00     0.163 HD
ATOM     30  O   UNL A   1      39.909  21.878  26.214  1.00  0.00    -0.269 OA
BRANCH  28  31
ATOM     31  C   UNL A   1      39.457  24.063  26.940  1.00  0.00     0.039 A 
ATOM     32  C   UNL A   1      40.044  24.992  26.078  1.00  0.00     0.014 A 
ATOM     33  C   UNL A   1      39.278  24.372  28.292  1.00  0.00     0.014 A 
ATOM     34  C   UNL A   1      40.422  26.243  26.565  1.00  0.00     0.010 A 
ATOM     35  C   UNL A   1      39.576  25.648  28.757  1.00  0.00     0.010 A 
ATOM     36  C   UNL A   1      40.176  26.585  27.904  1.00  0.00    -0.014 A 
BRANCH  36  37
ATOM     37  C   UNL A   1      40.606  27.894  28.455  1.00  0.00     0.031 A 
ATOM     38  C   UNL A   1      42.058  28.120  28.776  1.00  0.00     0.074 A 
ATOM     39  C   UNL A   1      39.694  28.850  28.711  1.00  0.00     0.049 A 
ATOM     40  N   UNL A   1      42.633  29.156  29.334  1.00  0.00    -0.248 NA
ATOM     41  C   UNL A   1      42.984  27.021  28.457  1.00  0.00     0.031 C 
ATOM     42  C   UNL A   1      38.253  28.729  28.481  1.00  0.00     0.029 A 
ATOM     43  N   UNL A   1      39.845  30.110  29.229  1.00  0.00    -0.354 N 
ATOM     44  C   UNL A   1      43.976  28.820  29.453  1.00  0.00     0.074 A 
ATOM     45  C   UNL A   1      44.123  27.468  28.963  1.00  0.00     0.031 C 
ATOM     46  C   UNL A   1      37.655  29.879  28.836  1.00  0.00     0.029 A 
ATOM     47  C   UNL A   1      38.665  30.802  29.345  1.00  0.00     0.049 A 
ATOM     48  H   UNL A   1      40.717  30.484  29.492  1.00  0.00     0.167 HD
ATOM     49  C   UNL A   1      44.999  29.583  29.905  1.00  0.00     0.037 A 
ATOM     50  C   UNL A   1      38.429  32.043  29.812  1.00  0.00     0.037 A 
ATOM     51  C   UNL A   1      44.854  30.943  30.349  1.00  0.00     0.049 A 
ATOM     52  C   UNL A   1      39.589  32.878  30.285  1.00  0.00     0.074 A 
ATOM     53  C   UNL A   1      45.834  31.821  30.777  1.00  0.00     0.029 A 
ATOM     54  N   UNL A   1      43.647  31.624  30.414  1.00  0.00    -0.354 N 
ATOM     55  N   UNL A   1      40.862  32.572  30.343  1.00  0.00    -0.248 NA
ATOM     56  C   UNL A   1      39.278  34.238  30.749  1.00  0.00     0.031 C 
ATOM     57  C   UNL A   1      45.215  33.025  31.131  1.00  0.00     0.029 A 
ATOM     58  C   UNL A   1      43.857  32.910  30.881  1.00  0.00     0.049 A 
ATOM     59  H   UNL A   1      42.772  31.248  30.164  1.00  0.00     0.167 HD
ATOM     60  C   UNL A   1      41.508  33.708  30.812  1.00  0.00     0.074 A 
ATOM     61  C   UNL A   1      40.485  34.714  31.016  1.00  0.00     0.031 C 
ATOM     62  C   UNL A   1      42.827  33.902  31.053  1.00  0.00     0.037 A 
BRANCH  49  63
ATOM     63  C   UNL A   1      46.367  28.964  29.926  1.00  0.00     0.064 A 
ATOM     64  C   UNL A   1      46.851  28.287  31.055  1.00  0.00     0.173 A 
ATOM     65  C   UNL A   1      47.194  29.026  28.794  1.00  0.00     0.173 A 
ATOM     66  F   UNL A   1      46.105  28.212  32.169  1.00  0.00    -0.203 F 
ATOM     67  C   UNL A   1      48.123  27.723  31.063  1.00  0.00     0.198 A 
ATOM     68  C   UNL A   1      48.454  28.433  28.794  1.00  0.00     0.198 A 
ATOM     69  F   UNL A   1      46.779  29.658  27.686  1.00  0.00    -0.203 F 
ATOM     70  F   UNL A   1      48.583  27.127  32.172  1.00  0.00    -0.200 F 
ATOM     71  C   UNL A   1      48.920  27.789  29.931  1.00  0.00     0.200 A 
ATOM     72  F   UNL A   1      49.219  28.488  27.695  1.00  0.00    -0.200 F 
ATOM     73  F   UNL A   1      50.142  27.239  29.938  1.00  0.00    -0.200 F 
ENDBRANCH  49  63
BRANCH  50  74
ATOM     74  C   UNL A   1      37.047  32.585  29.819  1.00  0.00     0.064 A 
ATOM     75  C   UNL A   1      36.547  33.289  28.713  1.00  0.00     0.173 A 
ATOM     76  C   UNL A   1      36.201  32.422  30.925  1.00  0.00     0.173 A 
ATOM     77  F   UNL A   1      37.324  33.487  27.639  1.00  0.00    -0.203 F 
ATOM     78  C   UNL A   1      35.263  33.829  28.725  1.00  0.00     0.198 A 
ATOM     79  C   UNL A   1      34.908  32.940  30.924  1.00  0.00     0.198 A 
ATOM     80  F   UNL A   1      36.630  31.752  32.004  1.00  0.00    -0.203 F 
ATOM     81  F   UNL A   1      34.828  34.538  27.673  1.00  0.00    -0.200 F 
ATOM     82  C   UNL A   1      34.442  33.651  29.828  1.00  0.00     0.200 A 
ATOM     83  F   UNL A   1      34.113  32.754  31.987  1.00  0.00    -0.200 F 
ATOM     84  F   UNL A   1      33.207  34.170  29.838  1.00  0.00    -0.200 F 
ENDBRANCH  50  74
BRANCH  62  85
ATOM     85  C   UNL A   1      43.249  35.266  31.513  1.00  0.00     0.064 A 
ATOM     86  C   UNL A   1      43.677  36.249  30.610  1.00  0.00     0.173 A 
ATOM     87  C   UNL A   1      43.180  35.605  32.873  1.00  0.00     0.173 A 
ATOM     88  F   UNL A   1      43.773  35.968  29.301  1.00  0.00    -0.203 F 
ATOM     89  C   UNL A   1      44.046  37.516  31.056  1.00  0.00     0.198 A 
ATOM     90  C   UNL A   1      43.523  36.880  33.312  1.00  0.00     0.198 A 
ATOM     91  F   UNL A   1      42.769  34.700  33.775  1.00  0.00    -0.203 F 
ATOM     92  F   UNL A   1      44.497  38.425  30.181  1.00  0.00    -0.200 F 
ATOM     93  C   UNL A   1      43.962  37.831  32.404  1.00  0.00     0.200 A 
ATOM     94  F   UNL A   1      43.428  37.188  34.612  1.00  0.00    -0.200 F 
ATOM     95  F   UNL A   1      44.311  39.053  32.830  1.00  0.00    -0.200 F 
ENDBRANCH  62  85
ENDBRANCH  36  37
ENDBRANCH  28  31
ENDBRANCH  26  27
ENDBRANCH  25  26
ENDBRANCH   1  25
TORSDOF 13
ENDMDL
MODEL 2
REMARK VINA RESULT:     -11.9      3.354      8.856
REMARK SMILES [NH3+]C1(C(=O)N2[C@@H](C(=O)NCCCNC(=O)c3ccc(-c4c5nc(c(-c6c(F)c(F)c(F)c(F)c6F)c6ccc([nH]6)c(-c6c(F)c(F)c(F)c(F)c6F)c6nc(c(-c7c(F)c(F)c(F)c(F)c7F)c7ccc4[nH]7)C=C6)C=C5)cc3)CC[C@@H]3CCCC[C@@H]32)CC1
REMARK SMILES IDX 10 1 9 2 7 3 8 4 6 6 5 7 86 8 79 9 81 10 85 11 80 12 82 13
REMARK SMILES IDX 84 14 83 15 3 16 4 17 2 18 87 19 88 20 1 21 11 25 12 26
REMARK SMILES IDX 13 27 14 28 15 30 16 31 17 32 78 33 18 34 77 35 19 36 20 37
REMARK SMILES IDX 21 38 71 39 22 40 76 41 70 42 72 43 23 44 75 45 69 46 68 47
REMARK SMILES IDX 24 49 56 50 36 51 55 52 37 53 40 54 54 55 73 56 38 57 39 58
REMARK SMILES IDX 53 60 74 61 41 62 25 63 26 64 34 65 27 66 28 67 32 68 35 69
REMARK SMILES IDX 29 70 30 71 33 72 31 73 57 74 58 75 66 76 59 77 60 78 64 79
REMARK SMILES IDX 67 80 61 81 62 82 65 83 63 84 42 85 43 86 51 87 44 88 45 89
REMARK SMILES IDX 49 90 52 91 46 92 47 93 50 94 48 95
REMARK H PARENT 9 5 1 22 1 23 1 24 13 29 72 48 40 59
REMARK Flexibility Score: inf
ROOT
ATOM      1  C   UNL A   1      32.217  26.904  25.940  1.00  0.00     0.117 C 
ENDROOT
BRANCH   1   2
ATOM      2  N   UNL A   1      31.561  25.808  26.622  1.00  0.00    -0.354 N 
ATOM      3  C   UNL A   1      31.867  24.488  26.651  1.00  0.00     0.242 C 
ATOM      4  O   UNL A   1      31.011  23.718  27.104  1.00  0.00    -0.273 OA
ATOM      5  H   UNL A   1      30.766  26.061  27.146  1.00  0.00     0.163 HD
BRANCH   3   6
ATOM      6  C   UNL A   1      33.144  23.926  25.996  1.00  0.00     0.175 C 
ATOM      7  N   UNL A   1      33.033  23.196  24.705  1.00  0.00    -0.322 N 
ATOM      8  C   UNL A   1      34.216  22.407  24.296  1.00  0.00     0.089 C 
ATOM      9  C   UNL A   1      33.793  23.059  27.108  1.00  0.00     0.036 C 
ATOM     10  C   UNL A   1      34.697  21.472  25.405  1.00  0.00     0.012 C 
ATOM     11  C   UNL A   1      35.335  23.345  23.792  1.00  0.00     0.025 C 
ATOM     12  C   UNL A   1      35.015  22.270  26.669  1.00  0.00     0.008 C 
ATOM     13  C   UNL A   1      35.894  20.664  24.893  1.00  0.00     0.006 C 
ATOM     14  C   UNL A   1      36.698  22.687  23.562  1.00  0.00     0.002 C 
ATOM     15  C   UNL A   1      37.071  21.553  24.513  1.00  0.00     0.000 C 
BRANCH   7  16
ATOM     16  C   UNL A   1      32.182  23.523  23.633  1.00  0.00     0.284 C 
ATOM     17  O   UNL A   1      31.388  22.698  23.171  1.00  0.00    -0.268 OA
BRANCH  16  18
ATOM     18  C   UNL A   1      32.133  24.897  22.995  1.00  0.00     0.174 C 
ATOM     19  C   UNL A   1      32.874  24.978  21.661  1.00  0.00     0.086 C 
ATOM     20  C   UNL A   1      33.302  25.828  22.808  1.00  0.00     0.086 C 
BRANCH  18  21
ATOM     21  N   UNL A   1      30.755  25.471  23.008  1.00  0.00    -0.345 N 
ATOM     22  H   UNL A   1      30.565  25.919  22.112  1.00  0.00     0.345 HD
ATOM     23  H   UNL A   1      30.682  26.162  23.755  1.00  0.00     0.345 HD
ATOM     24  H   UNL A   1      30.077  24.726  23.166  1.00  0.00     0.345 HD
ENDBRANCH  18  21
ENDBRANCH  16  18
ENDBRANCH   7  16
ENDBRANCH   3   6
ENDBRANCH   1   2
BRANCH   1  25
ATOM     25  C   UNL A   1      33.083  27.698  26.907  1.00  0.00     0.042 C 
BRANCH  25  26
ATOM     26  C   UNL A   1      33.969  28.730  26.223  1.00  0.00     0.118 C 
BRANCH  26  27
ATOM     27  N   UNL A   1      33.736  30.080  26.714  1.00  0.00    -0.352 N 
ATOM     28  C   UNL A   1      34.458  30.801  27.627  1.00  0.00     0.251 C 
ATOM     29  H   UNL A   1      32.951  30.538  26.338  1.00  0.00     0.163 HD
ATOM     30  O   UNL A   1      34.012  31.861  28.070  1.00  0.00    -0.269 OA
BRANCH  28  31
ATOM     31  C   UNL A   1      35.767  30.304  28.092  1.00  0.00     0.039 A 
ATOM     32  C   UNL A   1      35.855  29.704  29.349  1.00  0.00     0.014 A 
ATOM     33  C   UNL A   1      36.910  30.452  27.301  1.00  0.00     0.014 A 
ATOM     34  C   UNL A   1      37.084  29.222  29.801  1.00  0.00     0.010 A 
ATOM     35  C   UNL A   1      38.115  29.897  27.714  1.00  0.00     0.010 A 
ATOM     36  C   UNL A   1      38.219  29.302  28.979  1.00  0.00    -0.014 A 
BRANCH  36  37
ATOM     37  C   UNL A   1      39.545  28.834  29.453  1.00  0.00     0.031 A 
ATOM     38  C   UNL A   1      40.307  29.661  30.452  1.00  0.00     0.074 A 
ATOM     39  C   UNL A   1      40.080  27.705  28.952  1.00  0.00     0.049 A 
ATOM     40  N   UNL A   1      41.510  29.476  30.936  1.00  0.00    -0.248 NA
ATOM     41  C   UNL A   1      39.642  30.877  30.948  1.00  0.00     0.031 C 
ATOM     42  C   UNL A   1      39.453  26.843  27.948  1.00  0.00     0.029 A 
ATOM     43  N   UNL A   1      41.278  27.092  29.216  1.00  0.00    -0.354 N 
ATOM     44  C   UNL A   1      41.748  30.562  31.770  1.00  0.00     0.074 A 
ATOM     45  C   UNL A   1      40.594  31.428  31.684  1.00  0.00     0.031 C 
ATOM     46  C   UNL A   1      40.263  25.801  27.698  1.00  0.00     0.029 A 
ATOM     47  C   UNL A   1      41.475  25.938  28.499  1.00  0.00     0.049 A 
ATOM     48  H   UNL A   1      41.934  27.446  29.859  1.00  0.00     0.167 HD
ATOM     49  C   UNL A   1      42.823  30.800  32.558  1.00  0.00     0.037 A 
ATOM     50  C   UNL A   1      42.521  25.090  28.492  1.00  0.00     0.037 A 
ATOM     51  C   UNL A   1      43.949  29.913  32.673  1.00  0.00     0.049 A 
ATOM     52  C   UNL A   1      43.693  25.366  29.396  1.00  0.00     0.074 A 
ATOM     53  C   UNL A   1      45.065  30.034  33.482  1.00  0.00     0.029 A 
ATOM     54  N   UNL A   1      44.095  28.731  31.961  1.00  0.00    -0.354 N 
ATOM     55  N   UNL A   1      43.885  26.366  30.222  1.00  0.00    -0.248 NA
ATOM     56  C   UNL A   1      44.789  24.387  29.376  1.00  0.00     0.031 C 
ATOM     57  C   UNL A   1      45.902  28.940  33.235  1.00  0.00     0.029 A 
ATOM     58  C   UNL A   1      45.286  28.116  32.306  1.00  0.00     0.049 A 
ATOM     59  H   UNL A   1      43.447  28.382  31.307  1.00  0.00     0.167 HD
ATOM     60  C   UNL A   1      45.101  26.120  30.844  1.00  0.00     0.074 A 
ATOM     61  C   UNL A   1      45.599  24.870  30.306  1.00  0.00     0.031 C 
ATOM     62  C   UNL A   1      45.749  26.861  31.775  1.00  0.00     0.037 A 
BRANCH  49  63
ATOM     63  C   UNL A   1      42.822  32.065  33.366  1.00  0.00     0.064 A 
ATOM     64  C   UNL A   1      43.338  33.265  32.855  1.00  0.00     0.173 A 
ATOM     65  C   UNL A   1      42.275  32.084  34.658  1.00  0.00     0.173 A 
ATOM     66  F   UNL A   1      43.886  33.297  31.630  1.00  0.00    -0.203 F 
ATOM     67  C   UNL A   1      43.336  34.430  33.618  1.00  0.00     0.198 A 
ATOM     68  C   UNL A   1      42.246  33.258  35.406  1.00  0.00     0.198 A 
ATOM     69  F   UNL A   1      41.765  30.965  35.194  1.00  0.00    -0.203 F 
ATOM     70  F   UNL A   1      43.882  35.551  33.127  1.00  0.00    -0.200 F 
ATOM     71  C   UNL A   1      42.783  34.427  34.889  1.00  0.00     0.200 A 
ATOM     72  F   UNL A   1      41.700  33.258  36.631  1.00  0.00    -0.200 F 
ATOM     73  F   UNL A   1      42.775  35.551  35.619  1.00  0.00    -0.200 F 
ENDBRANCH  49  63
BRANCH  50  74
ATOM     74  C   UNL A   1      42.492  23.881  27.631  1.00  0.00     0.064 A 
ATOM     75  C   UNL A   1      42.063  22.647  28.140  1.00  0.00     0.173 A 
ATOM     76  C   UNL A   1      42.899  23.927  26.289  1.00  0.00     0.173 A 
ATOM     77  F   UNL A   1      41.683  22.548  29.422  1.00  0.00    -0.203 F 
ATOM     78  C   UNL A   1      42.064  21.501  27.348  1.00  0.00     0.198 A 
ATOM     79  C   UNL A   1      42.873  22.785  25.491  1.00  0.00     0.198 A 
ATOM     80  F   UNL A   1      43.312  25.084  25.753  1.00  0.00    -0.203 F 
ATOM     81  F   UNL A   1      41.693  20.325  27.874  1.00  0.00    -0.200 F 
ATOM     82  C   UNL A   1      42.465  21.572  26.022  1.00  0.00     0.200 A 
ATOM     83  F   UNL A   1      43.249  22.860  24.207  1.00  0.00    -0.200 F 
ATOM     84  F   UNL A   1      42.465  20.469  25.261  1.00  0.00    -0.200 F 
ENDBRANCH  50  74
BRANCH  62  85
ATOM     85  C   UNL A   1      47.039  26.315  32.312  1.00  0.00     0.064 A 
ATOM     86  C   UNL A   1      47.071  25.441  33.408  1.00  0.00     0.173 A 
ATOM     87  C   UNL A   1      48.255  26.639  31.691  1.00  0.00     0.173 A 
ATOM     88  F   UNL A   1      45.935  25.113  34.044  1.00  0.00    -0.203 F 
ATOM     89  C   UNL A   1      48.278  24.931  33.879  1.00  0.00     0.198 A 
ATOM     90  C   UNL A   1      49.456  26.105  32.147  1.00  0.00     0.198 A 
ATOM     91  F   UNL A   1      48.275  27.465  30.634  1.00  0.00    -0.203 F 
ATOM     92  F   UNL A   1      48.290  24.134  34.956  1.00  0.00    -0.200 F 
ATOM     93  C   UNL A   1      49.467  25.258  33.244  1.00  0.00     0.200 A 
ATOM     94  F   UNL A   1      50.603  26.410  31.525  1.00  0.00    -0.200 F 
ATOM     95  F   UNL A   1      50.627  24.759  33.695  1.00  0.00    -0.200 F 
ENDBRANCH  62  85
ENDBRANCH  36  37
ENDBRANCH  28  31
ENDBRANCH  26  27
ENDBRANCH  25  26
ENDBRANCH   1  25
TORSDOF 13
ENDMDL
MODEL 3
REMARK VINA RESULT:     -11.7      3.912      8.839
REMARK SMILES [NH3+]C1(C(=O)N2[C@@H](C(=O)NCCCNC(=O)c3ccc(-c4c5nc(c(-c6c(F)c(F)c(F)c(F)c6F)c6ccc([nH]6)c(-c6c(F)c(F)c(F)c(F)c6F)c6nc(c(-c7c(F)c(F)c(F)c(F)c7F)c7ccc4[nH]7)C=C6)C=C5)cc3)CC[C@@H]3CCCC[C@@H]32)CC1
REMARK SMILES IDX 10 1 9 2 7 3 8 4 6 6 5 7 86 8 79 9 81 10 85 11 80 12 82 13
REMARK SMILES IDX 84 14 83 15 3 16 4 17 2 18 87 19 88 20 1 21 11 25 12 26
REMARK SMILES IDX 13 27 14 28 15 30 16 31 17 32 78 33 18 34 77 35 19 36 20 37
REMARK SMILES IDX 21 38 71 39 22 40 76 41 70 42 72 43 23 44 75 45 69 46 68 47
REMARK SMILES IDX 24 49 56 50 36 51 55 52 37 53 40 54 54 55 73 56 38 57 39 58
REMARK SMILES IDX 53 60 74 61 41 62 25 63 26 64 34 65 27 66 28 67 32 68 35 69
REMARK SMILES IDX 29 70 30 71 33 72 31 73 57 74 58 75 66 76 59 77 60 78 64 79
REMARK SMILES IDX 67 80 61 81 62 82 65 83 63 84 42 85 43 86 51 87 44 88 45 89
REMARK SMILES IDX 49 90 52 91 46 92 47 93 50 94 48 95
REMARK H PARENT 9 5 1 22 1 23 1 24 13 29 72 48 40 59
REMARK Flexibility Score: inf
ROOT
ATOM      1  C   UNL A   1      32.784  27.021  26.507  1.00  0.00     0.117 C 
ENDROOT
BRANCH   1   2
ATOM      2  N   UNL A   1      31.796  26.004  26.798  1.00  0.00    -0.354 N 
ATOM      3  C   UNL A   1      31.819  24.669  26.561  1.00  0.00     0.242 C 
ATOM      4  O   UNL A   1      30.752  24.055  26.679  1.00  0.00    -0.273 OA
ATOM      5  H   UNL A   1      30.978  26.333  27.237  1.00  0.00     0.163 HD
BRANCH   3   6
ATOM      6  C   UNL A   1      33.065  23.956  25.998  1.00  0.00     0.175 C 
ATOM      7  N   UNL A   1      32.983  23.303  24.664  1.00  0.00    -0.322 N 
ATOM      8  C   UNL A   1      34.079  22.369  24.325  1.00  0.00     0.089 C 
ATOM      9  C   UNL A   1      33.472  22.960  27.116  1.00  0.00     0.036 C 
ATOM     10  C   UNL A   1      34.312  21.330  25.421  1.00  0.00     0.012 C 
ATOM     11  C   UNL A   1      35.364  23.156  23.981  1.00  0.00     0.025 C 
ATOM     12  C   UNL A   1      34.609  22.021  26.751  1.00  0.00     0.008 C 
ATOM     13  C   UNL A   1      35.429  20.379  24.980  1.00  0.00     0.006 C 
ATOM     14  C   UNL A   1      36.637  22.318  23.843  1.00  0.00     0.002 C 
ATOM     15  C   UNL A   1      36.751  21.103  24.761  1.00  0.00     0.000 C 
BRANCH   7  16
ATOM     16  C   UNL A   1      32.298  23.793  23.537  1.00  0.00     0.284 C 
ATOM     17  O   UNL A   1      31.591  23.054  22.846  1.00  0.00    -0.268 OA
BRANCH  16  18
ATOM     18  C   UNL A   1      32.330  25.246  23.107  1.00  0.00     0.174 C 
ATOM     19  C   UNL A   1      33.054  25.476  21.782  1.00  0.00     0.086 C 
ATOM     20  C   UNL A   1      33.555  26.120  23.029  1.00  0.00     0.086 C 
BRANCH  18  21
ATOM     21  N   UNL A   1      30.993  25.897  23.238  1.00  0.00    -0.345 N 
ATOM     22  H   UNL A   1      30.978  26.758  22.690  1.00  0.00     0.345 HD
ATOM     23  H   UNL A   1      30.815  26.116  24.218  1.00  0.00     0.345 HD
ATOM     24  H   UNL A   1      30.271  25.265  22.894  1.00  0.00     0.345 HD
ENDBRANCH  18  21
ENDBRANCH  16  18
ENDBRANCH   7  16
ENDBRANCH   3   6
ENDBRANCH   1   2
BRANCH   1  25
ATOM     25  C   UNL A   1      32.130  28.245  25.883  1.00  0.00     0.042 C 
BRANCH  25  26
ATOM     26  C   UNL A   1      33.120  29.335  25.497  1.00  0.00     0.118 C 
BRANCH  26  27
ATOM     27  N   UNL A   1      32.682  30.659  25.909  1.00  0.00    -0.352 N 
ATOM     28  C   UNL A   1      33.140  31.435  26.940  1.00  0.00     0.251 C 
ATOM     29  H   UNL A   1      31.957  31.052  25.373  1.00  0.00     0.163 HD
ATOM     30  O   UNL A   1      32.528  32.454  27.266  1.00  0.00    -0.269 OA
BRANCH  28  31
ATOM     31  C   UNL A   1      34.361  31.047  27.671  1.00  0.00     0.039 A 
ATOM     32  C   UNL A   1      35.392  31.978  27.810  1.00  0.00     0.014 A 
ATOM     33  C   UNL A   1      34.501  29.759  28.197  1.00  0.00     0.014 A 
ATOM     34  C   UNL A   1      36.550  31.629  28.505  1.00  0.00     0.010 A 
ATOM     35  C   UNL A   1      35.617  29.439  28.961  1.00  0.00     0.010 A 
ATOM     36  C   UNL A   1      36.664  30.362  29.099  1.00  0.00    -0.014 A 
BRANCH  36  37
ATOM     37  C   UNL A   1      37.901  29.953  29.807  1.00  0.00     0.031 A 
ATOM     38  C   UNL A   1      38.161  30.467  31.197  1.00  0.00     0.074 A 
ATOM     39  C   UNL A   1      38.804  29.169  29.190  1.00  0.00     0.049 A 
ATOM     40  N   UNL A   1      39.210  30.297  31.961  1.00  0.00    -0.248 NA
ATOM     41  C   UNL A   1      37.114  31.313  31.795  1.00  0.00     0.031 C 
ATOM     42  C   UNL A   1      38.681  28.645  27.828  1.00  0.00     0.029 A 
ATOM     43  N   UNL A   1      40.010  28.684  29.626  1.00  0.00    -0.354 N 
ATOM     44  C   UNL A   1      38.958  31.033  33.113  1.00  0.00     0.074 A 
ATOM     45  C   UNL A   1      37.686  31.695  32.926  1.00  0.00     0.031 C 
ATOM     46  C   UNL A   1      39.758  27.892  27.550  1.00  0.00     0.029 A 
ATOM     47  C   UNL A   1      40.658  27.906  28.699  1.00  0.00     0.049 A 
ATOM     48  H   UNL A   1      40.376  28.874  30.520  1.00  0.00     0.167 HD
ATOM     49  C   UNL A   1      39.708  31.125  34.236  1.00  0.00     0.037 A 
ATOM     50  C   UNL A   1      41.848  27.279  28.772  1.00  0.00     0.037 A 
ATOM     51  C   UNL A   1      40.951  30.429  34.433  1.00  0.00     0.049 A 
ATOM     52  C   UNL A   1      42.649  27.378  30.042  1.00  0.00     0.074 A 
ATOM     53  C   UNL A   1      41.763  30.412  35.553  1.00  0.00     0.029 A 
ATOM     54  N   UNL A   1      41.556  29.617  33.485  1.00  0.00    -0.354 N 
ATOM     55  N   UNL A   1      42.377  28.032  31.146  1.00  0.00    -0.248 NA
ATOM     56  C   UNL A   1      43.921  26.642  30.080  1.00  0.00     0.031 C 
ATOM     57  C   UNL A   1      42.877  29.615  35.271  1.00  0.00     0.029 A 
ATOM     58  C   UNL A   1      42.736  29.099  33.992  1.00  0.00     0.049 A 
ATOM     59  H   UNL A   1      41.199  29.436  32.586  1.00  0.00     0.167 HD
ATOM     60  C   UNL A   1      43.420  27.758  32.020  1.00  0.00     0.074 A 
ATOM     61  C   UNL A   1      44.328  26.871  31.320  1.00  0.00     0.031 C 
ATOM     62  C   UNL A   1      43.611  28.200  33.286  1.00  0.00     0.037 A 
BRANCH  49  63
ATOM     63  C   UNL A   1      39.193  32.000  35.342  1.00  0.00     0.064 A 
ATOM     64  C   UNL A   1      38.411  31.485  36.386  1.00  0.00     0.173 A 
ATOM     65  C   UNL A   1      39.508  33.367  35.372  1.00  0.00     0.173 A 
ATOM     66  F   UNL A   1      38.070  30.186  36.396  1.00  0.00    -0.203 F 
ATOM     67  C   UNL A   1      37.936  32.310  37.401  1.00  0.00     0.198 A 
ATOM     68  C   UNL A   1      39.057  34.184  36.406  1.00  0.00     0.198 A 
ATOM     69  F   UNL A   1      40.255  33.912  34.401  1.00  0.00    -0.203 F 
ATOM     70  F   UNL A   1      37.146  31.803  38.359  1.00  0.00    -0.200 F 
ATOM     71  C   UNL A   1      38.265  33.656  37.415  1.00  0.00     0.200 A 
ATOM     72  F   UNL A   1      39.385  35.483  36.425  1.00  0.00    -0.200 F 
ATOM     73  F   UNL A   1      37.812  34.447  38.397  1.00  0.00    -0.200 F 
ENDBRANCH  49  63
BRANCH  50  74
ATOM     74  C   UNL A   1      42.333  26.470  27.626  1.00  0.00     0.064 A 
ATOM     75  C   UNL A   1      41.871  25.161  27.424  1.00  0.00     0.173 A 
ATOM     76  C   UNL A   1      43.272  26.977  26.716  1.00  0.00     0.173 A 
ATOM     77  F   UNL A   1      40.988  24.625  28.278  1.00  0.00    -0.203 F 
ATOM     78  C   UNL A   1      42.347  24.384  26.371  1.00  0.00     0.198 A 
ATOM     79  C   UNL A   1      43.726  26.208  25.647  1.00  0.00     0.198 A 
ATOM     80  F   UNL A   1      43.740  28.225  26.861  1.00  0.00    -0.203 F 
ATOM     81  F   UNL A   1      41.923  23.120  26.230  1.00  0.00    -0.200 F 
ATOM     82  C   UNL A   1      43.270  24.909  25.480  1.00  0.00     0.200 A 
ATOM     83  F   UNL A   1      44.608  26.723  24.780  1.00  0.00    -0.200 F 
ATOM     84  F   UNL A   1      43.727  24.161  24.466  1.00  0.00    -0.200 F 
ENDBRANCH  50  74
BRANCH  62  85
ATOM     85  C   UNL A   1      44.817  27.692  34.018  1.00  0.00     0.064 A 
ATOM     86  C   UNL A   1      44.785  26.500  34.756  1.00  0.00     0.173 A 
ATOM     87  C   UNL A   1      46.035  28.386  33.941  1.00  0.00     0.173 A 
ATOM     88  F   UNL A   1      43.641  25.807  34.870  1.00  0.00    -0.203 F 
ATOM     89  C   UNL A   1      45.922  26.035  35.412  1.00  0.00     0.198 A 
ATOM     90  C   UNL A   1      47.175  27.905  34.574  1.00  0.00     0.198 A 
ATOM     91  F   UNL A   1      46.117  29.528  33.240  1.00  0.00    -0.203 F 
ATOM     92  F   UNL A   1      45.857  24.918  36.149  1.00  0.00    -0.200 F 
ATOM     93  C   UNL A   1      47.117  26.734  35.314  1.00  0.00     0.200 A 
ATOM     94  F   UNL A   1      48.332  28.572  34.468  1.00  0.00    -0.200 F 
ATOM     95  F   UNL A   1      48.211  26.281  35.941  1.00  0.00    -0.200 F 
ENDBRANCH  62  85
ENDBRANCH  36  37
ENDBRANCH  28  31
ENDBRANCH  26  27
ENDBRANCH  25  26
ENDBRANCH   1  25
TORSDOF 13
ENDMDL
