MODEL 1
REMARK VINA RESULT:     -11.7      0.000      0.000
REMARK SMILES Cc1cc(NCc2ccc(C(=O)NCCCNC(=O)c3ccc(-c4c5nc(c(-c6c(F)c(F)c(F)c(F)c6F)c6ccc([nH]6)c(-c6c(F)c(F)c(F)c(F)c6F)c6nc(c(-c7c(F)c(F)c(F)c(F)c7F)c7ccc4[nH]7)C=C6)C=C5)cc3)o2)ccc1Br
REMARK SMILES IDX 14 1 13 2 11 3 12 4 10 6 7 7 8 8 83 9 9 10 6 11 5 12 4 14
REMARK SMILES IDX 1 15 2 16 3 17 86 18 85 19 87 20 84 21 15 22 16 23 17 24
REMARK SMILES IDX 18 25 19 27 20 28 21 29 82 30 22 31 81 32 23 33 24 34 25 35
REMARK SMILES IDX 75 36 26 37 80 38 74 39 76 40 27 41 79 42 73 43 72 44 28 46
REMARK SMILES IDX 60 47 40 48 59 49 41 50 44 51 58 52 77 53 42 54 43 55 57 57
REMARK SMILES IDX 78 58 45 59 29 60 30 61 38 62 31 63 32 64 36 65 39 66 33 67
REMARK SMILES IDX 34 68 37 69 35 70 61 71 62 72 70 73 63 74 64 75 68 76 71 77
REMARK SMILES IDX 65 78 66 79 69 80 67 81 46 82 47 83 55 84 48 85 49 86 53 87
REMARK SMILES IDX 56 88 50 89 51 90 54 91 52 92
REMARK H PARENT 13 5 5 13 17 26 76 45 44 56
REMARK Flexibility Score: inf
ROOT
ATOM      1  C   UNL A   1      30.824  31.348  25.371  1.00  0.00     0.118 C 
ENDROOT
BRANCH   1   2
ATOM      2  N   UNL A   1      29.973  32.185  24.551  1.00  0.00    -0.349 N 
ATOM      3  C   UNL A   1      28.974  31.862  23.661  1.00  0.00     0.286 C 
ATOM      4  O   UNL A   1      28.323  32.815  23.228  1.00  0.00    -0.266 OA
ATOM      5  H   UNL A   1      30.136  33.151  24.647  1.00  0.00     0.163 HD
BRANCH   3   6
ATOM      6  C   UNL A   1      28.709  30.486  23.283  1.00  0.00     0.191 A 
ATOM      7  C   UNL A   1      29.375  28.475  22.626  1.00  0.00     0.124 A 
ATOM      8  C   UNL A   1      28.009  28.398  22.775  1.00  0.00     0.048 A 
ATOM      9  O   UNL A   1      29.802  29.732  22.928  1.00  0.00    -0.454 OA
ATOM     10  C   UNL A   1      27.585  29.681  23.210  1.00  0.00     0.056 A 
BRANCH   7  11
ATOM     11  C   UNL A   1      30.426  27.506  22.206  1.00  0.00     0.188 C 
BRANCH  11  12
ATOM     12  N   UNL A   1      31.066  26.800  23.301  1.00  0.00    -0.378 N 
ATOM     13  H   UNL A   1      30.870  25.838  23.382  1.00  0.00     0.161 HD
BRANCH  12  14
ATOM     14  C   UNL A   1      31.921  27.337  24.240  1.00  0.00     0.035 A 
ATOM     15  C   UNL A   1      31.613  28.308  27.926  1.00  0.00     0.045 C 
ATOM     16  C   UNL A   1      32.208  28.138  26.557  1.00  0.00    -0.035 A 
ATOM     17  C   UNL A   1      31.442  27.523  25.549  1.00  0.00     0.030 A 
ATOM     18  C   UNL A   1      33.493  28.587  26.232  1.00  0.00     0.021 A 
ATOM     19  C   UNL A   1      33.987  28.420  24.938  1.00  0.00     0.018 A 
ATOM     20  Br  UNL A   1      34.613  29.446  27.502  1.00  0.00    -0.051 Br
ATOM     21  C   UNL A   1      33.203  27.808  23.953  1.00  0.00     0.027 A 
ENDBRANCH  12  14
ENDBRANCH  11  12
ENDBRANCH   7  11
ENDBRANCH   3   6
ENDBRANCH   1   2
BRANCH   1  22
ATOM     22  C   UNL A   1      31.058  31.953  26.754  1.00  0.00     0.042 C 
BRANCH  22  23
ATOM     23  C   UNL A   1      32.441  32.584  26.924  1.00  0.00     0.118 C 
BRANCH  23  24
ATOM     24  N   UNL A   1      32.366  33.958  27.400  1.00  0.00    -0.352 N 
ATOM     25  C   UNL A   1      33.037  34.591  28.416  1.00  0.00     0.251 C 
ATOM     26  H   UNL A   1      31.730  34.528  26.911  1.00  0.00     0.163 HD
ATOM     27  O   UNL A   1      32.666  35.705  28.775  1.00  0.00    -0.269 OA
BRANCH  25  28
ATOM     28  C   UNL A   1      34.192  33.957  29.090  1.00  0.00     0.039 A 
ATOM     29  C   UNL A   1      35.479  34.407  28.775  1.00  0.00     0.014 A 
ATOM     30  C   UNL A   1      34.030  32.883  29.969  1.00  0.00     0.014 A 
ATOM     31  C   UNL A   1      36.594  33.817  29.374  1.00  0.00     0.010 A 
ATOM     32  C   UNL A   1      35.138  32.336  30.616  1.00  0.00     0.010 A 
ATOM     33  C   UNL A   1      36.431  32.792  30.319  1.00  0.00    -0.014 A 
BRANCH  33  34
ATOM     34  C   UNL A   1      37.603  32.184  30.999  1.00  0.00     0.031 A 
ATOM     35  C   UNL A   1      38.414  31.121  30.313  1.00  0.00     0.074 A 
ATOM     36  C   UNL A   1      37.907  32.555  32.256  1.00  0.00     0.049 A 
ATOM     37  N   UNL A   1      39.434  30.435  30.764  1.00  0.00    -0.248 NA
ATOM     38  C   UNL A   1      38.008  30.765  28.944  1.00  0.00     0.031 C 
ATOM     39  C   UNL A   1      37.181  33.553  33.042  1.00  0.00     0.029 A 
ATOM     40  N   UNL A   1      38.906  32.132  33.097  1.00  0.00    -0.354 N 
ATOM     41  C   UNL A   1      39.783  29.559  29.743  1.00  0.00     0.074 A 
ATOM     42  C   UNL A   1      38.834  29.766  28.669  1.00  0.00     0.031 C 
ATOM     43  C   UNL A   1      37.774  33.687  34.238  1.00  0.00     0.029 A 
ATOM     44  C   UNL A   1      38.900  32.761  34.318  1.00  0.00     0.049 A 
ATOM     45  H   UNL A   1      39.564  31.442  32.849  1.00  0.00     0.167 HD
ATOM     46  C   UNL A   1      40.811  28.679  29.697  1.00  0.00     0.037 A 
ATOM     47  C   UNL A   1      39.713  32.609  35.379  1.00  0.00     0.037 A 
ATOM     48  C   UNL A   1      41.765  28.488  30.758  1.00  0.00     0.049 A 
ATOM     49  C   UNL A   1      40.837  31.612  35.310  1.00  0.00     0.074 A 
ATOM     50  C   UNL A   1      42.870  27.654  30.790  1.00  0.00     0.029 A 
ATOM     51  N   UNL A   1      41.724  29.142  31.982  1.00  0.00    -0.354 N 
ATOM     52  N   UNL A   1      41.187  30.826  34.322  1.00  0.00    -0.248 NA
ATOM     53  C   UNL A   1      41.680  31.486  36.508  1.00  0.00     0.031 C 
ATOM     54  C   UNL A   1      43.478  27.778  32.046  1.00  0.00     0.029 A 
ATOM     55  C   UNL A   1      42.775  28.718  32.781  1.00  0.00     0.049 A 
ATOM     56  H   UNL A   1      41.049  29.809  32.242  1.00  0.00     0.167 HD
ATOM     57  C   UNL A   1      42.305  30.133  34.765  1.00  0.00     0.074 A 
ATOM     58  C   UNL A   1      42.581  30.600  36.108  1.00  0.00     0.031 C 
ATOM     59  C   UNL A   1      43.038  29.196  34.115  1.00  0.00     0.037 A 
BRANCH  46  60
ATOM     60  C   UNL A   1      40.953  27.854  28.451  1.00  0.00     0.064 A 
ATOM     61  C   UNL A   1      41.733  28.289  27.367  1.00  0.00     0.173 A 
ATOM     62  C   UNL A   1      40.311  26.613  28.338  1.00  0.00     0.173 A 
ATOM     63  F   UNL A   1      42.358  29.475  27.418  1.00  0.00    -0.203 F 
ATOM     64  C   UNL A   1      41.831  27.530  26.204  1.00  0.00     0.198 A 
ATOM     65  C   UNL A   1      40.436  25.842  27.184  1.00  0.00     0.198 A 
ATOM     66  F   UNL A   1      39.559  26.146  29.346  1.00  0.00    -0.203 F 
ATOM     67  F   UNL A   1      42.534  27.994  25.161  1.00  0.00    -0.200 F 
ATOM     68  C   UNL A   1      41.188  26.306  26.115  1.00  0.00     0.200 A 
ATOM     69  F   UNL A   1      39.822  24.653  27.105  1.00  0.00    -0.200 F 
ATOM     70  F   UNL A   1      41.281  25.577  24.995  1.00  0.00    -0.200 F 
ENDBRANCH  46  60
BRANCH  47  71
ATOM     71  C   UNL A   1      39.520  33.455  36.583  1.00  0.00     0.064 A 
ATOM     72  C   UNL A   1      38.683  33.030  37.624  1.00  0.00     0.173 A 
ATOM     73  C   UNL A   1      40.171  34.688  36.727  1.00  0.00     0.173 A 
ATOM     74  F   UNL A   1      38.025  31.866  37.520  1.00  0.00    -0.203 F 
ATOM     75  C   UNL A   1      38.496  33.813  38.761  1.00  0.00     0.198 A 
ATOM     76  C   UNL A   1      40.000  35.459  37.875  1.00  0.00     0.198 A 
ATOM     77  F   UNL A   1      40.984  35.136  35.760  1.00  0.00    -0.203 F 
ATOM     78  F   UNL A   1      37.666  33.398  39.727  1.00  0.00    -0.200 F 
ATOM     79  C   UNL A   1      39.160  35.023  38.888  1.00  0.00     0.200 A 
ATOM     80  F   UNL A   1      40.654  36.622  38.002  1.00  0.00    -0.200 F 
ATOM     81  F   UNL A   1      38.986  35.772  39.987  1.00  0.00    -0.200 F 
ENDBRANCH  47  71
BRANCH  59  82
ATOM     82  C   UNL A   1      44.229  28.639  34.838  1.00  0.00     0.064 A 
ATOM     83  C   UNL A   1      44.139  27.474  35.614  1.00  0.00     0.173 A 
ATOM     84  C   UNL A   1      45.480  29.266  34.732  1.00  0.00     0.173 A 
ATOM     85  F   UNL A   1      42.961  26.850  35.760  1.00  0.00    -0.203 F 
ATOM     86  C   UNL A   1      45.254  26.971  36.278  1.00  0.00     0.198 A 
ATOM     87  C   UNL A   1      46.598  28.744  35.377  1.00  0.00     0.198 A 
ATOM     88  F   UNL A   1      45.618  30.380  33.999  1.00  0.00    -0.203 F 
ATOM     89  F   UNL A   1      45.136  25.884  37.053  1.00  0.00    -0.200 F 
ATOM     90  C   UNL A   1      46.484  27.603  36.155  1.00  0.00     0.200 A 
ATOM     91  F   UNL A   1      47.787  29.351  35.249  1.00  0.00    -0.200 F 
ATOM     92  F   UNL A   1      47.556  27.116  36.795  1.00  0.00    -0.200 F 
ENDBRANCH  59  82
ENDBRANCH  33  34
ENDBRANCH  25  28
ENDBRANCH  23  24
ENDBRANCH  22  23
ENDBRANCH   1  22
TORSDOF 13
ENDMDL
MODEL 2
REMARK VINA RESULT:     -11.6      5.760     10.467
REMARK SMILES Cc1cc(NCc2ccc(C(=O)NCCCNC(=O)c3ccc(-c4c5nc(c(-c6c(F)c(F)c(F)c(F)c6F)c6ccc([nH]6)c(-c6c(F)c(F)c(F)c(F)c6F)c6nc(c(-c7c(F)c(F)c(F)c(F)c7F)c7ccc4[nH]7)C=C6)C=C5)cc3)o2)ccc1Br
REMARK SMILES IDX 14 1 13 2 11 3 12 4 10 6 7 7 8 8 83 9 9 10 6 11 5 12 4 14
REMARK SMILES IDX 1 15 2 16 3 17 86 18 85 19 87 20 84 21 15 22 16 23 17 24
REMARK SMILES IDX 18 25 19 27 20 28 21 29 82 30 22 31 81 32 23 33 24 34 25 35
REMARK SMILES IDX 75 36 26 37 80 38 74 39 76 40 27 41 79 42 73 43 72 44 28 46
REMARK SMILES IDX 60 47 40 48 59 49 41 50 44 51 58 52 77 53 42 54 43 55 57 57
REMARK SMILES IDX 78 58 45 59 29 60 30 61 38 62 31 63 32 64 36 65 39 66 33 67
REMARK SMILES IDX 34 68 37 69 35 70 61 71 62 72 70 73 63 74 64 75 68 76 71 77
REMARK SMILES IDX 65 78 66 79 69 80 67 81 46 82 47 83 55 84 48 85 49 86 53 87
REMARK SMILES IDX 56 88 50 89 51 90 54 91 52 92
REMARK H PARENT 13 5 5 13 17 26 76 45 44 56
REMARK Flexibility Score: inf
ROOT
ATOM      1  C   UNL A   1      42.290  20.295  27.768  1.00  0.00     0.118 C 
ENDROOT
BRANCH   1   2
ATOM      2  N   UNL A   1      42.097  19.061  27.034  1.00  0.00    -0.349 N 
ATOM      3  C   UNL A   1      42.843  18.476  26.037  1.00  0.00     0.286 C 
ATOM      4  O   UNL A   1      42.498  17.338  25.715  1.00  0.00    -0.266 OA
ATOM      5  H   UNL A   1      41.293  18.554  27.292  1.00  0.00     0.163 HD
BRANCH   3   6
ATOM      6  C   UNL A   1      43.968  19.163  25.429  1.00  0.00     0.191 A 
ATOM      7  C   UNL A   1      44.859  20.882  24.347  1.00  0.00     0.124 A 
ATOM      8  C   UNL A   1      45.893  20.007  24.596  1.00  0.00     0.048 A 
ATOM      9  O   UNL A   1      43.697  20.376  24.844  1.00  0.00    -0.454 OA
ATOM     10  C   UNL A   1      45.325  18.915  25.301  1.00  0.00     0.056 A 
BRANCH   7  11
ATOM     11  C   UNL A   1      44.763  22.202  23.662  1.00  0.00     0.188 C 
BRANCH  11  12
ATOM     12  N   UNL A   1      44.362  23.300  24.522  1.00  0.00    -0.378 N 
ATOM     13  H   UNL A   1      43.428  23.300  24.834  1.00  0.00     0.161 HD
BRANCH  12  14
ATOM     14  C   UNL A   1      45.156  24.344  24.949  1.00  0.00     0.035 A 
ATOM     15  C   UNL A   1      44.507  27.945  26.060  1.00  0.00     0.045 C 
ATOM     16  C   UNL A   1      45.255  26.696  25.690  1.00  0.00    -0.035 A 
ATOM     17  C   UNL A   1      44.531  25.547  25.320  1.00  0.00     0.030 A 
ATOM     18  C   UNL A   1      46.653  26.630  25.678  1.00  0.00     0.021 A 
ATOM     19  C   UNL A   1      47.296  25.448  25.308  1.00  0.00     0.018 A 
ATOM     20  Br  UNL A   1      47.738  28.118  26.142  1.00  0.00    -0.051 Br
ATOM     21  C   UNL A   1      46.551  24.321  24.940  1.00  0.00     0.027 A 
ENDBRANCH  12  14
ENDBRANCH  11  12
ENDBRANCH   7  11
ENDBRANCH   3   6
ENDBRANCH   1   2
BRANCH   1  22
ATOM     22  C   UNL A   1      41.097  21.238  27.623  1.00  0.00     0.042 C 
BRANCH  22  23
ATOM     23  C   UNL A   1      41.126  22.074  26.343  1.00  0.00     0.118 C 
BRANCH  23  24
ATOM     24  N   UNL A   1      39.791  22.340  25.827  1.00  0.00    -0.352 N 
ATOM     25  C   UNL A   1      38.925  23.376  26.076  1.00  0.00     0.251 C 
ATOM     26  H   UNL A   1      39.454  21.667  25.194  1.00  0.00     0.163 HD
ATOM     27  O   UNL A   1      37.763  23.291  25.687  1.00  0.00    -0.269 OA
BRANCH  25  28
ATOM     28  C   UNL A   1      39.360  24.586  26.808  1.00  0.00     0.039 A 
ATOM     29  C   UNL A   1      38.976  24.729  28.147  1.00  0.00     0.014 A 
ATOM     30  C   UNL A   1      40.075  25.608  26.179  1.00  0.00     0.014 A 
ATOM     31  C   UNL A   1      39.348  25.869  28.863  1.00  0.00     0.010 A 
ATOM     32  C   UNL A   1      40.500  26.716  26.912  1.00  0.00     0.010 A 
ATOM     33  C   UNL A   1      40.134  26.861  28.259  1.00  0.00    -0.014 A 
BRANCH  33  34
ATOM     34  C   UNL A   1      40.577  28.058  29.019  1.00  0.00     0.031 A 
ATOM     35  C   UNL A   1      41.995  28.169  29.505  1.00  0.00     0.074 A 
ATOM     36  C   UNL A   1      39.687  29.023  29.314  1.00  0.00     0.049 A 
ATOM     37  N   UNL A   1      42.553  29.108  30.228  1.00  0.00    -0.248 NA
ATOM     38  C   UNL A   1      42.901  27.066  29.148  1.00  0.00     0.031 C 
ATOM     39  C   UNL A   1      38.276  29.018  28.927  1.00  0.00     0.029 A 
ATOM     40  N   UNL A   1      39.836  30.194  30.013  1.00  0.00    -0.354 N 
ATOM     41  C   UNL A   1      43.867  28.703  30.425  1.00  0.00     0.074 A 
ATOM     42  C   UNL A   1      44.009  27.411  29.787  1.00  0.00     0.031 C 
ATOM     43  C   UNL A   1      37.696  30.146  29.368  1.00  0.00     0.029 A 
ATOM     44  C   UNL A   1      38.684  30.935  30.098  1.00  0.00     0.049 A 
ATOM     45  H   UNL A   1      40.689  30.477  30.417  1.00  0.00     0.167 HD
ATOM     46  C   UNL A   1      44.868  29.357  31.060  1.00  0.00     0.037 A 
ATOM     47  C   UNL A   1      38.452  32.119  30.694  1.00  0.00     0.037 A 
ATOM     48  C   UNL A   1      44.731  30.651  31.677  1.00  0.00     0.049 A 
ATOM     49  C   UNL A   1      39.575  32.818  31.409  1.00  0.00     0.074 A 
ATOM     50  C   UNL A   1      45.697  31.418  32.306  1.00  0.00     0.029 A 
ATOM     51  N   UNL A   1      43.545  31.369  31.745  1.00  0.00    -0.354 N 
ATOM     52  N   UNL A   1      40.825  32.449  31.546  1.00  0.00    -0.248 NA
ATOM     53  C   UNL A   1      39.252  34.100  32.051  1.00  0.00     0.031 C 
ATOM     54  C   UNL A   1      45.088  32.585  32.784  1.00  0.00     0.029 A 
ATOM     55  C   UNL A   1      43.752  32.563  32.419  1.00  0.00     0.049 A 
ATOM     56  H   UNL A   1      42.685  31.074  31.369  1.00  0.00     0.167 HD
ATOM     57  C   UNL A   1      41.445  33.464  32.262  1.00  0.00     0.074 A 
ATOM     58  C   UNL A   1      40.434  34.468  32.523  1.00  0.00     0.031 C 
ATOM     59  C   UNL A   1      42.736  33.554  32.665  1.00  0.00     0.037 A 
BRANCH  46  60
ATOM     60  C   UNL A   1      46.205  28.676  31.118  1.00  0.00     0.064 A 
ATOM     61  C   UNL A   1      47.187  28.903  30.140  1.00  0.00     0.173 A 
ATOM     62  C   UNL A   1      46.513  27.793  32.163  1.00  0.00     0.173 A 
ATOM     63  F   UNL A   1      46.939  29.729  29.112  1.00  0.00    -0.203 F 
ATOM     64  C   UNL A   1      48.411  28.241  30.187  1.00  0.00     0.198 A 
ATOM     65  C   UNL A   1      47.751  27.156  32.223  1.00  0.00     0.198 A 
ATOM     66  F   UNL A   1      45.614  27.546  33.127  1.00  0.00    -0.203 F 
ATOM     67  F   UNL A   1      49.310  28.431  29.211  1.00  0.00    -0.200 F 
ATOM     68  C   UNL A   1      48.695  27.373  31.230  1.00  0.00     0.200 A 
ATOM     69  F   UNL A   1      48.026  26.326  33.237  1.00  0.00    -0.200 F 
ATOM     70  F   UNL A   1      49.872  26.735  31.272  1.00  0.00    -0.200 F 
ENDBRANCH  46  60
BRANCH  47  71
ATOM     71  C   UNL A   1      37.107  32.740  30.602  1.00  0.00     0.064 A 
ATOM     72  C   UNL A   1      36.151  32.520  31.604  1.00  0.00     0.173 A 
ATOM     73  C   UNL A   1      36.753  33.570  29.530  1.00  0.00     0.173 A 
ATOM     74  F   UNL A   1      36.440  31.717  32.638  1.00  0.00    -0.203 F 
ATOM     75  C   UNL A   1      34.887  33.100  31.531  1.00  0.00     0.198 A 
ATOM     76  C   UNL A   1      35.496  34.168  29.470  1.00  0.00     0.198 A 
ATOM     77  F   UNL A   1      37.633  33.814  28.548  1.00  0.00    -0.203 F 
ATOM     78  F   UNL A   1      33.981  32.848  32.486  1.00  0.00    -0.200 F 
ATOM     79  C   UNL A   1      34.562  33.928  30.468  1.00  0.00     0.200 A 
ATOM     80  F   UNL A   1      35.189  34.979  28.448  1.00  0.00    -0.200 F 
ATOM     81  F   UNL A   1      33.348  34.493  30.403  1.00  0.00    -0.200 F 
ENDBRANCH  47  71
BRANCH  59  82
ATOM     82  C   UNL A   1      43.135  34.800  33.402  1.00  0.00     0.064 A 
ATOM     83  C   UNL A   1      43.566  35.949  32.724  1.00  0.00     0.173 A 
ATOM     84  C   UNL A   1      43.062  34.849  34.802  1.00  0.00     0.173 A 
ATOM     85  F   UNL A   1      43.669  35.944  31.387  1.00  0.00    -0.203 F 
ATOM     86  C   UNL A   1      43.933  37.096  33.423  1.00  0.00     0.198 A 
ATOM     87  C   UNL A   1      43.405  36.006  35.496  1.00  0.00     0.198 A 
ATOM     88  F   UNL A   1      42.653  33.776  35.497  1.00  0.00    -0.203 F 
ATOM     89  F   UNL A   1      44.387  38.167  32.758  1.00  0.00    -0.200 F 
ATOM     90  C   UNL A   1      43.847  37.125  34.808  1.00  0.00     0.200 A 
ATOM     91  F   UNL A   1      43.313  36.036  36.833  1.00  0.00    -0.200 F 
ATOM     92  F   UNL A   1      44.200  38.231  35.478  1.00  0.00    -0.200 F 
ENDBRANCH  59  82
ENDBRANCH  33  34
ENDBRANCH  25  28
ENDBRANCH  23  24
ENDBRANCH  22  23
ENDBRANCH   1  22
TORSDOF 13
ENDMDL
MODEL 3
REMARK VINA RESULT:     -11.6      0.611      7.589
REMARK SMILES Cc1cc(NCc2ccc(C(=O)NCCCNC(=O)c3ccc(-c4c5nc(c(-c6c(F)c(F)c(F)c(F)c6F)c6ccc([nH]6)c(-c6c(F)c(F)c(F)c(F)c6F)c6nc(c(-c7c(F)c(F)c(F)c(F)c7F)c7ccc4[nH]7)C=C6)C=C5)cc3)o2)ccc1Br
REMARK SMILES IDX 14 1 13 2 11 3 12 4 10 6 7 7 8 8 83 9 9 10 6 11 5 12 4 14
REMARK SMILES IDX 1 15 2 16 3 17 86 18 85 19 87 20 84 21 15 22 16 23 17 24
REMARK SMILES IDX 18 25 19 27 20 28 21 29 82 30 22 31 81 32 23 33 24 34 25 35
REMARK SMILES IDX 75 36 26 37 80 38 74 39 76 40 27 41 79 42 73 43 72 44 28 46
REMARK SMILES IDX 60 47 40 48 59 49 41 50 44 51 58 52 77 53 42 54 43 55 57 57
REMARK SMILES IDX 78 58 45 59 29 60 30 61 38 62 31 63 32 64 36 65 39 66 33 67
REMARK SMILES IDX 34 68 37 69 35 70 61 71 62 72 70 73 63 74 64 75 68 76 71 77
REMARK SMILES IDX 65 78 66 79 69 80 67 81 46 82 47 83 55 84 48 85 49 86 53 87
REMARK SMILES IDX 56 88 50 89 51 90 54 91 52 92
REMARK H PARENT 13 5 5 13 17 26 76 45 44 56
REMARK Flexibility Score: inf
ROOT
ATOM      1  C   UNL A   1      30.626  31.655  25.287  1.00  0.00     0.118 C 
ENDROOT
BRANCH   1   2
ATOM      2  N   UNL A   1      30.068  32.782  24.569  1.00  0.00    -0.349 N 
ATOM      3  C   UNL A   1      29.205  32.834  23.498  1.00  0.00     0.286 C 
ATOM      4  O   UNL A   1      28.790  33.957  23.206  1.00  0.00    -0.266 OA
ATOM      5  H   UNL A   1      30.354  33.662  24.904  1.00  0.00     0.163 HD
BRANCH   3   6
ATOM      6  C   UNL A   1      28.809  31.635  22.782  1.00  0.00     0.191 A 
ATOM      7  C   UNL A   1      28.752  29.430  22.538  1.00  0.00     0.124 A 
ATOM      8  C   UNL A   1      28.031  29.953  21.488  1.00  0.00     0.048 A 
ATOM      9  O   UNL A   1      29.225  30.440  23.320  1.00  0.00    -0.454 OA
ATOM     10  C   UNL A   1      28.056  31.362  21.653  1.00  0.00     0.056 A 
BRANCH   7  11
ATOM     11  C   UNL A   1      29.110  28.048  22.961  1.00  0.00     0.188 C 
BRANCH  11  12
ATOM     12  N   UNL A   1      30.529  27.748  22.901  1.00  0.00    -0.378 N 
ATOM     13  H   UNL A   1      30.845  27.258  22.107  1.00  0.00     0.161 HD
BRANCH  12  14
ATOM     14  C   UNL A   1      31.482  28.080  23.842  1.00  0.00     0.035 A 
ATOM     15  C   UNL A   1      31.575  28.191  27.663  1.00  0.00     0.045 C 
ATOM     16  C   UNL A   1      32.019  28.346  26.236  1.00  0.00    -0.035 A 
ATOM     17  C   UNL A   1      31.147  27.956  25.201  1.00  0.00     0.030 A 
ATOM     18  C   UNL A   1      33.262  28.885  25.887  1.00  0.00     0.021 A 
ATOM     19  C   UNL A   1      33.613  29.023  24.544  1.00  0.00     0.018 A 
ATOM     20  Br  UNL A   1      34.514  29.462  27.192  1.00  0.00    -0.051 Br
ATOM     21  C   UNL A   1      32.726  28.632  23.534  1.00  0.00     0.027 A 
ENDBRANCH  12  14
ENDBRANCH  11  12
ENDBRANCH   7  11
ENDBRANCH   3   6
ENDBRANCH   1   2
BRANCH   1  22
ATOM     22  C   UNL A   1      31.013  32.026  26.717  1.00  0.00     0.042 C 
BRANCH  22  23
ATOM     23  C   UNL A   1      32.407  32.642  26.838  1.00  0.00     0.118 C 
BRANCH  23  24
ATOM     24  N   UNL A   1      32.369  33.993  27.381  1.00  0.00    -0.352 N 
ATOM     25  C   UNL A   1      33.072  34.563  28.412  1.00  0.00     0.251 C 
ATOM     26  H   UNL A   1      31.735  34.597  26.933  1.00  0.00     0.163 HD
ATOM     27  O   UNL A   1      32.729  35.665  28.833  1.00  0.00    -0.269 OA
BRANCH  25  28
ATOM     28  C   UNL A   1      34.226  33.875  29.032  1.00  0.00     0.039 A 
ATOM     29  C   UNL A   1      35.516  34.303  28.698  1.00  0.00     0.014 A 
ATOM     30  C   UNL A   1      34.059  32.774  29.877  1.00  0.00     0.014 A 
ATOM     31  C   UNL A   1      36.631  33.663  29.245  1.00  0.00     0.010 A 
ATOM     32  C   UNL A   1      35.169  32.176  30.473  1.00  0.00     0.010 A 
ATOM     33  C   UNL A   1      36.466  32.610  30.157  1.00  0.00    -0.014 A 
BRANCH  33  34
ATOM     34  C   UNL A   1      37.638  31.947  30.783  1.00  0.00     0.031 A 
ATOM     35  C   UNL A   1      38.083  32.336  32.165  1.00  0.00     0.074 A 
ATOM     36  C   UNL A   1      38.333  31.029  30.086  1.00  0.00     0.049 A 
ATOM     37  N   UNL A   1      39.112  31.911  32.856  1.00  0.00    -0.248 NA
ATOM     38  C   UNL A   1      37.276  33.354  32.854  1.00  0.00     0.031 C 
ATOM     39  C   UNL A   1      38.022  30.588  28.726  1.00  0.00     0.029 A 
ATOM     40  N   UNL A   1      39.448  30.305  30.424  1.00  0.00    -0.354 N 
ATOM     41  C   UNL A   1      39.084  32.619  34.051  1.00  0.00     0.074 A 
ATOM     42  C   UNL A   1      37.966  33.535  33.971  1.00  0.00     0.031 C 
ATOM     43  C   UNL A   1      38.906  29.648  28.356  1.00  0.00     0.029 A 
ATOM     44  C   UNL A   1      39.866  29.446  29.438  1.00  0.00     0.049 A 
ATOM     45  H   UNL A   1      39.906  30.393  31.292  1.00  0.00     0.167 HD
ATOM     46  C   UNL A   1      39.902  32.501  35.124  1.00  0.00     0.037 A 
ATOM     47  C   UNL A   1      40.905  28.591  29.410  1.00  0.00     0.037 A 
ATOM     48  C   UNL A   1      41.002  31.576  35.210  1.00  0.00     0.049 A 
ATOM     49  C   UNL A   1      41.810  28.491  30.607  1.00  0.00     0.074 A 
ATOM     50  C   UNL A   1      41.862  31.347  36.271  1.00  0.00     0.029 A 
ATOM     51  N   UNL A   1      41.396  30.724  34.187  1.00  0.00    -0.354 N 
ATOM     52  N   UNL A   1      41.744  29.129  31.750  1.00  0.00    -0.248 NA
ATOM     53  C   UNL A   1      42.933  27.548  30.507  1.00  0.00     0.031 C 
ATOM     54  C   UNL A   1      42.797  30.382  35.878  1.00  0.00     0.029 A 
ATOM     55  C   UNL A   1      42.497  29.980  34.587  1.00  0.00     0.049 A 
ATOM     56  H   UNL A   1      40.958  30.657  33.308  1.00  0.00     0.167 HD
ATOM     57  C   UNL A   1      42.796  28.647  32.516  1.00  0.00     0.074 A 
ATOM     58  C   UNL A   1      43.478  27.655  31.710  1.00  0.00     0.031 C 
ATOM     59  C   UNL A   1      43.161  28.994  33.775  1.00  0.00     0.037 A 
BRANCH  46  60
ATOM     60  C   UNL A   1      39.633  33.402  36.294  1.00  0.00     0.064 A 
ATOM     61  C   UNL A   1      38.771  33.017  37.334  1.00  0.00     0.173 A 
ATOM     62  C   UNL A   1      40.246  34.660  36.384  1.00  0.00     0.173 A 
ATOM     63  F   UNL A   1      38.149  31.829  37.290  1.00  0.00    -0.203 F 
ATOM     64  C   UNL A   1      38.504  33.874  38.398  1.00  0.00     0.198 A 
ATOM     65  C   UNL A   1      40.000  35.502  37.466  1.00  0.00     0.198 A 
ATOM     66  F   UNL A   1      41.083  35.075  35.422  1.00  0.00    -0.203 F 
ATOM     67  F   UNL A   1      37.634  33.506  39.349  1.00  0.00    -0.200 F 
ATOM     68  C   UNL A   1      39.122  35.113  38.467  1.00  0.00     0.200 A 
ATOM     69  F   UNL A   1      40.606  36.695  37.536  1.00  0.00    -0.200 F 
ATOM     70  F   UNL A   1      38.863  35.937  39.490  1.00  0.00    -0.200 F 
ENDBRANCH  46  60
BRANCH  47  71
ATOM     71  C   UNL A   1      41.118  27.728  28.222  1.00  0.00     0.064 A 
ATOM     72  C   UNL A   1      41.921  28.166  27.159  1.00  0.00     0.173 A 
ATOM     73  C   UNL A   1      40.543  26.453  28.127  1.00  0.00     0.173 A 
ATOM     74  F   UNL A   1      42.475  29.386  27.199  1.00  0.00    -0.203 F 
ATOM     75  C   UNL A   1      42.132  27.364  26.040  1.00  0.00     0.198 A 
ATOM     76  C   UNL A   1      40.774  25.643  27.017  1.00  0.00     0.198 A 
ATOM     77  F   UNL A   1      39.770  25.988  29.119  1.00  0.00    -0.203 F 
ATOM     78  F   UNL A   1      42.878  27.819  25.024  1.00  0.00    -0.200 F 
ATOM     79  C   UNL A   1      41.564  26.101  25.973  1.00  0.00     0.200 A 
ATOM     80  F   UNL A   1      40.234  24.417  26.960  1.00  0.00    -0.200 F 
ATOM     81  F   UNL A   1      41.775  25.326  24.899  1.00  0.00    -0.200 F 
ENDBRANCH  47  71
BRANCH  59  82
ATOM     82  C   UNL A   1      44.333  28.270  34.369  1.00  0.00     0.064 A 
ATOM     83  C   UNL A   1      45.636  28.783  34.282  1.00  0.00     0.173 A 
ATOM     84  C   UNL A   1      44.146  27.060  35.054  1.00  0.00     0.173 A 
ATOM     85  F   UNL A   1      45.867  29.926  33.621  1.00  0.00    -0.203 F 
ATOM     86  C   UNL A   1      46.712  28.097  34.839  1.00  0.00     0.198 A 
ATOM     87  C   UNL A   1      45.222  26.391  35.632  1.00  0.00     0.198 A 
ATOM     88  F   UNL A   1      42.919  26.529  35.168  1.00  0.00    -0.203 F 
ATOM     89  F   UNL A   1      47.955  28.581  34.703  1.00  0.00    -0.200 F 
ATOM     90  C   UNL A   1      46.503  26.905  35.518  1.00  0.00     0.200 A 
ATOM     91  F   UNL A   1      45.017  25.244  36.296  1.00  0.00    -0.200 F 
ATOM     92  F   UNL A   1      47.541  26.248  36.054  1.00  0.00    -0.200 F 
ENDBRANCH  59  82
ENDBRANCH  33  34
ENDBRANCH  25  28
ENDBRANCH  23  24
ENDBRANCH  22  23
ENDBRANCH   1  22
TORSDOF 13
ENDMDL
