MODEL 1
REMARK VINA RESULT:     -12.5      0.000      0.000
REMARK SMILES Cc1nn(Cc2ccc(C(=O)NCCCNC(=O)c3ccc(-c4c5nc(c(-c6c(F)c(F)c(F)c(F)c6F)c6ccc([nH]6)c(-c6c(F)c(F)c(F)c(F)c6F)c6nc(c(-c7c(F)c(F)c(F)c(F)c7F)c7ccc4[nH]7)C=C6)C=C5)cc3)o2)c(C)c1C
REMARK SMILES IDX 14 1 13 2 12 3 10 4 11 5 9 7 6 8 7 9 82 10 8 11 5 12 4 13
REMARK SMILES IDX 1 14 2 15 3 16 85 17 83 18 86 19 84 20 15 21 16 22 17 23
REMARK SMILES IDX 18 25 19 26 20 27 81 28 21 29 80 30 22 31 23 32 24 33 74 34
REMARK SMILES IDX 25 35 79 36 73 37 75 38 26 39 78 40 72 41 71 42 27 44 59 45
REMARK SMILES IDX 39 46 58 47 40 48 43 49 57 50 76 51 41 52 42 53 56 55 77 56
REMARK SMILES IDX 44 57 28 58 29 59 37 60 30 61 31 62 35 63 38 64 32 65 33 66
REMARK SMILES IDX 36 67 34 68 60 69 61 70 69 71 62 72 63 73 67 74 70 75 64 76
REMARK SMILES IDX 65 77 68 78 66 79 45 80 46 81 54 82 47 83 48 84 52 85 55 86
REMARK SMILES IDX 49 87 50 88 53 89 51 90
REMARK H PARENT 12 6 16 24 75 43 43 54
REMARK Flexibility Score: inf
ROOT
ATOM      1  C   UNL A   1      41.232  20.133  27.354  1.00  0.00     0.042 C 
ENDROOT
BRANCH   1   2
ATOM      2  C   UNL A   1      41.436  19.690  25.903  1.00  0.00     0.118 C 
BRANCH   2   3
ATOM      3  N   UNL A   1      42.579  18.804  25.749  1.00  0.00    -0.349 N 
ATOM      4  C   UNL A   1      43.893  19.056  25.426  1.00  0.00     0.286 C 
ATOM      5  O   UNL A   1      44.646  18.078  25.434  1.00  0.00    -0.266 OA
ATOM      6  H   UNL A   1      42.377  17.853  25.905  1.00  0.00     0.163 HD
BRANCH   4   7
ATOM      7  C   UNL A   1      44.367  20.391  25.122  1.00  0.00     0.191 A 
ATOM      8  C   UNL A   1      44.260  22.567  24.764  1.00  0.00     0.126 A 
ATOM      9  C   UNL A   1      45.594  22.228  24.690  1.00  0.00     0.048 A 
ATOM     10  O   UNL A   1      43.511  21.453  25.005  1.00  0.00    -0.454 OA
ATOM     11  C   UNL A   1      45.662  20.833  24.909  1.00  0.00     0.056 A 
BRANCH   8  12
ATOM     12  C   UNL A   1      43.534  23.861  24.696  1.00  0.00     0.219 C 
BRANCH  12  13
ATOM     13  N   UNL A   1      44.136  24.873  25.555  1.00  0.00    -0.262 N 
ATOM     14  C   UNL A   1      46.255  27.699  25.778  1.00  0.00     0.069 C 
ATOM     15  C   UNL A   1      45.370  26.535  26.033  1.00  0.00     0.063 A 
ATOM     16  N   UNL A   1      44.936  25.808  25.001  1.00  0.00    -0.177 NA
ATOM     17  C   UNL A   1      44.906  26.021  27.273  1.00  0.00    -0.007 A 
ATOM     18  C   UNL A   1      44.105  24.943  26.928  1.00  0.00     0.039 A 
ATOM     19  C   UNL A   1      45.213  26.510  28.641  1.00  0.00     0.048 C 
ATOM     20  C   UNL A   1      43.343  23.995  27.781  1.00  0.00     0.066 C 
ENDBRANCH  12  13
ENDBRANCH   8  12
ENDBRANCH   4   7
ENDBRANCH   2   3
ENDBRANCH   1   2
BRANCH   1  21
ATOM     21  C   UNL A   1      40.765  21.581  27.450  1.00  0.00     0.118 C 
BRANCH  21  22
ATOM     22  N   UNL A   1      39.674  21.899  26.526  1.00  0.00    -0.352 N 
ATOM     23  C   UNL A   1      39.016  23.106  26.352  1.00  0.00     0.251 C 
ATOM     24  H   UNL A   1      39.367  21.157  25.954  1.00  0.00     0.163 HD
ATOM     25  O   UNL A   1      37.957  23.167  25.759  1.00  0.00    -0.269 OA
BRANCH  23  26
ATOM     26  C   UNL A   1      39.623  24.320  26.930  1.00  0.00     0.039 A 
ATOM     27  C   UNL A   1      40.313  25.229  26.124  1.00  0.00     0.014 A 
ATOM     28  C   UNL A   1      39.432  24.573  28.282  1.00  0.00     0.014 A 
ATOM     29  C   UNL A   1      40.717  26.445  26.674  1.00  0.00     0.010 A 
ATOM     30  C   UNL A   1      39.683  25.830  28.776  1.00  0.00     0.010 A 
ATOM     31  C   UNL A   1      40.370  26.760  27.997  1.00  0.00    -0.014 A 
BRANCH  31  32
ATOM     32  C   UNL A   1      40.641  28.093  28.542  1.00  0.00     0.031 A 
ATOM     33  C   UNL A   1      41.858  28.782  28.018  1.00  0.00     0.074 A 
ATOM     34  C   UNL A   1      39.760  28.773  29.308  1.00  0.00     0.049 A 
ATOM     35  N   UNL A   1      42.883  29.199  28.687  1.00  0.00    -0.248 NA
ATOM     36  C   UNL A   1      41.979  28.972  26.563  1.00  0.00     0.031 C 
ATOM     37  C   UNL A   1      38.396  28.386  29.693  1.00  0.00     0.029 A 
ATOM     38  N   UNL A   1      39.869  30.031  29.823  1.00  0.00    -0.354 N 
ATOM     39  C   UNL A   1      43.710  29.848  27.772  1.00  0.00     0.074 A 
ATOM     40  C   UNL A   1      43.167  29.574  26.466  1.00  0.00     0.031 C 
ATOM     41  C   UNL A   1      37.732  29.464  30.158  1.00  0.00     0.029 A 
ATOM     42  C   UNL A   1      38.674  30.555  30.291  1.00  0.00     0.049 A 
ATOM     43  H   UNL A   1      40.721  30.523  29.861  1.00  0.00     0.167 HD
ATOM     44  C   UNL A   1      44.662  30.736  28.175  1.00  0.00     0.037 A 
ATOM     45  C   UNL A   1      38.454  31.805  30.757  1.00  0.00     0.037 A 
ATOM     46  C   UNL A   1      44.963  30.591  29.574  1.00  0.00     0.049 A 
ATOM     47  C   UNL A   1      39.757  32.356  31.180  1.00  0.00     0.074 A 
ATOM     48  C   UNL A   1      45.488  29.590  30.366  1.00  0.00     0.029 A 
ATOM     49  N   UNL A   1      44.390  31.487  30.439  1.00  0.00    -0.354 N 
ATOM     50  N   UNL A   1      40.449  31.898  32.187  1.00  0.00    -0.248 NA
ATOM     51  C   UNL A   1      40.497  33.181  30.240  1.00  0.00     0.031 C 
ATOM     52  C   UNL A   1      44.798  29.700  31.611  1.00  0.00     0.029 A 
ATOM     53  C   UNL A   1      43.926  30.786  31.521  1.00  0.00     0.049 A 
ATOM     54  H   UNL A   1      44.325  32.461  30.308  1.00  0.00     0.167 HD
ATOM     55  C   UNL A   1      41.769  32.002  31.779  1.00  0.00     0.074 A 
ATOM     56  C   UNL A   1      41.742  32.923  30.648  1.00  0.00     0.031 C 
ATOM     57  C   UNL A   1      42.707  31.116  32.224  1.00  0.00     0.037 A 
BRANCH  44  58
ATOM     58  C   UNL A   1      45.055  31.973  27.403  1.00  0.00     0.064 A 
ATOM     59  C   UNL A   1      46.362  32.087  26.888  1.00  0.00     0.173 A 
ATOM     60  C   UNL A   1      44.303  33.167  27.426  1.00  0.00     0.173 A 
ATOM     61  F   UNL A   1      47.175  31.021  26.846  1.00  0.00    -0.203 F 
ATOM     62  C   UNL A   1      46.895  33.319  26.493  1.00  0.00     0.198 A 
ATOM     63  C   UNL A   1      44.821  34.383  26.983  1.00  0.00     0.198 A 
ATOM     64  F   UNL A   1      43.087  33.227  27.983  1.00  0.00    -0.203 F 
ATOM     65  F   UNL A   1      48.182  33.401  26.127  1.00  0.00    -0.200 F 
ATOM     66  C   UNL A   1      46.125  34.465  26.545  1.00  0.00     0.200 A 
ATOM     67  F   UNL A   1      44.066  35.489  27.063  1.00  0.00    -0.200 F 
ATOM     68  F   UNL A   1      46.653  35.655  26.228  1.00  0.00    -0.200 F 
ENDBRANCH  44  58
BRANCH  45  69
ATOM     69  C   UNL A   1      37.230  32.621  30.611  1.00  0.00     0.064 A 
ATOM     70  C   UNL A   1      36.893  33.223  29.392  1.00  0.00     0.173 A 
ATOM     71  C   UNL A   1      36.231  32.600  31.604  1.00  0.00     0.173 A 
ATOM     72  F   UNL A   1      37.777  33.243  28.383  1.00  0.00    -0.203 F 
ATOM     73  C   UNL A   1      35.619  33.755  29.170  1.00  0.00     0.198 A 
ATOM     74  C   UNL A   1      34.964  33.136  31.384  1.00  0.00     0.198 A 
ATOM     75  F   UNL A   1      36.439  31.976  32.773  1.00  0.00    -0.203 F 
ATOM     76  F   UNL A   1      35.311  34.271  27.971  1.00  0.00    -0.200 F 
ATOM     77  C   UNL A   1      34.653  33.701  30.161  1.00  0.00     0.200 A 
ATOM     78  F   UNL A   1      34.027  33.043  32.339  1.00  0.00    -0.200 F 
ATOM     79  F   UNL A   1      33.414  34.155  29.926  1.00  0.00    -0.200 F 
ENDBRANCH  45  69
BRANCH  57  80
ATOM     80  C   UNL A   1      42.339  30.253  33.400  1.00  0.00     0.064 A 
ATOM     81  C   UNL A   1      41.797  28.960  33.291  1.00  0.00     0.173 A 
ATOM     82  C   UNL A   1      42.645  30.712  34.687  1.00  0.00     0.173 A 
ATOM     83  F   UNL A   1      41.572  28.404  32.096  1.00  0.00    -0.203 F 
ATOM     84  C   UNL A   1      41.523  28.190  34.420  1.00  0.00     0.198 A 
ATOM     85  C   UNL A   1      42.406  29.927  35.811  1.00  0.00     0.198 A 
ATOM     86  F   UNL A   1      43.218  31.915  34.851  1.00  0.00    -0.203 F 
ATOM     87  F   UNL A   1      40.985  26.968  34.286  1.00  0.00    -0.200 F 
ATOM     88  C   UNL A   1      41.832  28.672  35.680  1.00  0.00     0.200 A 
ATOM     89  F   UNL A   1      42.753  30.379  37.025  1.00  0.00    -0.200 F 
ATOM     90  F   UNL A   1      41.601  27.920  36.765  1.00  0.00    -0.200 F 
ENDBRANCH  57  80
ENDBRANCH  31  32
ENDBRANCH  23  26
ENDBRANCH  21  22
ENDBRANCH   1  21
TORSDOF 12
ENDMDL
MODEL 2
REMARK VINA RESULT:     -12.2      3.057      5.888
REMARK SMILES Cc1nn(Cc2ccc(C(=O)NCCCNC(=O)c3ccc(-c4c5nc(c(-c6c(F)c(F)c(F)c(F)c6F)c6ccc([nH]6)c(-c6c(F)c(F)c(F)c(F)c6F)c6nc(c(-c7c(F)c(F)c(F)c(F)c7F)c7ccc4[nH]7)C=C6)C=C5)cc3)o2)c(C)c1C
REMARK SMILES IDX 14 1 13 2 12 3 10 4 11 5 9 7 6 8 7 9 82 10 8 11 5 12 4 13
REMARK SMILES IDX 1 14 2 15 3 16 85 17 83 18 86 19 84 20 15 21 16 22 17 23
REMARK SMILES IDX 18 25 19 26 20 27 81 28 21 29 80 30 22 31 23 32 24 33 74 34
REMARK SMILES IDX 25 35 79 36 73 37 75 38 26 39 78 40 72 41 71 42 27 44 59 45
REMARK SMILES IDX 39 46 58 47 40 48 43 49 57 50 76 51 41 52 42 53 56 55 77 56
REMARK SMILES IDX 44 57 28 58 29 59 37 60 30 61 31 62 35 63 38 64 32 65 33 66
REMARK SMILES IDX 36 67 34 68 60 69 61 70 69 71 62 72 63 73 67 74 70 75 64 76
REMARK SMILES IDX 65 77 68 78 66 79 45 80 46 81 54 82 47 83 48 84 52 85 55 86
REMARK SMILES IDX 49 87 50 88 53 89 51 90
REMARK H PARENT 12 6 16 24 75 43 43 54
REMARK Flexibility Score: inf
ROOT
ATOM      1  C   UNL A   1      39.070  21.006  26.031  1.00  0.00     0.042 C 
ENDROOT
BRANCH   1   2
ATOM      2  C   UNL A   1      38.134  22.208  25.887  1.00  0.00     0.118 C 
BRANCH   2   3
ATOM      3  N   UNL A   1      37.778  22.471  24.502  1.00  0.00    -0.349 N 
ATOM      4  C   UNL A   1      36.591  22.856  23.921  1.00  0.00     0.286 C 
ATOM      5  O   UNL A   1      36.628  23.060  22.704  1.00  0.00    -0.266 OA
ATOM      6  H   UNL A   1      38.520  22.355  23.865  1.00  0.00     0.163 HD
BRANCH   4   7
ATOM      7  C   UNL A   1      35.380  23.035  24.697  1.00  0.00     0.191 A 
ATOM      8  C   UNL A   1      33.310  22.672  25.371  1.00  0.00     0.126 A 
ATOM      9  C   UNL A   1      33.814  23.661  26.188  1.00  0.00     0.048 A 
ATOM     10  O   UNL A   1      34.248  22.306  24.451  1.00  0.00    -0.454 OA
ATOM     11  C   UNL A   1      35.137  23.900  25.751  1.00  0.00     0.056 A 
BRANCH   8  12
ATOM     12  C   UNL A   1      32.024  21.930  25.347  1.00  0.00     0.219 C 
BRANCH  12  13
ATOM     13  N   UNL A   1      32.181  20.577  24.826  1.00  0.00    -0.262 N 
ATOM     14  C   UNL A   1      32.978  17.201  25.528  1.00  0.00     0.069 C 
ATOM     15  C   UNL A   1      32.646  18.505  24.903  1.00  0.00     0.063 A 
ATOM     16  N   UNL A   1      32.522  19.586  25.676  1.00  0.00    -0.177 NA
ATOM     17  C   UNL A   1      32.456  18.815  23.529  1.00  0.00    -0.007 A 
ATOM     18  C   UNL A   1      32.153  20.168  23.514  1.00  0.00     0.039 A 
ATOM     19  C   UNL A   1      32.567  17.907  22.360  1.00  0.00     0.048 C 
ATOM     20  C   UNL A   1      31.859  21.077  22.377  1.00  0.00     0.066 C 
ENDBRANCH  12  13
ENDBRANCH   8  12
ENDBRANCH   4   7
ENDBRANCH   2   3
ENDBRANCH   1   2
BRANCH   1  21
ATOM     21  C   UNL A   1      40.294  21.332  26.879  1.00  0.00     0.118 C 
BRANCH  21  22
ATOM     22  N   UNL A   1      41.515  21.503  26.089  1.00  0.00    -0.352 N 
ATOM     23  C   UNL A   1      42.233  22.665  25.853  1.00  0.00     0.251 C 
ATOM     24  H   UNL A   1      41.873  20.686  25.671  1.00  0.00     0.163 HD
ATOM     25  O   UNL A   1      43.061  22.725  24.966  1.00  0.00    -0.269 OA
BRANCH  23  26
ATOM     26  C   UNL A   1      41.948  23.844  26.694  1.00  0.00     0.039 A 
ATOM     27  C   UNL A   1      42.609  24.033  27.909  1.00  0.00     0.014 A 
ATOM     28  C   UNL A   1      41.057  24.796  26.214  1.00  0.00     0.014 A 
ATOM     29  C   UNL A   1      42.443  25.241  28.585  1.00  0.00     0.010 A 
ATOM     30  C   UNL A   1      41.023  26.040  26.793  1.00  0.00     0.010 A 
ATOM     31  C   UNL A   1      41.672  26.263  28.006  1.00  0.00    -0.014 A 
BRANCH  31  32
ATOM     32  C   UNL A   1      41.617  27.593  28.618  1.00  0.00     0.031 A 
ATOM     33  C   UNL A   1      42.719  28.531  28.251  1.00  0.00     0.074 A 
ATOM     34  C   UNL A   1      40.547  28.048  29.306  1.00  0.00     0.049 A 
ATOM     35  N   UNL A   1      43.570  29.104  29.040  1.00  0.00    -0.248 NA
ATOM     36  C   UNL A   1      42.946  28.816  26.825  1.00  0.00     0.031 C 
ATOM     37  C   UNL A   1      39.255  27.384  29.528  1.00  0.00     0.029 A 
ATOM     38  N   UNL A   1      40.352  29.274  29.868  1.00  0.00    -0.354 N 
ATOM     39  C   UNL A   1      44.338  29.948  28.240  1.00  0.00     0.074 A 
ATOM     40  C   UNL A   1      43.994  29.641  26.875  1.00  0.00     0.031 C 
ATOM     41  C   UNL A   1      38.347  28.287  29.951  1.00  0.00     0.029 A 
ATOM     42  C   UNL A   1      39.035  29.532  30.219  1.00  0.00     0.049 A 
ATOM     43  H   UNL A   1      41.081  29.921  30.013  1.00  0.00     0.167 HD
ATOM     44  C   UNL A   1      45.050  30.981  28.772  1.00  0.00     0.037 A 
ATOM     45  C   UNL A   1      38.526  30.689  30.698  1.00  0.00     0.037 A 
ATOM     46  C   UNL A   1      45.232  30.825  30.190  1.00  0.00     0.049 A 
ATOM     47  C   UNL A   1      39.645  31.460  31.277  1.00  0.00     0.074 A 
ATOM     48  C   UNL A   1      45.864  29.906  31.002  1.00  0.00     0.029 A 
ATOM     49  N   UNL A   1      44.409  31.547  31.016  1.00  0.00    -0.354 N 
ATOM     50  N   UNL A   1      40.310  31.094  32.338  1.00  0.00    -0.248 NA
ATOM     51  C   UNL A   1      40.296  32.461  30.448  1.00  0.00     0.031 C 
ATOM     52  C   UNL A   1      45.044  29.814  32.168  1.00  0.00     0.029 A 
ATOM     53  C   UNL A   1      43.987  30.714  32.018  1.00  0.00     0.049 A 
ATOM     54  H   UNL A   1      44.165  32.495  30.908  1.00  0.00     0.167 HD
ATOM     55  C   UNL A   1      41.617  31.473  32.078  1.00  0.00     0.074 A 
ATOM     56  C   UNL A   1      41.521  32.428  30.980  1.00  0.00     0.031 C 
ATOM     57  C   UNL A   1      42.663  30.765  32.595  1.00  0.00     0.037 A 
BRANCH  44  58
ATOM     58  C   UNL A   1      45.264  32.309  28.086  1.00  0.00     0.064 A 
ATOM     59  C   UNL A   1      44.162  33.152  27.838  1.00  0.00     0.173 A 
ATOM     60  C   UNL A   1      46.448  32.634  27.388  1.00  0.00     0.173 A 
ATOM     61  F   UNL A   1      42.978  32.919  28.426  1.00  0.00    -0.203 F 
ATOM     62  C   UNL A   1      44.224  34.198  26.910  1.00  0.00     0.198 A 
ATOM     63  C   UNL A   1      46.520  33.708  26.503  1.00  0.00     0.198 A 
ATOM     64  F   UNL A   1      47.538  31.860  27.446  1.00  0.00    -0.203 F 
ATOM     65  F   UNL A   1      43.118  34.894  26.617  1.00  0.00    -0.200 F 
ATOM     66  C   UNL A   1      45.402  34.470  26.240  1.00  0.00     0.200 A 
ATOM     67  F   UNL A   1      47.665  33.943  25.844  1.00  0.00    -0.200 F 
ATOM     68  F   UNL A   1      45.447  35.429  25.305  1.00  0.00    -0.200 F 
ENDBRANCH  44  58
BRANCH  45  69
ATOM     69  C   UNL A   1      37.186  31.258  30.445  1.00  0.00     0.064 A 
ATOM     70  C   UNL A   1      36.312  31.567  31.496  1.00  0.00     0.173 A 
ATOM     71  C   UNL A   1      36.846  31.758  29.172  1.00  0.00     0.173 A 
ATOM     72  F   UNL A   1      36.591  31.163  32.745  1.00  0.00    -0.203 F 
ATOM     73  C   UNL A   1      35.173  32.351  31.290  1.00  0.00     0.198 A 
ATOM     74  C   UNL A   1      35.708  32.535  28.967  1.00  0.00     0.198 A 
ATOM     75  F   UNL A   1      37.665  31.578  28.125  1.00  0.00    -0.203 F 
ATOM     76  F   UNL A   1      34.390  32.677  32.329  1.00  0.00    -0.200 F 
ATOM     77  C   UNL A   1      34.878  32.843  30.029  1.00  0.00     0.200 A 
ATOM     78  F   UNL A   1      35.455  33.035  27.749  1.00  0.00    -0.200 F 
ATOM     79  F   UNL A   1      33.821  33.646  29.844  1.00  0.00    -0.200 F 
ENDBRANCH  45  69
BRANCH  57  80
ATOM     80  C   UNL A   1      42.358  29.787  33.696  1.00  0.00     0.064 A 
ATOM     81  C   UNL A   1      41.961  28.454  33.482  1.00  0.00     0.173 A 
ATOM     82  C   UNL A   1      42.577  30.183  35.021  1.00  0.00     0.173 A 
ATOM     83  F   UNL A   1      41.830  27.964  32.245  1.00  0.00    -0.203 F 
ATOM     84  C   UNL A   1      41.741  27.582  34.547  1.00  0.00     0.198 A 
ATOM     85  C   UNL A   1      42.393  29.300  36.081  1.00  0.00     0.198 A 
ATOM     86  F   UNL A   1      43.014  31.425  35.286  1.00  0.00    -0.203 F 
ATOM     87  F   UNL A   1      41.341  26.323  34.312  1.00  0.00    -0.200 F 
ATOM     88  C   UNL A   1      41.961  28.004  35.846  1.00  0.00     0.200 A 
ATOM     89  F   UNL A   1      42.657  29.699  37.334  1.00  0.00    -0.200 F 
ATOM     90  F   UNL A   1      41.783  27.157  36.869  1.00  0.00    -0.200 F 
ENDBRANCH  57  80
ENDBRANCH  31  32
ENDBRANCH  23  26
ENDBRANCH  21  22
ENDBRANCH   1  21
TORSDOF 12
ENDMDL
MODEL 3
REMARK VINA RESULT:     -12.2      3.979     11.220
REMARK SMILES Cc1nn(Cc2ccc(C(=O)NCCCNC(=O)c3ccc(-c4c5nc(c(-c6c(F)c(F)c(F)c(F)c6F)c6ccc([nH]6)c(-c6c(F)c(F)c(F)c(F)c6F)c6nc(c(-c7c(F)c(F)c(F)c(F)c7F)c7ccc4[nH]7)C=C6)C=C5)cc3)o2)c(C)c1C
REMARK SMILES IDX 14 1 13 2 12 3 10 4 11 5 9 7 6 8 7 9 82 10 8 11 5 12 4 13
REMARK SMILES IDX 1 14 2 15 3 16 85 17 83 18 86 19 84 20 15 21 16 22 17 23
REMARK SMILES IDX 18 25 19 26 20 27 81 28 21 29 80 30 22 31 23 32 24 33 74 34
REMARK SMILES IDX 25 35 79 36 73 37 75 38 26 39 78 40 72 41 71 42 27 44 59 45
REMARK SMILES IDX 39 46 58 47 40 48 43 49 57 50 76 51 41 52 42 53 56 55 77 56
REMARK SMILES IDX 44 57 28 58 29 59 37 60 30 61 31 62 35 63 38 64 32 65 33 66
REMARK SMILES IDX 36 67 34 68 60 69 61 70 69 71 62 72 63 73 67 74 70 75 64 76
REMARK SMILES IDX 65 77 68 78 66 79 45 80 46 81 54 82 47 83 48 84 52 85 55 86
REMARK SMILES IDX 49 87 50 88 53 89 51 90
REMARK H PARENT 12 6 16 24 75 43 43 54
REMARK Flexibility Score: inf
ROOT
ATOM      1  C   UNL A   1      34.662  35.211  28.159  1.00  0.00     0.042 C 
ENDROOT
BRANCH   1   2
ATOM      2  C   UNL A   1      33.275  35.129  28.801  1.00  0.00     0.118 C 
BRANCH   2   3
ATOM      3  N   UNL A   1      32.958  36.309  29.590  1.00  0.00    -0.349 N 
ATOM      4  C   UNL A   1      33.198  36.616  30.910  1.00  0.00     0.286 C 
ATOM      5  O   UNL A   1      32.852  37.745  31.271  1.00  0.00    -0.266 OA
ATOM      6  H   UNL A   1      32.489  37.015  29.090  1.00  0.00     0.163 HD
BRANCH   4   7
ATOM      7  C   UNL A   1      33.841  35.682  31.811  1.00  0.00     0.191 A 
ATOM      8  C   UNL A   1      34.839  33.822  32.459  1.00  0.00     0.126 A 
ATOM      9  C   UNL A   1      34.817  34.652  33.559  1.00  0.00     0.048 A 
ATOM     10  O   UNL A   1      34.229  34.434  31.404  1.00  0.00    -0.454 OA
ATOM     11  C   UNL A   1      34.170  35.840  33.147  1.00  0.00     0.056 A 
BRANCH   8  12
ATOM     12  C   UNL A   1      35.426  32.482  32.208  1.00  0.00     0.219 C 
BRANCH  12  13
ATOM     13  N   UNL A   1      36.799  32.385  32.691  1.00  0.00    -0.262 N 
ATOM     14  C   UNL A   1      39.033  30.915  35.009  1.00  0.00     0.069 C 
ATOM     15  C   UNL A   1      38.374  31.727  33.955  1.00  0.00     0.063 A 
ATOM     16  N   UNL A   1      37.074  31.545  33.710  1.00  0.00    -0.177 NA
ATOM     17  C   UNL A   1      38.928  32.747  33.135  1.00  0.00    -0.007 A 
ATOM     18  C   UNL A   1      37.879  33.153  32.324  1.00  0.00     0.039 A 
ATOM     19  C   UNL A   1      40.314  33.279  33.144  1.00  0.00     0.048 C 
ATOM     20  C   UNL A   1      37.826  34.192  31.264  1.00  0.00     0.066 C 
ENDBRANCH  12  13
ENDBRANCH   8  12
ENDBRANCH   4   7
ENDBRANCH   2   3
ENDBRANCH   1   2
BRANCH   1  21
ATOM     21  C   UNL A   1      35.374  33.863  28.161  1.00  0.00     0.118 C 
BRANCH  21  22
ATOM     22  N   UNL A   1      34.458  32.726  28.267  1.00  0.00    -0.352 N 
ATOM     23  C   UNL A   1      34.743  31.375  28.150  1.00  0.00     0.251 C 
ATOM     24  H   UNL A   1      33.515  32.950  28.444  1.00  0.00     0.163 HD
ATOM     25  O   UNL A   1      33.861  30.555  27.984  1.00  0.00    -0.269 OA
BRANCH  23  26
ATOM     26  C   UNL A   1      36.157  30.954  28.207  1.00  0.00     0.039 A 
ATOM     27  C   UNL A   1      37.100  31.705  28.910  1.00  0.00     0.014 A 
ATOM     28  C   UNL A   1      36.512  29.754  27.602  1.00  0.00     0.014 A 
ATOM     29  C   UNL A   1      38.381  31.184  29.087  1.00  0.00     0.010 A 
ATOM     30  C   UNL A   1      37.715  29.172  27.914  1.00  0.00     0.010 A 
ATOM     31  C   UNL A   1      38.679  29.895  28.615  1.00  0.00    -0.014 A 
BRANCH  31  32
ATOM     32  C   UNL A   1      39.963  29.264  28.931  1.00  0.00     0.031 A 
ATOM     33  C   UNL A   1      40.254  29.057  30.381  1.00  0.00     0.074 A 
ATOM     34  C   UNL A   1      40.761  28.703  27.997  1.00  0.00     0.049 A 
ATOM     35  N   UNL A   1      41.248  29.523  31.065  1.00  0.00    -0.248 NA
ATOM     36  C   UNL A   1      39.286  28.291  31.184  1.00  0.00     0.031 C 
ATOM     37  C   UNL A   1      40.514  28.549  26.557  1.00  0.00     0.029 A 
ATOM     38  N   UNL A   1      41.941  28.040  28.169  1.00  0.00    -0.354 N 
ATOM     39  C   UNL A   1      41.128  28.985  32.345  1.00  0.00     0.074 A 
ATOM     40  C   UNL A   1      39.843  28.335  32.396  1.00  0.00     0.031 C 
ATOM     41  C   UNL A   1      41.372  27.645  26.042  1.00  0.00     0.029 A 
ATOM     42  C   UNL A   1      42.347  27.313  27.060  1.00  0.00     0.049 A 
ATOM     43  H   UNL A   1      42.460  28.076  29.005  1.00  0.00     0.167 HD
ATOM     44  C   UNL A   1      42.188  28.937  33.200  1.00  0.00     0.037 A 
ATOM     45  C   UNL A   1      43.410  26.483  26.969  1.00  0.00     0.037 A 
ATOM     46  C   UNL A   1      43.235  29.837  32.797  1.00  0.00     0.049 A 
ATOM     47  C   UNL A   1      44.360  26.861  28.035  1.00  0.00     0.074 A 
ATOM     48  C   UNL A   1      43.351  31.203  32.648  1.00  0.00     0.029 A 
ATOM     49  N   UNL A   1      44.310  29.298  32.137  1.00  0.00    -0.354 N 
ATOM     50  N   UNL A   1      45.006  27.994  28.066  1.00  0.00    -0.248 NA
ATOM     51  C   UNL A   1      44.309  26.137  29.295  1.00  0.00     0.031 C 
ATOM     52  C   UNL A   1      44.213  31.384  31.524  1.00  0.00     0.029 A 
ATOM     53  C   UNL A   1      44.606  30.120  31.081  1.00  0.00     0.049 A 
ATOM     54  H   UNL A   1      44.785  28.470  32.378  1.00  0.00     0.167 HD
ATOM     55  C   UNL A   1      45.055  28.330  29.410  1.00  0.00     0.074 A 
ATOM     56  C   UNL A   1      44.743  27.094  30.119  1.00  0.00     0.031 C 
ATOM     57  C   UNL A   1      45.069  29.638  29.800  1.00  0.00     0.037 A 
BRANCH  44  58
ATOM     58  C   UNL A   1      42.436  27.821  34.188  1.00  0.00     0.064 A 
ATOM     59  C   UNL A   1      43.000  26.609  33.741  1.00  0.00     0.173 A 
ATOM     60  C   UNL A   1      41.854  27.785  35.473  1.00  0.00     0.173 A 
ATOM     61  F   UNL A   1      43.556  26.521  32.523  1.00  0.00    -0.203 F 
ATOM     62  C   UNL A   1      42.924  25.435  34.499  1.00  0.00     0.198 A 
ATOM     63  C   UNL A   1      41.825  26.626  36.246  1.00  0.00     0.198 A 
ATOM     64  F   UNL A   1      41.191  28.832  35.978  1.00  0.00    -0.203 F 
ATOM     65  F   UNL A   1      43.363  24.280  33.983  1.00  0.00    -0.200 F 
ATOM     66  C   UNL A   1      42.332  25.445  35.748  1.00  0.00     0.200 A 
ATOM     67  F   UNL A   1      41.226  26.649  37.446  1.00  0.00    -0.200 F 
ATOM     68  F   UNL A   1      42.200  24.310  36.448  1.00  0.00    -0.200 F 
ENDBRANCH  44  58
BRANCH  45  69
ATOM     69  C   UNL A   1      43.518  25.236  26.183  1.00  0.00     0.064 A 
ATOM     70  C   UNL A   1      44.581  25.020  25.296  1.00  0.00     0.173 A 
ATOM     71  C   UNL A   1      42.714  24.121  26.491  1.00  0.00     0.173 A 
ATOM     72  F   UNL A   1      45.416  26.023  24.987  1.00  0.00    -0.203 F 
ATOM     73  C   UNL A   1      44.840  23.753  24.765  1.00  0.00     0.198 A 
ATOM     74  C   UNL A   1      42.970  22.860  25.958  1.00  0.00     0.198 A 
ATOM     75  F   UNL A   1      41.723  24.218  27.391  1.00  0.00    -0.203 F 
ATOM     76  F   UNL A   1      45.901  23.567  23.966  1.00  0.00    -0.200 F 
ATOM     77  C   UNL A   1      44.042  22.672  25.105  1.00  0.00     0.200 A 
ATOM     78  F   UNL A   1      42.213  21.816  26.325  1.00  0.00    -0.200 F 
ATOM     79  F   UNL A   1      44.328  21.446  24.646  1.00  0.00    -0.200 F 
ENDBRANCH  45  69
BRANCH  57  80
ATOM     80  C   UNL A   1      45.361  30.670  28.745  1.00  0.00     0.064 A 
ATOM     81  C   UNL A   1      44.381  31.263  27.928  1.00  0.00     0.173 A 
ATOM     82  C   UNL A   1      46.669  31.155  28.628  1.00  0.00     0.173 A 
ATOM     83  F   UNL A   1      43.091  30.933  28.048  1.00  0.00    -0.203 F 
ATOM     84  C   UNL A   1      44.709  32.251  27.001  1.00  0.00     0.198 A 
ATOM     85  C   UNL A   1      46.989  32.168  27.729  1.00  0.00     0.198 A 
ATOM     86  F   UNL A   1      47.637  30.670  29.422  1.00  0.00    -0.203 F 
ATOM     87  F   UNL A   1      43.757  32.782  26.219  1.00  0.00    -0.200 F 
ATOM     88  C   UNL A   1      46.013  32.707  26.905  1.00  0.00     0.200 A 
ATOM     89  F   UNL A   1      48.242  32.640  27.675  1.00  0.00    -0.200 F 
ATOM     90  F   UNL A   1      46.324  33.681  26.039  1.00  0.00    -0.200 F 
ENDBRANCH  57  80
ENDBRANCH  31  32
ENDBRANCH  23  26
ENDBRANCH  21  22
ENDBRANCH   1  21
TORSDOF 12
ENDMDL
