MODEL 1
REMARK VINA RESULT:     -13.7      0.000      0.000
REMARK SMILES O=C(NCCCNC(=O)c1cnccc1C(=O)N1CCC(Cc2ccccc2)CC1)c1ccc(-c2c3nc(c(-c4c(F)c(F)c(F)c(F)c4F)c4ccc([nH]4)c(-c4c(F)c(F)c(F)c(F)c4F)c4nc(c(-c5c(F)c(F)c(F)c(F)c5F)c5ccc2[nH]5)C=C4)C=C3)cc1
REMARK SMILES IDX 5 1 4 2 3 3 1 4 2 5 31 7 32 8 93 9 33 10 92 11 34 12 35 13
REMARK SMILES IDX 36 14 86 15 37 16 91 17 85 18 87 19 38 20 90 21 84 22 83 23
REMARK SMILES IDX 39 25 71 26 51 27 70 28 52 29 55 30 69 31 88 32 53 33 54 34
REMARK SMILES IDX 68 36 89 37 56 38 40 39 41 40 49 41 42 42 43 43 47 44 50 45
REMARK SMILES IDX 44 46 45 47 48 48 46 49 72 50 73 51 81 52 74 53 75 54 79 55
REMARK SMILES IDX 82 56 76 57 77 58 80 59 78 60 57 61 58 62 66 63 59 64 60 65
REMARK SMILES IDX 64 66 67 67 61 68 62 69 65 70 63 71 6 72 7 73 8 74 9 76
REMARK SMILES IDX 10 77 11 78 15 79 12 80 14 81 13 82 16 83 17 84 18 85 19 86
REMARK SMILES IDX 30 87 20 88 29 89 21 90 22 91 23 92 24 93 28 94 25 95 27 96
REMARK SMILES IDX 26 97
REMARK H PARENT 3 6 87 24 55 35 7 75
REMARK Flexibility Score: inf
ROOT
ATOM      1  C   UNL A   1      31.985  31.169  26.620  1.00  0.00     0.042 C 
ENDROOT
BRANCH   1   2
ATOM      2  C   UNL A   1      33.028  32.076  27.259  1.00  0.00     0.118 C 
BRANCH   2   3
ATOM      3  N   UNL A   1      32.585  33.443  27.506  1.00  0.00    -0.352 N 
ATOM      4  O   UNL A   1      32.528  35.488  28.472  1.00  0.00    -0.269 OA
ATOM      5  C   UNL A   1      33.075  34.395  28.373  1.00  0.00     0.251 C 
ATOM      6  H   UNL A   1      31.813  33.731  26.968  1.00  0.00     0.163 HD
BRANCH   5   7
ATOM      7  C   UNL A   1      34.230  34.066  29.229  1.00  0.00     0.039 A 
ATOM      8  C   UNL A   1      35.515  34.432  28.838  1.00  0.00     0.014 A 
ATOM      9  C   UNL A   1      34.037  33.297  30.379  1.00  0.00     0.014 A 
ATOM     10  C   UNL A   1      36.601  33.809  29.427  1.00  0.00     0.010 A 
ATOM     11  C   UNL A   1      35.144  32.791  31.066  1.00  0.00     0.010 A 
ATOM     12  C   UNL A   1      36.435  32.985  30.554  1.00  0.00    -0.014 A 
BRANCH  12  13
ATOM     13  C   UNL A   1      37.642  32.369  31.163  1.00  0.00     0.031 A 
ATOM     14  C   UNL A   1      38.066  32.688  32.572  1.00  0.00     0.074 A 
ATOM     15  C   UNL A   1      38.303  31.432  30.454  1.00  0.00     0.049 A 
ATOM     16  N   UNL A   1      39.061  32.189  33.263  1.00  0.00    -0.248 NA
ATOM     17  C   UNL A   1      37.288  33.703  33.299  1.00  0.00     0.031 C 
ATOM     18  C   UNL A   1      37.990  31.050  29.074  1.00  0.00     0.029 A 
ATOM     19  N   UNL A   1      39.332  30.597  30.800  1.00  0.00    -0.354 N 
ATOM     20  C   UNL A   1      39.047  32.848  34.486  1.00  0.00     0.074 A 
ATOM     21  C   UNL A   1      37.956  33.796  34.441  1.00  0.00     0.031 C 
ATOM     22  C   UNL A   1      38.743  30.000  28.724  1.00  0.00     0.029 A 
ATOM     23  C   UNL A   1      39.651  29.689  29.821  1.00  0.00     0.049 A 
ATOM     24  H   UNL A   1      39.798  30.643  31.667  1.00  0.00     0.167 HD
ATOM     25  C   UNL A   1      39.869  32.671  35.550  1.00  0.00     0.037 A 
ATOM     26  C   UNL A   1      40.580  28.717  29.798  1.00  0.00     0.037 A 
ATOM     27  C   UNL A   1      40.935  31.702  35.599  1.00  0.00     0.049 A 
ATOM     28  C   UNL A   1      41.452  28.524  31.003  1.00  0.00     0.074 A 
ATOM     29  C   UNL A   1      41.828  31.450  36.626  1.00  0.00     0.029 A 
ATOM     30  N   UNL A   1      41.241  30.815  34.578  1.00  0.00    -0.354 N 
ATOM     31  N   UNL A   1      41.438  29.172  32.142  1.00  0.00    -0.248 NA
ATOM     32  C   UNL A   1      42.475  27.476  30.913  1.00  0.00     0.031 C 
ATOM     33  C   UNL A   1      42.692  30.427  36.217  1.00  0.00     0.029 A 
ATOM     34  C   UNL A   1      42.312  30.016  34.949  1.00  0.00     0.049 A 
ATOM     35  H   UNL A   1      40.769  30.761  33.716  1.00  0.00     0.167 HD
ATOM     36  C   UNL A   1      42.454  28.617  32.904  1.00  0.00     0.074 A 
ATOM     37  C   UNL A   1      43.037  27.552  32.112  1.00  0.00     0.031 C 
ATOM     38  C   UNL A   1      42.880  28.970  34.141  1.00  0.00     0.037 A 
BRANCH  25  39
ATOM     39  C   UNL A   1      39.661  33.549  36.750  1.00  0.00     0.064 A 
ATOM     40  C   UNL A   1      40.270  34.808  36.855  1.00  0.00     0.173 A 
ATOM     41  C   UNL A   1      38.796  33.150  37.781  1.00  0.00     0.173 A 
ATOM     42  F   UNL A   1      41.115  35.230  35.903  1.00  0.00    -0.203 F 
ATOM     43  C   UNL A   1      40.031  35.630  37.955  1.00  0.00     0.198 A 
ATOM     44  C   UNL A   1      38.541  33.984  38.867  1.00  0.00     0.198 A 
ATOM     45  F   UNL A   1      38.184  31.958  37.727  1.00  0.00    -0.203 F 
ATOM     46  F   UNL A   1      40.648  36.816  38.049  1.00  0.00    -0.200 F 
ATOM     47  C   UNL A   1      39.161  35.222  38.956  1.00  0.00     0.200 A 
ATOM     48  F   UNL A   1      37.692  33.592  39.827  1.00  0.00    -0.200 F 
ATOM     49  F   UNL A   1      38.924  36.018  40.006  1.00  0.00    -0.200 F 
ENDBRANCH  25  39
BRANCH  26  50
ATOM     50  C   UNL A   1      40.730  27.873  28.586  1.00  0.00     0.064 A 
ATOM     51  C   UNL A   1      40.044  26.659  28.459  1.00  0.00     0.173 A 
ATOM     52  C   UNL A   1      41.537  28.284  27.515  1.00  0.00     0.173 A 
ATOM     53  F   UNL A   1      39.273  26.217  29.463  1.00  0.00    -0.203 F 
ATOM     54  C   UNL A   1      40.170  25.880  27.311  1.00  0.00     0.198 A 
ATOM     55  C   UNL A   1      41.637  27.522  26.354  1.00  0.00     0.198 A 
ATOM     56  F   UNL A   1      42.206  29.445  27.584  1.00  0.00    -0.203 F 
ATOM     57  F   UNL A   1      39.531  24.706  27.227  1.00  0.00    -0.200 F 
ATOM     58  C   UNL A   1      40.958  26.317  26.256  1.00  0.00     0.200 A 
ATOM     59  F   UNL A   1      42.381  27.960  25.330  1.00  0.00    -0.200 F 
ATOM     60  F   UNL A   1      41.064  25.576  25.145  1.00  0.00    -0.200 F 
ENDBRANCH  26  50
BRANCH  38  61
ATOM     61  C   UNL A   1      44.031  28.191  34.700  1.00  0.00     0.064 A 
ATOM     62  C   UNL A   1      43.822  27.024  35.450  1.00  0.00     0.173 A 
ATOM     63  C   UNL A   1      45.350  28.612  34.483  1.00  0.00     0.173 A 
ATOM     64  F   UNL A   1      42.575  26.595  35.699  1.00  0.00    -0.203 F 
ATOM     65  C   UNL A   1      44.896  26.323  35.989  1.00  0.00     0.198 A 
ATOM     66  C   UNL A   1      46.422  27.893  35.002  1.00  0.00     0.198 A 
ATOM     67  F   UNL A   1      45.597  29.721  33.769  1.00  0.00    -0.203 F 
ATOM     68  F   UNL A   1      44.674  25.239  36.747  1.00  0.00    -0.200 F 
ATOM     69  C   UNL A   1      46.195  26.754  35.762  1.00  0.00     0.200 A 
ATOM     70  F   UNL A   1      47.676  28.308  34.778  1.00  0.00    -0.200 F 
ATOM     71  F   UNL A   1      47.226  26.081  36.287  1.00  0.00    -0.200 F 
ENDBRANCH  38  61
ENDBRANCH  12  13
ENDBRANCH   5   7
ENDBRANCH   2   3
ENDBRANCH   1   2
BRANCH   1  72
ATOM     72  C   UNL A   1      32.110  29.705  26.989  1.00  0.00     0.118 C 
BRANCH  72  73
ATOM     73  N   UNL A   1      33.152  29.017  26.245  1.00  0.00    -0.352 N 
ATOM     74  C   UNL A   1      33.045  28.273  25.102  1.00  0.00     0.253 C 
ATOM     75  H   UNL A   1      34.062  29.097  26.615  1.00  0.00     0.163 HD
ATOM     76  O   UNL A   1      34.028  27.723  24.626  1.00  0.00    -0.269 OA
BRANCH  74  77
ATOM     77  C   UNL A   1      31.745  28.084  24.461  1.00  0.00     0.070 A 
ATOM     78  C   UNL A   1      31.467  28.953  23.414  1.00  0.00     0.125 A 
ATOM     79  C   UNL A   1      30.819  27.089  24.768  1.00  0.00     0.055 A 
ATOM     80  N   UNL A   1      30.375  28.853  22.621  1.00  0.00    -0.264 NA
ATOM     81  C   UNL A   1      29.689  26.962  23.946  1.00  0.00     0.035 A 
ATOM     82  C   UNL A   1      29.518  27.848  22.895  1.00  0.00     0.112 A 
BRANCH  79  83
ATOM     83  C   UNL A   1      31.065  25.981  25.721  1.00  0.00     0.254 C 
ATOM     84  O   UNL A   1      30.694  26.201  26.877  1.00  0.00    -0.269 OA
ATOM     85  N   UNL A   1      31.571  24.741  25.337  1.00  0.00    -0.339 N 
ATOM     86  C   UNL A   1      31.156  23.592  26.137  1.00  0.00     0.120 C 
ATOM     87  C   UNL A   1      32.323  24.435  24.116  1.00  0.00     0.120 C 
ATOM     88  C   UNL A   1      32.274  22.605  26.407  1.00  0.00     0.025 C 
ATOM     89  C   UNL A   1      33.441  23.410  24.361  1.00  0.00     0.025 C 
ATOM     90  C   UNL A   1      32.905  22.157  25.083  1.00  0.00    -0.003 C 
BRANCH  90  91
ATOM     91  C   UNL A   1      33.999  21.096  25.306  1.00  0.00     0.039 C 
BRANCH  91  92
ATOM     92  C   UNL A   1      33.700  19.793  24.593  1.00  0.00    -0.048 A 
ATOM     93  C   UNL A   1      32.527  19.647  23.839  1.00  0.00     0.004 A 
ATOM     94  C   UNL A   1      34.616  18.731  24.626  1.00  0.00     0.004 A 
ATOM     95  C   UNL A   1      32.282  18.473  23.123  1.00  0.00     0.000 A 
ATOM     96  C   UNL A   1      34.369  17.557  23.909  1.00  0.00     0.000 A 
ATOM     97  C   UNL A   1      33.204  17.430  23.156  1.00  0.00     0.000 A 
ENDBRANCH  91  92
ENDBRANCH  90  91
ENDBRANCH  79  83
ENDBRANCH  74  77
ENDBRANCH  72  73
ENDBRANCH   1  72
TORSDOF 13
ENDMDL
MODEL 2
REMARK VINA RESULT:     -13.5      1.447      2.509
REMARK SMILES O=C(NCCCNC(=O)c1cnccc1C(=O)N1CCC(Cc2ccccc2)CC1)c1ccc(-c2c3nc(c(-c4c(F)c(F)c(F)c(F)c4F)c4ccc([nH]4)c(-c4c(F)c(F)c(F)c(F)c4F)c4nc(c(-c5c(F)c(F)c(F)c(F)c5F)c5ccc2[nH]5)C=C4)C=C3)cc1
REMARK SMILES IDX 5 1 4 2 3 3 1 4 2 5 31 7 32 8 93 9 33 10 92 11 34 12 35 13
REMARK SMILES IDX 36 14 86 15 37 16 91 17 85 18 87 19 38 20 90 21 84 22 83 23
REMARK SMILES IDX 39 25 71 26 51 27 70 28 52 29 55 30 69 31 88 32 53 33 54 34
REMARK SMILES IDX 68 36 89 37 56 38 40 39 41 40 49 41 42 42 43 43 47 44 50 45
REMARK SMILES IDX 44 46 45 47 48 48 46 49 72 50 73 51 81 52 74 53 75 54 79 55
REMARK SMILES IDX 82 56 76 57 77 58 80 59 78 60 57 61 58 62 66 63 59 64 60 65
REMARK SMILES IDX 64 66 67 67 61 68 62 69 65 70 63 71 6 72 7 73 8 74 9 76
REMARK SMILES IDX 10 77 11 78 15 79 12 80 14 81 13 82 16 83 17 84 18 85 19 86
REMARK SMILES IDX 30 87 20 88 29 89 21 90 22 91 23 92 24 93 28 94 25 95 27 96
REMARK SMILES IDX 26 97
REMARK H PARENT 3 6 87 24 55 35 7 75
REMARK Flexibility Score: inf
ROOT
ATOM      1  C   UNL A   1      31.473  29.529  27.136  1.00  0.00     0.042 C 
ENDROOT
BRANCH   1   2
ATOM      2  C   UNL A   1      32.535  30.451  26.555  1.00  0.00     0.118 C 
BRANCH   2   3
ATOM      3  N   UNL A   1      32.412  31.852  26.943  1.00  0.00    -0.352 N 
ATOM      4  O   UNL A   1      32.991  33.830  27.875  1.00  0.00    -0.269 OA
ATOM      5  C   UNL A   1      33.302  32.679  27.592  1.00  0.00     0.251 C 
ATOM      6  H   UNL A   1      31.556  32.274  26.701  1.00  0.00     0.163 HD
BRANCH   5   7
ATOM      7  C   UNL A   1      34.616  32.145  28.001  1.00  0.00     0.039 A 
ATOM      8  C   UNL A   1      34.733  30.821  28.413  1.00  0.00     0.014 A 
ATOM      9  C   UNL A   1      35.716  33.004  28.068  1.00  0.00     0.014 A 
ATOM     10  C   UNL A   1      35.847  30.438  29.139  1.00  0.00     0.010 A 
ATOM     11  C   UNL A   1      36.899  32.565  28.668  1.00  0.00     0.010 A 
ATOM     12  C   UNL A   1      36.951  31.300  29.272  1.00  0.00    -0.014 A 
BRANCH  12  13
ATOM     13  C   UNL A   1      38.133  30.821  30.036  1.00  0.00     0.031 A 
ATOM     14  C   UNL A   1      38.328  31.170  31.487  1.00  0.00     0.074 A 
ATOM     15  C   UNL A   1      38.987  29.978  29.421  1.00  0.00     0.049 A 
ATOM     16  N   UNL A   1      39.276  30.781  32.305  1.00  0.00    -0.248 NA
ATOM     17  C   UNL A   1      37.347  32.076  32.103  1.00  0.00     0.031 C 
ATOM     18  C   UNL A   1      38.904  29.581  28.013  1.00  0.00     0.029 A 
ATOM     19  N   UNL A   1      40.053  29.265  29.902  1.00  0.00    -0.354 N 
ATOM     20  C   UNL A   1      39.024  31.418  33.513  1.00  0.00     0.074 A 
ATOM     21  C   UNL A   1      37.845  32.233  33.323  1.00  0.00     0.031 C 
ATOM     22  C   UNL A   1      39.816  28.631  27.768  1.00  0.00     0.029 A 
ATOM     23  C   UNL A   1      40.602  28.414  28.975  1.00  0.00     0.049 A 
ATOM     24  H   UNL A   1      40.393  29.355  30.822  1.00  0.00     0.167 HD
ATOM     25  C   UNL A   1      39.715  31.325  34.676  1.00  0.00     0.037 A 
ATOM     26  C   UNL A   1      41.635  27.559  29.077  1.00  0.00     0.037 A 
ATOM     27  C   UNL A   1      40.873  30.488  34.868  1.00  0.00     0.049 A 
ATOM     28  C   UNL A   1      42.358  27.453  30.386  1.00  0.00     0.074 A 
ATOM     29  C   UNL A   1      41.647  30.329  36.003  1.00  0.00     0.029 A 
ATOM     30  N   UNL A   1      41.413  29.657  33.897  1.00  0.00    -0.354 N 
ATOM     31  N   UNL A   1      42.119  28.080  31.512  1.00  0.00    -0.248 NA
ATOM     32  C   UNL A   1      43.501  26.534  30.435  1.00  0.00     0.031 C 
ATOM     33  C   UNL A   1      42.672  29.420  35.714  1.00  0.00     0.029 A 
ATOM     34  C   UNL A   1      42.512  28.984  34.407  1.00  0.00     0.049 A 
ATOM     35  H   UNL A   1      41.067  29.558  32.981  1.00  0.00     0.167 HD
ATOM     36  C   UNL A   1      43.084  27.638  32.402  1.00  0.00     0.074 A 
ATOM     37  C   UNL A   1      43.888  26.659  31.696  1.00  0.00     0.031 C 
ATOM     38  C   UNL A   1      43.300  28.023  33.683  1.00  0.00     0.037 A 
BRANCH  25  39
ATOM     39  C   UNL A   1      39.250  32.157  35.836  1.00  0.00     0.064 A 
ATOM     40  C   UNL A   1      38.325  31.667  36.769  1.00  0.00     0.173 A 
ATOM     41  C   UNL A   1      39.781  33.439  36.050  1.00  0.00     0.173 A 
ATOM     42  F   UNL A   1      37.778  30.454  36.604  1.00  0.00    -0.203 F 
ATOM     43  C   UNL A   1      37.938  32.435  37.866  1.00  0.00     0.198 A 
ATOM     44  C   UNL A   1      39.410  34.194  37.160  1.00  0.00     0.198 A 
ATOM     45  F   UNL A   1      40.674  33.953  35.191  1.00  0.00    -0.203 F 
ATOM     46  F   UNL A   1      37.030  31.957  38.728  1.00  0.00    -0.200 F 
ATOM     47  C   UNL A   1      38.486  33.693  38.065  1.00  0.00     0.200 A 
ATOM     48  F   UNL A   1      39.949  35.405  37.356  1.00  0.00    -0.200 F 
ATOM     49  F   UNL A   1      38.122  34.425  39.127  1.00  0.00    -0.200 F 
ENDBRANCH  25  39
BRANCH  26  50
ATOM     50  C   UNL A   1      42.040  26.754  27.897  1.00  0.00     0.064 A 
ATOM     51  C   UNL A   1      41.446  25.516  27.625  1.00  0.00     0.173 A 
ATOM     52  C   UNL A   1      43.009  27.227  26.999  1.00  0.00     0.173 A 
ATOM     53  F   UNL A   1      40.526  25.016  28.463  1.00  0.00    -0.203 F 
ATOM     54  C   UNL A   1      41.813  24.774  26.504  1.00  0.00     0.198 A 
ATOM     55  C   UNL A   1      43.352  26.500  25.861  1.00  0.00     0.198 A 
ATOM     56  F   UNL A   1      43.600  28.412  27.210  1.00  0.00    -0.203 F 
ATOM     57  F   UNL A   1      41.254  23.576  26.284  1.00  0.00    -0.200 F 
ATOM     58  C   UNL A   1      42.758  25.272  25.619  1.00  0.00     0.200 A 
ATOM     59  F   UNL A   1      44.248  26.996  24.999  1.00  0.00    -0.200 F 
ATOM     60  F   UNL A   1      43.098  24.565  24.533  1.00  0.00    -0.200 F 
ENDBRANCH  26  50
BRANCH  38  61
ATOM     61  C   UNL A   1      44.453  27.376  34.391  1.00  0.00     0.064 A 
ATOM     62  C   UNL A   1      45.731  27.954  34.376  1.00  0.00     0.173 A 
ATOM     63  C   UNL A   1      44.276  26.174  35.090  1.00  0.00     0.173 A 
ATOM     64  F   UNL A   1      45.948  29.094  33.704  1.00  0.00    -0.203 F 
ATOM     65  C   UNL A   1      46.800  27.332  35.013  1.00  0.00     0.198 A 
ATOM     66  C   UNL A   1      45.343  25.569  35.746  1.00  0.00     0.198 A 
ATOM     67  F   UNL A   1      43.071  25.587  35.133  1.00  0.00    -0.203 F 
ATOM     68  F   UNL A   1      48.025  27.873  34.944  1.00  0.00    -0.200 F 
ATOM     69  C   UNL A   1      46.606  26.143  35.701  1.00  0.00     0.200 A 
ATOM     70  F   UNL A   1      45.154  24.423  36.414  1.00  0.00    -0.200 F 
ATOM     71  F   UNL A   1      47.638  25.543  36.307  1.00  0.00    -0.200 F 
ENDBRANCH  38  61
ENDBRANCH  12  13
ENDBRANCH   5   7
ENDBRANCH   2   3
ENDBRANCH   1   2
BRANCH   1  72
ATOM     72  C   UNL A   1      31.965  28.138  27.482  1.00  0.00     0.118 C 
BRANCH  72  73
ATOM     73  N   UNL A   1      31.035  27.091  27.093  1.00  0.00    -0.352 N 
ATOM     74  C   UNL A   1      30.822  26.547  25.856  1.00  0.00     0.253 C 
ATOM     75  H   UNL A   1      30.480  26.724  27.819  1.00  0.00     0.163 HD
ATOM     76  O   UNL A   1      29.961  25.693  25.694  1.00  0.00    -0.269 OA
BRANCH  74  77
ATOM     77  C   UNL A   1      31.585  27.013  24.700  1.00  0.00     0.070 A 
ATOM     78  C   UNL A   1      30.944  27.953  23.904  1.00  0.00     0.125 A 
ATOM     79  C   UNL A   1      32.891  26.646  24.380  1.00  0.00     0.055 A 
ATOM     80  N   UNL A   1      31.535  28.592  22.868  1.00  0.00    -0.264 NA
ATOM     81  C   UNL A   1      33.523  27.310  23.318  1.00  0.00     0.035 A 
ATOM     82  C   UNL A   1      32.817  28.268  22.609  1.00  0.00     0.112 A 
BRANCH  79  83
ATOM     83  C   UNL A   1      33.760  25.810  25.241  1.00  0.00     0.254 C 
ATOM     84  O   UNL A   1      34.390  26.433  26.100  1.00  0.00    -0.269 OA
ATOM     85  N   UNL A   1      33.790  24.419  25.176  1.00  0.00    -0.339 N 
ATOM     86  C   UNL A   1      34.108  23.714  26.416  1.00  0.00     0.120 C 
ATOM     87  C   UNL A   1      33.359  23.579  24.054  1.00  0.00     0.120 C 
ATOM     88  C   UNL A   1      35.035  22.533  26.221  1.00  0.00     0.025 C 
ATOM     89  C   UNL A   1      34.268  22.355  23.859  1.00  0.00     0.025 C 
ATOM     90  C   UNL A   1      34.446  21.574  25.177  1.00  0.00    -0.003 C 
BRANCH  90  91
ATOM     91  C   UNL A   1      35.321  20.319  25.001  1.00  0.00     0.039 C 
BRANCH  91  92
ATOM     92  C   UNL A   1      34.514  19.094  24.626  1.00  0.00    -0.048 A 
ATOM     93  C   UNL A   1      33.113  19.148  24.592  1.00  0.00     0.004 A 
ATOM     94  C   UNL A   1      35.151  17.901  24.251  1.00  0.00     0.004 A 
ATOM     95  C   UNL A   1      32.367  18.042  24.178  1.00  0.00     0.000 A 
ATOM     96  C   UNL A   1      34.403  16.796  23.838  1.00  0.00     0.000 A 
ATOM     97  C   UNL A   1      33.012  16.867  23.799  1.00  0.00     0.000 A 
ENDBRANCH  91  92
ENDBRANCH  90  91
ENDBRANCH  79  83
ENDBRANCH  74  77
ENDBRANCH  72  73
ENDBRANCH   1  72
TORSDOF 13
ENDMDL
MODEL 3
REMARK VINA RESULT:     -13.5      0.620      7.284
REMARK SMILES O=C(NCCCNC(=O)c1cnccc1C(=O)N1CCC(Cc2ccccc2)CC1)c1ccc(-c2c3nc(c(-c4c(F)c(F)c(F)c(F)c4F)c4ccc([nH]4)c(-c4c(F)c(F)c(F)c(F)c4F)c4nc(c(-c5c(F)c(F)c(F)c(F)c5F)c5ccc2[nH]5)C=C4)C=C3)cc1
REMARK SMILES IDX 5 1 4 2 3 3 1 4 2 5 31 7 32 8 93 9 33 10 92 11 34 12 35 13
REMARK SMILES IDX 36 14 86 15 37 16 91 17 85 18 87 19 38 20 90 21 84 22 83 23
REMARK SMILES IDX 39 25 71 26 51 27 70 28 52 29 55 30 69 31 88 32 53 33 54 34
REMARK SMILES IDX 68 36 89 37 56 38 40 39 41 40 49 41 42 42 43 43 47 44 50 45
REMARK SMILES IDX 44 46 45 47 48 48 46 49 72 50 73 51 81 52 74 53 75 54 79 55
REMARK SMILES IDX 82 56 76 57 77 58 80 59 78 60 57 61 58 62 66 63 59 64 60 65
REMARK SMILES IDX 64 66 67 67 61 68 62 69 65 70 63 71 6 72 7 73 8 74 9 76
REMARK SMILES IDX 10 77 11 78 15 79 12 80 14 81 13 82 16 83 17 84 18 85 19 86
REMARK SMILES IDX 30 87 20 88 29 89 21 90 22 91 23 92 24 93 28 94 25 95 27 96
REMARK SMILES IDX 26 97
REMARK H PARENT 3 6 87 24 55 35 7 75
REMARK Flexibility Score: inf
ROOT
ATOM      1  C   UNL A   1      31.804  31.815  26.608  1.00  0.00     0.042 C 
ENDROOT
BRANCH   1   2
ATOM      2  C   UNL A   1      32.854  32.621  27.359  1.00  0.00     0.118 C 
BRANCH   2   3
ATOM      3  N   UNL A   1      32.482  34.004  27.640  1.00  0.00    -0.352 N 
ATOM      4  O   UNL A   1      32.512  36.016  28.674  1.00  0.00    -0.269 OA
ATOM      5  C   UNL A   1      32.998  34.897  28.554  1.00  0.00     0.251 C 
ATOM      6  H   UNL A   1      31.747  34.355  27.088  1.00  0.00     0.163 HD
BRANCH   5   7
ATOM      7  C   UNL A   1      34.103  34.472  29.434  1.00  0.00     0.039 A 
ATOM      8  C   UNL A   1      35.420  34.573  28.997  1.00  0.00     0.014 A 
ATOM      9  C   UNL A   1      33.812  33.875  30.663  1.00  0.00     0.014 A 
ATOM     10  C   UNL A   1      36.402  33.843  29.644  1.00  0.00     0.010 A 
ATOM     11  C   UNL A   1      34.836  33.267  31.395  1.00  0.00     0.010 A 
ATOM     12  C   UNL A   1      36.129  33.185  30.857  1.00  0.00    -0.014 A 
BRANCH  12  13
ATOM     13  C   UNL A   1      37.232  32.443  31.522  1.00  0.00     0.031 A 
ATOM     14  C   UNL A   1      38.022  31.387  30.798  1.00  0.00     0.074 A 
ATOM     15  C   UNL A   1      37.578  32.809  32.773  1.00  0.00     0.049 A 
ATOM     16  N   UNL A   1      39.050  30.694  31.223  1.00  0.00    -0.248 NA
ATOM     17  C   UNL A   1      37.606  31.052  29.427  1.00  0.00     0.031 C 
ATOM     18  C   UNL A   1      36.874  33.812  33.578  1.00  0.00     0.029 A 
ATOM     19  N   UNL A   1      38.627  32.427  33.567  1.00  0.00    -0.354 N 
ATOM     20  C   UNL A   1      39.380  29.825  30.190  1.00  0.00     0.074 A 
ATOM     21  C   UNL A   1      38.436  30.062  29.121  1.00  0.00     0.031 C 
ATOM     22  C   UNL A   1      37.560  34.031  34.707  1.00  0.00     0.029 A 
ATOM     23  C   UNL A   1      38.701  33.126  34.746  1.00  0.00     0.049 A 
ATOM     24  H   UNL A   1      39.264  31.719  33.317  1.00  0.00     0.167 HD
ATOM     25  C   UNL A   1      40.384  28.916  30.141  1.00  0.00     0.037 A 
ATOM     26  C   UNL A   1      39.583  33.043  35.758  1.00  0.00     0.037 A 
ATOM     27  C   UNL A   1      41.342  28.706  31.199  1.00  0.00     0.049 A 
ATOM     28  C   UNL A   1      40.703  32.052  35.659  1.00  0.00     0.074 A 
ATOM     29  C   UNL A   1      42.391  27.805  31.250  1.00  0.00     0.029 A 
ATOM     30  N   UNL A   1      41.370  29.419  32.388  1.00  0.00    -0.354 N 
ATOM     31  N   UNL A   1      40.986  31.224  34.684  1.00  0.00    -0.248 NA
ATOM     32  C   UNL A   1      41.616  31.974  36.805  1.00  0.00     0.031 C 
ATOM     33  C   UNL A   1      43.041  27.955  32.481  1.00  0.00     0.029 A 
ATOM     34  C   UNL A   1      42.418  28.977  33.181  1.00  0.00     0.049 A 
ATOM     35  H   UNL A   1      40.740  30.134  32.634  1.00  0.00     0.167 HD
ATOM     36  C   UNL A   1      42.105  30.519  35.100  1.00  0.00     0.074 A 
ATOM     37  C   UNL A   1      42.473  31.047  36.399  1.00  0.00     0.031 C 
ATOM     38  C   UNL A   1      42.758  29.511  34.472  1.00  0.00     0.037 A 
BRANCH  25  39
ATOM     39  C   UNL A   1      40.501  28.066  28.910  1.00  0.00     0.064 A 
ATOM     40  C   UNL A   1      39.799  26.859  28.778  1.00  0.00     0.173 A 
ATOM     41  C   UNL A   1      41.280  28.493  27.822  1.00  0.00     0.173 A 
ATOM     42  F   UNL A   1      39.051  26.400  29.793  1.00  0.00    -0.203 F 
ATOM     43  C   UNL A   1      39.883  26.104  27.610  1.00  0.00     0.198 A 
ATOM     44  C   UNL A   1      41.343  27.748  26.647  1.00  0.00     0.198 A 
ATOM     45  F   UNL A   1      41.967  29.642  27.893  1.00  0.00    -0.203 F 
ATOM     46  F   UNL A   1      39.226  24.939  27.519  1.00  0.00    -0.200 F 
ATOM     47  C   UNL A   1      40.647  26.552  26.543  1.00  0.00     0.200 A 
ATOM     48  F   UNL A   1      42.073  28.187  25.614  1.00  0.00    -0.200 F 
ATOM     49  F   UNL A   1      40.717  25.831  25.416  1.00  0.00    -0.200 F 
ENDBRANCH  25  39
BRANCH  26  50
ATOM     50  C   UNL A   1      39.422  33.920  36.945  1.00  0.00     0.064 A 
ATOM     51  C   UNL A   1      38.749  33.475  38.089  1.00  0.00     0.173 A 
ATOM     52  C   UNL A   1      39.972  35.210  36.969  1.00  0.00     0.173 A 
ATOM     53  F   UNL A   1      38.194  32.254  38.107  1.00  0.00    -0.203 F 
ATOM     54  C   UNL A   1      38.620  34.293  39.210  1.00  0.00     0.198 A 
ATOM     55  C   UNL A   1      39.871  36.015  38.101  1.00  0.00     0.198 A 
ATOM     56  F   UNL A   1      40.635  35.679  35.902  1.00  0.00    -0.203 F 
ATOM     57  F   UNL A   1      37.941  33.857  40.280  1.00  0.00    -0.200 F 
ATOM     58  C   UNL A   1      39.190  35.558  39.218  1.00  0.00     0.200 A 
ATOM     59  F   UNL A   1      40.443  37.227  38.112  1.00  0.00    -0.200 F 
ATOM     60  F   UNL A   1      39.080  36.337  40.302  1.00  0.00    -0.200 F 
ENDBRANCH  26  50
BRANCH  38  61
ATOM     61  C   UNL A   1      43.934  28.924  35.193  1.00  0.00     0.064 A 
ATOM     62  C   UNL A   1      45.227  29.436  35.012  1.00  0.00     0.173 A 
ATOM     63  C   UNL A   1      43.765  27.845  36.072  1.00  0.00     0.173 A 
ATOM     64  F   UNL A   1      45.437  30.456  34.166  1.00  0.00    -0.203 F 
ATOM     65  C   UNL A   1      46.316  28.867  35.664  1.00  0.00     0.198 A 
ATOM     66  C   UNL A   1      44.853  27.295  36.741  1.00  0.00     0.198 A 
ATOM     67  F   UNL A   1      42.546  27.325  36.278  1.00  0.00    -0.203 F 
ATOM     68  F   UNL A   1      47.550  29.337  35.438  1.00  0.00    -0.200 F 
ATOM     69  C   UNL A   1      46.129  27.800  36.531  1.00  0.00     0.200 A 
ATOM     70  F   UNL A   1      44.672  26.268  37.583  1.00  0.00    -0.200 F 
ATOM     71  F   UNL A   1      47.179  27.249  37.153  1.00  0.00    -0.200 F 
ENDBRANCH  38  61
ENDBRANCH  12  13
ENDBRANCH   5   7
ENDBRANCH   2   3
ENDBRANCH   1   2
BRANCH   1  72
ATOM     72  C   UNL A   1      31.920  30.314  26.778  1.00  0.00     0.118 C 
BRANCH  72  73
ATOM     73  N   UNL A   1      32.978  29.730  25.970  1.00  0.00    -0.352 N 
ATOM     74  C   UNL A   1      32.876  28.874  24.908  1.00  0.00     0.253 C 
ATOM     75  H   UNL A   1      33.895  29.985  26.222  1.00  0.00     0.163 HD
ATOM     76  O   UNL A   1      33.881  28.441  24.361  1.00  0.00    -0.269 OA
BRANCH  74  77
ATOM     77  C   UNL A   1      31.565  28.424  24.442  1.00  0.00     0.070 A 
ATOM     78  C   UNL A   1      31.030  29.148  23.385  1.00  0.00     0.125 A 
ATOM     79  C   UNL A   1      30.861  27.320  24.921  1.00  0.00     0.055 A 
ATOM     80  N   UNL A   1      29.891  28.807  22.738  1.00  0.00    -0.264 NA
ATOM     81  C   UNL A   1      29.687  26.945  24.251  1.00  0.00     0.035 A 
ATOM     82  C   UNL A   1      29.254  27.703  23.176  1.00  0.00     0.112 A 
BRANCH  79  83
ATOM     83  C   UNL A   1      31.396  26.349  25.904  1.00  0.00     0.254 C 
ATOM     84  O   UNL A   1      31.369  26.732  27.076  1.00  0.00    -0.269 OA
ATOM     85  N   UNL A   1      31.797  25.059  25.563  1.00  0.00    -0.339 N 
ATOM     86  C   UNL A   1      31.655  24.038  26.598  1.00  0.00     0.120 C 
ATOM     87  C   UNL A   1      32.171  24.575  24.231  1.00  0.00     0.120 C 
ATOM     88  C   UNL A   1      32.824  23.077  26.666  1.00  0.00     0.025 C 
ATOM     89  C   UNL A   1      33.335  23.572  24.281  1.00  0.00     0.025 C 
ATOM     90  C   UNL A   1      33.057  22.440  25.290  1.00  0.00    -0.003 C 
BRANCH  90  91
ATOM     91  C   UNL A   1      34.191  21.399  25.331  1.00  0.00     0.039 C 
BRANCH  91  92
ATOM     92  C   UNL A   1      33.834  20.118  24.605  1.00  0.00    -0.048 A 
ATOM     93  C   UNL A   1      34.649  18.984  24.722  1.00  0.00     0.004 A 
ATOM     94  C   UNL A   1      32.654  20.026  23.852  1.00  0.00     0.004 A 
ATOM     95  C   UNL A   1      34.286  17.780  24.112  1.00  0.00     0.000 A 
ATOM     96  C   UNL A   1      32.293  18.821  23.242  1.00  0.00     0.000 A 
ATOM     97  C   UNL A   1      33.107  17.699  23.375  1.00  0.00     0.000 A 
ENDBRANCH  91  92
ENDBRANCH  90  91
ENDBRANCH  79  83
ENDBRANCH  74  77
ENDBRANCH  72  73
ENDBRANCH   1  72
TORSDOF 13
ENDMDL
