MODEL 1
REMARK VINA RESULT:     -12.5      0.000      0.000
REMARK SMILES O=C(NCCCNC(=O)c1cc(NC(=S)NC(=O)c2ccccc2Cl)c(Cl)cc1Cl)c1ccc(-c2c3nc(c(-c4c(F)c(F)c(F)c(F)c4F)c4ccc([nH]4)c(-c4c(F)c(F)c(F)c(F)c4F)c4nc(c(-c5c(F)c(F)c(F)c(F)c5F)c5ccc2[nH]5)C=C4)C=C3)cc1
REMARK SMILES IDX 6 1 5 2 4 3 3 4 1 5 2 6 31 8 32 9 93 10 33 11 92 12 34 13
REMARK SMILES IDX 35 14 36 15 86 16 37 17 91 18 85 19 87 20 38 21 90 22 84 23
REMARK SMILES IDX 83 24 39 26 71 27 51 28 70 29 52 30 55 31 69 32 88 33 53 34
REMARK SMILES IDX 54 35 68 37 89 38 56 39 40 40 41 41 49 42 42 43 43 44 47 45
REMARK SMILES IDX 50 46 44 47 45 48 48 49 46 50 72 51 73 52 81 53 74 54 75 55
REMARK SMILES IDX 79 56 82 57 76 58 77 59 80 60 78 61 57 62 58 63 66 64 59 65
REMARK SMILES IDX 60 66 64 67 67 68 61 69 62 70 65 71 63 72 7 73 8 74 9 76
REMARK SMILES IDX 10 77 11 78 29 79 12 80 28 81 30 82 26 83 27 84 13 85 14 87
REMARK SMILES IDX 15 88 16 89 17 90 18 92 19 93 20 94 24 95 21 96 23 97 25 98
REMARK SMILES IDX 22 99
REMARK H PARENT 3 7 87 25 55 36 7 75 13 86 16 91
REMARK Flexibility Score: inf
ROOT
ATOM      1  C   UNL A   1      33.277  30.664  27.409  1.00  0.00     0.118 C 
ENDROOT
BRANCH   1   2
ATOM      2  C   UNL A   1      32.284  31.816  27.486  1.00  0.00     0.042 C 
BRANCH   2   3
ATOM      3  C   UNL A   1      32.823  33.075  26.849  1.00  0.00     0.118 C 
BRANCH   3   4
ATOM      4  N   UNL A   1      32.504  34.270  27.625  1.00  0.00    -0.352 N 
ATOM      5  O   UNL A   1      32.550  35.686  29.384  1.00  0.00    -0.269 OA
ATOM      6  C   UNL A   1      33.057  34.736  28.795  1.00  0.00     0.251 C 
ATOM      7  H   UNL A   1      31.784  34.830  27.253  1.00  0.00     0.163 HD
BRANCH   6   8
ATOM      8  C   UNL A   1      34.249  34.069  29.361  1.00  0.00     0.039 A 
ATOM      9  C   UNL A   1      34.104  33.108  30.359  1.00  0.00     0.014 A 
ATOM     10  C   UNL A   1      35.525  34.414  28.906  1.00  0.00     0.014 A 
ATOM     11  C   UNL A   1      35.211  32.665  31.054  1.00  0.00     0.010 A 
ATOM     12  C   UNL A   1      36.650  33.827  29.493  1.00  0.00     0.010 A 
ATOM     13  C   UNL A   1      36.500  32.968  30.592  1.00  0.00    -0.014 A 
BRANCH  13  14
ATOM     14  C   UNL A   1      37.645  32.262  31.213  1.00  0.00     0.031 A 
ATOM     15  C   UNL A   1      38.083  32.557  32.615  1.00  0.00     0.074 A 
ATOM     16  C   UNL A   1      38.259  31.307  30.486  1.00  0.00     0.049 A 
ATOM     17  N   UNL A   1      39.061  32.020  33.300  1.00  0.00    -0.248 NA
ATOM     18  C   UNL A   1      37.342  33.596  33.344  1.00  0.00     0.031 C 
ATOM     19  C   UNL A   1      37.909  30.947  29.107  1.00  0.00     0.029 A 
ATOM     20  N   UNL A   1      39.274  30.444  30.801  1.00  0.00    -0.354 N 
ATOM     21  C   UNL A   1      39.072  32.671  34.526  1.00  0.00     0.074 A 
ATOM     22  C   UNL A   1      38.017  33.662  34.484  1.00  0.00     0.031 C 
ATOM     23  C   UNL A   1      38.638  29.892  28.725  1.00  0.00     0.029 A 
ATOM     24  C   UNL A   1      39.582  29.572  29.785  1.00  0.00     0.049 A 
ATOM     25  H   UNL A   1      39.736  30.446  31.670  1.00  0.00     0.167 HD
ATOM     26  C   UNL A   1      39.889  32.452  35.584  1.00  0.00     0.037 A 
ATOM     27  C   UNL A   1      40.545  28.640  29.698  1.00  0.00     0.037 A 
ATOM     28  C   UNL A   1      40.931  31.454  35.602  1.00  0.00     0.049 A 
ATOM     29  C   UNL A   1      41.464  28.455  30.867  1.00  0.00     0.074 A 
ATOM     30  C   UNL A   1      41.799  31.131  36.629  1.00  0.00     0.029 A 
ATOM     31  N   UNL A   1      41.252  30.625  34.534  1.00  0.00    -0.354 N 
ATOM     32  N   UNL A   1      41.451  29.061  32.029  1.00  0.00    -0.248 NA
ATOM     33  C   UNL A   1      42.536  27.469  30.710  1.00  0.00     0.031 C 
ATOM     34  C   UNL A   1      42.685  30.154  36.162  1.00  0.00     0.029 A 
ATOM     35  C   UNL A   1      42.326  29.814  34.868  1.00  0.00     0.049 A 
ATOM     36  H   UNL A   1      40.784  30.615  33.667  1.00  0.00     0.167 HD
ATOM     37  C   UNL A   1      42.500  28.518  32.751  1.00  0.00     0.074 A 
ATOM     38  C   UNL A   1      43.113  27.516  31.901  1.00  0.00     0.031 C 
ATOM     39  C   UNL A   1      42.922  28.824  34.003  1.00  0.00     0.037 A 
BRANCH  26  40
ATOM     40  C   UNL A   1      39.719  33.332  36.791  1.00  0.00     0.064 A 
ATOM     41  C   UNL A   1      40.444  34.523  36.954  1.00  0.00     0.173 A 
ATOM     42  C   UNL A   1      38.796  32.991  37.793  1.00  0.00     0.173 A 
ATOM     43  F   UNL A   1      41.347  34.896  36.034  1.00  0.00    -0.203 F 
ATOM     44  C   UNL A   1      40.278  35.318  38.088  1.00  0.00     0.198 A 
ATOM     45  C   UNL A   1      38.608  33.803  38.908  1.00  0.00     0.198 A 
ATOM     46  F   UNL A   1      38.070  31.867  37.689  1.00  0.00    -0.203 F 
ATOM     47  F   UNL A   1      41.025  36.418  38.247  1.00  0.00    -0.200 F 
ATOM     48  C   UNL A   1      39.356  34.960  39.061  1.00  0.00     0.200 A 
ATOM     49  F   UNL A   1      37.706  33.463  39.839  1.00  0.00    -0.200 F 
ATOM     50  F   UNL A   1      39.197  35.726  40.148  1.00  0.00    -0.200 F 
ENDBRANCH  26  40
BRANCH  27  51
ATOM     51  C   UNL A   1      40.689  27.843  28.453  1.00  0.00     0.064 A 
ATOM     52  C   UNL A   1      41.470  28.303  27.386  1.00  0.00     0.173 A 
ATOM     53  C   UNL A   1      40.072  26.589  28.316  1.00  0.00     0.173 A 
ATOM     54  F   UNL A   1      42.071  29.500  27.464  1.00  0.00    -0.203 F 
ATOM     55  C   UNL A   1      41.619  27.547  26.225  1.00  0.00     0.198 A 
ATOM     56  C   UNL A   1      40.250  25.818  27.170  1.00  0.00     0.198 A 
ATOM     57  F   UNL A   1      39.322  26.096  29.313  1.00  0.00    -0.203 F 
ATOM     58  F   UNL A   1      42.340  28.029  25.203  1.00  0.00    -0.200 F 
ATOM     59  C   UNL A   1      41.016  26.302  26.122  1.00  0.00     0.200 A 
ATOM     60  F   UNL A   1      39.688  24.605  27.087  1.00  0.00    -0.200 F 
ATOM     61  F   UNL A   1      41.171  25.570  25.010  1.00  0.00    -0.200 F 
ENDBRANCH  27  51
BRANCH  39  62
ATOM     62  C   UNL A   1      44.082  28.034  34.536  1.00  0.00     0.064 A 
ATOM     63  C   UNL A   1      43.901  26.808  35.195  1.00  0.00     0.173 A 
ATOM     64  C   UNL A   1      45.393  28.502  34.367  1.00  0.00     0.173 A 
ATOM     65  F   UNL A   1      42.665  26.328  35.400  1.00  0.00    -0.203 F 
ATOM     66  C   UNL A   1      44.989  26.097  35.693  1.00  0.00     0.198 A 
ATOM     67  C   UNL A   1      46.481  27.770  34.833  1.00  0.00     0.198 A 
ATOM     68  F   UNL A   1      45.621  29.667  33.741  1.00  0.00    -0.203 F 
ATOM     69  F   UNL A   1      44.789  24.960  36.373  1.00  0.00    -0.200 F 
ATOM     70  C   UNL A   1      46.278  26.574  35.504  1.00  0.00     0.200 A 
ATOM     71  F   UNL A   1      47.726  28.225  34.635  1.00  0.00    -0.200 F 
ATOM     72  F   UNL A   1      47.324  25.885  35.978  1.00  0.00    -0.200 F 
ENDBRANCH  39  62
ENDBRANCH  13  14
ENDBRANCH   6   8
ENDBRANCH   3   4
ENDBRANCH   2   3
ENDBRANCH   1   2
BRANCH   1  73
ATOM     73  N   UNL A   1      32.610  29.362  27.518  1.00  0.00    -0.352 N 
ATOM     74  C   UNL A   1      32.312  28.175  26.893  1.00  0.00     0.252 C 
ATOM     75  H   UNL A   1      32.208  29.321  28.416  1.00  0.00     0.163 HD
ATOM     76  O   UNL A   1      31.573  27.535  27.653  1.00  0.00    -0.269 OA
BRANCH  74  77
ATOM     77  C   UNL A   1      32.725  27.463  25.535  1.00  0.00     0.060 A 
ATOM     78  C   UNL A   1      33.958  26.000  24.872  1.00  0.00     0.043 A 
ATOM     79  C   UNL A   1      31.732  28.233  24.185  1.00  0.00     0.055 A 
ATOM     80  C   UNL A   1      33.970  25.400  23.293  1.00  0.00     0.060 A 
ATOM     81  C   UNL A   1      31.922  27.605  22.513  1.00  0.00     0.044 A 
ATOM     82  Cl  UNL A   1      30.621  29.549  24.294  1.00  0.00    -0.083 Cl
ATOM     83  C   UNL A   1      32.998  26.232  22.112  1.00  0.00     0.066 A 
ATOM     84  Cl  UNL A   1      32.902  25.579  20.520  1.00  0.00    -0.082 Cl
BRANCH  80  85
ATOM     85  N   UNL A   1      34.383  24.049  23.312  1.00  0.00    -0.331 N 
ATOM     86  H   UNL A   1      34.137  23.536  22.508  1.00  0.00     0.169 HD
BRANCH  85  87
ATOM     87  C   UNL A   1      35.073  23.322  24.266  1.00  0.00     0.177 C 
ATOM     88  S   UNL A   1      36.655  22.903  23.874  1.00  0.00    -0.040 S 
BRANCH  87  89
ATOM     89  N   UNL A   1      34.629  22.853  25.547  1.00  0.00    -0.299 N 
ATOM     90  C   UNL A   1      33.606  22.405  26.529  1.00  0.00     0.258 C 
ATOM     91  H   UNL A   1      35.467  22.798  26.062  1.00  0.00     0.172 HD
ATOM     92  O   UNL A   1      33.903  22.228  27.706  1.00  0.00    -0.269 OA
BRANCH  90  93
ATOM     93  C   UNL A   1      32.165  22.227  26.123  1.00  0.00     0.058 A 
ATOM     94  C   UNL A   1      31.260  23.807  26.182  1.00  0.00     0.015 A 
ATOM     95  C   UNL A   1      32.223  21.202  24.733  1.00  0.00     0.053 A 
ATOM     96  C   UNL A   1      30.554  24.571  24.740  1.00  0.00     0.001 A 
ATOM     97  C   UNL A   1      31.609  21.856  23.221  1.00  0.00     0.021 A 
ATOM     98  Cl  UNL A   1      33.138  19.750  24.702  1.00  0.00    -0.083 Cl
ATOM     99  C   UNL A   1      30.755  23.696  23.178  1.00  0.00     0.002 A 
ENDBRANCH  90  93
ENDBRANCH  87  89
ENDBRANCH  85  87
ENDBRANCH  80  85
ENDBRANCH  74  77
ENDBRANCH   1  73
TORSDOF 14
ENDMDL
MODEL 2
REMARK VINA RESULT:     -12.5      0.496      7.189
REMARK SMILES O=C(NCCCNC(=O)c1cc(NC(=S)NC(=O)c2ccccc2Cl)c(Cl)cc1Cl)c1ccc(-c2c3nc(c(-c4c(F)c(F)c(F)c(F)c4F)c4ccc([nH]4)c(-c4c(F)c(F)c(F)c(F)c4F)c4nc(c(-c5c(F)c(F)c(F)c(F)c5F)c5ccc2[nH]5)C=C4)C=C3)cc1
REMARK SMILES IDX 6 1 5 2 4 3 3 4 1 5 2 6 31 8 32 9 93 10 33 11 92 12 34 13
REMARK SMILES IDX 35 14 36 15 86 16 37 17 91 18 85 19 87 20 38 21 90 22 84 23
REMARK SMILES IDX 83 24 39 26 71 27 51 28 70 29 52 30 55 31 69 32 88 33 53 34
REMARK SMILES IDX 54 35 68 37 89 38 56 39 40 40 41 41 49 42 42 43 43 44 47 45
REMARK SMILES IDX 50 46 44 47 45 48 48 49 46 50 72 51 73 52 81 53 74 54 75 55
REMARK SMILES IDX 79 56 82 57 76 58 77 59 80 60 78 61 57 62 58 63 66 64 59 65
REMARK SMILES IDX 60 66 64 67 67 68 61 69 62 70 65 71 63 72 7 73 8 74 9 76
REMARK SMILES IDX 10 77 11 78 29 79 12 80 28 81 30 82 26 83 27 84 13 85 14 87
REMARK SMILES IDX 15 88 16 89 17 90 18 92 19 93 20 94 24 95 21 96 23 97 25 98
REMARK SMILES IDX 22 99
REMARK H PARENT 3 7 87 25 55 36 7 75 13 86 16 91
REMARK Flexibility Score: inf
ROOT
ATOM      1  C   UNL A   1      33.260  30.897  27.475  1.00  0.00     0.118 C 
ENDROOT
BRANCH   1   2
ATOM      2  C   UNL A   1      32.261  32.047  27.444  1.00  0.00     0.042 C 
BRANCH   2   3
ATOM      3  C   UNL A   1      32.866  33.311  26.878  1.00  0.00     0.118 C 
BRANCH   3   4
ATOM      4  N   UNL A   1      32.530  34.490  27.671  1.00  0.00    -0.352 N 
ATOM      5  O   UNL A   1      32.528  35.866  29.461  1.00  0.00    -0.269 OA
ATOM      6  C   UNL A   1      33.048  34.926  28.867  1.00  0.00     0.251 C 
ATOM      7  H   UNL A   1      31.824  35.062  27.289  1.00  0.00     0.163 HD
BRANCH   6   8
ATOM      8  C   UNL A   1      34.218  34.241  29.456  1.00  0.00     0.039 A 
ATOM      9  C   UNL A   1      34.035  33.247  30.415  1.00  0.00     0.014 A 
ATOM     10  C   UNL A   1      35.510  34.598  29.060  1.00  0.00     0.014 A 
ATOM     11  C   UNL A   1      35.116  32.781  31.136  1.00  0.00     0.010 A 
ATOM     12  C   UNL A   1      36.612  33.992  29.669  1.00  0.00     0.010 A 
ATOM     13  C   UNL A   1      36.421  33.097  30.733  1.00  0.00    -0.014 A 
BRANCH  13  14
ATOM     14  C   UNL A   1      37.543  32.371  31.373  1.00  0.00     0.031 A 
ATOM     15  C   UNL A   1      38.284  31.283  30.657  1.00  0.00     0.074 A 
ATOM     16  C   UNL A   1      37.907  32.751  32.614  1.00  0.00     0.049 A 
ATOM     17  N   UNL A   1      39.291  30.560  31.079  1.00  0.00    -0.248 NA
ATOM     18  C   UNL A   1      37.837  30.950  29.297  1.00  0.00     0.031 C 
ATOM     19  C   UNL A   1      37.245  33.799  33.399  1.00  0.00     0.029 A 
ATOM     20  N   UNL A   1      38.931  32.336  33.422  1.00  0.00    -0.354 N 
ATOM     21  C   UNL A   1      39.579  29.670  30.054  1.00  0.00     0.074 A 
ATOM     22  C   UNL A   1      38.625  29.927  28.995  1.00  0.00     0.031 C 
ATOM     23  C   UNL A   1      37.921  33.999  34.535  1.00  0.00     0.029 A 
ATOM     24  C   UNL A   1      38.996  33.020  34.612  1.00  0.00     0.049 A 
ATOM     25  H   UNL A   1      39.559  31.620  33.175  1.00  0.00     0.167 HD
ATOM     26  C   UNL A   1      40.554  28.731  30.009  1.00  0.00     0.037 A 
ATOM     27  C   UNL A   1      39.808  32.856  35.669  1.00  0.00     0.037 A 
ATOM     28  C   UNL A   1      41.495  28.498  31.077  1.00  0.00     0.049 A 
ATOM     29  C   UNL A   1      40.846  31.776  35.607  1.00  0.00     0.074 A 
ATOM     30  C   UNL A   1      42.539  27.591  31.125  1.00  0.00     0.029 A 
ATOM     31  N   UNL A   1      41.499  29.173  32.291  1.00  0.00    -0.354 N 
ATOM     32  N   UNL A   1      41.123  30.956  34.624  1.00  0.00    -0.248 NA
ATOM     33  C   UNL A   1      41.673  31.592  36.803  1.00  0.00     0.031 C 
ATOM     34  C   UNL A   1      43.131  27.672  32.391  1.00  0.00     0.029 A 
ATOM     35  C   UNL A   1      42.505  28.679  33.108  1.00  0.00     0.049 A 
ATOM     36  H   UNL A   1      40.877  29.896  32.536  1.00  0.00     0.167 HD
ATOM     37  C   UNL A   1      42.170  30.167  35.073  1.00  0.00     0.074 A 
ATOM     38  C   UNL A   1      42.491  30.627  36.410  1.00  0.00     0.031 C 
ATOM     39  C   UNL A   1      42.805  29.151  34.438  1.00  0.00     0.037 A 
BRANCH  26  40
ATOM     40  C   UNL A   1      40.627  27.859  28.786  1.00  0.00     0.064 A 
ATOM     41  C   UNL A   1      39.899  26.663  28.678  1.00  0.00     0.173 A 
ATOM     42  C   UNL A   1      41.421  28.237  27.692  1.00  0.00     0.173 A 
ATOM     43  F   UNL A   1      39.130  26.247  29.696  1.00  0.00    -0.203 F 
ATOM     44  C   UNL A   1      39.991  25.865  27.540  1.00  0.00     0.198 A 
ATOM     45  C   UNL A   1      41.486  27.454  26.542  1.00  0.00     0.198 A 
ATOM     46  F   UNL A   1      42.136  29.372  27.735  1.00  0.00    -0.203 F 
ATOM     47  F   UNL A   1      39.332  24.700  27.486  1.00  0.00    -0.200 F 
ATOM     48  C   UNL A   1      40.779  26.263  26.470  1.00  0.00     0.200 A 
ATOM     49  F   UNL A   1      42.236  27.849  25.505  1.00  0.00    -0.200 F 
ATOM     50  F   UNL A   1      40.864  25.495  25.376  1.00  0.00    -0.200 F 
ENDBRANCH  26  40
BRANCH  27  51
ATOM     51  C   UNL A   1      39.644  33.720  36.866  1.00  0.00     0.064 A 
ATOM     52  C   UNL A   1      40.289  34.959  36.957  1.00  0.00     0.173 A 
ATOM     53  C   UNL A   1      38.813  33.338  37.931  1.00  0.00     0.173 A 
ATOM     54  F   UNL A   1      41.102  35.364  35.970  1.00  0.00    -0.203 F 
ATOM     55  C   UNL A   1      40.121  35.778  38.072  1.00  0.00     0.198 A 
ATOM     56  C   UNL A   1      38.617  34.172  39.029  1.00  0.00     0.198 A 
ATOM     57  F   UNL A   1      38.162  32.165  37.890  1.00  0.00    -0.203 F 
ATOM     58  F   UNL A   1      40.781  36.941  38.151  1.00  0.00    -0.200 F 
ATOM     59  C   UNL A   1      39.278  35.387  39.102  1.00  0.00     0.200 A 
ATOM     60  F   UNL A   1      37.781  33.802  40.008  1.00  0.00    -0.200 F 
ATOM     61  F   UNL A   1      39.107  36.181  40.168  1.00  0.00    -0.200 F 
ENDBRANCH  27  51
BRANCH  39  62
ATOM     62  C   UNL A   1      43.937  28.497  35.176  1.00  0.00     0.064 A 
ATOM     63  C   UNL A   1      43.736  27.370  35.988  1.00  0.00     0.173 A 
ATOM     64  C   UNL A   1      45.243  28.993  35.051  1.00  0.00     0.173 A 
ATOM     65  F   UNL A   1      42.503  26.869  36.157  1.00  0.00    -0.203 F 
ATOM     66  C   UNL A   1      44.797  26.786  36.675  1.00  0.00     0.198 A 
ATOM     67  C   UNL A   1      46.306  28.384  35.709  1.00  0.00     0.198 A 
ATOM     68  F   UNL A   1      45.488  30.066  34.284  1.00  0.00    -0.203 F 
ATOM     69  F   UNL A   1      44.573  25.750  37.493  1.00  0.00    -0.200 F 
ATOM     70  C   UNL A   1      46.082  27.288  36.527  1.00  0.00     0.200 A 
ATOM     71  F   UNL A   1      47.550  28.861  35.553  1.00  0.00    -0.200 F 
ATOM     72  F   UNL A   1      47.103  26.720  37.184  1.00  0.00    -0.200 F 
ENDBRANCH  39  62
ENDBRANCH  13  14
ENDBRANCH   6   8
ENDBRANCH   3   4
ENDBRANCH   2   3
ENDBRANCH   1   2
BRANCH   1  73
ATOM     73  N   UNL A   1      32.593  29.600  27.626  1.00  0.00    -0.352 N 
ATOM     74  C   UNL A   1      32.295  28.393  27.040  1.00  0.00     0.252 C 
ATOM     75  H   UNL A   1      32.188  29.590  28.523  1.00  0.00     0.163 HD
ATOM     76  O   UNL A   1      31.554  27.780  27.819  1.00  0.00    -0.269 OA
BRANCH  74  77
ATOM     77  C   UNL A   1      32.713  27.635  25.709  1.00  0.00     0.060 A 
ATOM     78  C   UNL A   1      33.950  26.153  25.099  1.00  0.00     0.043 A 
ATOM     79  C   UNL A   1      31.720  28.355  24.331  1.00  0.00     0.055 A 
ATOM     80  C   UNL A   1      33.967  25.497  23.542  1.00  0.00     0.060 A 
ATOM     81  C   UNL A   1      31.915  27.670  22.682  1.00  0.00     0.044 A 
ATOM     82  Cl  UNL A   1      30.606  29.671  24.393  1.00  0.00    -0.083 Cl
ATOM     83  C   UNL A   1      32.994  26.286  22.331  1.00  0.00     0.066 A 
ATOM     84  Cl  UNL A   1      32.903  25.578  20.763  1.00  0.00    -0.082 Cl
BRANCH  80  85
ATOM     85  N   UNL A   1      34.382  24.149  23.608  1.00  0.00    -0.331 N 
ATOM     86  H   UNL A   1      34.126  23.604  22.829  1.00  0.00     0.169 HD
BRANCH  85  87
ATOM     87  C   UNL A   1      35.088  23.462  24.580  1.00  0.00     0.177 C 
ATOM     88  S   UNL A   1      36.712  23.173  24.250  1.00  0.00    -0.040 S 
BRANCH  87  89
ATOM     89  N   UNL A   1      34.630  22.938  25.836  1.00  0.00    -0.299 N 
ATOM     90  C   UNL A   1      33.597  22.445  26.785  1.00  0.00     0.258 C 
ATOM     91  H   UNL A   1      35.462  22.866  26.358  1.00  0.00     0.172 HD
ATOM     92  O   UNL A   1      33.880  22.221  27.957  1.00  0.00    -0.269 OA
BRANCH  90  93
ATOM     93  C   UNL A   1      32.162  22.278  26.354  1.00  0.00     0.058 A 
ATOM     94  C   UNL A   1      31.278  23.870  26.362  1.00  0.00     0.015 A 
ATOM     95  C   UNL A   1      32.234  21.224  24.986  1.00  0.00     0.053 A 
ATOM     96  C   UNL A   1      30.610  24.613  24.890  1.00  0.00     0.001 A 
ATOM     97  C   UNL A   1      31.660  21.855  23.449  1.00  0.00     0.021 A 
ATOM     98  Cl  UNL A   1      33.130  19.759  25.003  1.00  0.00    -0.083 Cl
ATOM     99  C   UNL A   1      30.831  23.704  23.351  1.00  0.00     0.002 A 
ENDBRANCH  90  93
ENDBRANCH  87  89
ENDBRANCH  85  87
ENDBRANCH  80  85
ENDBRANCH  74  77
ENDBRANCH   1  73
TORSDOF 14
ENDMDL
MODEL 3
REMARK VINA RESULT:     -12.4      5.075     10.432
REMARK SMILES O=C(NCCCNC(=O)c1cc(NC(=S)NC(=O)c2ccccc2Cl)c(Cl)cc1Cl)c1ccc(-c2c3nc(c(-c4c(F)c(F)c(F)c(F)c4F)c4ccc([nH]4)c(-c4c(F)c(F)c(F)c(F)c4F)c4nc(c(-c5c(F)c(F)c(F)c(F)c5F)c5ccc2[nH]5)C=C4)C=C3)cc1
REMARK SMILES IDX 6 1 5 2 4 3 3 4 1 5 2 6 31 8 32 9 93 10 33 11 92 12 34 13
REMARK SMILES IDX 35 14 36 15 86 16 37 17 91 18 85 19 87 20 38 21 90 22 84 23
REMARK SMILES IDX 83 24 39 26 71 27 51 28 70 29 52 30 55 31 69 32 88 33 53 34
REMARK SMILES IDX 54 35 68 37 89 38 56 39 40 40 41 41 49 42 42 43 43 44 47 45
REMARK SMILES IDX 50 46 44 47 45 48 48 49 46 50 72 51 73 52 81 53 74 54 75 55
REMARK SMILES IDX 79 56 82 57 76 58 77 59 80 60 78 61 57 62 58 63 66 64 59 65
REMARK SMILES IDX 60 66 64 67 67 68 61 69 62 70 65 71 63 72 7 73 8 74 9 76
REMARK SMILES IDX 10 77 11 78 29 79 12 80 28 81 30 82 26 83 27 84 13 85 14 87
REMARK SMILES IDX 15 88 16 89 17 90 18 92 19 93 20 94 24 95 21 96 23 97 25 98
REMARK SMILES IDX 22 99
REMARK H PARENT 3 7 87 25 55 36 7 75 13 86 16 91
REMARK Flexibility Score: inf
ROOT
ATOM      1  C   UNL A   1      37.911  20.466  25.018  1.00  0.00     0.118 C 
ENDROOT
BRANCH   1   2
ATOM      2  C   UNL A   1      39.300  20.793  25.552  1.00  0.00     0.042 C 
BRANCH   2   3
ATOM      3  C   UNL A   1      39.828  19.710  26.464  1.00  0.00     0.118 C 
BRANCH   3   4
ATOM      4  N   UNL A   1      41.034  19.079  25.936  1.00  0.00    -0.352 N 
ATOM      5  O   UNL A   1      43.147  18.956  25.148  1.00  0.00    -0.269 OA
ATOM      6  C   UNL A   1      42.294  19.600  25.752  1.00  0.00     0.251 C 
ATOM      7  H   UNL A   1      40.930  18.136  25.672  1.00  0.00     0.163 HD
BRANCH   6   8
ATOM      8  C   UNL A   1      42.612  20.952  26.257  1.00  0.00     0.039 A 
ATOM      9  C   UNL A   1      42.884  21.985  25.363  1.00  0.00     0.014 A 
ATOM     10  C   UNL A   1      42.655  21.192  27.633  1.00  0.00     0.014 A 
ATOM     11  C   UNL A   1      43.414  23.173  25.826  1.00  0.00     0.010 A 
ATOM     12  C   UNL A   1      43.021  22.456  28.103  1.00  0.00     0.010 A 
ATOM     13  C   UNL A   1      43.431  23.449  27.200  1.00  0.00    -0.014 A 
BRANCH  13  14
ATOM     14  C   UNL A   1      43.764  24.827  27.629  1.00  0.00     0.031 A 
ATOM     15  C   UNL A   1      45.180  25.315  27.674  1.00  0.00     0.074 A 
ATOM     16  C   UNL A   1      42.742  25.650  27.939  1.00  0.00     0.049 A 
ATOM     17  N   UNL A   1      45.631  26.495  28.020  1.00  0.00    -0.248 NA
ATOM     18  C   UNL A   1      46.230  24.360  27.296  1.00  0.00     0.031 C 
ATOM     19  C   UNL A   1      41.325  25.268  27.930  1.00  0.00     0.029 A 
ATOM     20  N   UNL A   1      42.720  26.974  28.287  1.00  0.00    -0.354 N 
ATOM     21  C   UNL A   1      47.014  26.416  27.929  1.00  0.00     0.074 A 
ATOM     22  C   UNL A   1      47.332  25.064  27.518  1.00  0.00     0.031 C 
ATOM     23  C   UNL A   1      40.572  26.345  28.179  1.00  0.00     0.029 A 
ATOM     24  C   UNL A   1      41.452  27.467  28.475  1.00  0.00     0.049 A 
ATOM     25  H   UNL A   1      43.533  27.518  28.391  1.00  0.00     0.167 HD
ATOM     26  C   UNL A   1      47.926  27.390  28.166  1.00  0.00     0.037 A 
ATOM     27  C   UNL A   1      41.038  28.679  28.879  1.00  0.00     0.037 A 
ATOM     28  C   UNL A   1      47.583  28.731  28.572  1.00  0.00     0.049 A 
ATOM     29  C   UNL A   1      42.074  29.719  29.180  1.00  0.00     0.074 A 
ATOM     30  C   UNL A   1      48.425  29.802  28.814  1.00  0.00     0.029 A 
ATOM     31  N   UNL A   1      46.289  29.181  28.806  1.00  0.00    -0.354 N 
ATOM     32  N   UNL A   1      43.377  29.641  29.069  1.00  0.00    -0.248 NA
ATOM     33  C   UNL A   1      41.584  31.010  29.672  1.00  0.00     0.031 C 
ATOM     34  C   UNL A   1      47.647  30.878  29.256  1.00  0.00     0.029 A 
ATOM     35  C   UNL A   1      46.314  30.504  29.221  1.00  0.00     0.049 A 
ATOM     36  H   UNL A   1      45.474  28.639  28.693  1.00  0.00     0.167 HD
ATOM     37  C   UNL A   1      43.866  30.877  29.460  1.00  0.00     0.074 A 
ATOM     38  C   UNL A   1      42.713  31.693  29.788  1.00  0.00     0.031 C 
ATOM     39  C   UNL A   1      45.153  31.297  29.545  1.00  0.00     0.037 A 
BRANCH  26  40
ATOM     40  C   UNL A   1      49.380  27.030  28.035  1.00  0.00     0.064 A 
ATOM     41  C   UNL A   1      50.147  26.611  29.134  1.00  0.00     0.173 A 
ATOM     42  C   UNL A   1      50.014  27.083  26.783  1.00  0.00     0.173 A 
ATOM     43  F   UNL A   1      49.598  26.550  30.357  1.00  0.00    -0.203 F 
ATOM     44  C   UNL A   1      51.497  26.294  28.991  1.00  0.00     0.198 A 
ATOM     45  C   UNL A   1      51.354  26.735  26.637  1.00  0.00     0.198 A 
ATOM     46  F   UNL A   1      49.330  27.471  25.695  1.00  0.00    -0.203 F 
ATOM     47  F   UNL A   1      52.220  25.954  30.066  1.00  0.00    -0.200 F 
ATOM     48  C   UNL A   1      52.098  26.350  27.742  1.00  0.00     0.200 A 
ATOM     49  F   UNL A   1      51.927  26.775  25.427  1.00  0.00    -0.200 F 
ATOM     50  F   UNL A   1      53.394  26.043  27.606  1.00  0.00    -0.200 F 
ENDBRANCH  26  40
BRANCH  27  51
ATOM     51  C   UNL A   1      39.586  28.947  29.038  1.00  0.00     0.064 A 
ATOM     52  C   UNL A   1      38.963  28.836  30.287  1.00  0.00     0.173 A 
ATOM     53  C   UNL A   1      38.797  29.351  27.949  1.00  0.00     0.173 A 
ATOM     54  F   UNL A   1      39.672  28.443  31.355  1.00  0.00    -0.203 F 
ATOM     55  C   UNL A   1      37.604  29.105  30.439  1.00  0.00     0.198 A 
ATOM     56  C   UNL A   1      37.448  29.654  28.109  1.00  0.00     0.198 A 
ATOM     57  F   UNL A   1      39.347  29.485  26.732  1.00  0.00    -0.203 F 
ATOM     58  F   UNL A   1      37.024  28.953  31.637  1.00  0.00    -0.200 F 
ATOM     59  C   UNL A   1      36.850  29.523  29.351  1.00  0.00     0.200 A 
ATOM     60  F   UNL A   1      36.731  30.082  27.061  1.00  0.00    -0.200 F 
ATOM     61  F   UNL A   1      35.547  29.793  29.502  1.00  0.00    -0.200 F 
ENDBRANCH  27  51
BRANCH  39  62
ATOM     62  C   UNL A   1      45.371  32.718  29.976  1.00  0.00     0.064 A 
ATOM     63  C   UNL A   1      45.581  33.058  31.322  1.00  0.00     0.173 A 
ATOM     64  C   UNL A   1      45.391  33.750  29.027  1.00  0.00     0.173 A 
ATOM     65  F   UNL A   1      45.550  32.111  32.271  1.00  0.00    -0.203 F 
ATOM     66  C   UNL A   1      45.768  34.384  31.702  1.00  0.00     0.198 A 
ATOM     67  C   UNL A   1      45.616  35.069  29.406  1.00  0.00     0.198 A 
ATOM     68  F   UNL A   1      45.199  33.477  27.727  1.00  0.00    -0.203 F 
ATOM     69  F   UNL A   1      45.904  34.693  32.999  1.00  0.00    -0.200 F 
ATOM     70  C   UNL A   1      45.795  35.387  30.744  1.00  0.00     0.200 A 
ATOM     71  F   UNL A   1      45.658  36.034  28.477  1.00  0.00    -0.200 F 
ATOM     72  F   UNL A   1      45.983  36.661  31.112  1.00  0.00    -0.200 F 
ENDBRANCH  39  62
ENDBRANCH  13  14
ENDBRANCH   6   8
ENDBRANCH   3   4
ENDBRANCH   2   3
ENDBRANCH   1   2
BRANCH   1  73
ATOM     73  N   UNL A   1      37.405  21.522  24.135  1.00  0.00    -0.352 N 
ATOM     74  C   UNL A   1      36.408  22.439  23.906  1.00  0.00     0.252 C 
ATOM     75  H   UNL A   1      38.049  21.610  23.396  1.00  0.00     0.163 HD
ATOM     76  O   UNL A   1      36.641  22.971  22.813  1.00  0.00    -0.269 OA
BRANCH  74  77
ATOM     77  C   UNL A   1      35.145  22.979  24.705  1.00  0.00     0.060 A 
ATOM     78  C   UNL A   1      34.411  24.717  25.439  1.00  0.00     0.043 A 
ATOM     79  C   UNL A   1      34.033  21.540  25.013  1.00  0.00     0.055 A 
ATOM     80  C   UNL A   1      32.869  24.900  26.107  1.00  0.00     0.060 A 
ATOM     81  C   UNL A   1      32.471  21.826  25.854  1.00  0.00     0.044 A 
ATOM     82  Cl  UNL A   1      34.300  19.881  24.622  1.00  0.00    -0.083 Cl
ATOM     83  C   UNL A   1      31.930  23.455  26.359  1.00  0.00     0.066 A 
ATOM     84  Cl  UNL A   1      30.313  23.618  26.934  1.00  0.00    -0.082 Cl
BRANCH  80  85
ATOM     85  N   UNL A   1      32.425  26.224  25.896  1.00  0.00    -0.331 N 
ATOM     86  H   UNL A   1      31.452  26.347  25.988  1.00  0.00     0.169 HD
BRANCH  85  87
ATOM     87  C   UNL A   1      33.121  27.377  25.580  1.00  0.00     0.177 C 
ATOM     88  S   UNL A   1      33.526  28.373  26.874  1.00  0.00    -0.040 S 
BRANCH  87  89
ATOM     89  N   UNL A   1      33.539  27.864  24.297  1.00  0.00    -0.299 N 
ATOM     90  C   UNL A   1      33.506  27.923  22.811  1.00  0.00     0.258 C 
ATOM     91  H   UNL A   1      34.230  28.526  24.528  1.00  0.00     0.172 HD
ATOM     92  O   UNL A   1      34.346  28.568  22.192  1.00  0.00    -0.269 OA
BRANCH  90  93
ATOM     93  C   UNL A   1      32.491  27.136  22.023  1.00  0.00     0.058 A 
ATOM     94  C   UNL A   1      32.887  25.357  22.022  1.00  0.00     0.015 A 
ATOM     95  C   UNL A   1      30.962  27.781  22.508  1.00  0.00     0.053 A 
ATOM     96  C   UNL A   1      31.828  24.130  22.752  1.00  0.00     0.001 A 
ATOM     97  C   UNL A   1      29.838  26.686  23.301  1.00  0.00     0.021 A 
ATOM     98  Cl  UNL A   1      30.652  29.469  22.552  1.00  0.00    -0.083 Cl
ATOM     99  C   UNL A   1      30.299  24.720  23.501  1.00  0.00     0.002 A 
ENDBRANCH  90  93
ENDBRANCH  87  89
ENDBRANCH  85  87
ENDBRANCH  80  85
ENDBRANCH  74  77
ENDBRANCH   1  73
TORSDOF 14
ENDMDL
