MODEL 1
REMARK VINA RESULT:     -12.8      0.000      0.000
REMARK SMILES O=C(NCCCNC(=O)[C@@H]1CC[C@H](CNC(=O)C2CCOCC2)O1)c1ccc(-c2c3nc(c(-c4c(F)c(F)c(F)c(F)c4F)c4ccc([nH]4)c(-c4c(F)c(F)c(F)c(F)c4F)c4nc(c(-c5c(F)c(F)c(F)c(F)c5F)c5ccc2[nH]5)C=C4)C=C3)cc1
REMARK SMILES IDX 5 1 4 2 3 3 1 4 2 5 25 7 26 8 87 9 27 10 86 11 28 12 29 13
REMARK SMILES IDX 30 14 80 15 31 16 85 17 79 18 81 19 32 20 84 21 78 22 77 23
REMARK SMILES IDX 33 25 65 26 45 27 64 28 46 29 49 30 63 31 82 32 47 33 48 34
REMARK SMILES IDX 62 36 83 37 50 38 34 39 35 40 43 41 36 42 37 43 41 44 44 45
REMARK SMILES IDX 38 46 39 47 42 48 40 49 66 50 67 51 75 52 68 53 69 54 73 55
REMARK SMILES IDX 76 56 70 57 71 58 74 59 72 60 51 61 52 62 60 63 53 64 54 65
REMARK SMILES IDX 58 66 61 67 55 68 56 69 59 70 57 71 6 72 7 73 8 74 9 76
REMARK SMILES IDX 10 77 11 78 24 79 12 80 13 81 14 82 15 83 16 84 17 86 18 87
REMARK SMILES IDX 19 88 23 89 20 90 22 91 21 92
REMARK H PARENT 3 6 81 24 49 35 7 75 15 85
REMARK Flexibility Score: inf
ROOT
ATOM      1  C   UNL A   1      31.511  32.015  26.847  1.00  0.00     0.042 C 
ENDROOT
BRANCH   1   2
ATOM      2  C   UNL A   1      32.779  32.802  27.132  1.00  0.00     0.118 C 
BRANCH   2   3
ATOM      3  N   UNL A   1      32.505  34.158  27.589  1.00  0.00    -0.352 N 
ATOM      4  O   UNL A   1      32.557  35.921  28.991  1.00  0.00    -0.269 OA
ATOM      5  C   UNL A   1      33.049  34.856  28.640  1.00  0.00     0.251 C 
ATOM      6  H   UNL A   1      31.831  34.648  27.067  1.00  0.00     0.163 HD
BRANCH   5   7
ATOM      7  C   UNL A   1      34.226  34.314  29.352  1.00  0.00     0.039 A 
ATOM      8  C   UNL A   1      34.062  33.510  30.482  1.00  0.00     0.014 A 
ATOM      9  C   UNL A   1      35.508  34.578  28.859  1.00  0.00     0.014 A 
ATOM     10  C   UNL A   1      35.171  33.082  31.197  1.00  0.00     0.010 A 
ATOM     11  C   UNL A   1      36.624  34.058  29.519  1.00  0.00     0.010 A 
ATOM     12  C   UNL A   1      36.462  33.313  30.698  1.00  0.00    -0.014 A 
BRANCH  12  13
ATOM     13  C   UNL A   1      37.612  32.638  31.346  1.00  0.00     0.031 A 
ATOM     14  C   UNL A   1      38.309  31.479  30.697  1.00  0.00     0.074 A 
ATOM     15  C   UNL A   1      38.010  33.092  32.552  1.00  0.00     0.049 A 
ATOM     16  N   UNL A   1      39.303  30.760  31.156  1.00  0.00    -0.248 NA
ATOM     17  C   UNL A   1      37.832  31.065  29.369  1.00  0.00     0.031 C 
ATOM     18  C   UNL A   1      37.387  34.203  33.278  1.00  0.00     0.029 A 
ATOM     19  N   UNL A   1      39.022  32.684  33.381  1.00  0.00    -0.354 N 
ATOM     20  C   UNL A   1      39.555  29.798  30.188  1.00  0.00     0.074 A 
ATOM     21  C   UNL A   1      38.605  30.014  29.119  1.00  0.00     0.031 C 
ATOM     22  C   UNL A   1      38.043  34.402  34.429  1.00  0.00     0.029 A 
ATOM     23  C   UNL A   1      39.079  33.386  34.560  1.00  0.00     0.049 A 
ATOM     24  H   UNL A   1      39.648  31.959  33.154  1.00  0.00     0.167 HD
ATOM     25  C   UNL A   1      40.498  28.825  30.204  1.00  0.00     0.037 A 
ATOM     26  C   UNL A   1      39.845  33.205  35.650  1.00  0.00     0.037 A 
ATOM     27  C   UNL A   1      41.452  28.639  31.269  1.00  0.00     0.049 A 
ATOM     28  C   UNL A   1      40.850  32.089  35.646  1.00  0.00     0.074 A 
ATOM     29  C   UNL A   1      42.500  27.737  31.335  1.00  0.00     0.029 A 
ATOM     30  N   UNL A   1      41.462  29.353  32.458  1.00  0.00    -0.354 N 
ATOM     31  N   UNL A   1      41.134  31.237  34.691  1.00  0.00    -0.248 NA
ATOM     32  C   UNL A   1      41.635  31.901  36.873  1.00  0.00     0.031 C 
ATOM     33  C   UNL A   1      43.099  27.855  32.593  1.00  0.00     0.029 A 
ATOM     34  C   UNL A   1      42.465  28.873  33.287  1.00  0.00     0.049 A 
ATOM     35  H   UNL A   1      40.849  30.090  32.680  1.00  0.00     0.167 HD
ATOM     36  C   UNL A   1      42.134  30.421  35.196  1.00  0.00     0.074 A 
ATOM     37  C   UNL A   1      42.433  30.900  36.530  1.00  0.00     0.031 C 
ATOM     38  C   UNL A   1      42.744  29.361  34.613  1.00  0.00     0.037 A 
BRANCH  25  39
ATOM     39  C   UNL A   1      40.550  27.860  29.056  1.00  0.00     0.064 A 
ATOM     40  C   UNL A   1      39.732  26.722  29.007  1.00  0.00     0.173 A 
ATOM     41  C   UNL A   1      41.350  28.142  27.937  1.00  0.00     0.173 A 
ATOM     42  F   UNL A   1      38.952  26.404  30.051  1.00  0.00    -0.203 F 
ATOM     43  C   UNL A   1      39.715  25.902  27.880  1.00  0.00     0.198 A 
ATOM     44  C   UNL A   1      41.312  27.334  26.805  1.00  0.00     0.198 A 
ATOM     45  F   UNL A   1      42.144  29.223  27.931  1.00  0.00    -0.203 F 
ATOM     46  F   UNL A   1      38.938  24.810  27.860  1.00  0.00    -0.200 F 
ATOM     47  C   UNL A   1      40.496  26.215  26.776  1.00  0.00     0.200 A 
ATOM     48  F   UNL A   1      42.053  27.649  25.733  1.00  0.00    -0.200 F 
ATOM     49  F   UNL A   1      40.458  25.439  25.685  1.00  0.00    -0.200 F 
ENDBRANCH  25  39
BRANCH  26  50
ATOM     50  C   UNL A   1      39.651  34.059  36.850  1.00  0.00     0.064 A 
ATOM     51  C   UNL A   1      40.283  35.304  36.967  1.00  0.00     0.173 A 
ATOM     52  C   UNL A   1      38.845  33.635  37.919  1.00  0.00     0.173 A 
ATOM     53  F   UNL A   1      41.077  35.746  35.981  1.00  0.00    -0.203 F 
ATOM     54  C   UNL A   1      40.145  36.075  38.120  1.00  0.00     0.198 A 
ATOM     55  C   UNL A   1      38.676  34.425  39.054  1.00  0.00     0.198 A 
ATOM     56  F   UNL A   1      38.210  32.455  37.857  1.00  0.00    -0.203 F 
ATOM     57  F   UNL A   1      40.814  37.231  38.232  1.00  0.00    -0.200 F 
ATOM     58  C   UNL A   1      39.338  35.637  39.159  1.00  0.00     0.200 A 
ATOM     59  F   UNL A   1      37.879  34.006  40.045  1.00  0.00    -0.200 F 
ATOM     60  F   UNL A   1      39.209  36.378  40.268  1.00  0.00    -0.200 F 
ENDBRANCH  26  50
BRANCH  38  61
ATOM     61  C   UNL A   1      43.798  28.654  35.412  1.00  0.00     0.064 A 
ATOM     62  C   UNL A   1      43.471  27.610  36.292  1.00  0.00     0.173 A 
ATOM     63  C   UNL A   1      45.151  28.994  35.268  1.00  0.00     0.173 A 
ATOM     64  F   UNL A   1      42.188  27.263  36.480  1.00  0.00    -0.203 F 
ATOM     65  C   UNL A   1      44.459  26.947  37.012  1.00  0.00     0.198 A 
ATOM     66  C   UNL A   1      46.140  28.304  35.964  1.00  0.00     0.198 A 
ATOM     67  F   UNL A   1      45.516  29.982  34.437  1.00  0.00    -0.203 F 
ATOM     68  F   UNL A   1      44.119  25.986  37.881  1.00  0.00    -0.200 F 
ATOM     69  C   UNL A   1      45.792  27.287  36.841  1.00  0.00     0.200 A 
ATOM     70  F   UNL A   1      47.428  28.625  35.787  1.00  0.00    -0.200 F 
ATOM     71  F   UNL A   1      46.744  26.639  37.525  1.00  0.00    -0.200 F 
ENDBRANCH  38  61
ENDBRANCH  12  13
ENDBRANCH   5   7
ENDBRANCH   2   3
ENDBRANCH   1   2
BRANCH   1  72
ATOM     72  C   UNL A   1      31.761  30.542  26.575  1.00  0.00     0.117 C 
BRANCH  72  73
ATOM     73  N   UNL A   1      32.640  30.336  25.437  1.00  0.00    -0.354 N 
ATOM     74  C   UNL A   1      32.897  29.206  24.717  1.00  0.00     0.249 C 
ATOM     75  H   UNL A   1      33.128  31.138  25.139  1.00  0.00     0.163 HD
ATOM     76  O   UNL A   1      33.711  29.296  23.793  1.00  0.00    -0.272 OA
BRANCH  74  77
ATOM     77  C   UNL A   1      32.244  27.867  25.102  1.00  0.00     0.207 C 
ATOM     78  C   UNL A   1      32.633  26.758  24.131  1.00  0.00     0.045 C 
ATOM     79  O   UNL A   1      30.813  27.890  25.124  1.00  0.00    -0.363 OA
ATOM     80  C   UNL A   1      31.437  25.839  24.173  1.00  0.00     0.037 C 
ATOM     81  C   UNL A   1      30.283  26.809  24.351  1.00  0.00     0.138 C 
BRANCH  81  82
ATOM     82  C   UNL A   1      29.736  27.377  23.028  1.00  0.00     0.147 C 
BRANCH  82  83
ATOM     83  N   UNL A   1      28.347  27.782  23.142  1.00  0.00    -0.353 N 
ATOM     84  C   UNL A   1      27.699  28.967  23.097  1.00  0.00     0.223 C 
ATOM     85  H   UNL A   1      27.738  27.021  23.286  1.00  0.00     0.163 HD
ATOM     86  O   UNL A   1      26.487  28.900  23.347  1.00  0.00    -0.275 OA
BRANCH  84  87
ATOM     87  C   UNL A   1      28.302  30.325  22.714  1.00  0.00     0.083 C 
ATOM     88  C   UNL A   1      28.099  31.539  23.615  1.00  0.00     0.042 C 
ATOM     89  C   UNL A   1      27.838  30.655  21.280  1.00  0.00     0.042 C 
ATOM     90  C   UNL A   1      28.633  32.818  22.977  1.00  0.00     0.161 C 
ATOM     91  C   UNL A   1      28.388  31.984  20.790  1.00  0.00     0.161 C 
ATOM     92  O   UNL A   1      28.046  33.027  21.698  1.00  0.00    -0.381 OA
ENDBRANCH  84  87
ENDBRANCH  82  83
ENDBRANCH  81  82
ENDBRANCH  74  77
ENDBRANCH  72  73
ENDBRANCH   1  72
TORSDOF 13
ENDMDL
MODEL 2
REMARK VINA RESULT:     -12.6      0.747      1.773
REMARK SMILES O=C(NCCCNC(=O)[C@@H]1CC[C@H](CNC(=O)C2CCOCC2)O1)c1ccc(-c2c3nc(c(-c4c(F)c(F)c(F)c(F)c4F)c4ccc([nH]4)c(-c4c(F)c(F)c(F)c(F)c4F)c4nc(c(-c5c(F)c(F)c(F)c(F)c5F)c5ccc2[nH]5)C=C4)C=C3)cc1
REMARK SMILES IDX 5 1 4 2 3 3 1 4 2 5 25 7 26 8 87 9 27 10 86 11 28 12 29 13
REMARK SMILES IDX 30 14 80 15 31 16 85 17 79 18 81 19 32 20 84 21 78 22 77 23
REMARK SMILES IDX 33 25 65 26 45 27 64 28 46 29 49 30 63 31 82 32 47 33 48 34
REMARK SMILES IDX 62 36 83 37 50 38 34 39 35 40 43 41 36 42 37 43 41 44 44 45
REMARK SMILES IDX 38 46 39 47 42 48 40 49 66 50 67 51 75 52 68 53 69 54 73 55
REMARK SMILES IDX 76 56 70 57 71 58 74 59 72 60 51 61 52 62 60 63 53 64 54 65
REMARK SMILES IDX 58 66 61 67 55 68 56 69 59 70 57 71 6 72 7 73 8 74 9 76
REMARK SMILES IDX 10 77 11 78 24 79 12 80 13 81 14 82 15 83 16 84 17 86 18 87
REMARK SMILES IDX 19 88 23 89 20 90 22 91 21 92
REMARK H PARENT 3 6 81 24 49 35 7 75 15 85
REMARK Flexibility Score: inf
ROOT
ATOM      1  C   UNL A   1      31.567  31.948  26.886  1.00  0.00     0.042 C 
ENDROOT
BRANCH   1   2
ATOM      2  C   UNL A   1      32.817  32.801  27.017  1.00  0.00     0.118 C 
BRANCH   2   3
ATOM      3  N   UNL A   1      32.544  34.110  27.594  1.00  0.00    -0.352 N 
ATOM      4  O   UNL A   1      32.609  35.745  29.143  1.00  0.00    -0.269 OA
ATOM      5  C   UNL A   1      33.100  34.717  28.694  1.00  0.00     0.251 C 
ATOM      6  H   UNL A   1      31.860  34.639  27.127  1.00  0.00     0.163 HD
BRANCH   5   7
ATOM      7  C   UNL A   1      34.290  34.123  29.339  1.00  0.00     0.039 A 
ATOM      8  C   UNL A   1      34.146  33.158  30.339  1.00  0.00     0.014 A 
ATOM      9  C   UNL A   1      35.565  34.503  28.910  1.00  0.00     0.014 A 
ATOM     10  C   UNL A   1      35.265  32.674  31.002  1.00  0.00     0.010 A 
ATOM     11  C   UNL A   1      36.695  33.936  29.506  1.00  0.00     0.010 A 
ATOM     12  C   UNL A   1      36.551  33.023  30.562  1.00  0.00    -0.014 A 
BRANCH  12  13
ATOM     13  C   UNL A   1      37.720  32.305  31.124  1.00  0.00     0.031 A 
ATOM     14  C   UNL A   1      38.440  31.246  30.344  1.00  0.00     0.074 A 
ATOM     15  C   UNL A   1      38.113  32.626  32.373  1.00  0.00     0.049 A 
ATOM     16  N   UNL A   1      39.453  30.503  30.713  1.00  0.00    -0.248 NA
ATOM     17  C   UNL A   1      37.965  30.977  28.978  1.00  0.00     0.031 C 
ATOM     18  C   UNL A   1      37.468  33.631  33.225  1.00  0.00     0.029 A 
ATOM     19  N   UNL A   1      39.139  32.149  33.147  1.00  0.00    -0.354 N 
ATOM     20  C   UNL A   1      39.722  29.665  29.640  1.00  0.00     0.074 A 
ATOM     21  C   UNL A   1      38.761  29.981  28.605  1.00  0.00     0.031 C 
ATOM     22  C   UNL A   1      38.125  33.710  34.389  1.00  0.00     0.029 A 
ATOM     23  C   UNL A   1      39.186  32.711  34.399  1.00  0.00     0.049 A 
ATOM     24  H   UNL A   1      39.780  31.470  32.836  1.00  0.00     0.167 HD
ATOM     25  C   UNL A   1      40.688  28.720  29.540  1.00  0.00     0.037 A 
ATOM     26  C   UNL A   1      39.963  32.424  35.459  1.00  0.00     0.037 A 
ATOM     27  C   UNL A   1      41.652  28.435  30.574  1.00  0.00     0.049 A 
ATOM     28  C   UNL A   1      40.993  31.340  35.323  1.00  0.00     0.074 A 
ATOM     29  C   UNL A   1      42.721  27.557  30.532  1.00  0.00     0.029 A 
ATOM     30  N   UNL A   1      41.652  29.006  31.837  1.00  0.00    -0.354 N 
ATOM     31  N   UNL A   1      41.292  30.611  34.275  1.00  0.00    -0.248 NA
ATOM     32  C   UNL A   1      41.789  31.030  36.517  1.00  0.00     0.031 C 
ATOM     33  C   UNL A   1      43.324  27.543  31.793  1.00  0.00     0.029 A 
ATOM     34  C   UNL A   1      42.670  28.458  32.602  1.00  0.00     0.049 A 
ATOM     35  H   UNL A   1      41.022  29.698  32.145  1.00  0.00     0.167 HD
ATOM     36  C   UNL A   1      42.313  29.766  34.679  1.00  0.00     0.074 A 
ATOM     37  C   UNL A   1      42.608  30.095  36.058  1.00  0.00     0.031 C 
ATOM     38  C   UNL A   1      42.945  28.796  33.975  1.00  0.00     0.037 A 
BRANCH  25  39
ATOM     39  C   UNL A   1      40.756  27.896  28.288  1.00  0.00     0.064 A 
ATOM     40  C   UNL A   1      41.528  28.286  27.185  1.00  0.00     0.173 A 
ATOM     41  C   UNL A   1      40.130  26.640  28.240  1.00  0.00     0.173 A 
ATOM     42  F   UNL A   1      42.144  29.478  27.177  1.00  0.00    -0.203 F 
ATOM     43  C   UNL A   1      41.668  27.450  26.079  1.00  0.00     0.198 A 
ATOM     44  C   UNL A   1      40.292  25.798  27.144  1.00  0.00     0.198 A 
ATOM     45  F   UNL A   1      39.387  26.216  29.273  1.00  0.00    -0.203 F 
ATOM     46  F   UNL A   1      42.397  27.849  25.026  1.00  0.00    -0.200 F 
ATOM     47  C   UNL A   1      41.060  26.203  26.064  1.00  0.00     0.200 A 
ATOM     48  F   UNL A   1      39.719  24.586  27.141  1.00  0.00    -0.200 F 
ATOM     49  F   UNL A   1      41.217  25.391  25.010  1.00  0.00    -0.200 F 
ENDBRANCH  25  39
BRANCH  26  50
ATOM     50  C   UNL A   1      39.755  33.128  36.750  1.00  0.00     0.064 A 
ATOM     51  C   UNL A   1      38.780  32.703  37.662  1.00  0.00     0.173 A 
ATOM     52  C   UNL A   1      40.512  34.261  37.088  1.00  0.00     0.173 A 
ATOM     53  F   UNL A   1      38.018  31.637  37.378  1.00  0.00    -0.203 F 
ATOM     54  C   UNL A   1      38.547  33.403  38.845  1.00  0.00     0.198 A 
ATOM     55  C   UNL A   1      40.306  34.936  38.289  1.00  0.00     0.198 A 
ATOM     56  F   UNL A   1      41.464  34.708  36.255  1.00  0.00    -0.203 F 
ATOM     57  F   UNL A   1      37.564  33.012  39.667  1.00  0.00    -0.200 F 
ATOM     58  C   UNL A   1      39.314  34.515  39.159  1.00  0.00     0.200 A 
ATOM     59  F   UNL A   1      41.063  35.997  38.596  1.00  0.00    -0.200 F 
ATOM     60  F   UNL A   1      39.087  35.188  40.295  1.00  0.00    -0.200 F 
ENDBRANCH  26  50
BRANCH  38  61
ATOM     61  C   UNL A   1      44.020  28.027  34.684  1.00  0.00     0.064 A 
ATOM     62  C   UNL A   1      43.745  26.809  35.325  1.00  0.00     0.173 A 
ATOM     63  C   UNL A   1      45.344  28.488  34.688  1.00  0.00     0.173 A 
ATOM     64  F   UNL A   1      42.490  26.336  35.366  1.00  0.00    -0.203 F 
ATOM     65  C   UNL A   1      44.754  26.093  35.961  1.00  0.00     0.198 A 
ATOM     66  C   UNL A   1      46.357  27.752  35.296  1.00  0.00     0.198 A 
ATOM     67  F   UNL A   1      45.659  29.646  34.086  1.00  0.00    -0.203 F 
ATOM     68  F   UNL A   1      44.460  24.956  36.607  1.00  0.00    -0.200 F 
ATOM     69  C   UNL A   1      46.060  26.559  35.938  1.00  0.00     0.200 A 
ATOM     70  F   UNL A   1      47.620  28.197  35.261  1.00  0.00    -0.200 F 
ATOM     71  F   UNL A   1      47.032  25.862  36.540  1.00  0.00    -0.200 F 
ENDBRANCH  38  61
ENDBRANCH  12  13
ENDBRANCH   5   7
ENDBRANCH   2   3
ENDBRANCH   1   2
BRANCH   1  72
ATOM     72  C   UNL A   1      31.860  30.477  26.642  1.00  0.00     0.117 C 
BRANCH  72  73
ATOM     73  N   UNL A   1      32.635  30.267  25.431  1.00  0.00    -0.354 N 
ATOM     74  C   UNL A   1      32.821  29.136  24.691  1.00  0.00     0.249 C 
ATOM     75  H   UNL A   1      33.099  31.066  25.091  1.00  0.00     0.163 HD
ATOM     76  O   UNL A   1      33.551  29.222  23.700  1.00  0.00    -0.272 OA
BRANCH  74  77
ATOM     77  C   UNL A   1      32.196  27.800  25.133  1.00  0.00     0.207 C 
ATOM     78  C   UNL A   1      32.591  26.664  24.194  1.00  0.00     0.045 C 
ATOM     79  O   UNL A   1      30.766  27.800  25.175  1.00  0.00    -0.363 OA
ATOM     80  C   UNL A   1      31.411  25.728  24.287  1.00  0.00     0.037 C 
ATOM     81  C   UNL A   1      30.243  26.684  24.448  1.00  0.00     0.138 C 
BRANCH  81  82
ATOM     82  C   UNL A   1      29.667  27.197  23.115  1.00  0.00     0.147 C 
BRANCH  82  83
ATOM     83  N   UNL A   1      28.270  27.571  23.233  1.00  0.00    -0.353 N 
ATOM     84  C   UNL A   1      27.598  28.743  23.200  1.00  0.00     0.223 C 
ATOM     85  H   UNL A   1      27.678  26.796  23.370  1.00  0.00     0.163 HD
ATOM     86  O   UNL A   1      26.387  28.648  23.450  1.00  0.00    -0.275 OA
BRANCH  84  87
ATOM     87  C   UNL A   1      28.172  30.117  22.829  1.00  0.00     0.083 C 
ATOM     88  C   UNL A   1      27.778  31.356  23.627  1.00  0.00     0.042 C 
ATOM     89  C   UNL A   1      27.894  30.350  21.329  1.00  0.00     0.042 C 
ATOM     90  C   UNL A   1      28.323  32.635  22.999  1.00  0.00     0.161 C 
ATOM     91  C   UNL A   1      28.432  31.688  20.847  1.00  0.00     0.161 C 
ATOM     92  O   UNL A   1      27.910  32.748  21.642  1.00  0.00    -0.381 OA
ENDBRANCH  84  87
ENDBRANCH  82  83
ENDBRANCH  81  82
ENDBRANCH  74  77
ENDBRANCH  72  73
ENDBRANCH   1  72
TORSDOF 13
ENDMDL
MODEL 3
REMARK VINA RESULT:     -12.5      1.774      3.585
REMARK SMILES O=C(NCCCNC(=O)[C@@H]1CC[C@H](CNC(=O)C2CCOCC2)O1)c1ccc(-c2c3nc(c(-c4c(F)c(F)c(F)c(F)c4F)c4ccc([nH]4)c(-c4c(F)c(F)c(F)c(F)c4F)c4nc(c(-c5c(F)c(F)c(F)c(F)c5F)c5ccc2[nH]5)C=C4)C=C3)cc1
REMARK SMILES IDX 5 1 4 2 3 3 1 4 2 5 25 7 26 8 87 9 27 10 86 11 28 12 29 13
REMARK SMILES IDX 30 14 80 15 31 16 85 17 79 18 81 19 32 20 84 21 78 22 77 23
REMARK SMILES IDX 33 25 65 26 45 27 64 28 46 29 49 30 63 31 82 32 47 33 48 34
REMARK SMILES IDX 62 36 83 37 50 38 34 39 35 40 43 41 36 42 37 43 41 44 44 45
REMARK SMILES IDX 38 46 39 47 42 48 40 49 66 50 67 51 75 52 68 53 69 54 73 55
REMARK SMILES IDX 76 56 70 57 71 58 74 59 72 60 51 61 52 62 60 63 53 64 54 65
REMARK SMILES IDX 58 66 61 67 55 68 56 69 59 70 57 71 6 72 7 73 8 74 9 76
REMARK SMILES IDX 10 77 11 78 24 79 12 80 13 81 14 82 15 83 16 84 17 86 18 87
REMARK SMILES IDX 19 88 23 89 20 90 22 91 21 92
REMARK H PARENT 3 6 81 24 49 35 7 75 15 85
REMARK Flexibility Score: inf
ROOT
ATOM      1  C   UNL A   1      31.429  32.204  26.648  1.00  0.00     0.042 C 
ENDROOT
BRANCH   1   2
ATOM      2  C   UNL A   1      32.676  32.859  27.217  1.00  0.00     0.118 C 
BRANCH   2   3
ATOM      3  N   UNL A   1      32.444  34.233  27.640  1.00  0.00    -0.352 N 
ATOM      4  O   UNL A   1      32.564  36.034  28.988  1.00  0.00    -0.269 OA
ATOM      5  C   UNL A   1      33.023  34.947  28.661  1.00  0.00     0.251 C 
ATOM      6  H   UNL A   1      31.773  34.725  27.115  1.00  0.00     0.163 HD
BRANCH   5   7
ATOM      7  C   UNL A   1      34.198  34.396  29.368  1.00  0.00     0.039 A 
ATOM      8  C   UNL A   1      34.035  33.640  30.530  1.00  0.00     0.014 A 
ATOM      9  C   UNL A   1      35.477  34.603  28.840  1.00  0.00     0.014 A 
ATOM     10  C   UNL A   1      35.147  33.205  31.238  1.00  0.00     0.010 A 
ATOM     11  C   UNL A   1      36.591  34.074  29.496  1.00  0.00     0.010 A 
ATOM     12  C   UNL A   1      36.433  33.379  30.705  1.00  0.00    -0.014 A 
BRANCH  12  13
ATOM     13  C   UNL A   1      37.576  32.693  31.353  1.00  0.00     0.031 A 
ATOM     14  C   UNL A   1      38.265  31.529  30.704  1.00  0.00     0.074 A 
ATOM     15  C   UNL A   1      37.975  33.142  32.561  1.00  0.00     0.049 A 
ATOM     16  N   UNL A   1      39.252  30.802  31.164  1.00  0.00    -0.248 NA
ATOM     17  C   UNL A   1      37.787  31.121  29.375  1.00  0.00     0.031 C 
ATOM     18  C   UNL A   1      37.360  34.257  33.287  1.00  0.00     0.029 A 
ATOM     19  N   UNL A   1      38.982  32.724  33.391  1.00  0.00    -0.354 N 
ATOM     20  C   UNL A   1      39.498  29.839  30.195  1.00  0.00     0.074 A 
ATOM     21  C   UNL A   1      38.552  30.064  29.124  1.00  0.00     0.031 C 
ATOM     22  C   UNL A   1      38.015  34.449  34.440  1.00  0.00     0.029 A 
ATOM     23  C   UNL A   1      39.042  33.424  34.572  1.00  0.00     0.049 A 
ATOM     24  H   UNL A   1      39.603  31.995  33.165  1.00  0.00     0.167 HD
ATOM     25  C   UNL A   1      40.434  28.859  30.211  1.00  0.00     0.037 A 
ATOM     26  C   UNL A   1      39.805  33.236  35.663  1.00  0.00     0.037 A 
ATOM     27  C   UNL A   1      41.384  28.663  31.278  1.00  0.00     0.049 A 
ATOM     28  C   UNL A   1      40.801  32.111  35.659  1.00  0.00     0.074 A 
ATOM     29  C   UNL A   1      42.425  27.753  31.345  1.00  0.00     0.029 A 
ATOM     30  N   UNL A   1      41.398  29.375  32.468  1.00  0.00    -0.354 N 
ATOM     31  N   UNL A   1      41.080  31.259  34.704  1.00  0.00    -0.248 NA
ATOM     32  C   UNL A   1      41.582  31.915  36.887  1.00  0.00     0.031 C 
ATOM     33  C   UNL A   1      43.022  27.865  32.604  1.00  0.00     0.029 A 
ATOM     34  C   UNL A   1      42.394  28.886  33.298  1.00  0.00     0.049 A 
ATOM     35  H   UNL A   1      40.789  30.117  32.690  1.00  0.00     0.167 HD
ATOM     36  C   UNL A   1      42.072  30.433  35.209  1.00  0.00     0.074 A 
ATOM     37  C   UNL A   1      42.372  30.908  36.544  1.00  0.00     0.031 C 
ATOM     38  C   UNL A   1      42.675  29.370  34.626  1.00  0.00     0.037 A 
BRANCH  25  39
ATOM     39  C   UNL A   1      40.480  27.895  29.062  1.00  0.00     0.064 A 
ATOM     40  C   UNL A   1      39.672  26.750  29.022  1.00  0.00     0.173 A 
ATOM     41  C   UNL A   1      41.263  28.185  27.934  1.00  0.00     0.173 A 
ATOM     42  F   UNL A   1      38.908  26.424  30.075  1.00  0.00    -0.203 F 
ATOM     43  C   UNL A   1      39.648  25.931  27.895  1.00  0.00     0.198 A 
ATOM     44  C   UNL A   1      41.219  27.378  26.801  1.00  0.00     0.198 A 
ATOM     45  F   UNL A   1      42.048  29.273  27.919  1.00  0.00    -0.203 F 
ATOM     46  F   UNL A   1      38.881  24.831  27.883  1.00  0.00    -0.200 F 
ATOM     47  C   UNL A   1      40.412  26.251  26.782  1.00  0.00     0.200 A 
ATOM     48  F   UNL A   1      41.944  27.701  25.720  1.00  0.00    -0.200 F 
ATOM     49  F   UNL A   1      40.368  25.476  25.690  1.00  0.00    -0.200 F 
ENDBRANCH  25  39
BRANCH  26  50
ATOM     50  C   UNL A   1      39.615  34.089  36.864  1.00  0.00     0.064 A 
ATOM     51  C   UNL A   1      40.242  35.337  36.976  1.00  0.00     0.173 A 
ATOM     52  C   UNL A   1      38.819  33.662  37.939  1.00  0.00     0.173 A 
ATOM     53  F   UNL A   1      41.027  35.783  35.984  1.00  0.00    -0.203 F 
ATOM     54  C   UNL A   1      40.109  36.108  38.130  1.00  0.00     0.198 A 
ATOM     55  C   UNL A   1      38.655  34.451  39.075  1.00  0.00     0.198 A 
ATOM     56  F   UNL A   1      38.189  32.479  37.882  1.00  0.00    -0.203 F 
ATOM     57  F   UNL A   1      40.773  37.267  38.236  1.00  0.00    -0.200 F 
ATOM     58  C   UNL A   1      39.312  35.667  39.175  1.00  0.00     0.200 A 
ATOM     59  F   UNL A   1      37.867  34.029  40.072  1.00  0.00    -0.200 F 
ATOM     60  F   UNL A   1      39.187  36.408  40.284  1.00  0.00    -0.200 F 
ENDBRANCH  26  50
BRANCH  38  61
ATOM     61  C   UNL A   1      43.722  28.653  35.426  1.00  0.00     0.064 A 
ATOM     62  C   UNL A   1      45.083  28.976  35.304  1.00  0.00     0.173 A 
ATOM     63  C   UNL A   1      43.360  27.665  36.352  1.00  0.00     0.173 A 
ATOM     64  F   UNL A   1      45.480  29.900  34.416  1.00  0.00    -0.203 F 
ATOM     65  C   UNL A   1      46.043  28.319  36.067  1.00  0.00     0.198 A 
ATOM     66  C   UNL A   1      44.321  27.035  37.138  1.00  0.00     0.198 A 
ATOM     67  F   UNL A   1      42.072  27.322  36.509  1.00  0.00    -0.203 F 
ATOM     68  F   UNL A   1      47.340  28.610  35.899  1.00  0.00    -0.200 F 
ATOM     69  C   UNL A   1      45.661  27.357  36.990  1.00  0.00     0.200 A 
ATOM     70  F   UNL A   1      43.949  26.115  38.039  1.00  0.00    -0.200 F 
ATOM     71  F   UNL A   1      46.587  26.735  37.733  1.00  0.00    -0.200 F 
ENDBRANCH  38  61
ENDBRANCH  12  13
ENDBRANCH   5   7
ENDBRANCH   2   3
ENDBRANCH   1   2
BRANCH   1  72
ATOM     72  C   UNL A   1      31.547  30.696  26.506  1.00  0.00     0.117 C 
BRANCH  72  73
ATOM     73  N   UNL A   1      31.641  30.282  25.118  1.00  0.00    -0.354 N 
ATOM     74  C   UNL A   1      32.256  29.198  24.562  1.00  0.00     0.249 C 
ATOM     75  H   UNL A   1      31.192  30.878  24.475  1.00  0.00     0.163 HD
ATOM     76  O   UNL A   1      32.202  29.083  23.334  1.00  0.00    -0.272 OA
BRANCH  74  77
ATOM     77  C   UNL A   1      33.041  28.208  25.442  1.00  0.00     0.207 C 
ATOM     78  C   UNL A   1      33.768  27.168  24.596  1.00  0.00     0.045 C 
ATOM     79  O   UNL A   1      32.237  27.473  26.369  1.00  0.00    -0.363 OA
ATOM     80  C   UNL A   1      33.815  25.967  25.509  1.00  0.00     0.037 C 
ATOM     81  C   UNL A   1      32.499  26.070  26.258  1.00  0.00     0.138 C 
BRANCH  81  82
ATOM     82  C   UNL A   1      31.314  25.408  25.533  1.00  0.00     0.147 C 
BRANCH  82  83
ATOM     83  N   UNL A   1      30.482  24.637  26.438  1.00  0.00    -0.353 N 
ATOM     84  C   UNL A   1      30.517  23.372  26.910  1.00  0.00     0.223 C 
ATOM     85  H   UNL A   1      29.719  25.153  26.788  1.00  0.00     0.163 HD
ATOM     86  O   UNL A   1      29.539  23.055  27.603  1.00  0.00    -0.275 OA
BRANCH  84  87
ATOM     87  C   UNL A   1      31.651  22.356  26.721  1.00  0.00     0.083 C 
ATOM     88  C   UNL A   1      33.053  22.663  27.240  1.00  0.00     0.042 C 
ATOM     89  C   UNL A   1      31.715  22.000  25.221  1.00  0.00     0.042 C 
ATOM     90  C   UNL A   1      34.064  21.605  26.808  1.00  0.00     0.161 C 
ATOM     91  C   UNL A   1      32.806  20.985  24.918  1.00  0.00     0.161 C 
ATOM     92  O   UNL A   1      34.064  21.454  25.393  1.00  0.00    -0.381 OA
ENDBRANCH  84  87
ENDBRANCH  82  83
ENDBRANCH  81  82
ENDBRANCH  74  77
ENDBRANCH  72  73
ENDBRANCH   1  72
TORSDOF 13
ENDMDL
