MODEL 1
REMARK VINA RESULT:     -12.2      0.000      0.000
REMARK SMILES CC[NH2+][C@]1(C(=O)NCCCNC(=O)c2ccc(-c3c4nc(c(-c5c(F)c(F)c(F)c(F)c5F)c5ccc([nH]5)c(-c5c(F)c(F)c(F)c(F)c5F)c5nc(c(-c6c(F)c(F)c(F)c(F)c6F)c6ccc3[nH]6)C=C5)C=C4)cc2)CCC[C@@H]1CC[N@H+]1C[C@H](C)OC[C@@H]1C
REMARK SMILES IDX 8 1 7 2 5 3 6 4 4 6 77 7 80 8 78 9 79 10 3 11 2 14 1 15
REMARK SMILES IDX 81 16 82 17 83 18 84 19 89 20 85 22 88 23 90 24 87 25 86 26
REMARK SMILES IDX 9 27 10 28 11 29 12 30 13 32 14 33 15 34 76 35 16 36 75 37
REMARK SMILES IDX 17 38 18 39 19 40 69 41 20 42 74 43 68 44 70 45 21 46 73 47
REMARK SMILES IDX 67 48 66 49 22 51 54 52 34 53 53 54 35 55 38 56 52 57 71 58
REMARK SMILES IDX 36 59 37 60 51 62 72 63 39 64 23 65 24 66 32 67 25 68 26 69
REMARK SMILES IDX 30 70 33 71 27 72 28 73 31 74 29 75 55 76 56 77 64 78 57 79
REMARK SMILES IDX 58 80 62 81 65 82 59 83 60 84 63 85 61 86 40 87 41 88 49 89
REMARK SMILES IDX 42 90 43 91 47 92 50 93 44 94 45 95 48 96 46 97
REMARK H PARENT 7 5 3 12 3 13 83 21 11 31 70 50 38 61
REMARK Flexibility Score: inf
ROOT
ATOM      1  C   UNL A   1      31.555  30.906  26.055  1.00  0.00     0.118 C 
ENDROOT
BRANCH   1   2
ATOM      2  N   UNL A   1      31.840  29.875  27.032  1.00  0.00    -0.351 N 
ATOM      3  C   UNL A   1      31.718  28.524  26.981  1.00  0.00     0.281 C 
ATOM      4  O   UNL A   1      31.427  28.006  28.070  1.00  0.00    -0.268 OA
ATOM      5  H   UNL A   1      32.184  30.217  27.888  1.00  0.00     0.163 HD
BRANCH   3   6
ATOM      6  C   UNL A   1      32.069  27.624  25.742  1.00  0.00     0.178 C 
ATOM      7  C   UNL A   1      33.254  28.328  25.025  1.00  0.00     0.079 C 
ATOM      8  C   UNL A   1      32.684  26.205  25.996  1.00  0.00     0.066 C 
ATOM      9  C   UNL A   1      33.895  27.270  24.151  1.00  0.00     0.008 C 
ATOM     10  C   UNL A   1      33.840  26.011  24.991  1.00  0.00     0.011 C 
BRANCH   6  11
ATOM     11  N   UNL A   1      30.862  27.503  24.883  1.00  0.00    -0.334 N 
ATOM     12  H   UNL A   1      30.824  26.543  24.540  1.00  0.00     0.347 HD
ATOM     13  H   UNL A   1      30.082  27.779  25.480  1.00  0.00     0.347 HD
BRANCH  11  14
ATOM     14  C   UNL A   1      30.779  28.389  23.720  1.00  0.00     0.257 C 
ATOM     15  C   UNL A   1      30.569  27.540  22.472  1.00  0.00     0.071 C 
ENDBRANCH  11  14
ENDBRANCH   6  11
BRANCH   8  16
ATOM     16  C   UNL A   1      31.744  24.968  26.160  1.00  0.00     0.072 C 
BRANCH  16  17
ATOM     17  C   UNL A   1      31.875  23.711  25.285  1.00  0.00     0.263 C 
BRANCH  17  18
ATOM     18  N   UNL A   1      32.348  22.548  26.020  1.00  0.00    -0.329 N 
ATOM     19  C   UNL A   1      31.973  21.278  25.370  1.00  0.00     0.294 C 
ATOM     20  C   UNL A   1      33.801  22.605  26.291  1.00  0.00     0.207 C 
ATOM     21  H   UNL A   1      31.872  22.576  26.921  1.00  0.00     0.348 HD
ATOM     22  C   UNL A   1      32.893  20.871  24.198  1.00  0.00     0.170 C 
ATOM     23  C   UNL A   1      34.652  22.170  25.082  1.00  0.00     0.225 C 
ATOM     24  C   UNL A   1      34.113  21.757  27.528  1.00  0.00     0.078 C 
ATOM     25  O   UNL A   1      34.272  20.875  24.598  1.00  0.00    -0.366 OA
ATOM     26  C   UNL A   1      32.555  19.467  23.718  1.00  0.00     0.045 C 
ENDBRANCH  17  18
ENDBRANCH  16  17
ENDBRANCH   8  16
ENDBRANCH   3   6
ENDBRANCH   1   2
BRANCH   1  27
ATOM     27  C   UNL A   1      31.353  32.262  26.718  1.00  0.00     0.042 C 
BRANCH  27  28
ATOM     28  C   UNL A   1      32.652  32.842  27.257  1.00  0.00     0.118 C 
BRANCH  28  29
ATOM     29  N   UNL A   1      32.491  34.240  27.644  1.00  0.00    -0.352 N 
ATOM     30  C   UNL A   1      33.043  34.923  28.692  1.00  0.00     0.251 C 
ATOM     31  H   UNL A   1      31.896  34.769  27.065  1.00  0.00     0.163 HD
ATOM     32  O   UNL A   1      32.576  36.010  29.033  1.00  0.00    -0.269 OA
BRANCH  30  33
ATOM     33  C   UNL A   1      34.203  34.360  29.405  1.00  0.00     0.039 A 
ATOM     34  C   UNL A   1      34.001  33.674  30.605  1.00  0.00     0.014 A 
ATOM     35  C   UNL A   1      35.493  34.539  28.901  1.00  0.00     0.014 A 
ATOM     36  C   UNL A   1      35.094  33.124  31.275  1.00  0.00     0.010 A 
ATOM     37  C   UNL A   1      36.569  33.920  29.522  1.00  0.00     0.010 A 
ATOM     38  C   UNL A   1      36.381  33.221  30.722  1.00  0.00    -0.014 A 
BRANCH  38  39
ATOM     39  C   UNL A   1      37.560  32.624  31.388  1.00  0.00     0.031 A 
ATOM     40  C   UNL A   1      38.283  31.482  30.731  1.00  0.00     0.074 A 
ATOM     41  C   UNL A   1      37.914  33.044  32.616  1.00  0.00     0.049 A 
ATOM     42  N   UNL A   1      39.249  30.733  31.198  1.00  0.00    -0.248 NA
ATOM     43  C   UNL A   1      37.836  31.109  29.378  1.00  0.00     0.031 C 
ATOM     44  C   UNL A   1      37.253  34.113  33.367  1.00  0.00     0.029 A 
ATOM     45  N   UNL A   1      38.907  32.611  33.456  1.00  0.00    -0.354 N 
ATOM     46  C   UNL A   1      39.503  29.790  30.211  1.00  0.00     0.074 A 
ATOM     47  C   UNL A   1      38.559  30.026  29.142  1.00  0.00     0.031 C 
ATOM     48  C   UNL A   1      37.867  34.261  34.552  1.00  0.00     0.029 A 
ATOM     49  C   UNL A   1      38.936  33.273  34.659  1.00  0.00     0.049 A 
ATOM     50  H   UNL A   1      39.538  31.893  33.220  1.00  0.00     0.167 HD
ATOM     51  C   UNL A   1      40.455  28.828  30.193  1.00  0.00     0.037 A 
ATOM     52  C   UNL A   1      39.730  33.091  35.729  1.00  0.00     0.037 A 
ATOM     53  C   UNL A   1      41.411  28.625  31.249  1.00  0.00     0.049 A 
ATOM     54  C   UNL A   1      40.788  32.023  35.679  1.00  0.00     0.074 A 
ATOM     55  C   UNL A   1      42.457  27.721  31.305  1.00  0.00     0.029 A 
ATOM     56  N   UNL A   1      41.437  29.343  32.435  1.00  0.00    -0.354 N 
ATOM     57  N   UNL A   1      41.061  31.175  34.718  1.00  0.00    -0.248 NA
ATOM     58  C   UNL A   1      41.651  31.890  36.860  1.00  0.00     0.031 C 
ATOM     59  C   UNL A   1      43.091  27.866  32.543  1.00  0.00     0.029 A 
ATOM     60  C   UNL A   1      42.472  28.894  33.238  1.00  0.00     0.049 A 
ATOM     61  H   UNL A   1      40.813  30.066  32.672  1.00  0.00     0.167 HD
ATOM     62  C   UNL A   1      42.146  30.431  35.161  1.00  0.00     0.074 A 
ATOM     63  C   UNL A   1      42.486  30.935  36.475  1.00  0.00     0.031 C 
ATOM     64  C   UNL A   1      42.802  29.423  34.536  1.00  0.00     0.037 A 
BRANCH  51  65
ATOM     65  C   UNL A   1      40.511  27.927  28.994  1.00  0.00     0.064 A 
ATOM     66  C   UNL A   1      39.747  26.752  28.919  1.00  0.00     0.173 A 
ATOM     67  C   UNL A   1      41.317  28.254  27.893  1.00  0.00     0.173 A 
ATOM     68  F   UNL A   1      38.969  26.386  29.949  1.00  0.00    -0.203 F 
ATOM     69  C   UNL A   1      39.810  25.925  27.800  1.00  0.00     0.198 A 
ATOM     70  C   UNL A   1      41.354  27.441  26.763  1.00  0.00     0.198 A 
ATOM     71  F   UNL A   1      42.067  29.367  27.910  1.00  0.00    -0.203 F 
ATOM     72  F   UNL A   1      39.110  24.783  27.774  1.00  0.00    -0.200 F 
ATOM     73  C   UNL A   1      40.607  26.274  26.721  1.00  0.00     0.200 A 
ATOM     74  F   UNL A   1      42.116  27.785  25.716  1.00  0.00    -0.200 F 
ATOM     75  F   UNL A   1      40.661  25.480  25.643  1.00  0.00    -0.200 F 
ENDBRANCH  51  65
BRANCH  52  76
ATOM     76  C   UNL A   1      39.573  33.960  36.925  1.00  0.00     0.064 A 
ATOM     77  C   UNL A   1      38.803  33.542  38.018  1.00  0.00     0.173 A 
ATOM     78  C   UNL A   1      40.192  35.216  37.003  1.00  0.00     0.173 A 
ATOM     79  F   UNL A   1      38.178  32.356  37.982  1.00  0.00    -0.203 F 
ATOM     80  C   UNL A   1      38.640  34.355  39.137  1.00  0.00     0.198 A 
ATOM     81  C   UNL A   1      40.051  36.017  38.135  1.00  0.00     0.198 A 
ATOM     82  F   UNL A   1      40.947  35.658  35.987  1.00  0.00    -0.203 F 
ATOM     83  F   UNL A   1      37.864  33.949  40.151  1.00  0.00    -0.200 F 
ATOM     84  C   UNL A   1      39.269  35.590  39.197  1.00  0.00     0.200 A 
ATOM     85  F   UNL A   1      40.674  37.202  38.196  1.00  0.00    -0.200 F 
ATOM     86  F   UNL A   1      39.116  36.370  40.276  1.00  0.00    -0.200 F 
ENDBRANCH  52  76
BRANCH  64  87
ATOM     87  C   UNL A   1      43.984  28.829  35.245  1.00  0.00     0.064 A 
ATOM     88  C   UNL A   1      45.285  29.308  35.035  1.00  0.00     0.173 A 
ATOM     89  C   UNL A   1      43.802  27.801  36.181  1.00  0.00     0.173 A 
ATOM     90  F   UNL A   1      45.511  30.280  34.138  1.00  0.00    -0.203 F 
ATOM     91  C   UNL A   1      46.366  28.763  35.723  1.00  0.00     0.198 A 
ATOM     92  C   UNL A   1      44.880  27.279  36.888  1.00  0.00     0.198 A 
ATOM     93  F   UNL A   1      42.576  27.313  36.421  1.00  0.00    -0.203 F 
ATOM     94  F   UNL A   1      47.606  29.205  35.476  1.00  0.00    -0.200 F 
ATOM     95  C   UNL A   1      46.162  27.756  36.654  1.00  0.00     0.200 A 
ATOM     96  F   UNL A   1      44.680  26.315  37.797  1.00  0.00    -0.200 F 
ATOM     97  F   UNL A   1      47.202  27.239  37.323  1.00  0.00    -0.200 F 
ENDBRANCH  64  87
ENDBRANCH  38  39
ENDBRANCH  30  33
ENDBRANCH  28  29
ENDBRANCH  27  28
ENDBRANCH   1  27
TORSDOF 15
ENDMDL
MODEL 2
REMARK VINA RESULT:     -12.2      1.644      4.142
REMARK SMILES CC[NH2+][C@]1(C(=O)NCCCNC(=O)c2ccc(-c3c4nc(c(-c5c(F)c(F)c(F)c(F)c5F)c5ccc([nH]5)c(-c5c(F)c(F)c(F)c(F)c5F)c5nc(c(-c6c(F)c(F)c(F)c(F)c6F)c6ccc3[nH]6)C=C5)C=C4)cc2)CCC[C@@H]1CC[N@H+]1C[C@H](C)OC[C@@H]1C
REMARK SMILES IDX 8 1 7 2 5 3 6 4 4 6 77 7 80 8 78 9 79 10 3 11 2 14 1 15
REMARK SMILES IDX 81 16 82 17 83 18 84 19 89 20 85 22 88 23 90 24 87 25 86 26
REMARK SMILES IDX 9 27 10 28 11 29 12 30 13 32 14 33 15 34 76 35 16 36 75 37
REMARK SMILES IDX 17 38 18 39 19 40 69 41 20 42 74 43 68 44 70 45 21 46 73 47
REMARK SMILES IDX 67 48 66 49 22 51 54 52 34 53 53 54 35 55 38 56 52 57 71 58
REMARK SMILES IDX 36 59 37 60 51 62 72 63 39 64 23 65 24 66 32 67 25 68 26 69
REMARK SMILES IDX 30 70 33 71 27 72 28 73 31 74 29 75 55 76 56 77 64 78 57 79
REMARK SMILES IDX 58 80 62 81 65 82 59 83 60 84 63 85 61 86 40 87 41 88 49 89
REMARK SMILES IDX 42 90 43 91 47 92 50 93 44 94 45 95 48 96 46 97
REMARK H PARENT 7 5 3 12 3 13 83 21 11 31 70 50 38 61
REMARK Flexibility Score: inf
ROOT
ATOM      1  C   UNL A   1      31.355  30.816  26.418  1.00  0.00     0.118 C 
ENDROOT
BRANCH   1   2
ATOM      2  N   UNL A   1      32.688  30.259  26.511  1.00  0.00    -0.351 N 
ATOM      3  C   UNL A   1      33.131  28.976  26.534  1.00  0.00     0.281 C 
ATOM      4  O   UNL A   1      34.150  28.811  27.223  1.00  0.00    -0.268 OA
ATOM      5  H   UNL A   1      33.403  30.933  26.568  1.00  0.00     0.163 HD
BRANCH   3   6
ATOM      6  C   UNL A   1      32.564  27.801  25.660  1.00  0.00     0.178 C 
ATOM      7  C   UNL A   1      31.853  26.836  26.650  1.00  0.00     0.079 C 
ATOM      8  C   UNL A   1      31.396  28.105  24.661  1.00  0.00     0.066 C 
ATOM      9  C   UNL A   1      30.922  25.991  25.807  1.00  0.00     0.008 C 
ATOM     10  C   UNL A   1      30.368  26.959  24.781  1.00  0.00     0.011 C 
BRANCH   6  11
ATOM     11  N   UNL A   1      33.692  27.158  24.934  1.00  0.00    -0.334 N 
ATOM     12  H   UNL A   1      33.420  27.078  23.954  1.00  0.00     0.347 HD
ATOM     13  H   UNL A   1      34.497  27.759  25.111  1.00  0.00     0.347 HD
BRANCH  11  14
ATOM     14  C   UNL A   1      34.105  25.828  25.387  1.00  0.00     0.257 C 
ATOM     15  C   UNL A   1      34.146  24.893  24.184  1.00  0.00     0.071 C 
ENDBRANCH  11  14
ENDBRANCH   6  11
BRANCH   8  16
ATOM     16  C   UNL A   1      31.718  28.544  23.197  1.00  0.00     0.072 C 
BRANCH  16  17
ATOM     17  C   UNL A   1      30.755  29.404  22.363  1.00  0.00     0.263 C 
BRANCH  17  18
ATOM     18  N   UNL A   1      29.505  29.693  23.048  1.00  0.00    -0.329 N 
ATOM     19  C   UNL A   1      29.430  31.087  23.523  1.00  0.00     0.294 C 
ATOM     20  C   UNL A   1      28.322  29.338  22.235  1.00  0.00     0.207 C 
ATOM     21  H   UNL A   1      29.494  29.093  23.873  1.00  0.00     0.348 HD
ATOM     22  C   UNL A   1      29.030  32.107  22.433  1.00  0.00     0.170 C 
ATOM     23  C   UNL A   1      27.976  30.408  21.182  1.00  0.00     0.225 C 
ATOM     24  C   UNL A   1      27.136  29.068  23.168  1.00  0.00     0.078 C 
ATOM     25  O   UNL A   1      27.822  31.707  21.769  1.00  0.00    -0.366 OA
ATOM     26  C   UNL A   1      28.788  33.477  23.049  1.00  0.00     0.045 C 
ENDBRANCH  17  18
ENDBRANCH  16  17
ENDBRANCH   8  16
ENDBRANCH   3   6
ENDBRANCH   1   2
BRANCH   1  27
ATOM     27  C   UNL A   1      31.377  32.336  26.526  1.00  0.00     0.042 C 
BRANCH  27  28
ATOM     28  C   UNL A   1      32.604  32.846  27.266  1.00  0.00     0.118 C 
BRANCH  28  29
ATOM     29  N   UNL A   1      32.458  34.249  27.637  1.00  0.00    -0.352 N 
ATOM     30  C   UNL A   1      33.028  34.942  28.669  1.00  0.00     0.251 C 
ATOM     31  H   UNL A   1      31.859  34.775  27.059  1.00  0.00     0.163 HD
ATOM     32  O   UNL A   1      32.573  36.036  29.002  1.00  0.00    -0.269 OA
BRANCH  30  33
ATOM     33  C   UNL A   1      34.193  34.379  29.375  1.00  0.00     0.039 A 
ATOM     34  C   UNL A   1      33.999  33.697  30.579  1.00  0.00     0.014 A 
ATOM     35  C   UNL A   1      35.479  34.555  28.860  1.00  0.00     0.014 A 
ATOM     36  C   UNL A   1      35.097  33.149  31.243  1.00  0.00     0.010 A 
ATOM     37  C   UNL A   1      36.559  33.937  29.475  1.00  0.00     0.010 A 
ATOM     38  C   UNL A   1      36.379  33.242  30.679  1.00  0.00    -0.014 A 
BRANCH  38  39
ATOM     39  C   UNL A   1      37.563  32.645  31.337  1.00  0.00     0.031 A 
ATOM     40  C   UNL A   1      38.293  31.516  30.667  1.00  0.00     0.074 A 
ATOM     41  C   UNL A   1      37.915  33.055  32.569  1.00  0.00     0.049 A 
ATOM     42  N   UNL A   1      39.265  30.768  31.126  1.00  0.00    -0.248 NA
ATOM     43  C   UNL A   1      37.847  31.155  29.311  1.00  0.00     0.031 C 
ATOM     44  C   UNL A   1      37.247  34.111  33.333  1.00  0.00     0.029 A 
ATOM     45  N   UNL A   1      38.912  32.619  33.404  1.00  0.00    -0.354 N 
ATOM     46  C   UNL A   1      39.524  29.838  30.129  1.00  0.00     0.074 A 
ATOM     47  C   UNL A   1      38.577  30.079  29.063  1.00  0.00     0.031 C 
ATOM     48  C   UNL A   1      37.862  34.250  34.519  1.00  0.00     0.029 A 
ATOM     49  C   UNL A   1      38.937  33.268  34.614  1.00  0.00     0.049 A 
ATOM     50  H   UNL A   1      39.548  31.908  33.160  1.00  0.00     0.167 HD
ATOM     51  C   UNL A   1      40.483  28.882  30.099  1.00  0.00     0.037 A 
ATOM     52  C   UNL A   1      39.733  33.080  35.682  1.00  0.00     0.037 A 
ATOM     53  C   UNL A   1      41.441  28.674  31.152  1.00  0.00     0.049 A 
ATOM     54  C   UNL A   1      40.798  32.019  35.620  1.00  0.00     0.074 A 
ATOM     55  C   UNL A   1      42.493  27.776  31.198  1.00  0.00     0.029 A 
ATOM     56  N   UNL A   1      41.462  29.380  32.346  1.00  0.00    -0.354 N 
ATOM     57  N   UNL A   1      41.076  31.183  34.648  1.00  0.00    -0.248 NA
ATOM     58  C   UNL A   1      41.663  31.880  36.798  1.00  0.00     0.031 C 
ATOM     59  C   UNL A   1      43.126  27.912  32.437  1.00  0.00     0.029 A 
ATOM     60  C   UNL A   1      42.501  28.928  33.143  1.00  0.00     0.049 A 
ATOM     61  H   UNL A   1      40.834  30.096  32.591  1.00  0.00     0.167 HD
ATOM     62  C   UNL A   1      42.166  30.443  35.083  1.00  0.00     0.074 A 
ATOM     63  C   UNL A   1      42.504  30.935  36.402  1.00  0.00     0.031 C 
ATOM     64  C   UNL A   1      42.828  29.446  34.447  1.00  0.00     0.037 A 
BRANCH  51  65
ATOM     65  C   UNL A   1      40.544  27.994  28.890  1.00  0.00     0.064 A 
ATOM     66  C   UNL A   1      41.340  28.315  27.781  1.00  0.00     0.173 A 
ATOM     67  C   UNL A   1      39.818  26.794  28.850  1.00  0.00     0.173 A 
ATOM     68  F   UNL A   1      42.044  29.457  27.762  1.00  0.00    -0.203 F 
ATOM     69  C   UNL A   1      41.385  27.483  26.665  1.00  0.00     0.198 A 
ATOM     70  C   UNL A   1      39.890  25.949  27.746  1.00  0.00     0.198 A 
ATOM     71  F   UNL A   1      39.042  26.437  29.884  1.00  0.00    -0.203 F 
ATOM     72  F   UNL A   1      42.114  27.837  25.597  1.00  0.00    -0.200 F 
ATOM     73  C   UNL A   1      40.667  26.297  26.651  1.00  0.00     0.200 A 
ATOM     74  F   UNL A   1      39.203  24.798  27.738  1.00  0.00    -0.200 F 
ATOM     75  F   UNL A   1      40.716  25.495  25.580  1.00  0.00    -0.200 F 
ENDBRANCH  51  65
BRANCH  52  76
ATOM     76  C   UNL A   1      39.572  33.935  36.887  1.00  0.00     0.064 A 
ATOM     77  C   UNL A   1      40.183  35.194  36.959  1.00  0.00     0.173 A 
ATOM     78  C   UNL A   1      38.801  33.519  37.982  1.00  0.00     0.173 A 
ATOM     79  F   UNL A   1      40.944  35.628  35.943  1.00  0.00    -0.203 F 
ATOM     80  C   UNL A   1      40.048  35.997  38.089  1.00  0.00     0.198 A 
ATOM     81  C   UNL A   1      38.643  34.335  39.101  1.00  0.00     0.198 A 
ATOM     82  F   UNL A   1      38.188  32.327  37.959  1.00  0.00    -0.203 F 
ATOM     83  F   UNL A   1      40.678  37.177  38.149  1.00  0.00    -0.200 F 
ATOM     84  C   UNL A   1      39.273  35.569  39.157  1.00  0.00     0.200 A 
ATOM     85  F   UNL A   1      37.880  33.926  40.124  1.00  0.00    -0.200 F 
ATOM     86  F   UNL A   1      39.138  36.344  40.242  1.00  0.00    -0.200 F 
ENDBRANCH  52  76
BRANCH  64  87
ATOM     87  C   UNL A   1      44.015  28.852  35.148  1.00  0.00     0.064 A 
ATOM     88  C   UNL A   1      43.885  27.766  36.024  1.00  0.00     0.173 A 
ATOM     89  C   UNL A   1      45.303  29.350  34.900  1.00  0.00     0.173 A 
ATOM     90  F   UNL A   1      42.673  27.265  36.305  1.00  0.00    -0.203 F 
ATOM     91  C   UNL A   1      45.002  27.211  36.643  1.00  0.00     0.198 A 
ATOM     92  C   UNL A   1      46.420  28.775  35.498  1.00  0.00     0.198 A 
ATOM     93  F   UNL A   1      45.479  30.385  34.064  1.00  0.00    -0.203 F 
ATOM     94  F   UNL A   1      44.852  26.201  37.511  1.00  0.00    -0.200 F 
ATOM     95  C   UNL A   1      46.268  27.710  36.374  1.00  0.00     0.200 A 
ATOM     96  F   UNL A   1      47.643  29.249  35.225  1.00  0.00    -0.200 F 
ATOM     97  F   UNL A   1      47.343  27.169  36.963  1.00  0.00    -0.200 F 
ENDBRANCH  64  87
ENDBRANCH  38  39
ENDBRANCH  30  33
ENDBRANCH  28  29
ENDBRANCH  27  28
ENDBRANCH   1  27
TORSDOF 15
ENDMDL
MODEL 3
REMARK VINA RESULT:     -12.1      5.743     10.957
REMARK SMILES CC[NH2+][C@]1(C(=O)NCCCNC(=O)c2ccc(-c3c4nc(c(-c5c(F)c(F)c(F)c(F)c5F)c5ccc([nH]5)c(-c5c(F)c(F)c(F)c(F)c5F)c5nc(c(-c6c(F)c(F)c(F)c(F)c6F)c6ccc3[nH]6)C=C5)C=C4)cc2)CCC[C@@H]1CC[N@H+]1C[C@H](C)OC[C@@H]1C
REMARK SMILES IDX 8 1 7 2 5 3 6 4 4 6 77 7 80 8 78 9 79 10 3 11 2 14 1 15
REMARK SMILES IDX 81 16 82 17 83 18 84 19 89 20 85 22 88 23 90 24 87 25 86 26
REMARK SMILES IDX 9 27 10 28 11 29 12 30 13 32 14 33 15 34 76 35 16 36 75 37
REMARK SMILES IDX 17 38 18 39 19 40 69 41 20 42 74 43 68 44 70 45 21 46 73 47
REMARK SMILES IDX 67 48 66 49 22 51 54 52 34 53 53 54 35 55 38 56 52 57 71 58
REMARK SMILES IDX 36 59 37 60 51 62 72 63 39 64 23 65 24 66 32 67 25 68 26 69
REMARK SMILES IDX 30 70 33 71 27 72 28 73 31 74 29 75 55 76 56 77 64 78 57 79
REMARK SMILES IDX 58 80 62 81 65 82 59 83 60 84 63 85 61 86 40 87 41 88 49 89
REMARK SMILES IDX 42 90 43 91 47 92 50 93 44 94 45 95 48 96 46 97
REMARK H PARENT 7 5 3 12 3 13 83 21 11 31 70 50 38 61
REMARK Flexibility Score: inf
ROOT
ATOM      1  C   UNL A   1      36.714  20.578  25.031  1.00  0.00     0.118 C 
ENDROOT
BRANCH   1   2
ATOM      2  N   UNL A   1      36.916  21.814  24.304  1.00  0.00    -0.351 N 
ATOM      3  C   UNL A   1      36.068  22.583  23.576  1.00  0.00     0.281 C 
ATOM      4  O   UNL A   1      36.608  23.157  22.618  1.00  0.00    -0.268 OA
ATOM      5  H   UNL A   1      37.837  22.159  24.346  1.00  0.00     0.163 HD
BRANCH   3   6
ATOM      6  C   UNL A   1      34.577  22.902  23.954  1.00  0.00     0.178 C 
ATOM      7  C   UNL A   1      33.966  23.619  22.717  1.00  0.00     0.079 C 
ATOM      8  C   UNL A   1      33.574  21.709  24.123  1.00  0.00     0.066 C 
ATOM      9  C   UNL A   1      32.464  23.500  22.870  1.00  0.00     0.008 C 
ATOM     10  C   UNL A   1      32.256  22.104  23.420  1.00  0.00     0.011 C 
BRANCH   6  11
ATOM     11  N   UNL A   1      34.564  23.747  25.177  1.00  0.00    -0.334 N 
ATOM     12  H   UNL A   1      33.680  23.578  25.658  1.00  0.00     0.347 HD
ATOM     13  H   UNL A   1      35.398  23.473  25.697  1.00  0.00     0.347 HD
BRANCH  11  14
ATOM     14  C   UNL A   1      34.693  25.194  24.991  1.00  0.00     0.257 C 
ATOM     15  C   UNL A   1      33.596  25.890  25.787  1.00  0.00     0.071 C 
ENDBRANCH  11  14
ENDBRANCH   6  11
BRANCH   8  16
ATOM     16  C   UNL A   1      33.395  21.036  25.521  1.00  0.00     0.072 C 
BRANCH  16  17
ATOM     17  C   UNL A   1      33.287  19.513  25.694  1.00  0.00     0.263 C 
BRANCH  17  18
ATOM     18  N   UNL A   1      33.537  18.776  24.465  1.00  0.00    -0.329 N 
ATOM     19  C   UNL A   1      34.669  17.839  24.588  1.00  0.00     0.294 C 
ATOM     20  C   UNL A   1      32.326  18.093  23.961  1.00  0.00     0.207 C 
ATOM     21  H   UNL A   1      33.799  19.475  23.770  1.00  0.00     0.348 HD
ATOM     22  C   UNL A   1      34.313  16.503  25.277  1.00  0.00     0.170 C 
ATOM     23  C   UNL A   1      32.045  16.762  24.685  1.00  0.00     0.225 C 
ATOM     24  C   UNL A   1      32.459  17.889  22.448  1.00  0.00     0.078 C 
ATOM     25  O   UNL A   1      33.179  15.885  24.651  1.00  0.00    -0.366 OA
ATOM     26  C   UNL A   1      35.479  15.530  25.186  1.00  0.00     0.045 C 
ENDBRANCH  17  18
ENDBRANCH  16  17
ENDBRANCH   8  16
ENDBRANCH   3   6
ENDBRANCH   1   2
BRANCH   1  27
ATOM     27  C   UNL A   1      37.944  19.681  24.962  1.00  0.00     0.042 C 
BRANCH  27  28
ATOM     28  C   UNL A   1      39.095  20.212  25.803  1.00  0.00     0.118 C 
BRANCH  28  29
ATOM     29  N   UNL A   1      40.154  19.218  25.944  1.00  0.00    -0.352 N 
ATOM     30  C   UNL A   1      41.506  19.394  26.050  1.00  0.00     0.251 C 
ATOM     31  H   UNL A   1      39.849  18.282  25.966  1.00  0.00     0.163 HD
ATOM     32  O   UNL A   1      42.266  18.443  25.872  1.00  0.00    -0.269 OA
BRANCH  30  33
ATOM     33  C   UNL A   1      42.048  20.722  26.385  1.00  0.00     0.039 A 
ATOM     34  C   UNL A   1      42.349  21.619  25.356  1.00  0.00     0.014 A 
ATOM     35  C   UNL A   1      42.290  21.068  27.717  1.00  0.00     0.014 A 
ATOM     36  C   UNL A   1      42.847  22.883  25.669  1.00  0.00     0.010 A 
ATOM     37  C   UNL A   1      42.704  22.354  28.032  1.00  0.00     0.010 A 
ATOM     38  C   UNL A   1      43.001  23.267  27.011  1.00  0.00    -0.014 A 
BRANCH  38  39
ATOM     39  C   UNL A   1      43.497  24.611  27.383  1.00  0.00     0.031 A 
ATOM     40  C   UNL A   1      42.542  25.623  27.951  1.00  0.00     0.074 A 
ATOM     41  C   UNL A   1      44.773  24.945  27.120  1.00  0.00     0.049 A 
ATOM     42  N   UNL A   1      42.737  26.889  28.218  1.00  0.00    -0.248 NA
ATOM     43  C   UNL A   1      41.172  25.156  28.224  1.00  0.00     0.031 C 
ATOM     44  C   UNL A   1      45.774  24.057  26.525  1.00  0.00     0.029 A 
ATOM     45  N   UNL A   1      45.443  26.127  27.302  1.00  0.00    -0.354 N 
ATOM     46  C   UNL A   1      41.513  27.371  28.662  1.00  0.00     0.074 A 
ATOM     47  C   UNL A   1      40.569  26.279  28.581  1.00  0.00     0.031 C 
ATOM     48  C   UNL A   1      46.934  24.722  26.404  1.00  0.00     0.029 A 
ATOM     49  C   UNL A   1      46.747  26.091  26.873  1.00  0.00     0.049 A 
ATOM     50  H   UNL A   1      45.028  26.926  27.700  1.00  0.00     0.167 HD
ATOM     51  C   UNL A   1      41.213  28.610  29.116  1.00  0.00     0.037 A 
ATOM     52  C   UNL A   1      47.680  27.061  26.853  1.00  0.00     0.037 A 
ATOM     53  C   UNL A   1      42.169  29.680  29.224  1.00  0.00     0.049 A 
ATOM     54  C   UNL A   1      47.324  28.426  27.375  1.00  0.00     0.074 A 
ATOM     55  C   UNL A   1      41.986  30.955  29.729  1.00  0.00     0.029 A 
ATOM     56  N   UNL A   1      43.493  29.594  28.819  1.00  0.00    -0.354 N 
ATOM     57  N   UNL A   1      46.180  28.857  27.849  1.00  0.00    -0.248 NA
ATOM     58  C   UNL A   1      48.388  29.437  27.364  1.00  0.00     0.031 C 
ATOM     59  C   UNL A   1      43.190  31.653  29.593  1.00  0.00     0.029 A 
ATOM     60  C   UNL A   1      44.137  30.798  29.050  1.00  0.00     0.049 A 
ATOM     61  H   UNL A   1      43.914  28.795  28.427  1.00  0.00     0.167 HD
ATOM     62  C   UNL A   1      46.395  30.176  28.224  1.00  0.00     0.074 A 
ATOM     63  C   UNL A   1      47.781  30.471  27.929  1.00  0.00     0.031 C 
ATOM     64  C   UNL A   1      45.523  31.063  28.763  1.00  0.00     0.037 A 
BRANCH  51  65
ATOM     65  C   UNL A   1      39.794  28.873  29.535  1.00  0.00     0.064 A 
ATOM     66  C   UNL A   1      39.359  28.639  30.848  1.00  0.00     0.173 A 
ATOM     67  C   UNL A   1      38.866  29.391  28.620  1.00  0.00     0.173 A 
ATOM     68  F   UNL A   1      40.203  28.132  31.760  1.00  0.00    -0.203 F 
ATOM     69  C   UNL A   1      38.040  28.886  31.221  1.00  0.00     0.198 A 
ATOM     70  C   UNL A   1      37.556  29.666  29.004  1.00  0.00     0.198 A 
ATOM     71  F   UNL A   1      39.229  29.636  27.352  1.00  0.00    -0.203 F 
ATOM     72  F   UNL A   1      37.636  28.606  32.468  1.00  0.00    -0.200 F 
ATOM     73  C   UNL A   1      37.142  29.406  30.301  1.00  0.00     0.200 A 
ATOM     74  F   UNL A   1      36.692  30.179  28.118  1.00  0.00    -0.200 F 
ATOM     75  F   UNL A   1      35.876  29.649  30.664  1.00  0.00    -0.200 F 
ENDBRANCH  51  65
BRANCH  52  76
ATOM     76  C   UNL A   1      49.046  26.764  26.349  1.00  0.00     0.064 A 
ATOM     77  C   UNL A   1      49.385  27.014  25.012  1.00  0.00     0.173 A 
ATOM     78  C   UNL A   1      50.038  26.236  27.187  1.00  0.00     0.173 A 
ATOM     79  F   UNL A   1      48.465  27.502  24.167  1.00  0.00    -0.203 F 
ATOM     80  C   UNL A   1      50.659  26.727  24.527  1.00  0.00     0.198 A 
ATOM     81  C   UNL A   1      51.320  25.976  26.707  1.00  0.00     0.198 A 
ATOM     82  F   UNL A   1      49.766  25.989  28.477  1.00  0.00    -0.203 F 
ATOM     83  F   UNL A   1      50.944  26.935  23.234  1.00  0.00    -0.200 F 
ATOM     84  C   UNL A   1      51.628  26.214  25.377  1.00  0.00     0.200 A 
ATOM     85  F   UNL A   1      52.258  25.496  27.536  1.00  0.00    -0.200 F 
ATOM     86  F   UNL A   1      52.855  25.943  24.912  1.00  0.00    -0.200 F 
ENDBRANCH  52  76
BRANCH  64  87
ATOM     87  C   UNL A   1      46.054  32.421  29.115  1.00  0.00     0.064 A 
ATOM     88  C   UNL A   1      46.628  32.686  30.367  1.00  0.00     0.173 A 
ATOM     89  C   UNL A   1      46.031  33.455  28.168  1.00  0.00     0.173 A 
ATOM     90  F   UNL A   1      46.660  31.733  31.311  1.00  0.00    -0.203 F 
ATOM     91  C   UNL A   1      47.142  33.945  30.664  1.00  0.00     0.198 A 
ATOM     92  C   UNL A   1      46.571  34.704  28.458  1.00  0.00     0.198 A 
ATOM     93  F   UNL A   1      45.498  33.249  26.954  1.00  0.00    -0.203 F 
ATOM     94  F   UNL A   1      47.647  34.191  31.881  1.00  0.00    -0.200 F 
ATOM     95  C   UNL A   1      47.120  34.950  29.708  1.00  0.00     0.200 A 
ATOM     96  F   UNL A   1      46.562  35.669  27.529  1.00  0.00    -0.200 F 
ATOM     97  F   UNL A   1      47.623  36.159  29.993  1.00  0.00    -0.200 F 
ENDBRANCH  64  87
ENDBRANCH  38  39
ENDBRANCH  30  33
ENDBRANCH  28  29
ENDBRANCH  27  28
ENDBRANCH   1  27
TORSDOF 15
ENDMDL
