MODEL 1
REMARK VINA RESULT:     -10.8      0.000      0.000
REMARK SMILES CC[C@@H](NC(=O)[C@H](C)C[NH2+]C)C(=O)NCCCNC(=O)c1ccc(-c2c3nc(c(-c4c(F)c(F)c(F)c(F)c4F)c4ccc([nH]4)c(-c4c(F)c(F)c(F)c(F)c4F)c4nc(c(-c5c(F)c(F)c(F)c(F)c5F)c5ccc2[nH]5)C=C4)C=C3)cc1
REMARK SMILES IDX 15 1 14 2 12 3 13 4 3 6 2 7 1 8 4 9 5 10 6 12 7 13 8 14 9 15
REMARK SMILES IDX 10 16 11 17 16 20 17 21 18 22 19 23 20 25 21 26 22 27 83 28
REMARK SMILES IDX 23 29 82 30 24 31 25 32 26 33 76 34 27 35 81 36 75 37 77 38
REMARK SMILES IDX 28 39 80 40 74 41 73 42 29 44 61 45 41 46 60 47 42 48 45 49
REMARK SMILES IDX 59 50 78 51 43 52 44 53 58 55 79 56 46 57 30 58 31 59 39 60
REMARK SMILES IDX 32 61 33 62 37 63 40 64 34 65 35 66 38 67 36 68 62 69 63 70
REMARK SMILES IDX 71 71 64 72 65 73 69 74 72 75 66 76 67 77 70 78 68 79 47 80
REMARK SMILES IDX 48 81 56 82 49 83 50 84 54 85 57 86 51 87 52 88 55 89 53 90
REMARK H PARENT 14 5 4 11 10 18 10 19 18 24 77 43 45 54
REMARK Flexibility Score: inf
ROOT
ATOM      1  C   UNL A   1      33.372  29.731  26.698  1.00  0.00     0.117 C 
ENDROOT
BRANCH   1   2
ATOM      2  N   UNL A   1      33.674  29.619  25.281  1.00  0.00    -0.354 N 
ATOM      3  C   UNL A   1      32.867  29.187  24.268  1.00  0.00     0.242 C 
ATOM      4  O   UNL A   1      33.348  29.144  23.133  1.00  0.00    -0.273 OA
ATOM      5  H   UNL A   1      34.583  29.893  25.015  1.00  0.00     0.163 HD
BRANCH   3   6
ATOM      6  C   UNL A   1      31.485  28.579  24.574  1.00  0.00     0.171 C 
BRANCH   6   7
ATOM      7  C   UNL A   1      30.462  29.584  23.984  1.00  0.00     0.031 C 
ATOM      8  C   UNL A   1      29.495  29.044  22.945  1.00  0.00     0.006 C 
ENDBRANCH   6   7
BRANCH   6   9
ATOM      9  N   UNL A   1      31.320  27.212  24.070  1.00  0.00    -0.344 N 
ATOM     10  C   UNL A   1      31.590  25.995  24.609  1.00  0.00     0.229 C 
ATOM     11  H   UNL A   1      30.939  27.168  23.163  1.00  0.00     0.164 HD
ATOM     12  O   UNL A   1      31.094  25.034  24.007  1.00  0.00    -0.275 OA
BRANCH  10  13
ATOM     13  C   UNL A   1      32.554  25.734  25.770  1.00  0.00     0.130 C 
ATOM     14  C   UNL A   1      34.038  25.852  25.455  1.00  0.00     0.024 C 
BRANCH  13  15
ATOM     15  C   UNL A   1      32.153  24.417  26.459  1.00  0.00     0.273 C 
BRANCH  15  16
ATOM     16  N   UNL A   1      30.737  24.334  26.837  1.00  0.00    -0.348 N 
ATOM     17  C   UNL A   1      30.279  22.946  26.796  1.00  0.00     0.330 C 
ATOM     18  H   UNL A   1      30.183  24.891  26.186  1.00  0.00     0.346 HD
ATOM     19  H   UNL A   1      30.626  24.692  27.786  1.00  0.00     0.346 HD
ENDBRANCH  15  16
ENDBRANCH  13  15
ENDBRANCH  10  13
ENDBRANCH   6   9
ENDBRANCH   3   6
ENDBRANCH   1   2
BRANCH   1  20
ATOM     20  C   UNL A   1      32.556  30.965  27.032  1.00  0.00     0.042 C 
BRANCH  20  21
ATOM     21  C   UNL A   1      33.368  32.103  27.628  1.00  0.00     0.118 C 
BRANCH  21  22
ATOM     22  N   UNL A   1      32.688  33.391  27.663  1.00  0.00    -0.352 N 
ATOM     23  C   UNL A   1      33.054  34.491  28.413  1.00  0.00     0.251 C 
ATOM     24  H   UNL A   1      31.888  33.486  27.098  1.00  0.00     0.163 HD
ATOM     25  O   UNL A   1      32.413  35.530  28.392  1.00  0.00    -0.269 OA
BRANCH  23  26
ATOM     26  C   UNL A   1      34.228  34.346  29.297  1.00  0.00     0.039 A 
ATOM     27  C   UNL A   1      34.035  33.835  30.581  1.00  0.00     0.014 A 
ATOM     28  C   UNL A   1      35.511  34.518  28.772  1.00  0.00     0.014 A 
ATOM     29  C   UNL A   1      35.138  33.386  31.306  1.00  0.00     0.010 A 
ATOM     30  C   UNL A   1      36.599  34.006  29.468  1.00  0.00     0.010 A 
ATOM     31  C   UNL A   1      36.417  33.409  30.726  1.00  0.00    -0.014 A 
BRANCH  31  32
ATOM     32  C   UNL A   1      37.572  32.754  31.386  1.00  0.00     0.031 A 
ATOM     33  C   UNL A   1      38.244  31.585  30.735  1.00  0.00     0.074 A 
ATOM     34  C   UNL A   1      37.936  33.146  32.622  1.00  0.00     0.049 A 
ATOM     35  N   UNL A   1      39.197  30.816  31.196  1.00  0.00    -0.248 NA
ATOM     36  C   UNL A   1      37.755  31.207  29.400  1.00  0.00     0.031 C 
ATOM     37  C   UNL A   1      37.305  34.223  33.390  1.00  0.00     0.029 A 
ATOM     38  N   UNL A   1      38.910  32.667  33.463  1.00  0.00    -0.354 N 
ATOM     39  C   UNL A   1      39.407  29.854  30.220  1.00  0.00     0.074 A 
ATOM     40  C   UNL A   1      38.453  30.107  29.161  1.00  0.00     0.031 C 
ATOM     41  C   UNL A   1      37.913  34.327  34.582  1.00  0.00     0.029 A 
ATOM     42  C   UNL A   1      38.955  33.309  34.676  1.00  0.00     0.049 A 
ATOM     43  H   UNL A   1      39.518  31.933  33.219  1.00  0.00     0.167 HD
ATOM     44  C   UNL A   1      40.327  28.861  30.201  1.00  0.00     0.037 A 
ATOM     45  C   UNL A   1      39.743  33.095  35.747  1.00  0.00     0.037 A 
ATOM     46  C   UNL A   1      41.293  28.634  31.240  1.00  0.00     0.049 A 
ATOM     47  C   UNL A   1      40.784  32.014  35.687  1.00  0.00     0.074 A 
ATOM     48  C   UNL A   1      42.320  27.708  31.279  1.00  0.00     0.029 A 
ATOM     49  N   UNL A   1      41.349  29.344  32.431  1.00  0.00    -0.354 N 
ATOM     50  N   UNL A   1      41.033  31.164  34.721  1.00  0.00    -0.248 NA
ATOM     51  C   UNL A   1      41.659  31.865  36.858  1.00  0.00     0.031 C 
ATOM     52  C   UNL A   1      42.979  27.838  32.506  1.00  0.00     0.029 A 
ATOM     53  C   UNL A   1      42.382  28.866  33.219  1.00  0.00     0.049 A 
ATOM     54  H   UNL A   1      40.742  30.079  32.680  1.00  0.00     0.167 HD
ATOM     55  C   UNL A   1      42.101  30.393  35.156  1.00  0.00     0.074 A 
ATOM     56  C   UNL A   1      42.461  30.881  36.472  1.00  0.00     0.031 C 
ATOM     57  C   UNL A   1      42.727  29.372  34.523  1.00  0.00     0.037 A 
BRANCH  44  58
ATOM     58  C   UNL A   1      40.327  27.953  29.009  1.00  0.00     0.064 A 
ATOM     59  C   UNL A   1      39.605  26.749  29.006  1.00  0.00     0.173 A 
ATOM     60  C   UNL A   1      41.052  28.289  27.857  1.00  0.00     0.173 A 
ATOM     61  F   UNL A   1      38.908  26.377  30.090  1.00  0.00    -0.203 F 
ATOM     62  C   UNL A   1      39.639  25.898  27.904  1.00  0.00     0.198 A 
ATOM     63  C   UNL A   1      41.063  27.448  26.748  1.00  0.00     0.198 A 
ATOM     64  F   UNL A   1      41.756  29.430  27.810  1.00  0.00    -0.203 F 
ATOM     65  F   UNL A   1      38.987  24.727  27.945  1.00  0.00    -0.200 F 
ATOM     66  C   UNL A   1      40.364  26.250  26.776  1.00  0.00     0.200 A 
ATOM     67  F   UNL A   1      41.757  27.791  25.655  1.00  0.00    -0.200 F 
ATOM     68  F   UNL A   1      40.399  25.428  25.718  1.00  0.00    -0.200 F 
ENDBRANCH  44  58
BRANCH  45  69
ATOM     69  C   UNL A   1      39.590  33.946  36.954  1.00  0.00     0.064 A 
ATOM     70  C   UNL A   1      38.829  33.512  38.048  1.00  0.00     0.173 A 
ATOM     71  C   UNL A   1      40.221  35.193  37.050  1.00  0.00     0.173 A 
ATOM     72  F   UNL A   1      38.193  32.332  37.994  1.00  0.00    -0.203 F 
ATOM     73  C   UNL A   1      38.698  34.299  39.190  1.00  0.00     0.198 A 
ATOM     74  C   UNL A   1      40.107  35.971  38.201  1.00  0.00     0.198 A 
ATOM     75  F   UNL A   1      40.967  35.649  36.033  1.00  0.00    -0.203 F 
ATOM     76  F   UNL A   1      37.944  33.872  40.213  1.00  0.00    -0.200 F 
ATOM     77  C   UNL A   1      39.343  35.525  39.269  1.00  0.00     0.200 A 
ATOM     78  F   UNL A   1      40.743  37.147  38.279  1.00  0.00    -0.200 F 
ATOM     79  F   UNL A   1      39.226  36.275  40.372  1.00  0.00    -0.200 F 
ENDBRANCH  45  69
BRANCH  57  80
ATOM     80  C   UNL A   1      43.878  28.725  35.231  1.00  0.00     0.064 A 
ATOM     81  C   UNL A   1      45.192  29.180  35.054  1.00  0.00     0.173 A 
ATOM     82  C   UNL A   1      43.654  27.683  36.143  1.00  0.00     0.173 A 
ATOM     83  F   UNL A   1      45.453  30.163  34.180  1.00  0.00    -0.203 F 
ATOM     84  C   UNL A   1      46.244  28.609  35.762  1.00  0.00     0.198 A 
ATOM     85  C   UNL A   1      44.707  27.128  36.864  1.00  0.00     0.198 A 
ATOM     86  F   UNL A   1      42.413  27.217  36.345  1.00  0.00    -0.203 F 
ATOM     87  F   UNL A   1      47.497  29.041  35.561  1.00  0.00    -0.200 F 
ATOM     88  C   UNL A   1      46.001  27.589  36.672  1.00  0.00     0.200 A 
ATOM     89  F   UNL A   1      44.469  26.150  37.748  1.00  0.00    -0.200 F 
ATOM     90  F   UNL A   1      47.015  27.050  37.362  1.00  0.00    -0.200 F 
ENDBRANCH  57  80
ENDBRANCH  31  32
ENDBRANCH  23  26
ENDBRANCH  21  22
ENDBRANCH  20  21
ENDBRANCH   1  20
TORSDOF 15
ENDMDL
MODEL 2
REMARK VINA RESULT:     -10.7      6.314     11.505
REMARK SMILES CC[C@@H](NC(=O)[C@H](C)C[NH2+]C)C(=O)NCCCNC(=O)c1ccc(-c2c3nc(c(-c4c(F)c(F)c(F)c(F)c4F)c4ccc([nH]4)c(-c4c(F)c(F)c(F)c(F)c4F)c4nc(c(-c5c(F)c(F)c(F)c(F)c5F)c5ccc2[nH]5)C=C4)C=C3)cc1
REMARK SMILES IDX 15 1 14 2 12 3 13 4 3 6 2 7 1 8 4 9 5 10 6 12 7 13 8 14 9 15
REMARK SMILES IDX 10 16 11 17 16 20 17 21 18 22 19 23 20 25 21 26 22 27 83 28
REMARK SMILES IDX 23 29 82 30 24 31 25 32 26 33 76 34 27 35 81 36 75 37 77 38
REMARK SMILES IDX 28 39 80 40 74 41 73 42 29 44 61 45 41 46 60 47 42 48 45 49
REMARK SMILES IDX 59 50 78 51 43 52 44 53 58 55 79 56 46 57 30 58 31 59 39 60
REMARK SMILES IDX 32 61 33 62 37 63 40 64 34 65 35 66 38 67 36 68 62 69 63 70
REMARK SMILES IDX 71 71 64 72 65 73 69 74 72 75 66 76 67 77 70 78 68 79 47 80
REMARK SMILES IDX 48 81 56 82 49 83 50 84 54 85 57 86 51 87 52 88 55 89 53 90
REMARK H PARENT 14 5 4 11 10 18 10 19 18 24 77 43 45 54
REMARK Flexibility Score: inf
ROOT
ATOM      1  C   UNL A   1      37.518  22.767  25.482  1.00  0.00     0.117 C 
ENDROOT
BRANCH   1   2
ATOM      2  N   UNL A   1      36.845  23.193  24.266  1.00  0.00    -0.354 N 
ATOM      3  C   UNL A   1      35.541  23.013  23.905  1.00  0.00     0.242 C 
ATOM      4  O   UNL A   1      35.191  23.434  22.800  1.00  0.00    -0.273 OA
ATOM      5  H   UNL A   1      37.406  23.678  23.617  1.00  0.00     0.163 HD
BRANCH   3   6
ATOM      6  C   UNL A   1      34.608  22.132  24.757  1.00  0.00     0.171 C 
BRANCH   6   7
ATOM      7  C   UNL A   1      33.932  23.108  25.756  1.00  0.00     0.031 C 
ATOM      8  C   UNL A   1      34.036  22.755  27.229  1.00  0.00     0.006 C 
ENDBRANCH   6   7
BRANCH   6   9
ATOM      9  N   UNL A   1      33.653  21.351  23.964  1.00  0.00    -0.344 N 
ATOM     10  C   UNL A   1      33.123  20.111  24.124  1.00  0.00     0.229 C 
ATOM     11  H   UNL A   1      33.332  21.818  23.159  1.00  0.00     0.164 HD
ATOM     12  O   UNL A   1      32.152  19.858  23.399  1.00  0.00    -0.275 OA
BRANCH  10  13
ATOM     13  C   UNL A   1      33.719  18.997  24.991  1.00  0.00     0.130 C 
ATOM     14  C   UNL A   1      35.122  18.536  24.626  1.00  0.00     0.024 C 
BRANCH  13  15
ATOM     15  C   UNL A   1      32.687  17.862  25.115  1.00  0.00     0.273 C 
BRANCH  15  16
ATOM     16  N   UNL A   1      33.015  16.849  26.126  1.00  0.00    -0.348 N 
ATOM     17  C   UNL A   1      32.520  15.537  25.711  1.00  0.00     0.330 C 
ATOM     18  H   UNL A   1      32.581  17.107  27.013  1.00  0.00     0.346 HD
ATOM     19  H   UNL A   1      34.028  16.803  26.232  1.00  0.00     0.346 HD
ENDBRANCH  15  16
ENDBRANCH  13  15
ENDBRANCH  10  13
ENDBRANCH   6   9
ENDBRANCH   3   6
ENDBRANCH   1   2
BRANCH   1  20
ATOM     20  C   UNL A   1      38.099  21.369  25.376  1.00  0.00     0.042 C 
BRANCH  20  21
ATOM     21  C   UNL A   1      39.413  21.185  26.117  1.00  0.00     0.118 C 
BRANCH  21  22
ATOM     22  N   UNL A   1      40.021  19.870  25.972  1.00  0.00    -0.352 N 
ATOM     23  C   UNL A   1      41.359  19.563  26.128  1.00  0.00     0.251 C 
ATOM     24  H   UNL A   1      39.420  19.126  25.739  1.00  0.00     0.163 HD
ATOM     25  O   UNL A   1      41.785  18.430  25.972  1.00  0.00    -0.269 OA
BRANCH  23  26
ATOM     26  C   UNL A   1      42.276  20.679  26.436  1.00  0.00     0.039 A 
ATOM     27  C   UNL A   1      42.818  21.407  25.376  1.00  0.00     0.014 A 
ATOM     28  C   UNL A   1      42.415  21.112  27.757  1.00  0.00     0.014 A 
ATOM     29  C   UNL A   1      43.410  22.642  25.633  1.00  0.00     0.010 A 
ATOM     30  C   UNL A   1      42.942  22.373  28.001  1.00  0.00     0.010 A 
ATOM     31  C   UNL A   1      43.415  23.161  26.939  1.00  0.00    -0.014 A 
BRANCH  31  32
ATOM     32  C   UNL A   1      43.849  24.552  27.211  1.00  0.00     0.031 A 
ATOM     33  C   UNL A   1      42.857  25.568  27.686  1.00  0.00     0.074 A 
ATOM     34  C   UNL A   1      45.113  24.919  26.921  1.00  0.00     0.049 A 
ATOM     35  N   UNL A   1      43.016  26.852  27.880  1.00  0.00    -0.248 NA
ATOM     36  C   UNL A   1      41.493  25.083  27.943  1.00  0.00     0.031 C 
ATOM     37  C   UNL A   1      46.149  24.035  26.380  1.00  0.00     0.029 A 
ATOM     38  N   UNL A   1      45.736  26.139  27.015  1.00  0.00    -0.354 N 
ATOM     39  C   UNL A   1      41.772  27.330  28.261  1.00  0.00     0.074 A 
ATOM     40  C   UNL A   1      40.857  26.209  28.227  1.00  0.00     0.031 C 
ATOM     41  C   UNL A   1      47.277  24.739  26.200  1.00  0.00     0.029 A 
ATOM     42  C   UNL A   1      47.039  26.127  26.584  1.00  0.00     0.049 A 
ATOM     43  H   UNL A   1      45.290  26.945  27.360  1.00  0.00     0.167 HD
ATOM     44  C   UNL A   1      41.429  28.588  28.625  1.00  0.00     0.037 A 
ATOM     45  C   UNL A   1      47.938  27.126  26.499  1.00  0.00     0.037 A 
ATOM     46  C   UNL A   1      42.349  29.691  28.688  1.00  0.00     0.049 A 
ATOM     47  C   UNL A   1      47.547  28.506  26.947  1.00  0.00     0.074 A 
ATOM     48  C   UNL A   1      42.119  30.984  29.122  1.00  0.00     0.029 A 
ATOM     49  N   UNL A   1      43.679  29.628  28.299  1.00  0.00    -0.354 N 
ATOM     50  N   UNL A   1      46.388  28.929  27.389  1.00  0.00    -0.248 NA
ATOM     51  C   UNL A   1      48.585  29.543  26.893  1.00  0.00     0.031 C 
ATOM     52  C   UNL A   1      43.304  31.713  28.969  1.00  0.00     0.029 A 
ATOM     53  C   UNL A   1      44.280  30.865  28.468  1.00  0.00     0.049 A 
ATOM     54  H   UNL A   1      44.130  28.824  27.953  1.00  0.00     0.167 HD
ATOM     55  C   UNL A   1      46.559  30.273  27.684  1.00  0.00     0.074 A 
ATOM     56  C   UNL A   1      47.939  30.596  27.379  1.00  0.00     0.031 C 
ATOM     57  C   UNL A   1      45.656  31.161  28.164  1.00  0.00     0.037 A 
BRANCH  44  58
ATOM     58  C   UNL A   1      39.995  28.827  28.988  1.00  0.00     0.064 A 
ATOM     59  C   UNL A   1      39.051  29.216  28.025  1.00  0.00     0.173 A 
ATOM     60  C   UNL A   1      39.558  28.661  30.310  1.00  0.00     0.173 A 
ATOM     61  F   UNL A   1      39.424  29.402  26.750  1.00  0.00    -0.203 F 
ATOM     62  C   UNL A   1      37.728  29.467  28.381  1.00  0.00     0.198 A 
ATOM     63  C   UNL A   1      38.229  28.888  30.657  1.00  0.00     0.198 A 
ATOM     64  F   UNL A   1      40.421  28.288  31.266  1.00  0.00    -0.203 F 
ATOM     65  F   UNL A   1      36.857  29.892  27.456  1.00  0.00    -0.200 F 
ATOM     66  C   UNL A   1      37.318  29.299  29.695  1.00  0.00     0.200 A 
ATOM     67  F   UNL A   1      37.831  28.718  31.925  1.00  0.00    -0.200 F 
ATOM     68  F   UNL A   1      36.045  29.544  30.037  1.00  0.00    -0.200 F 
ENDBRANCH  44  58
BRANCH  45  69
ATOM     69  C   UNL A   1      49.305  26.843  25.992  1.00  0.00     0.064 A 
ATOM     70  C   UNL A   1      49.628  27.044  24.643  1.00  0.00     0.173 A 
ATOM     71  C   UNL A   1      50.320  26.396  26.848  1.00  0.00     0.173 A 
ATOM     72  F   UNL A   1      48.683  27.455  23.784  1.00  0.00    -0.203 F 
ATOM     73  C   UNL A   1      50.914  26.798  24.167  1.00  0.00     0.198 A 
ATOM     74  C   UNL A   1      51.612  26.171  26.376  1.00  0.00     0.198 A 
ATOM     75  F   UNL A   1      50.063  26.198  28.149  1.00  0.00    -0.203 F 
ATOM     76  F   UNL A   1      51.190  26.973  22.868  1.00  0.00    -0.200 F 
ATOM     77  C   UNL A   1      51.907  26.368  25.035  1.00  0.00     0.200 A 
ATOM     78  F   UNL A   1      52.571  25.769  27.220  1.00  0.00    -0.200 F 
ATOM     79  F   UNL A   1      53.146  26.143  24.579  1.00  0.00    -0.200 F 
ENDBRANCH  45  69
BRANCH  57  80
ATOM     80  C   UNL A   1      46.130  32.561  28.409  1.00  0.00     0.064 A 
ATOM     81  C   UNL A   1      46.021  33.552  27.424  1.00  0.00     0.173 A 
ATOM     82  C   UNL A   1      46.638  32.927  29.665  1.00  0.00     0.173 A 
ATOM     83  F   UNL A   1      45.556  33.242  26.205  1.00  0.00    -0.203 F 
ATOM     84  C   UNL A   1      46.412  34.861  27.685  1.00  0.00     0.198 A 
ATOM     85  C   UNL A   1      47.008  34.242  29.928  1.00  0.00     0.198 A 
ATOM     86  F   UNL A   1      46.759  32.013  30.638  1.00  0.00    -0.203 F 
ATOM     87  F   UNL A   1      46.323  35.789  26.722  1.00  0.00    -0.200 F 
ATOM     88  C   UNL A   1      46.898  35.208  28.938  1.00  0.00     0.200 A 
ATOM     89  F   UNL A   1      47.469  34.577  31.140  1.00  0.00    -0.200 F 
ATOM     90  F   UNL A   1      47.261  36.472  29.190  1.00  0.00    -0.200 F 
ENDBRANCH  57  80
ENDBRANCH  31  32
ENDBRANCH  23  26
ENDBRANCH  21  22
ENDBRANCH  20  21
ENDBRANCH   1  20
TORSDOF 15
ENDMDL
MODEL 3
REMARK VINA RESULT:     -10.7      5.957     11.287
REMARK SMILES CC[C@@H](NC(=O)[C@H](C)C[NH2+]C)C(=O)NCCCNC(=O)c1ccc(-c2c3nc(c(-c4c(F)c(F)c(F)c(F)c4F)c4ccc([nH]4)c(-c4c(F)c(F)c(F)c(F)c4F)c4nc(c(-c5c(F)c(F)c(F)c(F)c5F)c5ccc2[nH]5)C=C4)C=C3)cc1
REMARK SMILES IDX 15 1 14 2 12 3 13 4 3 6 2 7 1 8 4 9 5 10 6 12 7 13 8 14 9 15
REMARK SMILES IDX 10 16 11 17 16 20 17 21 18 22 19 23 20 25 21 26 22 27 83 28
REMARK SMILES IDX 23 29 82 30 24 31 25 32 26 33 76 34 27 35 81 36 75 37 77 38
REMARK SMILES IDX 28 39 80 40 74 41 73 42 29 44 61 45 41 46 60 47 42 48 45 49
REMARK SMILES IDX 59 50 78 51 43 52 44 53 58 55 79 56 46 57 30 58 31 59 39 60
REMARK SMILES IDX 32 61 33 62 37 63 40 64 34 65 35 66 38 67 36 68 62 69 63 70
REMARK SMILES IDX 71 71 64 72 65 73 69 74 72 75 66 76 67 77 70 78 68 79 47 80
REMARK SMILES IDX 48 81 56 82 49 83 50 84 54 85 57 86 51 87 52 88 55 89 53 90
REMARK H PARENT 14 5 4 11 10 18 10 19 18 24 77 43 45 54
REMARK Flexibility Score: inf
ROOT
ATOM      1  C   UNL A   1      37.103  22.483  25.769  1.00  0.00     0.117 C 
ENDROOT
BRANCH   1   2
ATOM      2  N   UNL A   1      36.020  21.846  26.500  1.00  0.00    -0.354 N 
ATOM      3  C   UNL A   1      34.680  22.099  26.432  1.00  0.00     0.242 C 
ATOM      4  O   UNL A   1      33.938  21.453  27.176  1.00  0.00    -0.273 OA
ATOM      5  H   UNL A   1      36.289  21.137  27.129  1.00  0.00     0.163 HD
BRANCH   3   6
ATOM      6  C   UNL A   1      34.149  23.291  25.612  1.00  0.00     0.171 C 
BRANCH   6   7
ATOM      7  C   UNL A   1      33.726  22.686  24.248  1.00  0.00     0.031 C 
ATOM      8  C   UNL A   1      34.407  23.247  23.012  1.00  0.00     0.006 C 
ENDBRANCH   6   7
BRANCH   6   9
ATOM      9  N   UNL A   1      33.077  24.033  26.282  1.00  0.00    -0.344 N 
ATOM     10  C   UNL A   1      32.651  25.319  26.188  1.00  0.00     0.229 C 
ATOM     11  H   UNL A   1      32.565  23.493  26.927  1.00  0.00     0.164 HD
ATOM     12  O   UNL A   1      31.555  25.549  26.715  1.00  0.00    -0.275 OA
BRANCH  10  13
ATOM     13  C   UNL A   1      33.474  26.486  25.634  1.00  0.00     0.130 C 
ATOM     14  C   UNL A   1      33.464  27.768  26.454  1.00  0.00     0.024 C 
BRANCH  13  15
ATOM     15  C   UNL A   1      33.121  26.679  24.148  1.00  0.00     0.273 C 
BRANCH  15  16
ATOM     16  N   UNL A   1      31.786  26.201  23.772  1.00  0.00    -0.348 N 
ATOM     17  C   UNL A   1      31.768  25.790  22.369  1.00  0.00     0.330 C 
ATOM     18  H   UNL A   1      31.109  26.952  23.911  1.00  0.00     0.346 HD
ATOM     19  H   UNL A   1      31.544  25.400  24.355  1.00  0.00     0.346 HD
ENDBRANCH  15  16
ENDBRANCH  13  15
ENDBRANCH  10  13
ENDBRANCH   6   9
ENDBRANCH   3   6
ENDBRANCH   1   2
BRANCH   1  20
ATOM     20  C   UNL A   1      38.103  21.488  25.210  1.00  0.00     0.042 C 
BRANCH  20  21
ATOM     21  C   UNL A   1      39.283  21.213  26.126  1.00  0.00     0.118 C 
BRANCH  21  22
ATOM     22  N   UNL A   1      39.885  19.895  25.975  1.00  0.00    -0.352 N 
ATOM     23  C   UNL A   1      41.222  19.582  26.126  1.00  0.00     0.251 C 
ATOM     24  H   UNL A   1      39.279  19.155  25.741  1.00  0.00     0.163 HD
ATOM     25  O   UNL A   1      41.641  18.446  25.964  1.00  0.00    -0.269 OA
BRANCH  23  26
ATOM     26  C   UNL A   1      42.144  20.692  26.434  1.00  0.00     0.039 A 
ATOM     27  C   UNL A   1      42.668  21.436  25.376  1.00  0.00     0.014 A 
ATOM     28  C   UNL A   1      42.308  21.104  27.759  1.00  0.00     0.014 A 
ATOM     29  C   UNL A   1      43.266  22.666  25.642  1.00  0.00     0.010 A 
ATOM     30  C   UNL A   1      42.841  22.361  28.013  1.00  0.00     0.010 A 
ATOM     31  C   UNL A   1      43.295  23.165  26.955  1.00  0.00    -0.014 A 
BRANCH  31  32
ATOM     32  C   UNL A   1      43.735  24.551  27.241  1.00  0.00     0.031 A 
ATOM     33  C   UNL A   1      42.746  25.569  27.720  1.00  0.00     0.074 A 
ATOM     34  C   UNL A   1      45.002  24.914  26.960  1.00  0.00     0.049 A 
ATOM     35  N   UNL A   1      42.911  26.850  27.925  1.00  0.00    -0.248 NA
ATOM     36  C   UNL A   1      41.378  25.089  27.965  1.00  0.00     0.031 C 
ATOM     37  C   UNL A   1      46.036  24.028  26.418  1.00  0.00     0.029 A 
ATOM     38  N   UNL A   1      45.631  26.129  27.068  1.00  0.00    -0.354 N 
ATOM     39  C   UNL A   1      41.667  27.332  28.303  1.00  0.00     0.074 A 
ATOM     40  C   UNL A   1      40.746  26.216  28.256  1.00  0.00     0.031 C 
ATOM     41  C   UNL A   1      47.170  24.728  26.249  1.00  0.00     0.029 A 
ATOM     42  C   UNL A   1      46.937  26.114  26.643  1.00  0.00     0.049 A 
ATOM     43  H   UNL A   1      45.188  26.935  27.418  1.00  0.00     0.167 HD
ATOM     44  C   UNL A   1      41.330  28.589  28.676  1.00  0.00     0.037 A 
ATOM     45  C   UNL A   1      47.841  27.108  26.571  1.00  0.00     0.037 A 
ATOM     46  C   UNL A   1      42.255  29.686  28.752  1.00  0.00     0.049 A 
ATOM     47  C   UNL A   1      47.455  28.487  27.029  1.00  0.00     0.074 A 
ATOM     48  C   UNL A   1      42.030  30.977  29.197  1.00  0.00     0.029 A 
ATOM     49  N   UNL A   1      43.587  29.619  28.370  1.00  0.00    -0.354 N 
ATOM     50  N   UNL A   1      46.296  28.912  27.469  1.00  0.00    -0.248 NA
ATOM     51  C   UNL A   1      48.499  29.519  26.989  1.00  0.00     0.031 C 
ATOM     52  C   UNL A   1      43.220  31.700  29.056  1.00  0.00     0.029 A 
ATOM     53  C   UNL A   1      44.193  30.851  28.552  1.00  0.00     0.049 A 
ATOM     54  H   UNL A   1      44.035  28.815  28.020  1.00  0.00     0.167 HD
ATOM     55  C   UNL A   1      46.474  30.254  27.775  1.00  0.00     0.074 A 
ATOM     56  C   UNL A   1      47.857  30.571  27.480  1.00  0.00     0.031 C 
ATOM     57  C   UNL A   1      45.573  31.143  28.258  1.00  0.00     0.037 A 
BRANCH  44  58
ATOM     58  C   UNL A   1      39.895  28.832  29.033  1.00  0.00     0.064 A 
ATOM     59  C   UNL A   1      39.431  28.674  30.349  1.00  0.00     0.173 A 
ATOM     60  C   UNL A   1      38.974  29.230  28.054  1.00  0.00     0.173 A 
ATOM     61  F   UNL A   1      40.271  28.280  31.318  1.00  0.00    -0.203 F 
ATOM     62  C   UNL A   1      38.089  28.871  30.662  1.00  0.00     0.198 A 
ATOM     63  C   UNL A   1      37.638  29.451  28.376  1.00  0.00     0.198 A 
ATOM     64  F   UNL A   1      39.368  29.397  26.783  1.00  0.00    -0.203 F 
ATOM     65  F   UNL A   1      37.657  28.660  31.914  1.00  0.00    -0.200 F 
ATOM     66  C   UNL A   1      37.195  29.263  29.677  1.00  0.00     0.200 A 
ATOM     67  F   UNL A   1      36.776  29.837  27.426  1.00  0.00    -0.200 F 
ATOM     68  F   UNL A   1      35.903  29.449  29.979  1.00  0.00    -0.200 F 
ENDBRANCH  44  58
BRANCH  45  69
ATOM     69  C   UNL A   1      49.209  26.822  26.069  1.00  0.00     0.064 A 
ATOM     70  C   UNL A   1      50.201  26.327  26.927  1.00  0.00     0.173 A 
ATOM     71  C   UNL A   1      49.544  27.011  24.722  1.00  0.00     0.173 A 
ATOM     72  F   UNL A   1      49.930  26.146  28.228  1.00  0.00    -0.203 F 
ATOM     73  C   UNL A   1      51.480  26.039  26.457  1.00  0.00     0.198 A 
ATOM     74  C   UNL A   1      50.818  26.703  24.247  1.00  0.00     0.198 A 
ATOM     75  F   UNL A   1      48.627  27.475  23.860  1.00  0.00    -0.203 F 
ATOM     76  F   UNL A   1      52.418  25.590  27.302  1.00  0.00    -0.200 F 
ATOM     77  C   UNL A   1      51.786  26.221  25.116  1.00  0.00     0.200 A 
ATOM     78  F   UNL A   1      51.106  26.867  22.949  1.00  0.00    -0.200 F 
ATOM     79  F   UNL A   1      53.013  25.934  24.662  1.00  0.00    -0.200 F 
ENDBRANCH  45  69
BRANCH  57  80
ATOM     80  C   UNL A   1      46.053  32.537  28.518  1.00  0.00     0.064 A 
ATOM     81  C   UNL A   1      46.630  32.894  29.744  1.00  0.00     0.173 A 
ATOM     82  C   UNL A   1      45.993  33.507  27.506  1.00  0.00     0.173 A 
ATOM     83  F   UNL A   1      46.693  32.003  30.744  1.00  0.00    -0.203 F 
ATOM     84  C   UNL A   1      47.125  34.178  29.952  1.00  0.00     0.198 A 
ATOM     85  C   UNL A   1      46.508  34.784  27.710  1.00  0.00     0.198 A 
ATOM     86  F   UNL A   1      45.451  33.210  26.316  1.00  0.00    -0.203 F 
ATOM     87  F   UNL A   1      47.650  34.507  31.140  1.00  0.00    -0.200 F 
ATOM     88  C   UNL A   1      47.071  35.119  28.933  1.00  0.00     0.200 A 
ATOM     89  F   UNL A   1      46.463  35.689  26.724  1.00  0.00    -0.200 F 
ATOM     90  F   UNL A   1      47.560  36.351  29.131  1.00  0.00    -0.200 F 
ENDBRANCH  57  80
ENDBRANCH  31  32
ENDBRANCH  23  26
ENDBRANCH  21  22
ENDBRANCH  20  21
ENDBRANCH   1  20
TORSDOF 15
ENDMDL
