MODEL 1
REMARK VINA RESULT:     -11.8      0.000      0.000
REMARK SMILES Cc1nc(Nc2ccc(F)cc2)nc(OCC(=O)NCCCNC(=O)c2ccc(-c3c4nc(c(-c5c(F)c(F)c(F)c(F)c5F)c5ccc([nH]5)c(-c5c(F)c(F)c(F)c(F)c5F)c5nc(c(-c6c(F)c(F)c(F)c(F)c6F)c6ccc3[nH]6)C=C5)C=C4)cc2)c1CCO
REMARK SMILES IDX 17 1 18 2 19 3 16 5 15 6 14 7 1 8 2 9 3 10 89 11 4 12 13 13
REMARK SMILES IDX 90 14 91 15 92 16 5 18 6 20 7 21 12 22 8 23 11 24 9 25 10 26
REMARK SMILES IDX 20 27 21 28 22 29 23 30 24 31 25 33 26 34 27 35 88 36 28 37
REMARK SMILES IDX 87 38 29 39 30 40 31 41 81 42 32 43 86 44 80 45 82 46 33 47
REMARK SMILES IDX 85 48 79 49 78 50 34 52 66 53 46 54 65 55 47 56 50 57 64 58
REMARK SMILES IDX 83 59 48 60 49 61 63 63 84 64 51 65 35 66 36 67 44 68 37 69
REMARK SMILES IDX 38 70 42 71 45 72 39 73 40 74 43 75 41 76 67 77 68 78 76 79
REMARK SMILES IDX 69 80 70 81 74 82 77 83 71 84 72 85 75 86 73 87 52 88 53 89
REMARK SMILES IDX 61 90 54 91 55 92 59 93 62 94 56 95 57 96 60 97 58 98
REMARK H PARENT 19 4 92 17 5 19 23 32 82 51 50 62
REMARK Flexibility Score: inf
ROOT
ATOM      1  C   UNL A   1      32.871  29.020  26.908  1.00  0.00     0.258 C 
ATOM      2  O   UNL A   1      34.038  28.703  27.148  1.00  0.00    -0.271 OA
ATOM      3  N   UNL A   1      32.656  30.244  26.363  1.00  0.00    -0.353 N 
ATOM      4  H   UNL A   1      33.462  30.784  26.199  1.00  0.00     0.163 HD
ENDROOT
BRANCH   1   5
ATOM      5  C   UNL A   1      31.692  28.063  27.134  1.00  0.00     0.331 C 
BRANCH   5   6
ATOM      6  O   UNL A   1      31.505  26.928  26.316  1.00  0.00    -0.467 OA
BRANCH   6   7
ATOM      7  C   UNL A   1      31.408  26.967  24.963  1.00  0.00     0.222 A 
ATOM      8  C   UNL A   1      32.753  26.378  21.490  1.00  0.00     0.067 C 
ATOM      9  C   UNL A   1      31.924  26.714  22.695  1.00  0.00     0.050 A 
ATOM     10  N   UNL A   1      30.694  27.145  22.368  1.00  0.00    -0.218 NA
ATOM     11  C   UNL A   1      32.385  26.685  24.012  1.00  0.00     0.038 A 
ATOM     12  C   UNL A   1      29.886  27.583  23.330  1.00  0.00     0.230 A 
ATOM     13  N   UNL A   1      30.192  27.463  24.623  1.00  0.00    -0.177 NA
BRANCH  11  14
ATOM     14  C   UNL A   1      33.849  26.480  24.298  1.00  0.00     0.071 C 
BRANCH  14  15
ATOM     15  C   UNL A   1      34.213  25.094  24.845  1.00  0.00     0.161 C 
BRANCH  15  16
ATOM     16  O   UNL A   1      33.676  24.829  26.132  1.00  0.00    -0.396 OA
ATOM     17  H   UNL A   1      32.870  25.355  26.260  1.00  0.00     0.210 HD
ENDBRANCH  15  16
ENDBRANCH  14  15
ENDBRANCH  11  14
BRANCH  12  18
ATOM     18  N   UNL A   1      28.747  28.310  22.976  1.00  0.00    -0.324 N 
ATOM     19  H   UNL A   1      27.897  27.813  22.960  1.00  0.00     0.170 HD
BRANCH  18  20
ATOM     20  C   UNL A   1      28.682  29.671  22.642  1.00  0.00     0.041 A 
ATOM     21  C   UNL A   1      28.596  30.657  23.639  1.00  0.00     0.029 A 
ATOM     22  C   UNL A   1      28.553  30.069  21.303  1.00  0.00     0.029 A 
ATOM     23  C   UNL A   1      28.396  32.000  23.315  1.00  0.00     0.041 A 
ATOM     24  C   UNL A   1      28.333  31.413  20.976  1.00  0.00     0.041 A 
ATOM     25  C   UNL A   1      28.256  32.365  21.985  1.00  0.00     0.123 A 
ATOM     26  F   UNL A   1      28.028  33.647  21.672  1.00  0.00    -0.207 F 
ENDBRANCH  18  20
ENDBRANCH  12  18
ENDBRANCH   6   7
ENDBRANCH   5   6
ENDBRANCH   1   5
BRANCH   3  27
ATOM     27  C   UNL A   1      31.402  30.861  25.988  1.00  0.00     0.117 C 
BRANCH  27  28
ATOM     28  C   UNL A   1      31.308  32.293  26.493  1.00  0.00     0.042 C 
BRANCH  28  29
ATOM     29  C   UNL A   1      32.566  32.786  27.201  1.00  0.00     0.118 C 
BRANCH  29  30
ATOM     30  N   UNL A   1      32.455  34.165  27.668  1.00  0.00    -0.352 N 
ATOM     31  C   UNL A   1      33.113  34.821  28.672  1.00  0.00     0.251 C 
ATOM     32  H   UNL A   1      31.798  34.713  27.179  1.00  0.00     0.163 HD
ATOM     33  O   UNL A   1      32.723  35.932  29.033  1.00  0.00    -0.269 OA
BRANCH  31  34
ATOM     34  C   UNL A   1      34.272  34.200  29.337  1.00  0.00     0.039 A 
ATOM     35  C   UNL A   1      34.049  33.277  30.362  1.00  0.00     0.014 A 
ATOM     36  C   UNL A   1      35.577  34.536  28.967  1.00  0.00     0.014 A 
ATOM     37  C   UNL A   1      35.134  32.647  30.970  1.00  0.00     0.010 A 
ATOM     38  C   UNL A   1      36.651  33.837  29.505  1.00  0.00     0.010 A 
ATOM     39  C   UNL A   1      36.442  32.893  30.520  1.00  0.00    -0.014 A 
BRANCH  39  40
ATOM     40  C   UNL A   1      37.600  32.177  31.108  1.00  0.00     0.031 A 
ATOM     41  C   UNL A   1      38.076  32.515  32.493  1.00  0.00     0.074 A 
ATOM     42  C   UNL A   1      38.248  31.253  30.374  1.00  0.00     0.049 A 
ATOM     43  N   UNL A   1      39.085  32.018  33.164  1.00  0.00    -0.248 NA
ATOM     44  C   UNL A   1      37.340  33.567  33.213  1.00  0.00     0.031 C 
ATOM     45  C   UNL A   1      37.911  30.879  28.999  1.00  0.00     0.029 A 
ATOM     46  N   UNL A   1      39.325  30.459  30.679  1.00  0.00    -0.354 N 
ATOM     47  C   UNL A   1      39.106  32.702  34.372  1.00  0.00     0.074 A 
ATOM     48  C   UNL A   1      38.053  33.691  34.321  1.00  0.00     0.031 C 
ATOM     49  C   UNL A   1      38.735  29.901  28.595  1.00  0.00     0.029 A 
ATOM     50  C   UNL A   1      39.685  29.607  29.664  1.00  0.00     0.049 A 
ATOM     51  H   UNL A   1      39.794  30.496  31.544  1.00  0.00     0.167 HD
ATOM     52  C   UNL A   1      39.914  32.499  35.439  1.00  0.00     0.037 A 
ATOM     53  C   UNL A   1      40.669  28.689  29.603  1.00  0.00     0.037 A 
ATOM     54  C   UNL A   1      40.943  31.495  35.493  1.00  0.00     0.049 A 
ATOM     55  C   UNL A   1      41.552  28.483  30.803  1.00  0.00     0.074 A 
ATOM     56  C   UNL A   1      41.782  31.178  36.546  1.00  0.00     0.029 A 
ATOM     57  N   UNL A   1      41.273  30.645  34.447  1.00  0.00    -0.354 N 
ATOM     58  N   UNL A   1      41.526  29.093  31.961  1.00  0.00    -0.248 NA
ATOM     59  C   UNL A   1      42.595  27.453  30.690  1.00  0.00     0.031 C 
ATOM     60  C   UNL A   1      42.655  30.173  36.120  1.00  0.00     0.029 A 
ATOM     61  C   UNL A   1      42.317  29.816  34.824  1.00  0.00     0.049 A 
ATOM     62  H   UNL A   1      40.831  30.633  33.566  1.00  0.00     0.167 HD
ATOM     63  C   UNL A   1      42.525  28.507  32.726  1.00  0.00     0.074 A 
ATOM     64  C   UNL A   1      43.131  27.480  31.903  1.00  0.00     0.031 C 
ATOM     65  C   UNL A   1      42.904  28.791  33.997  1.00  0.00     0.037 A 
BRANCH  52  66
ATOM     66  C   UNL A   1      39.709  33.366  36.648  1.00  0.00     0.064 A 
ATOM     67  C   UNL A   1      38.790  32.997  37.644  1.00  0.00     0.173 A 
ATOM     68  C   UNL A   1      40.370  34.596  36.791  1.00  0.00     0.173 A 
ATOM     69  F   UNL A   1      38.128  31.834  37.556  1.00  0.00    -0.203 F 
ATOM     70  C   UNL A   1      38.532  33.833  38.726  1.00  0.00     0.198 A 
ATOM     71  C   UNL A   1      40.133  35.414  37.893  1.00  0.00     0.198 A 
ATOM     72  F   UNL A   1      41.267  34.990  35.875  1.00  0.00    -0.203 F 
ATOM     73  F   UNL A   1      37.625  33.475  39.646  1.00  0.00    -0.200 F 
ATOM     74  C   UNL A   1      39.207  35.038  38.852  1.00  0.00     0.200 A 
ATOM     75  F   UNL A   1      40.806  36.565  38.026  1.00  0.00    -0.200 F 
ATOM     76  F   UNL A   1      38.965  35.836  39.901  1.00  0.00    -0.200 F 
ENDBRANCH  52  66
BRANCH  53  77
ATOM     77  C   UNL A   1      40.827  27.865  28.376  1.00  0.00     0.064 A 
ATOM     78  C   UNL A   1      40.200  26.616  28.249  1.00  0.00     0.173 A 
ATOM     79  C   UNL A   1      41.642  28.296  27.320  1.00  0.00     0.173 A 
ATOM     80  F   UNL A   1      39.415  26.154  29.233  1.00  0.00    -0.203 F 
ATOM     81  C   UNL A   1      40.403  25.820  27.122  1.00  0.00     0.198 A 
ATOM     82  C   UNL A   1      41.821  27.511  26.183  1.00  0.00     0.198 A 
ATOM     83  F   UNL A   1      42.248  29.490  27.388  1.00  0.00    -0.203 F 
ATOM     84  F   UNL A   1      39.825  24.614  27.044  1.00  0.00    -0.200 F 
ATOM     85  C   UNL A   1      41.209  26.271  26.088  1.00  0.00     0.200 A 
ATOM     86  F   UNL A   1      42.582  27.961  25.176  1.00  0.00    -0.200 F 
ATOM     87  F   UNL A   1      41.396  25.510  25.001  1.00  0.00    -0.200 F 
ENDBRANCH  53  77
BRANCH  65  88
ATOM     88  C   UNL A   1      44.002  27.964  34.599  1.00  0.00     0.064 A 
ATOM     89  C   UNL A   1      43.698  26.771  35.274  1.00  0.00     0.173 A 
ATOM     90  C   UNL A   1      45.339  28.384  34.577  1.00  0.00     0.173 A 
ATOM     91  F   UNL A   1      42.432  26.330  35.334  1.00  0.00    -0.203 F 
ATOM     92  C   UNL A   1      44.691  26.037  35.915  1.00  0.00     0.198 A 
ATOM     93  C   UNL A   1      46.336  27.629  35.191  1.00  0.00     0.198 A 
ATOM     94  F   UNL A   1      45.683  29.511  33.937  1.00  0.00    -0.203 F 
ATOM     95  F   UNL A   1      44.371  24.922  36.586  1.00  0.00    -0.200 F 
ATOM     96  C   UNL A   1      46.009  26.462  35.868  1.00  0.00     0.200 A 
ATOM     97  F   UNL A   1      47.613  28.028  35.123  1.00  0.00    -0.200 F 
ATOM     98  F   UNL A   1      46.968  25.749  36.475  1.00  0.00    -0.200 F 
ENDBRANCH  65  88
ENDBRANCH  39  40
ENDBRANCH  31  34
ENDBRANCH  29  30
ENDBRANCH  28  29
ENDBRANCH  27  28
ENDBRANCH   3  27
TORSDOF 17
ENDMDL
MODEL 2
REMARK VINA RESULT:     -11.7      3.131      5.292
REMARK SMILES Cc1nc(Nc2ccc(F)cc2)nc(OCC(=O)NCCCNC(=O)c2ccc(-c3c4nc(c(-c5c(F)c(F)c(F)c(F)c5F)c5ccc([nH]5)c(-c5c(F)c(F)c(F)c(F)c5F)c5nc(c(-c6c(F)c(F)c(F)c(F)c6F)c6ccc3[nH]6)C=C5)C=C4)cc2)c1CCO
REMARK SMILES IDX 17 1 18 2 19 3 16 5 15 6 14 7 1 8 2 9 3 10 89 11 4 12 13 13
REMARK SMILES IDX 90 14 91 15 92 16 5 18 6 20 7 21 12 22 8 23 11 24 9 25 10 26
REMARK SMILES IDX 20 27 21 28 22 29 23 30 24 31 25 33 26 34 27 35 88 36 28 37
REMARK SMILES IDX 87 38 29 39 30 40 31 41 81 42 32 43 86 44 80 45 82 46 33 47
REMARK SMILES IDX 85 48 79 49 78 50 34 52 66 53 46 54 65 55 47 56 50 57 64 58
REMARK SMILES IDX 83 59 48 60 49 61 63 63 84 64 51 65 35 66 36 67 44 68 37 69
REMARK SMILES IDX 38 70 42 71 45 72 39 73 40 74 43 75 41 76 67 77 68 78 76 79
REMARK SMILES IDX 69 80 70 81 74 82 77 83 71 84 72 85 75 86 73 87 52 88 53 89
REMARK SMILES IDX 61 90 54 91 55 92 59 93 62 94 56 95 57 96 60 97 58 98
REMARK H PARENT 19 4 92 17 5 19 23 32 82 51 50 62
REMARK Flexibility Score: inf
ROOT
ATOM      1  C   UNL A   1      30.183  25.740  25.855  1.00  0.00     0.258 C 
ATOM      2  O   UNL A   1      29.716  24.871  26.595  1.00  0.00    -0.271 OA
ATOM      3  N   UNL A   1      30.960  26.695  26.427  1.00  0.00    -0.353 N 
ATOM      4  H   UNL A   1      31.090  26.612  27.399  1.00  0.00     0.163 HD
ENDROOT
BRANCH   1   5
ATOM      5  C   UNL A   1      29.978  25.728  24.334  1.00  0.00     0.331 C 
BRANCH   5   6
ATOM      6  O   UNL A   1      30.502  24.691  23.534  1.00  0.00    -0.467 OA
BRANCH   6   7
ATOM      7  C   UNL A   1      31.682  24.062  23.770  1.00  0.00     0.222 A 
ATOM      8  C   UNL A   1      35.449  23.924  23.835  1.00  0.00     0.067 C 
ATOM      9  C   UNL A   1      33.978  23.654  23.954  1.00  0.00     0.050 A 
ATOM     10  N   UNL A   1      33.719  22.451  24.495  1.00  0.00    -0.218 NA
ATOM     11  C   UNL A   1      32.972  24.495  23.476  1.00  0.00     0.038 A 
ATOM     12  C   UNL A   1      32.459  22.030  24.562  1.00  0.00     0.230 A 
ATOM     13  N   UNL A   1      31.429  22.822  24.256  1.00  0.00    -0.177 NA
BRANCH  11  14
ATOM     14  C   UNL A   1      33.322  25.684  22.620  1.00  0.00     0.071 C 
BRANCH  14  15
ATOM     15  C   UNL A   1      32.614  25.732  21.261  1.00  0.00     0.161 C 
BRANCH  15  16
ATOM     16  O   UNL A   1      32.902  24.619  20.428  1.00  0.00    -0.396 OA
ATOM     17  H   UNL A   1      32.093  24.101  20.290  1.00  0.00     0.210 HD
ENDBRANCH  15  16
ENDBRANCH  14  15
ENDBRANCH  11  14
BRANCH  12  18
ATOM     18  N   UNL A   1      32.211  20.681  24.828  1.00  0.00    -0.324 N 
ATOM     19  H   UNL A   1      31.530  20.488  25.513  1.00  0.00     0.170 HD
BRANCH  18  20
ATOM     20  C   UNL A   1      32.825  19.573  24.227  1.00  0.00     0.041 A 
ATOM     21  C   UNL A   1      32.202  18.884  23.173  1.00  0.00     0.029 A 
ATOM     22  C   UNL A   1      34.007  19.039  24.761  1.00  0.00     0.029 A 
ATOM     23  C   UNL A   1      32.741  17.703  22.659  1.00  0.00     0.041 A 
ATOM     24  C   UNL A   1      34.540  17.844  24.261  1.00  0.00     0.041 A 
ATOM     25  C   UNL A   1      33.902  17.188  23.217  1.00  0.00     0.123 A 
ATOM     26  F   UNL A   1      34.403  16.036  22.751  1.00  0.00    -0.207 F 
ENDBRANCH  18  20
ENDBRANCH  12  18
ENDBRANCH   6   7
ENDBRANCH   5   6
ENDBRANCH   1   5
BRANCH   3  27
ATOM     27  C   UNL A   1      31.624  27.817  25.802  1.00  0.00     0.117 C 
BRANCH  27  28
ATOM     28  C   UNL A   1      33.123  27.591  25.686  1.00  0.00     0.042 C 
BRANCH  28  29
ATOM     29  C   UNL A   1      33.907  28.830  25.262  1.00  0.00     0.118 C 
BRANCH  29  30
ATOM     30  N   UNL A   1      33.294  30.075  25.712  1.00  0.00    -0.352 N 
ATOM     31  C   UNL A   1      33.549  30.846  26.813  1.00  0.00     0.251 C 
ATOM     32  H   UNL A   1      32.578  30.416  25.127  1.00  0.00     0.163 HD
ATOM     33  O   UNL A   1      32.776  31.756  27.114  1.00  0.00    -0.269 OA
BRANCH  31  34
ATOM     34  C   UNL A   1      34.731  30.583  27.653  1.00  0.00     0.039 A 
ATOM     35  C   UNL A   1      34.762  29.424  28.432  1.00  0.00     0.014 A 
ATOM     36  C   UNL A   1      35.801  31.482  27.689  1.00  0.00     0.014 A 
ATOM     37  C   UNL A   1      35.893  29.137  29.196  1.00  0.00     0.010 A 
ATOM     38  C   UNL A   1      36.964  31.148  28.373  1.00  0.00     0.010 A 
ATOM     39  C   UNL A   1      37.017  29.978  29.143  1.00  0.00    -0.014 A 
BRANCH  39  40
ATOM     40  C   UNL A   1      38.254  29.649  29.895  1.00  0.00     0.031 A 
ATOM     41  C   UNL A   1      38.491  30.237  31.258  1.00  0.00     0.074 A 
ATOM     42  C   UNL A   1      39.181  28.855  29.327  1.00  0.00     0.049 A 
ATOM     43  N   UNL A   1      39.519  30.088  32.053  1.00  0.00    -0.248 NA
ATOM     44  C   UNL A   1      37.448  31.130  31.789  1.00  0.00     0.031 C 
ATOM     45  C   UNL A   1      39.085  28.269  27.988  1.00  0.00     0.029 A 
ATOM     46  N   UNL A   1      40.386  28.402  29.802  1.00  0.00    -0.354 N 
ATOM     47  C   UNL A   1      39.250  30.873  33.167  1.00  0.00     0.074 A 
ATOM     48  C   UNL A   1      37.994  31.545  32.921  1.00  0.00     0.031 C 
ATOM     49  C   UNL A   1      40.164  27.503  27.766  1.00  0.00     0.029 A 
ATOM     50  C   UNL A   1      41.046  27.574  28.927  1.00  0.00     0.049 A 
ATOM     51  H   UNL A   1      40.743  28.646  30.686  1.00  0.00     0.167 HD
ATOM     52  C   UNL A   1      39.973  30.994  34.305  1.00  0.00     0.037 A 
ATOM     53  C   UNL A   1      42.228  26.941  29.048  1.00  0.00     0.037 A 
ATOM     54  C   UNL A   1      41.209  30.302  34.553  1.00  0.00     0.049 A 
ATOM     55  C   UNL A   1      43.012  27.093  30.323  1.00  0.00     0.074 A 
ATOM     56  C   UNL A   1      41.992  30.321  35.693  1.00  0.00     0.029 A 
ATOM     57  N   UNL A   1      41.843  29.465  33.645  1.00  0.00    -0.354 N 
ATOM     58  N   UNL A   1      42.720  27.790  31.393  1.00  0.00    -0.248 NA
ATOM     59  C   UNL A   1      44.284  26.362  30.412  1.00  0.00     0.031 C 
ATOM     60  C   UNL A   1      43.126  29.538  35.456  1.00  0.00     0.029 A 
ATOM     61  C   UNL A   1      43.018  28.978  34.194  1.00  0.00     0.049 A 
ATOM     62  H   UNL A   1      41.507  29.250  32.744  1.00  0.00     0.167 HD
ATOM     63  C   UNL A   1      43.753  27.562  32.293  1.00  0.00     0.074 A 
ATOM     64  C   UNL A   1      44.673  26.649  31.646  1.00  0.00     0.031 C 
ATOM     65  C   UNL A   1      43.920  28.061  33.542  1.00  0.00     0.037 A 
BRANCH  52  66
ATOM     66  C   UNL A   1      39.439  31.896  35.381  1.00  0.00     0.064 A 
ATOM     67  C   UNL A   1      39.845  33.238  35.453  1.00  0.00     0.173 A 
ATOM     68  C   UNL A   1      38.580  31.417  36.382  1.00  0.00     0.173 A 
ATOM     69  F   UNL A   1      40.668  33.747  34.525  1.00  0.00    -0.203 F 
ATOM     70  C   UNL A   1      39.421  34.060  36.494  1.00  0.00     0.198 A 
ATOM     71  C   UNL A   1      38.132  32.252  37.403  1.00  0.00     0.198 A 
ATOM     72  F   UNL A   1      38.152  30.146  36.353  1.00  0.00    -0.203 F 
ATOM     73  F   UNL A   1      39.850  35.328  36.561  1.00  0.00    -0.200 F 
ATOM     74  C   UNL A   1      38.563  33.568  37.465  1.00  0.00     0.200 A 
ATOM     75  F   UNL A   1      37.281  31.781  38.325  1.00  0.00    -0.200 F 
ATOM     76  F   UNL A   1      38.147  34.364  38.460  1.00  0.00    -0.200 F 
ENDBRANCH  52  66
BRANCH  53  77
ATOM     77  C   UNL A   1      42.707  26.067  27.946  1.00  0.00     0.064 A 
ATOM     78  C   UNL A   1      43.592  26.543  26.966  1.00  0.00     0.173 A 
ATOM     79  C   UNL A   1      42.257  24.744  27.830  1.00  0.00     0.173 A 
ATOM     80  F   UNL A   1      44.047  27.803  27.027  1.00  0.00    -0.203 F 
ATOM     81  C   UNL A   1      43.988  25.736  25.901  1.00  0.00     0.198 A 
ATOM     82  C   UNL A   1      42.676  23.930  26.779  1.00  0.00     0.198 A 
ATOM     83  F   UNL A   1      41.425  24.238  28.752  1.00  0.00    -0.203 F 
ATOM     84  F   UNL A   1      44.801  26.229  24.956  1.00  0.00    -0.200 F 
ATOM     85  C   UNL A   1      43.534  24.430  25.811  1.00  0.00     0.200 A 
ATOM     86  F   UNL A   1      42.253  22.661  26.709  1.00  0.00    -0.200 F 
ATOM     87  F   UNL A   1      43.922  23.651  24.791  1.00  0.00    -0.200 F 
ENDBRANCH  53  77
BRANCH  65  88
ATOM     88  C   UNL A   1      45.125  27.612  34.317  1.00  0.00     0.064 A 
ATOM     89  C   UNL A   1      45.047  26.486  35.152  1.00  0.00     0.173 A 
ATOM     90  C   UNL A   1      46.327  28.332  34.295  1.00  0.00     0.173 A 
ATOM     91  F   UNL A   1      43.916  25.767  35.217  1.00  0.00    -0.203 F 
ATOM     92  C   UNL A   1      46.125  26.106  35.946  1.00  0.00     0.198 A 
ATOM     93  C   UNL A   1      47.416  27.929  35.066  1.00  0.00     0.198 A 
ATOM     94  F   UNL A   1      46.456  29.410  33.507  1.00  0.00    -0.203 F 
ATOM     95  F   UNL A   1      46.014  25.050  36.763  1.00  0.00    -0.200 F 
ATOM     96  C   UNL A   1      47.310  26.823  35.898  1.00  0.00     0.200 A 
ATOM     97  F   UNL A   1      48.569  28.609  35.000  1.00  0.00    -0.200 F 
ATOM     98  F   UNL A   1      48.352  26.450  36.652  1.00  0.00    -0.200 F 
ENDBRANCH  65  88
ENDBRANCH  39  40
ENDBRANCH  31  34
ENDBRANCH  29  30
ENDBRANCH  28  29
ENDBRANCH  27  28
ENDBRANCH   3  27
TORSDOF 17
ENDMDL
MODEL 3
REMARK VINA RESULT:     -11.7      3.658      5.990
REMARK SMILES Cc1nc(Nc2ccc(F)cc2)nc(OCC(=O)NCCCNC(=O)c2ccc(-c3c4nc(c(-c5c(F)c(F)c(F)c(F)c5F)c5ccc([nH]5)c(-c5c(F)c(F)c(F)c(F)c5F)c5nc(c(-c6c(F)c(F)c(F)c(F)c6F)c6ccc3[nH]6)C=C5)C=C4)cc2)c1CCO
REMARK SMILES IDX 17 1 18 2 19 3 16 5 15 6 14 7 1 8 2 9 3 10 89 11 4 12 13 13
REMARK SMILES IDX 90 14 91 15 92 16 5 18 6 20 7 21 12 22 8 23 11 24 9 25 10 26
REMARK SMILES IDX 20 27 21 28 22 29 23 30 24 31 25 33 26 34 27 35 88 36 28 37
REMARK SMILES IDX 87 38 29 39 30 40 31 41 81 42 32 43 86 44 80 45 82 46 33 47
REMARK SMILES IDX 85 48 79 49 78 50 34 52 66 53 46 54 65 55 47 56 50 57 64 58
REMARK SMILES IDX 83 59 48 60 49 61 63 63 84 64 51 65 35 66 36 67 44 68 37 69
REMARK SMILES IDX 38 70 42 71 45 72 39 73 40 74 43 75 41 76 67 77 68 78 76 79
REMARK SMILES IDX 69 80 70 81 74 82 77 83 71 84 72 85 75 86 73 87 52 88 53 89
REMARK SMILES IDX 61 90 54 91 55 92 59 93 62 94 56 95 57 96 60 97 58 98
REMARK H PARENT 19 4 92 17 5 19 23 32 82 51 50 62
REMARK Flexibility Score: inf
ROOT
ATOM      1  C   UNL A   1      30.071  25.798  26.027  1.00  0.00     0.258 C 
ATOM      2  O   UNL A   1      29.495  24.984  26.750  1.00  0.00    -0.271 OA
ATOM      3  N   UNL A   1      30.920  26.673  26.624  1.00  0.00    -0.353 N 
ATOM      4  H   UNL A   1      31.010  26.581  27.600  1.00  0.00     0.163 HD
ENDROOT
BRANCH   1   5
ATOM      5  C   UNL A   1      29.916  25.802  24.500  1.00  0.00     0.331 C 
BRANCH   5   6
ATOM      6  O   UNL A   1      30.522  24.810  23.700  1.00  0.00    -0.467 OA
BRANCH   6   7
ATOM      7  C   UNL A   1      31.683  24.180  24.012  1.00  0.00     0.222 A 
ATOM      8  C   UNL A   1      35.434  24.056  24.375  1.00  0.00     0.067 C 
ATOM      9  C   UNL A   1      33.960  23.776  24.367  1.00  0.00     0.050 A 
ATOM     10  N   UNL A   1      33.667  22.557  24.850  1.00  0.00    -0.218 NA
ATOM     11  C   UNL A   1      32.991  24.627  23.835  1.00  0.00     0.038 A 
ATOM     12  C   UNL A   1      32.409  22.129  24.803  1.00  0.00     0.230 A 
ATOM     13  N   UNL A   1      31.401  22.924  24.439  1.00  0.00    -0.177 NA
BRANCH  11  14
ATOM     14  C   UNL A   1      33.399  25.842  23.046  1.00  0.00     0.071 C 
BRANCH  14  15
ATOM     15  C   UNL A   1      32.904  25.867  21.595  1.00  0.00     0.161 C 
BRANCH  15  16
ATOM     16  O   UNL A   1      31.700  26.598  21.415  1.00  0.00    -0.396 OA
ATOM     17  H   UNL A   1      31.026  26.265  22.029  1.00  0.00     0.210 HD
ENDBRANCH  15  16
ENDBRANCH  14  15
ENDBRANCH  11  14
BRANCH  12  18
ATOM     18  N   UNL A   1      32.149  20.771  25.009  1.00  0.00    -0.324 N 
ATOM     19  H   UNL A   1      31.460  20.553  25.678  1.00  0.00     0.170 HD
BRANCH  18  20
ATOM     20  C   UNL A   1      32.763  19.685  24.366  1.00  0.00     0.041 A 
ATOM     21  C   UNL A   1      32.153  19.057  23.267  1.00  0.00     0.029 A 
ATOM     22  C   UNL A   1      33.926  19.110  24.898  1.00  0.00     0.029 A 
ATOM     23  C   UNL A   1      32.689  17.896  22.707  1.00  0.00     0.041 A 
ATOM     24  C   UNL A   1      34.455  17.934  24.351  1.00  0.00     0.041 A 
ATOM     25  C   UNL A   1      33.831  17.339  23.262  1.00  0.00     0.123 A 
ATOM     26  F   UNL A   1      34.327  16.205  22.751  1.00  0.00    -0.207 F 
ENDBRANCH  18  20
ENDBRANCH  12  18
ENDBRANCH   6   7
ENDBRANCH   5   6
ENDBRANCH   1   5
BRANCH   3  27
ATOM     27  C   UNL A   1      31.714  27.721  26.020  1.00  0.00     0.117 C 
BRANCH  27  28
ATOM     28  C   UNL A   1      33.159  27.674  26.491  1.00  0.00     0.042 C 
BRANCH  28  29
ATOM     29  C   UNL A   1      34.041  28.769  25.898  1.00  0.00     0.118 C 
BRANCH  29  30
ATOM     30  N   UNL A   1      33.832  30.071  26.523  1.00  0.00    -0.352 N 
ATOM     31  C   UNL A   1      34.501  30.687  27.545  1.00  0.00     0.251 C 
ATOM     32  H   UNL A   1      33.085  30.592  26.147  1.00  0.00     0.163 HD
ATOM     33  O   UNL A   1      34.033  31.705  28.055  1.00  0.00    -0.269 OA
BRANCH  31  34
ATOM     34  C   UNL A   1      35.768  30.129  28.052  1.00  0.00     0.039 A 
ATOM     35  C   UNL A   1      36.908  30.204  27.248  1.00  0.00     0.014 A 
ATOM     36  C   UNL A   1      35.832  29.517  29.307  1.00  0.00     0.014 A 
ATOM     37  C   UNL A   1      38.124  29.721  27.731  1.00  0.00     0.010 A 
ATOM     38  C   UNL A   1      37.061  29.127  29.825  1.00  0.00     0.010 A 
ATOM     39  C   UNL A   1      38.218  29.214  29.038  1.00  0.00    -0.014 A 
BRANCH  39  40
ATOM     40  C   UNL A   1      39.519  28.764  29.591  1.00  0.00     0.031 A 
ATOM     41  C   UNL A   1      40.161  29.516  30.723  1.00  0.00     0.074 A 
ATOM     42  C   UNL A   1      40.140  27.703  29.042  1.00  0.00     0.049 A 
ATOM     43  N   UNL A   1      41.304  29.291  31.320  1.00  0.00    -0.248 NA
ATOM     44  C   UNL A   1      39.438  30.690  31.238  1.00  0.00     0.031 C 
ATOM     45  C   UNL A   1      39.638  26.927  27.906  1.00  0.00     0.029 A 
ATOM     46  N   UNL A   1      41.325  27.092  29.364  1.00  0.00    -0.354 N 
ATOM     47  C   UNL A   1      41.438  30.297  32.268  1.00  0.00     0.074 A 
ATOM     48  C   UNL A   1      40.294  31.170  32.127  1.00  0.00     0.031 C 
ATOM     49  C   UNL A   1      40.488  25.920  27.653  1.00  0.00     0.029 A 
ATOM     50  C   UNL A   1      41.613  26.002  28.579  1.00  0.00     0.049 A 
ATOM     51  H   UNL A   1      41.913  27.404  30.089  1.00  0.00     0.167 HD
ATOM     52  C   UNL A   1      42.413  30.458  33.192  1.00  0.00     0.037 A 
ATOM     53  C   UNL A   1      42.665  25.161  28.606  1.00  0.00     0.037 A 
ATOM     54  C   UNL A   1      43.535  29.570  33.343  1.00  0.00     0.049 A 
ATOM     55  C   UNL A   1      43.735  25.361  29.644  1.00  0.00     0.074 A 
ATOM     56  C   UNL A   1      44.552  29.620  34.281  1.00  0.00     0.029 A 
ATOM     57  N   UNL A   1      43.789  28.472  32.534  1.00  0.00    -0.354 N 
ATOM     58  N   UNL A   1      43.822  26.281  30.573  1.00  0.00    -0.248 NA
ATOM     59  C   UNL A   1      44.848  24.402  29.643  1.00  0.00     0.031 C 
ATOM     60  C   UNL A   1      45.448  28.583  34.006  1.00  0.00     0.029 A 
ATOM     61  C   UNL A   1      44.958  27.847  32.940  1.00  0.00     0.049 A 
ATOM     62  H   UNL A   1      43.223  28.180  31.783  1.00  0.00     0.167 HD
ATOM     63  C   UNL A   1      44.979  25.997  31.286  1.00  0.00     0.074 A 
ATOM     64  C   UNL A   1      45.555  24.810  30.688  1.00  0.00     0.031 C 
ATOM     65  C   UNL A   1      45.514  26.659  32.341  1.00  0.00     0.037 A 
BRANCH  52  66
ATOM     66  C   UNL A   1      42.306  31.627  34.129  1.00  0.00     0.064 A 
ATOM     67  C   UNL A   1      42.973  32.830  33.850  1.00  0.00     0.173 A 
ATOM     68  C   UNL A   1      41.598  31.537  35.338  1.00  0.00     0.173 A 
ATOM     69  F   UNL A   1      43.667  32.969  32.710  1.00  0.00    -0.203 F 
ATOM     70  C   UNL A   1      42.948  33.890  34.750  1.00  0.00     0.198 A 
ATOM     71  C   UNL A   1      41.548  32.612  36.222  1.00  0.00     0.198 A 
ATOM     72  F   UNL A   1      40.932  30.415  35.648  1.00  0.00    -0.203 F 
ATOM     73  F   UNL A   1      43.622  35.016  34.477  1.00  0.00    -0.200 F 
ATOM     74  C   UNL A   1      42.232  33.782  35.933  1.00  0.00     0.200 A 
ATOM     75  F   UNL A   1      40.833  32.515  37.351  1.00  0.00    -0.200 F 
ATOM     76  F   UNL A   1      42.199  34.809  36.794  1.00  0.00    -0.200 F 
ENDBRANCH  52  66
BRANCH  53  77
ATOM     77  C   UNL A   1      42.719  24.026  27.649  1.00  0.00     0.064 A 
ATOM     78  C   UNL A   1      42.304  22.737  28.019  1.00  0.00     0.173 A 
ATOM     79  C   UNL A   1      43.226  24.200  26.354  1.00  0.00     0.173 A 
ATOM     80  F   UNL A   1      41.818  22.515  29.249  1.00  0.00    -0.203 F 
ATOM     81  C   UNL A   1      42.416  21.664  27.137  1.00  0.00     0.198 A 
ATOM     82  C   UNL A   1      43.311  23.132  25.464  1.00  0.00     0.198 A 
ATOM     83  F   UNL A   1      43.619  25.417  25.948  1.00  0.00    -0.203 F 
ATOM     84  F   UNL A   1      42.051  20.436  27.529  1.00  0.00    -0.200 F 
ATOM     85  C   UNL A   1      42.915  21.863  25.859  1.00  0.00     0.200 A 
ATOM     86  F   UNL A   1      43.772  23.333  24.222  1.00  0.00    -0.200 F 
ATOM     87  F   UNL A   1      43.014  20.833  25.007  1.00  0.00    -0.200 F 
ENDBRANCH  53  77
BRANCH  65  88
ATOM     88  C   UNL A   1      46.769  26.104  32.950  1.00  0.00     0.064 A 
ATOM     89  C   UNL A   1      48.025  26.511  32.474  1.00  0.00     0.173 A 
ATOM     90  C   UNL A   1      46.732  25.118  33.947  1.00  0.00     0.173 A 
ATOM     91  F   UNL A   1      48.115  27.443  31.514  1.00  0.00    -0.203 F 
ATOM     92  C   UNL A   1      49.196  25.942  32.964  1.00  0.00     0.198 A 
ATOM     93  C   UNL A   1      47.907  24.575  34.459  1.00  0.00     0.198 A 
ATOM     94  F   UNL A   1      45.557  24.702  34.443  1.00  0.00    -0.203 F 
ATOM     95  F   UNL A   1      50.382  26.319  32.466  1.00  0.00    -0.200 F 
ATOM     96  C   UNL A   1      49.138  24.980  33.960  1.00  0.00     0.200 A 
ATOM     97  F   UNL A   1      47.851  23.664  35.440  1.00  0.00    -0.200 F 
ATOM     98  F   UNL A   1      50.266  24.441  34.441  1.00  0.00    -0.200 F 
ENDBRANCH  65  88
ENDBRANCH  39  40
ENDBRANCH  31  34
ENDBRANCH  29  30
ENDBRANCH  28  29
ENDBRANCH  27  28
ENDBRANCH   3  27
TORSDOF 17
ENDMDL
