MODEL 1
REMARK VINA RESULT:     -11.7      0.000      0.000
REMARK SMILES CCC1C[NH+]([C@H](C(=O)NCCCNC(=O)c2ccc(-c3c4nc(c(-c5c(F)c(F)c(F)c(F)c5F)c5ccc([nH]5)c(-c5c(F)c(F)c(F)c(F)c5F)c5nc(c(-c6c(F)c(F)c(F)c(F)c6F)c6ccc3[nH]6)C=C5)C=C4)cc2)C(C)C)C1
REMARK SMILES IDX 11 1 10 2 9 3 7 4 8 5 6 7 5 8 3 9 4 10 82 11 2 13 1 14 79 15
REMARK SMILES IDX 80 16 81 17 12 18 13 19 14 20 15 22 16 23 17 24 78 25 18 26
REMARK SMILES IDX 77 27 19 28 20 29 21 30 71 31 22 32 76 33 70 34 72 35 23 36
REMARK SMILES IDX 75 37 69 38 68 39 24 41 56 42 36 43 55 44 37 45 40 46 54 47
REMARK SMILES IDX 73 48 38 49 39 50 53 52 74 53 41 54 25 55 26 56 34 57 27 58
REMARK SMILES IDX 28 59 32 60 35 61 29 62 30 63 33 64 31 65 57 66 58 67 66 68
REMARK SMILES IDX 59 69 60 70 64 71 67 72 61 73 62 74 65 75 63 76 42 77 43 78
REMARK SMILES IDX 51 79 44 80 45 81 49 82 52 83 46 84 47 85 50 86 48 87
REMARK H PARENT 9 6 5 12 13 21 72 40 40 51
REMARK Flexibility Score: inf
ROOT
ATOM      1  C   UNL A   1      31.588  31.922  26.689  1.00  0.00     0.042 C 
ENDROOT
BRANCH   1   2
ATOM      2  C   UNL A   1      31.843  30.419  26.571  1.00  0.00     0.118 C 
BRANCH   2   3
ATOM      3  N   UNL A   1      32.337  30.079  25.256  1.00  0.00    -0.351 N 
ATOM      4  C   UNL A   1      32.037  29.207  24.276  1.00  0.00     0.278 C 
ATOM      5  O   UNL A   1      33.004  29.066  23.500  1.00  0.00    -0.268 OA
ATOM      6  H   UNL A   1      33.106  30.642  25.008  1.00  0.00     0.163 HD
BRANCH   4   7
ATOM      7  C   UNL A   1      30.727  28.465  23.908  1.00  0.00     0.276 C 
BRANCH   7   8
ATOM      8  N   UNL A   1      29.849  28.831  22.789  1.00  0.00    -0.324 N 
ATOM      9  C   UNL A   1      28.696  30.240  21.764  1.00  0.00     0.099 C 
ATOM     10  C   UNL A   1      30.218  29.912  21.890  1.00  0.00     0.272 C 
ATOM     11  C   UNL A   1      28.532  29.368  23.054  1.00  0.00     0.272 C 
ATOM     12  H   UNL A   1      29.913  27.879  22.429  1.00  0.00     0.348 HD
BRANCH   9  13
ATOM     13  C   UNL A   1      28.264  31.702  21.772  1.00  0.00     0.012 C 
ATOM     14  C   UNL A   1      27.898  32.174  20.375  1.00  0.00     0.004 C 
ENDBRANCH   9  13
ENDBRANCH   7   8
BRANCH   7  15
ATOM     15  C   UNL A   1      30.854  26.905  23.976  1.00  0.00     0.051 C 
ATOM     16  C   UNL A   1      29.654  26.192  24.611  1.00  0.00     0.014 C 
ATOM     17  C   UNL A   1      31.046  26.324  22.561  1.00  0.00     0.014 C 
ENDBRANCH   7  15
ENDBRANCH   4   7
ENDBRANCH   2   3
ENDBRANCH   1   2
BRANCH   1  18
ATOM     18  C   UNL A   1      32.746  32.715  27.267  1.00  0.00     0.118 C 
BRANCH  18  19
ATOM     19  N   UNL A   1      32.392  34.081  27.626  1.00  0.00    -0.352 N 
ATOM     20  C   UNL A   1      32.957  34.940  28.541  1.00  0.00     0.251 C 
ATOM     21  H   UNL A   1      31.623  34.451  27.134  1.00  0.00     0.163 HD
ATOM     22  O   UNL A   1      32.429  36.030  28.747  1.00  0.00    -0.269 OA
BRANCH  20  23
ATOM     23  C   UNL A   1      34.159  34.550  29.317  1.00  0.00     0.039 A 
ATOM     24  C   UNL A   1      33.990  34.034  30.607  1.00  0.00     0.014 A 
ATOM     25  C   UNL A   1      35.443  34.669  28.788  1.00  0.00     0.014 A 
ATOM     26  C   UNL A   1      35.092  33.543  31.313  1.00  0.00     0.010 A 
ATOM     27  C   UNL A   1      36.521  34.080  29.441  1.00  0.00     0.010 A 
ATOM     28  C   UNL A   1      36.359  33.506  30.710  1.00  0.00    -0.014 A 
BRANCH  28  29
ATOM     29  C   UNL A   1      37.528  32.866  31.367  1.00  0.00     0.031 A 
ATOM     30  C   UNL A   1      38.215  31.701  30.707  1.00  0.00     0.074 A 
ATOM     31  C   UNL A   1      37.900  33.257  32.602  1.00  0.00     0.049 A 
ATOM     32  N   UNL A   1      39.138  30.903  31.184  1.00  0.00    -0.248 NA
ATOM     33  C   UNL A   1      37.773  31.359  29.346  1.00  0.00     0.031 C 
ATOM     34  C   UNL A   1      37.276  34.335  33.373  1.00  0.00     0.029 A 
ATOM     35  N   UNL A   1      38.877  32.778  33.439  1.00  0.00    -0.354 N 
ATOM     36  C   UNL A   1      39.357  29.950  30.198  1.00  0.00     0.074 A 
ATOM     37  C   UNL A   1      38.439  30.237  29.118  1.00  0.00     0.031 C 
ATOM     38  C   UNL A   1      37.897  34.447  34.559  1.00  0.00     0.029 A 
ATOM     39  C   UNL A   1      38.929  33.420  34.654  1.00  0.00     0.049 A 
ATOM     40  H   UNL A   1      39.485  32.044  33.192  1.00  0.00     0.167 HD
ATOM     41  C   UNL A   1      40.260  28.941  30.185  1.00  0.00     0.037 A 
ATOM     42  C   UNL A   1      39.707  33.194  35.729  1.00  0.00     0.037 A 
ATOM     43  C   UNL A   1      41.208  28.695  31.238  1.00  0.00     0.049 A 
ATOM     44  C   UNL A   1      40.715  32.079  35.681  1.00  0.00     0.074 A 
ATOM     45  C   UNL A   1      42.229  27.761  31.278  1.00  0.00     0.029 A 
ATOM     46  N   UNL A   1      41.253  29.392  32.436  1.00  0.00    -0.354 N 
ATOM     47  N   UNL A   1      40.964  31.231  34.713  1.00  0.00    -0.248 NA
ATOM     48  C   UNL A   1      41.552  31.888  36.875  1.00  0.00     0.031 C 
ATOM     49  C   UNL A   1      42.865  27.866  32.520  1.00  0.00     0.029 A 
ATOM     50  C   UNL A   1      42.268  28.893  33.235  1.00  0.00     0.049 A 
ATOM     51  H   UNL A   1      40.652  30.133  32.683  1.00  0.00     0.167 HD
ATOM     52  C   UNL A   1      41.992  30.419  35.171  1.00  0.00     0.074 A 
ATOM     53  C   UNL A   1      42.336  30.888  36.497  1.00  0.00     0.031 C 
ATOM     54  C   UNL A   1      42.596  29.377  34.551  1.00  0.00     0.037 A 
BRANCH  41  55
ATOM     55  C   UNL A   1      40.274  28.033  28.989  1.00  0.00     0.064 A 
ATOM     56  C   UNL A   1      41.018  28.341  27.839  1.00  0.00     0.173 A 
ATOM     57  C   UNL A   1      39.566  26.822  29.007  1.00  0.00     0.173 A 
ATOM     58  F   UNL A   1      41.704  29.491  27.766  1.00  0.00    -0.203 F 
ATOM     59  C   UNL A   1      41.026  27.485  26.740  1.00  0.00     0.198 A 
ATOM     60  C   UNL A   1      39.601  25.955  27.919  1.00  0.00     0.198 A 
ATOM     61  F   UNL A   1      38.844  26.477  30.083  1.00  0.00    -0.203 F 
ATOM     62  F   UNL A   1      41.702  27.825  25.635  1.00  0.00    -0.200 F 
ATOM     63  C   UNL A   1      40.325  26.290  26.784  1.00  0.00     0.200 A 
ATOM     64  F   UNL A   1      38.933  24.794  27.967  1.00  0.00    -0.200 F 
ATOM     65  F   UNL A   1      40.339  25.464  25.728  1.00  0.00    -0.200 F 
ENDBRANCH  41  55
BRANCH  42  66
ATOM     66  C   UNL A   1      39.572  34.049  36.937  1.00  0.00     0.064 A 
ATOM     67  C   UNL A   1      38.791  33.637  38.026  1.00  0.00     0.173 A 
ATOM     68  C   UNL A   1      40.218  35.290  37.032  1.00  0.00     0.173 A 
ATOM     69  F   UNL A   1      38.137  32.467  37.973  1.00  0.00    -0.203 F 
ATOM     70  C   UNL A   1      38.646  34.440  39.155  1.00  0.00     0.198 A 
ATOM     71  C   UNL A   1      40.096  36.081  38.173  1.00  0.00     0.198 A 
ATOM     72  F   UNL A   1      40.981  35.730  36.021  1.00  0.00    -0.203 F 
ATOM     73  F   UNL A   1      37.859  34.040  40.162  1.00  0.00    -0.200 F 
ATOM     74  C   UNL A   1      39.304  35.659  39.230  1.00  0.00     0.200 A 
ATOM     75  F   UNL A   1      40.742  37.252  38.248  1.00  0.00    -0.200 F 
ATOM     76  F   UNL A   1      39.168  36.428  40.319  1.00  0.00    -0.200 F 
ENDBRANCH  42  66
BRANCH  54  77
ATOM     77  C   UNL A   1      43.701  28.683  35.289  1.00  0.00     0.064 A 
ATOM     78  C   UNL A   1      45.041  29.058  35.120  1.00  0.00     0.173 A 
ATOM     79  C   UNL A   1      43.411  27.670  36.216  1.00  0.00     0.173 A 
ATOM     80  F   UNL A   1      45.370  30.010  34.233  1.00  0.00    -0.203 F 
ATOM     81  C   UNL A   1      46.054  28.435  35.844  1.00  0.00     0.198 A 
ATOM     82  C   UNL A   1      44.424  27.068  36.957  1.00  0.00     0.198 A 
ATOM     83  F   UNL A   1      42.143  27.279  36.417  1.00  0.00    -0.203 F 
ATOM     84  F   UNL A   1      47.332  28.783  35.640  1.00  0.00    -0.200 F 
ATOM     85  C   UNL A   1      45.743  27.447  36.766  1.00  0.00     0.200 A 
ATOM     86  F   UNL A   1      44.121  26.124  37.858  1.00  0.00    -0.200 F 
ATOM     87  F   UNL A   1      46.719  26.856  37.471  1.00  0.00    -0.200 F 
ENDBRANCH  54  77
ENDBRANCH  28  29
ENDBRANCH  20  23
ENDBRANCH  18  19
ENDBRANCH   1  18
TORSDOF 13
ENDMDL
MODEL 2
REMARK VINA RESULT:     -11.5      0.705      7.739
REMARK SMILES CCC1C[NH+]([C@H](C(=O)NCCCNC(=O)c2ccc(-c3c4nc(c(-c5c(F)c(F)c(F)c(F)c5F)c5ccc([nH]5)c(-c5c(F)c(F)c(F)c(F)c5F)c5nc(c(-c6c(F)c(F)c(F)c(F)c6F)c6ccc3[nH]6)C=C5)C=C4)cc2)C(C)C)C1
REMARK SMILES IDX 11 1 10 2 9 3 7 4 8 5 6 7 5 8 3 9 4 10 82 11 2 13 1 14 79 15
REMARK SMILES IDX 80 16 81 17 12 18 13 19 14 20 15 22 16 23 17 24 78 25 18 26
REMARK SMILES IDX 77 27 19 28 20 29 21 30 71 31 22 32 76 33 70 34 72 35 23 36
REMARK SMILES IDX 75 37 69 38 68 39 24 41 56 42 36 43 55 44 37 45 40 46 54 47
REMARK SMILES IDX 73 48 38 49 39 50 53 52 74 53 41 54 25 55 26 56 34 57 27 58
REMARK SMILES IDX 28 59 32 60 35 61 29 62 30 63 33 64 31 65 57 66 58 67 66 68
REMARK SMILES IDX 59 69 60 70 64 71 67 72 61 73 62 74 65 75 63 76 42 77 43 78
REMARK SMILES IDX 51 79 44 80 45 81 49 82 52 83 46 84 47 85 50 86 48 87
REMARK H PARENT 9 6 5 12 13 21 72 40 40 51
REMARK Flexibility Score: inf
ROOT
ATOM      1  C   UNL A   1      31.456  32.186  26.541  1.00  0.00     0.042 C 
ENDROOT
BRANCH   1   2
ATOM      2  C   UNL A   1      31.485  30.657  26.522  1.00  0.00     0.118 C 
BRANCH   2   3
ATOM      3  N   UNL A   1      31.987  30.164  25.259  1.00  0.00    -0.351 N 
ATOM      4  C   UNL A   1      31.635  29.249  24.339  1.00  0.00     0.278 C 
ATOM      5  O   UNL A   1      32.609  28.951  23.618  1.00  0.00    -0.268 OA
ATOM      6  H   UNL A   1      32.817  30.627  25.001  1.00  0.00     0.163 HD
BRANCH   4   7
ATOM      7  C   UNL A   1      30.270  28.610  23.974  1.00  0.00     0.276 C 
BRANCH   7   8
ATOM      8  N   UNL A   1      29.424  29.038  22.853  1.00  0.00    -0.324 N 
ATOM      9  C   UNL A   1      28.558  30.547  21.696  1.00  0.00     0.099 C 
ATOM     10  C   UNL A   1      29.968  29.884  21.804  1.00  0.00     0.272 C 
ATOM     11  C   UNL A   1      28.288  29.899  23.096  1.00  0.00     0.272 C 
ATOM     12  H   UNL A   1      29.242  28.062  22.620  1.00  0.00     0.348 HD
BRANCH   9  13
ATOM     13  C   UNL A   1      28.475  32.059  21.527  1.00  0.00     0.012 C 
ATOM     14  C   UNL A   1      27.814  32.430  20.210  1.00  0.00     0.004 C 
ENDBRANCH   9  13
ENDBRANCH   7   8
BRANCH   7  15
ATOM     15  C   UNL A   1      30.273  27.046  24.052  1.00  0.00     0.051 C 
ATOM     16  C   UNL A   1      30.859  26.470  25.347  1.00  0.00     0.014 C 
ATOM     17  C   UNL A   1      28.837  26.503  23.909  1.00  0.00     0.014 C 
ENDBRANCH   7  15
ENDBRANCH   4   7
ENDBRANCH   2   3
ENDBRANCH   1   2
BRANCH   1  18
ATOM     18  C   UNL A   1      32.670  32.832  27.183  1.00  0.00     0.118 C 
BRANCH  18  19
ATOM     19  N   UNL A   1      32.431  34.195  27.636  1.00  0.00    -0.352 N 
ATOM     20  C   UNL A   1      33.046  34.930  28.624  1.00  0.00     0.251 C 
ATOM     21  H   UNL A   1      31.712  34.668  27.158  1.00  0.00     0.163 HD
ATOM     22  O   UNL A   1      32.613  36.046  28.899  1.00  0.00    -0.269 OA
BRANCH  20  23
ATOM     23  C   UNL A   1      34.188  34.377  29.392  1.00  0.00     0.039 A 
ATOM     24  C   UNL A   1      33.927  33.672  30.572  1.00  0.00     0.014 A 
ATOM     25  C   UNL A   1      35.504  34.526  28.959  1.00  0.00     0.014 A 
ATOM     26  C   UNL A   1      34.969  33.033  31.250  1.00  0.00     0.010 A 
ATOM     27  C   UNL A   1      36.523  33.800  29.567  1.00  0.00     0.010 A 
ATOM     28  C   UNL A   1      36.267  33.041  30.719  1.00  0.00    -0.014 A 
BRANCH  28  29
ATOM     29  C   UNL A   1      37.376  32.261  31.328  1.00  0.00     0.031 A 
ATOM     30  C   UNL A   1      37.888  32.626  32.695  1.00  0.00     0.074 A 
ATOM     31  C   UNL A   1      37.994  31.302  30.610  1.00  0.00     0.049 A 
ATOM     32  N   UNL A   1      38.944  32.185  33.331  1.00  0.00    -0.248 NA
ATOM     33  C   UNL A   1      37.136  33.659  33.427  1.00  0.00     0.031 C 
ATOM     34  C   UNL A   1      37.631  30.894  29.251  1.00  0.00     0.029 A 
ATOM     35  N   UNL A   1      39.075  30.511  30.913  1.00  0.00    -0.354 N 
ATOM     36  C   UNL A   1      39.001  32.910  34.514  1.00  0.00     0.074 A 
ATOM     37  C   UNL A   1      37.905  33.853  34.488  1.00  0.00     0.031 C 
ATOM     38  C   UNL A   1      38.460  29.919  28.846  1.00  0.00     0.029 A 
ATOM     39  C   UNL A   1      39.442  29.664  29.893  1.00  0.00     0.049 A 
ATOM     40  H   UNL A   1      39.542  30.545  31.778  1.00  0.00     0.167 HD
ATOM     41  C   UNL A   1      39.876  32.783  35.541  1.00  0.00     0.037 A 
ATOM     42  C   UNL A   1      40.467  28.796  29.807  1.00  0.00     0.037 A 
ATOM     43  C   UNL A   1      40.929  31.806  35.585  1.00  0.00     0.049 A 
ATOM     44  C   UNL A   1      41.413  28.661  30.969  1.00  0.00     0.074 A 
ATOM     45  C   UNL A   1      41.807  31.530  36.619  1.00  0.00     0.029 A 
ATOM     46  N   UNL A   1      41.245  30.941  34.548  1.00  0.00    -0.354 N 
ATOM     47  N   UNL A   1      41.412  29.300  32.113  1.00  0.00    -0.248 NA
ATOM     48  C   UNL A   1      42.502  27.683  30.828  1.00  0.00     0.031 C 
ATOM     49  C   UNL A   1      42.682  30.525  36.191  1.00  0.00     0.029 A 
ATOM     50  C   UNL A   1      42.322  30.147  34.907  1.00  0.00     0.049 A 
ATOM     51  H   UNL A   1      40.775  30.897  33.684  1.00  0.00     0.167 HD
ATOM     52  C   UNL A   1      42.484  28.794  32.834  1.00  0.00     0.074 A 
ATOM     53  C   UNL A   1      43.103  27.779  32.006  1.00  0.00     0.031 C 
ATOM     54  C   UNL A   1      42.921  29.140  34.069  1.00  0.00     0.037 A 
BRANCH  41  55
ATOM     55  C   UNL A   1      39.722  33.717  36.707  1.00  0.00     0.064 A 
ATOM     56  C   UNL A   1      40.357  34.968  36.738  1.00  0.00     0.173 A 
ATOM     57  C   UNL A   1      38.898  33.373  37.789  1.00  0.00     0.173 A 
ATOM     58  F   UNL A   1      41.163  35.341  35.733  1.00  0.00    -0.203 F 
ATOM     59  C   UNL A   1      40.199  35.826  37.824  1.00  0.00     0.198 A 
ATOM     60  C   UNL A   1      38.719  34.245  38.859  1.00  0.00     0.198 A 
ATOM     61  F   UNL A   1      38.263  32.191  37.807  1.00  0.00    -0.203 F 
ATOM     62  F   UNL A   1      40.857  36.992  37.855  1.00  0.00    -0.200 F 
ATOM     63  C   UNL A   1      39.375  35.467  38.879  1.00  0.00     0.200 A 
ATOM     64  F   UNL A   1      37.911  33.903  39.873  1.00  0.00    -0.200 F 
ATOM     65  F   UNL A   1      39.218  36.296  39.921  1.00  0.00    -0.200 F 
ENDBRANCH  41  55
BRANCH  42  66
ATOM     66  C   UNL A   1      40.645  27.976  28.579  1.00  0.00     0.064 A 
ATOM     67  C   UNL A   1      41.420  28.444  27.509  1.00  0.00     0.173 A 
ATOM     68  C   UNL A   1      40.049  26.713  28.450  1.00  0.00     0.173 A 
ATOM     69  F   UNL A   1      41.991  29.655  27.578  1.00  0.00    -0.203 F 
ATOM     70  C   UNL A   1      41.577  27.689  26.348  1.00  0.00     0.198 A 
ATOM     71  C   UNL A   1      40.231  25.946  27.300  1.00  0.00     0.198 A 
ATOM     72  F   UNL A   1      39.303  26.216  29.446  1.00  0.00    -0.203 F 
ATOM     73  F   UNL A   1      42.288  28.180  25.325  1.00  0.00    -0.200 F 
ATOM     74  C   UNL A   1      40.988  26.438  26.248  1.00  0.00     0.200 A 
ATOM     75  F   UNL A   1      39.671  24.732  27.211  1.00  0.00    -0.200 F 
ATOM     76  F   UNL A   1      41.144  25.710  25.133  1.00  0.00    -0.200 F 
ENDBRANCH  42  66
BRANCH  54  77
ATOM     77  C   UNL A   1      44.111  28.406  34.610  1.00  0.00     0.064 A 
ATOM     78  C   UNL A   1      43.972  27.191  35.295  1.00  0.00     0.173 A 
ATOM     79  C   UNL A   1      45.408  28.897  34.392  1.00  0.00     0.173 A 
ATOM     80  F   UNL A   1      42.752  26.691  35.541  1.00  0.00    -0.203 F 
ATOM     81  C   UNL A   1      45.089  26.499  35.754  1.00  0.00     0.198 A 
ATOM     82  C   UNL A   1      46.522  28.188  34.829  1.00  0.00     0.198 A 
ATOM     83  F   UNL A   1      45.593  30.053  33.738  1.00  0.00    -0.203 F 
ATOM     84  F   UNL A   1      44.932  25.357  36.438  1.00  0.00    -0.200 F 
ATOM     85  C   UNL A   1      46.362  26.993  35.513  1.00  0.00     0.200 A 
ATOM     86  F   UNL A   1      47.752  28.660  34.585  1.00  0.00    -0.200 F 
ATOM     87  F   UNL A   1      47.437  26.319  35.946  1.00  0.00    -0.200 F 
ENDBRANCH  54  77
ENDBRANCH  28  29
ENDBRANCH  20  23
ENDBRANCH  18  19
ENDBRANCH   1  18
TORSDOF 13
ENDMDL
MODEL 3
REMARK VINA RESULT:     -11.5      2.386      4.149
REMARK SMILES CCC1C[NH+]([C@H](C(=O)NCCCNC(=O)c2ccc(-c3c4nc(c(-c5c(F)c(F)c(F)c(F)c5F)c5ccc([nH]5)c(-c5c(F)c(F)c(F)c(F)c5F)c5nc(c(-c6c(F)c(F)c(F)c(F)c6F)c6ccc3[nH]6)C=C5)C=C4)cc2)C(C)C)C1
REMARK SMILES IDX 11 1 10 2 9 3 7 4 8 5 6 7 5 8 3 9 4 10 82 11 2 13 1 14 79 15
REMARK SMILES IDX 80 16 81 17 12 18 13 19 14 20 15 22 16 23 17 24 78 25 18 26
REMARK SMILES IDX 77 27 19 28 20 29 21 30 71 31 22 32 76 33 70 34 72 35 23 36
REMARK SMILES IDX 75 37 69 38 68 39 24 41 56 42 36 43 55 44 37 45 40 46 54 47
REMARK SMILES IDX 73 48 38 49 39 50 53 52 74 53 41 54 25 55 26 56 34 57 27 58
REMARK SMILES IDX 28 59 32 60 35 61 29 62 30 63 33 64 31 65 57 66 58 67 66 68
REMARK SMILES IDX 59 69 60 70 64 71 67 72 61 73 62 74 65 75 63 76 42 77 43 78
REMARK SMILES IDX 51 79 44 80 45 81 49 82 52 83 46 84 47 85 50 86 48 87
REMARK H PARENT 9 6 5 12 13 21 72 40 40 51
REMARK Flexibility Score: inf
ROOT
ATOM      1  C   UNL A   1      33.201  29.295  24.589  1.00  0.00     0.042 C 
ENDROOT
BRANCH   1   2
ATOM      2  C   UNL A   1      32.143  28.731  23.640  1.00  0.00     0.118 C 
BRANCH   2   3
ATOM      3  N   UNL A   1      32.733  27.814  22.691  1.00  0.00    -0.351 N 
ATOM      4  C   UNL A   1      33.000  26.497  22.616  1.00  0.00     0.278 C 
ATOM      5  O   UNL A   1      33.858  26.272  21.738  1.00  0.00    -0.268 OA
ATOM      6  H   UNL A   1      33.018  28.282  21.874  1.00  0.00     0.163 HD
BRANCH   4   7
ATOM      7  C   UNL A   1      32.382  25.266  23.327  1.00  0.00     0.276 C 
BRANCH   7   8
ATOM      8  N   UNL A   1      32.235  23.939  22.715  1.00  0.00    -0.324 N 
ATOM      9  C   UNL A   1      32.317  21.855  22.841  1.00  0.00     0.099 C 
ATOM     10  C   UNL A   1      31.312  22.969  23.280  1.00  0.00     0.272 C 
ATOM     11  C   UNL A   1      33.353  23.022  22.709  1.00  0.00     0.272 C 
ATOM     12  H   UNL A   1      31.971  24.377  21.832  1.00  0.00     0.348 HD
BRANCH   9  13
ATOM     13  C   UNL A   1      32.587  20.701  23.798  1.00  0.00     0.012 C 
ATOM     14  C   UNL A   1      32.330  19.360  23.130  1.00  0.00     0.004 C 
ENDBRANCH   9  13
ENDBRANCH   7   8
BRANCH   7  15
ATOM     15  C   UNL A   1      32.852  25.101  24.811  1.00  0.00     0.051 C 
ATOM     16  C   UNL A   1      34.230  25.702  25.117  1.00  0.00     0.014 C 
ATOM     17  C   UNL A   1      31.835  25.755  25.768  1.00  0.00     0.014 C 
ENDBRANCH   7  15
ENDBRANCH   4   7
ENDBRANCH   2   3
ENDBRANCH   1   2
BRANCH   1  18
ATOM     18  C   UNL A   1      32.750  29.421  26.032  1.00  0.00     0.118 C 
BRANCH  18  19
ATOM     19  N   UNL A   1      32.479  30.793  26.438  1.00  0.00    -0.352 N 
ATOM     20  C   UNL A   1      33.218  31.660  27.211  1.00  0.00     0.251 C 
ATOM     21  H   UNL A   1      31.627  31.160  26.107  1.00  0.00     0.163 HD
ATOM     22  O   UNL A   1      32.744  32.755  27.505  1.00  0.00    -0.269 OA
BRANCH  20  23
ATOM     23  C   UNL A   1      34.551  31.274  27.733  1.00  0.00     0.039 A 
ATOM     24  C   UNL A   1      35.535  32.261  27.863  1.00  0.00     0.014 A 
ATOM     25  C   UNL A   1      34.839  29.964  28.113  1.00  0.00     0.014 A 
ATOM     26  C   UNL A   1      36.757  31.955  28.467  1.00  0.00     0.010 A 
ATOM     27  C   UNL A   1      36.008  29.685  28.814  1.00  0.00     0.010 A 
ATOM     28  C   UNL A   1      36.980  30.678  29.004  1.00  0.00    -0.014 A 
BRANCH  28  29
ATOM     29  C   UNL A   1      38.206  30.348  29.778  1.00  0.00     0.031 A 
ATOM     30  C   UNL A   1      39.206  29.372  29.220  1.00  0.00     0.074 A 
ATOM     31  C   UNL A   1      38.362  30.837  31.024  1.00  0.00     0.049 A 
ATOM     32  N   UNL A   1      40.246  28.827  29.800  1.00  0.00    -0.248 NA
ATOM     33  C   UNL A   1      38.980  28.913  27.839  1.00  0.00     0.031 C 
ATOM     34  C   UNL A   1      37.434  31.746  31.701  1.00  0.00     0.029 A 
ATOM     35  N   UNL A   1      39.348  30.620  31.955  1.00  0.00    -0.354 N 
ATOM     36  C   UNL A   1      40.772  27.939  28.870  1.00  0.00     0.074 A 
ATOM     37  C   UNL A   1      39.911  27.980  27.708  1.00  0.00     0.031 C 
ATOM     38  C   UNL A   1      37.903  32.022  32.929  1.00  0.00     0.029 A 
ATOM     39  C   UNL A   1      39.137  31.275  33.146  1.00  0.00     0.049 A 
ATOM     40  H   UNL A   1      40.132  30.049  31.787  1.00  0.00     0.167 HD
ATOM     41  C   UNL A   1      41.887  27.176  28.968  1.00  0.00     0.037 A 
ATOM     42  C   UNL A   1      39.848  31.259  34.289  1.00  0.00     0.037 A 
ATOM     43  C   UNL A   1      42.769  27.182  30.104  1.00  0.00     0.049 A 
ATOM     44  C   UNL A   1      41.093  30.418  34.365  1.00  0.00     0.074 A 
ATOM     45  C   UNL A   1      43.975  26.522  30.263  1.00  0.00     0.029 A 
ATOM     46  N   UNL A   1      42.540  27.889  31.275  1.00  0.00    -0.354 N 
ATOM     47  N   UNL A   1      41.621  29.639  33.452  1.00  0.00    -0.248 NA
ATOM     48  C   UNL A   1      41.842  30.453  35.630  1.00  0.00     0.031 C 
ATOM     49  C   UNL A   1      44.455  26.796  31.548  1.00  0.00     0.029 A 
ATOM     50  C   UNL A   1      43.570  27.660  32.173  1.00  0.00     0.049 A 
ATOM     51  H   UNL A   1      41.761  28.467  31.445  1.00  0.00     0.167 HD
ATOM     52  C   UNL A   1      42.768  29.106  34.023  1.00  0.00     0.074 A 
ATOM     53  C   UNL A   1      42.872  29.665  35.355  1.00  0.00     0.031 C 
ATOM     54  C   UNL A   1      43.656  28.230  33.493  1.00  0.00     0.037 A 
BRANCH  41  55
ATOM     55  C   UNL A   1      42.223  26.280  27.812  1.00  0.00     0.064 A 
ATOM     56  C   UNL A   1      43.157  26.656  26.835  1.00  0.00     0.173 A 
ATOM     57  C   UNL A   1      41.631  25.013  27.699  1.00  0.00     0.173 A 
ATOM     58  F   UNL A   1      43.744  27.861  26.890  1.00  0.00    -0.203 F 
ATOM     59  C   UNL A   1      43.463  25.810  25.771  1.00  0.00     0.198 A 
ATOM     60  C   UNL A   1      41.961  24.158  26.651  1.00  0.00     0.198 A 
ATOM     61  F   UNL A   1      40.735  24.601  28.609  1.00  0.00    -0.203 F 
ATOM     62  F   UNL A   1      44.320  26.213  24.823  1.00  0.00    -0.200 F 
ATOM     63  C   UNL A   1      42.871  24.560  25.685  1.00  0.00     0.200 A 
ATOM     64  F   UNL A   1      41.398  22.944  26.575  1.00  0.00    -0.200 F 
ATOM     65  F   UNL A   1      43.171  23.744  24.664  1.00  0.00    -0.200 F 
ENDBRANCH  41  55
BRANCH  42  66
ATOM     66  C   UNL A   1      39.407  32.076  35.450  1.00  0.00     0.064 A 
ATOM     67  C   UNL A   1      39.835  33.402  35.599  1.00  0.00     0.173 A 
ATOM     68  C   UNL A   1      38.551  31.552  36.431  1.00  0.00     0.173 A 
ATOM     69  F   UNL A   1      40.671  33.939  34.698  1.00  0.00    -0.203 F 
ATOM     70  C   UNL A   1      39.439  34.169  36.694  1.00  0.00     0.198 A 
ATOM     71  C   UNL A   1      38.134  32.329  37.510  1.00  0.00     0.198 A 
ATOM     72  F   UNL A   1      38.109  30.290  36.333  1.00  0.00    -0.203 F 
ATOM     73  F   UNL A   1      39.898  35.419  36.832  1.00  0.00    -0.200 F 
ATOM     74  C   UNL A   1      38.584  33.633  37.645  1.00  0.00     0.200 A 
ATOM     75  F   UNL A   1      37.297  31.813  38.421  1.00  0.00    -0.200 F 
ATOM     76  F   UNL A   1      38.200  34.373  38.694  1.00  0.00    -0.200 F 
ENDBRANCH  42  66
BRANCH  54  77
ATOM     77  C   UNL A   1      44.824  27.833  34.345  1.00  0.00     0.064 A 
ATOM     78  C   UNL A   1      44.778  26.698  35.165  1.00  0.00     0.173 A 
ATOM     79  C   UNL A   1      46.020  28.566  34.297  1.00  0.00     0.173 A 
ATOM     80  F   UNL A   1      43.652  25.975  35.257  1.00  0.00    -0.203 F 
ATOM     81  C   UNL A   1      45.885  26.317  35.919  1.00  0.00     0.198 A 
ATOM     82  C   UNL A   1      47.132  28.166  35.031  1.00  0.00     0.198 A 
ATOM     83  F   UNL A   1      46.114  29.658  33.523  1.00  0.00    -0.203 F 
ATOM     84  F   UNL A   1      45.809  25.248  36.724  1.00  0.00    -0.200 F 
ATOM     85  C   UNL A   1      47.063  27.046  35.844  1.00  0.00     0.200 A 
ATOM     86  F   UNL A   1      48.273  28.864  34.948  1.00  0.00    -0.200 F 
ATOM     87  F   UNL A   1      48.131  26.670  36.560  1.00  0.00    -0.200 F 
ENDBRANCH  54  77
ENDBRANCH  28  29
ENDBRANCH  20  23
ENDBRANCH  18  19
ENDBRANCH   1  18
TORSDOF 13
ENDMDL
