MODEL 1
REMARK VINA RESULT:     -12.4      0.000      0.000
REMARK SMILES O=C(NCCCNC(=O)c1ccccc1NS(=O)(=O)c1cccc([N+](=O)[O-])c1)c1ccc(-c2c3nc(c(-c4c(F)c(F)c(F)c(F)c4F)c4ccc([nH]4)c(-c4c(F)c(F)c(F)c(F)c4F)c4nc(c(-c5c(F)c(F)c(F)c(F)c5F)c5ccc2[nH]5)C=C4)C=C3)cc1
REMARK SMILES IDX 6 1 5 2 4 3 3 4 1 5 2 6 29 8 30 9 91 10 31 11 90 12 32 13
REMARK SMILES IDX 33 14 34 15 84 16 35 17 89 18 83 19 85 20 36 21 88 22 82 23
REMARK SMILES IDX 81 24 37 26 69 27 49 28 68 29 50 30 53 31 67 32 86 33 51 34
REMARK SMILES IDX 52 35 66 37 87 38 54 39 38 40 39 41 47 42 40 43 41 44 45 45
REMARK SMILES IDX 48 46 42 47 43 48 46 49 44 50 70 51 71 52 79 53 72 54 73 55
REMARK SMILES IDX 77 56 80 57 74 58 75 59 78 60 76 61 55 62 56 63 64 64 57 65
REMARK SMILES IDX 58 66 62 67 65 68 59 69 60 70 63 71 61 72 7 73 8 74 9 76
REMARK SMILES IDX 10 77 11 78 15 79 12 80 14 81 13 82 16 83 17 85 18 86 19 87
REMARK SMILES IDX 20 88 21 89 28 90 22 91 24 92 23 93 25 94 26 95 27 96
REMARK H PARENT 3 7 85 25 53 36 7 75 16 84
REMARK Flexibility Score: inf
ROOT
ATOM      1  C   UNL A   1      33.420  26.743  26.065  1.00  0.00     0.118 C 
ENDROOT
BRANCH   1   2
ATOM      2  C   UNL A   1      32.565  27.991  25.904  1.00  0.00     0.042 C 
BRANCH   2   3
ATOM      3  C   UNL A   1      33.305  29.168  25.284  1.00  0.00     0.118 C 
BRANCH   3   4
ATOM      4  N   UNL A   1      32.843  30.453  25.791  1.00  0.00    -0.352 N 
ATOM      5  O   UNL A   1      32.524  32.162  27.203  1.00  0.00    -0.269 OA
ATOM      6  C   UNL A   1      33.221  31.203  26.876  1.00  0.00     0.251 C 
ATOM      7  H   UNL A   1      32.125  30.859  25.255  1.00  0.00     0.163 HD
BRANCH   6   8
ATOM      8  C   UNL A   1      34.434  30.891  27.666  1.00  0.00     0.039 A 
ATOM      9  C   UNL A   1      34.662  29.624  28.200  1.00  0.00     0.014 A 
ATOM     10  C   UNL A   1      35.427  31.874  27.787  1.00  0.00     0.014 A 
ATOM     11  C   UNL A   1      35.802  29.380  28.963  1.00  0.00     0.010 A 
ATOM     12  C   UNL A   1      36.614  31.602  28.476  1.00  0.00     0.010 A 
ATOM     13  C   UNL A   1      36.800  30.358  29.093  1.00  0.00    -0.014 A 
BRANCH  13  14
ATOM     14  C   UNL A   1      38.052  30.022  29.819  1.00  0.00     0.031 A 
ATOM     15  C   UNL A   1      38.293  30.500  31.221  1.00  0.00     0.074 A 
ATOM     16  C   UNL A   1      38.963  29.239  29.209  1.00  0.00     0.049 A 
ATOM     17  N   UNL A   1      39.302  30.243  32.017  1.00  0.00    -0.248 NA
ATOM     18  C   UNL A   1      37.281  31.391  31.808  1.00  0.00     0.031 C 
ATOM     19  C   UNL A   1      38.859  28.741  27.836  1.00  0.00     0.029 A 
ATOM     20  N   UNL A   1      40.137  28.699  29.670  1.00  0.00    -0.354 N 
ATOM     21  C   UNL A   1      39.061  30.957  33.182  1.00  0.00     0.074 A 
ATOM     22  C   UNL A   1      37.817  31.671  32.989  1.00  0.00     0.031 C 
ATOM     23  C   UNL A   1      39.890  27.919  27.587  1.00  0.00     0.029 A 
ATOM     24  C   UNL A   1      40.748  27.866  28.766  1.00  0.00     0.049 A 
ATOM     25  H   UNL A   1      40.504  28.890  30.563  1.00  0.00     0.167 HD
ATOM     26  C   UNL A   1      39.809  31.006  34.310  1.00  0.00     0.037 A 
ATOM     27  C   UNL A   1      41.872  27.134  28.873  1.00  0.00     0.037 A 
ATOM     28  C   UNL A   1      41.026  30.268  34.518  1.00  0.00     0.049 A 
ATOM     29  C   UNL A   1      42.654  27.171  30.152  1.00  0.00     0.074 A 
ATOM     30  C   UNL A   1      41.826  30.221  35.647  1.00  0.00     0.029 A 
ATOM     31  N   UNL A   1      41.619  29.445  33.574  1.00  0.00    -0.354 N 
ATOM     32  N   UNL A   1      42.397  27.828  31.255  1.00  0.00    -0.248 NA
ATOM     33  C   UNL A   1      43.886  26.372  30.198  1.00  0.00     0.031 C 
ATOM     34  C   UNL A   1      42.915  29.384  35.379  1.00  0.00     0.029 A 
ATOM     35  C   UNL A   1      42.781  28.892  34.091  1.00  0.00     0.049 A 
ATOM     36  H   UNL A   1      41.268  29.276  32.670  1.00  0.00     0.167 HD
ATOM     37  C   UNL A   1      43.434  27.530  32.125  1.00  0.00     0.074 A 
ATOM     38  C   UNL A   1      44.311  26.608  31.431  1.00  0.00     0.031 C 
ATOM     39  C   UNL A   1      43.645  27.987  33.382  1.00  0.00     0.037 A 
BRANCH  26  40
ATOM     40  C   UNL A   1      39.333  31.900  35.415  1.00  0.00     0.064 A 
ATOM     41  C   UNL A   1      38.521  31.417  36.450  1.00  0.00     0.173 A 
ATOM     42  C   UNL A   1      39.737  33.242  35.464  1.00  0.00     0.173 A 
ATOM     43  F   UNL A   1      38.100  30.143  36.439  1.00  0.00    -0.203 F 
ATOM     44  C   UNL A   1      38.118  32.251  37.490  1.00  0.00     0.198 A 
ATOM     45  C   UNL A   1      39.347  34.068  36.514  1.00  0.00     0.198 A 
ATOM     46  F   UNL A   1      40.517  33.749  34.497  1.00  0.00    -0.203 F 
ATOM     47  F   UNL A   1      37.320  31.776  38.456  1.00  0.00    -0.200 F 
ATOM     48  C   UNL A   1      38.536  33.573  37.524  1.00  0.00     0.200 A 
ATOM     49  F   UNL A   1      39.756  35.345  36.549  1.00  0.00    -0.200 F 
ATOM     50  F   UNL A   1      38.153  34.373  38.529  1.00  0.00    -0.200 F 
ENDBRANCH  26  40
BRANCH  27  51
ATOM     51  C   UNL A   1      42.302  26.288  27.734  1.00  0.00     0.064 A 
ATOM     52  C   UNL A   1      43.284  26.733  26.841  1.00  0.00     0.173 A 
ATOM     53  C   UNL A   1      41.769  25.006  27.541  1.00  0.00     0.173 A 
ATOM     54  F   UNL A   1      43.808  27.960  26.979  1.00  0.00    -0.203 F 
ATOM     55  C   UNL A   1      43.718  25.926  25.793  1.00  0.00     0.198 A 
ATOM     56  C   UNL A   1      42.218  24.191  26.505  1.00  0.00     0.198 A 
ATOM     57  F   UNL A   1      40.830  24.538  28.375  1.00  0.00    -0.203 F 
ATOM     58  F   UNL A   1      44.646  26.380  24.939  1.00  0.00    -0.200 F 
ATOM     59  C   UNL A   1      43.191  24.653  25.630  1.00  0.00     0.200 A 
ATOM     60  F   UNL A   1      41.714  22.958  26.358  1.00  0.00    -0.200 F 
ATOM     61  F   UNL A   1      43.618  23.871  24.629  1.00  0.00    -0.200 F 
ENDBRANCH  27  51
BRANCH  39  62
ATOM     62  C   UNL A   1      44.878  27.504  34.079  1.00  0.00     0.064 A 
ATOM     63  C   UNL A   1      46.082  28.220  34.001  1.00  0.00     0.173 A 
ATOM     64  C   UNL A   1      44.851  26.336  34.853  1.00  0.00     0.173 A 
ATOM     65  F   UNL A   1      46.155  29.335  33.258  1.00  0.00    -0.203 F 
ATOM     66  C   UNL A   1      47.221  27.773  34.662  1.00  0.00     0.198 A 
ATOM     67  C   UNL A   1      45.990  25.900  35.526  1.00  0.00     0.198 A 
ATOM     68  F   UNL A   1      43.722  25.619  34.957  1.00  0.00    -0.203 F 
ATOM     69  F   UNL A   1      48.370  28.454  34.547  1.00  0.00    -0.200 F 
ATOM     70  C   UNL A   1      47.174  26.616  35.426  1.00  0.00     0.200 A 
ATOM     71  F   UNL A   1      45.943  24.784  36.266  1.00  0.00    -0.200 F 
ATOM     72  F   UNL A   1      48.273  26.187  36.060  1.00  0.00    -0.200 F 
ENDBRANCH  39  62
ENDBRANCH  13  14
ENDBRANCH   6   8
ENDBRANCH   3   4
ENDBRANCH   2   3
ENDBRANCH   1   2
BRANCH   1  73
ATOM     73  N   UNL A   1      32.639  25.529  26.276  1.00  0.00    -0.352 N 
ATOM     74  C   UNL A   1      32.868  24.253  25.823  1.00  0.00     0.253 C 
ATOM     75  H   UNL A   1      31.828  25.643  26.823  1.00  0.00     0.163 HD
ATOM     76  O   UNL A   1      32.038  23.370  26.008  1.00  0.00    -0.269 OA
BRANCH  74  77
ATOM     77  C   UNL A   1      34.108  23.949  25.085  1.00  0.00     0.063 A 
ATOM     78  C   UNL A   1      35.277  23.806  25.847  1.00  0.00     0.016 A 
ATOM     79  C   UNL A   1      34.128  23.788  23.689  1.00  0.00     0.062 A 
ATOM     80  C   UNL A   1      36.465  23.429  25.228  1.00  0.00     0.001 A 
ATOM     81  C   UNL A   1      35.310  23.328  23.102  1.00  0.00     0.027 A 
ATOM     82  C   UNL A   1      36.472  23.157  23.864  1.00  0.00     0.002 A 
BRANCH  79  83
ATOM     83  N   UNL A   1      33.017  24.251  22.904  1.00  0.00    -0.279 N 
ATOM     84  H   UNL A   1      32.263  23.632  22.776  1.00  0.00     0.180 HD
BRANCH  83  85
ATOM     85  S   UNL A   1      32.908  25.760  22.189  1.00  0.00     0.262 S 
ATOM     86  O   UNL A   1      34.029  26.558  22.633  1.00  0.00    -0.201 OA
ATOM     87  O   UNL A   1      32.653  25.524  20.785  1.00  0.00    -0.201 OA
BRANCH  85  88
ATOM     88  C   UNL A   1      31.433  26.496  22.848  1.00  0.00     0.094 A 
ATOM     89  C   UNL A   1      30.505  25.650  23.467  1.00  0.00     0.023 A 
ATOM     90  C   UNL A   1      31.130  27.837  22.599  1.00  0.00     0.107 A 
ATOM     91  C   UNL A   1      29.244  26.136  23.810  1.00  0.00     0.008 A 
ATOM     92  C   UNL A   1      29.840  28.294  22.890  1.00  0.00     0.270 A 
ATOM     93  C   UNL A   1      28.899  27.453  23.501  1.00  0.00     0.086 A 
BRANCH  92  94
ATOM     94  N   UNL A   1      29.441  29.639  22.461  1.00  0.00     0.062 N 
ATOM     95  O   UNL A   1      29.245  29.821  21.251  1.00  0.00    -0.258 OA
ATOM     96  O   UNL A   1      29.359  30.518  23.329  1.00  0.00    -0.258 OA
ENDBRANCH  92  94
ENDBRANCH  85  88
ENDBRANCH  83  85
ENDBRANCH  79  83
ENDBRANCH  74  77
ENDBRANCH   1  73
TORSDOF 14
ENDMDL
MODEL 2
REMARK VINA RESULT:     -12.3      1.483      2.307
REMARK SMILES O=C(NCCCNC(=O)c1ccccc1NS(=O)(=O)c1cccc([N+](=O)[O-])c1)c1ccc(-c2c3nc(c(-c4c(F)c(F)c(F)c(F)c4F)c4ccc([nH]4)c(-c4c(F)c(F)c(F)c(F)c4F)c4nc(c(-c5c(F)c(F)c(F)c(F)c5F)c5ccc2[nH]5)C=C4)C=C3)cc1
REMARK SMILES IDX 6 1 5 2 4 3 3 4 1 5 2 6 29 8 30 9 91 10 31 11 90 12 32 13
REMARK SMILES IDX 33 14 34 15 84 16 35 17 89 18 83 19 85 20 36 21 88 22 82 23
REMARK SMILES IDX 81 24 37 26 69 27 49 28 68 29 50 30 53 31 67 32 86 33 51 34
REMARK SMILES IDX 52 35 66 37 87 38 54 39 38 40 39 41 47 42 40 43 41 44 45 45
REMARK SMILES IDX 48 46 42 47 43 48 46 49 44 50 70 51 71 52 79 53 72 54 73 55
REMARK SMILES IDX 77 56 80 57 74 58 75 59 78 60 76 61 55 62 56 63 64 64 57 65
REMARK SMILES IDX 58 66 62 67 65 68 59 69 60 70 63 71 61 72 7 73 8 74 9 76
REMARK SMILES IDX 10 77 11 78 15 79 12 80 14 81 13 82 16 83 17 85 18 86 19 87
REMARK SMILES IDX 20 88 21 89 28 90 22 91 24 92 23 93 25 94 26 95 27 96
REMARK H PARENT 3 7 85 25 53 36 7 75 16 84
REMARK Flexibility Score: inf
ROOT
ATOM      1  C   UNL A   1      32.080  27.998  27.554  1.00  0.00     0.118 C 
ENDROOT
BRANCH   1   2
ATOM      2  C   UNL A   1      31.704  29.430  27.200  1.00  0.00     0.042 C 
BRANCH   2   3
ATOM      3  C   UNL A   1      32.774  30.170  26.410  1.00  0.00     0.118 C 
BRANCH   3   4
ATOM      4  N   UNL A   1      32.753  31.607  26.645  1.00  0.00    -0.352 N 
ATOM      5  O   UNL A   1      33.169  33.584  27.612  1.00  0.00    -0.269 OA
ATOM      6  C   UNL A   1      33.529  32.422  27.429  1.00  0.00     0.251 C 
ATOM      7  H   UNL A   1      32.050  32.083  26.147  1.00  0.00     0.163 HD
BRANCH   6   8
ATOM      8  C   UNL A   1      34.779  31.947  28.067  1.00  0.00     0.039 A 
ATOM      9  C   UNL A   1      35.873  32.788  28.261  1.00  0.00     0.014 A 
ATOM     10  C   UNL A   1      34.816  30.643  28.581  1.00  0.00     0.014 A 
ATOM     11  C   UNL A   1      37.042  32.294  28.838  1.00  0.00     0.010 A 
ATOM     12  C   UNL A   1      35.957  30.174  29.242  1.00  0.00     0.010 A 
ATOM     13  C   UNL A   1      37.091  30.990  29.353  1.00  0.00    -0.014 A 
BRANCH  13  14
ATOM     14  C   UNL A   1      38.316  30.538  30.062  1.00  0.00     0.031 A 
ATOM     15  C   UNL A   1      38.578  30.924  31.489  1.00  0.00     0.074 A 
ATOM     16  C   UNL A   1      39.180  29.734  29.413  1.00  0.00     0.049 A 
ATOM     17  N   UNL A   1      39.564  30.562  32.272  1.00  0.00    -0.248 NA
ATOM     18  C   UNL A   1      37.620  31.843  32.120  1.00  0.00     0.031 C 
ATOM     19  C   UNL A   1      39.054  29.318  28.015  1.00  0.00     0.029 A 
ATOM     20  N   UNL A   1      40.316  29.098  29.847  1.00  0.00    -0.354 N 
ATOM     21  C   UNL A   1      39.361  31.226  33.473  1.00  0.00     0.074 A 
ATOM     22  C   UNL A   1      38.165  32.025  33.316  1.00  0.00     0.031 C 
ATOM     23  C   UNL A   1      40.034  28.449  27.724  1.00  0.00     0.029 A 
ATOM     24  C   UNL A   1      40.880  28.279  28.901  1.00  0.00     0.049 A 
ATOM     25  H   UNL A   1      40.690  29.218  30.750  1.00  0.00     0.167 HD
ATOM     26  C   UNL A   1      40.104  31.169  34.604  1.00  0.00     0.037 A 
ATOM     27  C   UNL A   1      41.956  27.474  28.971  1.00  0.00     0.037 A 
ATOM     28  C   UNL A   1      41.273  30.347  34.775  1.00  0.00     0.049 A 
ATOM     29  C   UNL A   1      42.732  27.394  30.252  1.00  0.00     0.074 A 
ATOM     30  C   UNL A   1      42.061  30.190  35.902  1.00  0.00     0.029 A 
ATOM     31  N   UNL A   1      41.819  29.540  33.789  1.00  0.00    -0.354 N 
ATOM     32  N   UNL A   1      42.509  28.005  31.388  1.00  0.00    -0.248 NA
ATOM     33  C   UNL A   1      43.911  26.519  30.258  1.00  0.00     0.031 C 
ATOM     34  C   UNL A   1      43.098  29.303  35.591  1.00  0.00     0.029 A 
ATOM     35  C   UNL A   1      42.941  28.890  34.279  1.00  0.00     0.049 A 
ATOM     36  H   UNL A   1      41.463  29.442  32.876  1.00  0.00     0.167 HD
ATOM     37  C   UNL A   1      43.521  27.597  32.243  1.00  0.00     0.074 A 
ATOM     38  C   UNL A   1      44.343  26.661  31.503  1.00  0.00     0.031 C 
ATOM     39  C   UNL A   1      43.752  27.972  33.524  1.00  0.00     0.037 A 
BRANCH  26  40
ATOM     40  C   UNL A   1      39.678  32.030  35.755  1.00  0.00     0.064 A 
ATOM     41  C   UNL A   1      40.229  33.302  35.961  1.00  0.00     0.173 A 
ATOM     42  C   UNL A   1      38.671  31.597  36.628  1.00  0.00     0.173 A 
ATOM     43  F   UNL A   1      41.204  33.753  35.157  1.00  0.00    -0.203 F 
ATOM     44  C   UNL A   1      39.797  34.105  37.012  1.00  0.00     0.198 A 
ATOM     45  C   UNL A   1      38.228  32.410  37.668  1.00  0.00     0.198 A 
ATOM     46  F   UNL A   1      38.111  30.388  36.469  1.00  0.00    -0.203 F 
ATOM     47  F   UNL A   1      40.355  35.308  37.209  1.00  0.00    -0.200 F 
ATOM     48  C   UNL A   1      38.793  33.661  37.861  1.00  0.00     0.200 A 
ATOM     49  F   UNL A   1      37.254  31.982  38.484  1.00  0.00    -0.200 F 
ATOM     50  F   UNL A   1      38.373  34.439  38.869  1.00  0.00    -0.200 F 
ENDBRANCH  26  40
BRANCH  27  51
ATOM     51  C   UNL A   1      42.339  26.666  27.789  1.00  0.00     0.064 A 
ATOM     52  C   UNL A   1      43.313  27.123  26.892  1.00  0.00     0.173 A 
ATOM     53  C   UNL A   1      41.770  25.406  27.557  1.00  0.00     0.173 A 
ATOM     54  F   UNL A   1      43.870  28.330  27.068  1.00  0.00    -0.203 F 
ATOM     55  C   UNL A   1      43.703  26.349  25.802  1.00  0.00     0.198 A 
ATOM     56  C   UNL A   1      42.176  24.624  26.478  1.00  0.00     0.198 A 
ATOM     57  F   UNL A   1      40.838  24.926  28.392  1.00  0.00    -0.203 F 
ATOM     58  F   UNL A   1      44.623  26.816  24.947  1.00  0.00    -0.200 F 
ATOM     59  C   UNL A   1      43.141  25.097  25.601  1.00  0.00     0.200 A 
ATOM     60  F   UNL A   1      41.639  23.410  26.293  1.00  0.00    -0.200 F 
ATOM     61  F   UNL A   1      43.526  24.347  24.559  1.00  0.00    -0.200 F 
ENDBRANCH  27  51
BRANCH  39  62
ATOM     62  C   UNL A   1      44.949  27.377  34.197  1.00  0.00     0.064 A 
ATOM     63  C   UNL A   1      46.194  28.022  34.163  1.00  0.00     0.173 A 
ATOM     64  C   UNL A   1      44.846  26.171  34.903  1.00  0.00     0.173 A 
ATOM     65  F   UNL A   1      46.340  29.170  33.484  1.00  0.00    -0.203 F 
ATOM     66  C   UNL A   1      47.300  27.470  34.801  1.00  0.00     0.198 A 
ATOM     67  C   UNL A   1      45.952  25.630  35.555  1.00  0.00     0.198 A 
ATOM     68  F   UNL A   1      43.675  25.519  34.963  1.00  0.00    -0.203 F 
ATOM     69  F   UNL A   1      48.488  28.085  34.730  1.00  0.00    -0.200 F 
ATOM     70  C   UNL A   1      47.178  26.277  35.500  1.00  0.00     0.200 A 
ATOM     71  F   UNL A   1      45.833  24.479  36.231  1.00  0.00    -0.200 F 
ATOM     72  F   UNL A   1      48.244  25.747  36.112  1.00  0.00    -0.200 F 
ENDBRANCH  39  62
ENDBRANCH  13  14
ENDBRANCH   6   8
ENDBRANCH   3   4
ENDBRANCH   2   3
ENDBRANCH   1   2
BRANCH   1  73
ATOM     73  N   UNL A   1      31.023  27.035  27.266  1.00  0.00    -0.352 N 
ATOM     74  C   UNL A   1      30.931  26.116  26.249  1.00  0.00     0.253 C 
ATOM     75  H   UNL A   1      30.264  27.046  27.894  1.00  0.00     0.163 HD
ATOM     76  O   UNL A   1      29.908  25.457  26.098  1.00  0.00    -0.269 OA
BRANCH  74  77
ATOM     77  C   UNL A   1      32.059  25.942  25.316  1.00  0.00     0.063 A 
ATOM     78  C   UNL A   1      33.014  24.971  25.654  1.00  0.00     0.016 A 
ATOM     79  C   UNL A   1      32.175  26.691  24.133  1.00  0.00     0.062 A 
ATOM     80  C   UNL A   1      34.055  24.688  24.775  1.00  0.00     0.001 A 
ATOM     81  C   UNL A   1      33.177  26.332  23.228  1.00  0.00     0.027 A 
ATOM     82  C   UNL A   1      34.115  25.344  23.550  1.00  0.00     0.002 A 
BRANCH  79  83
ATOM     83  N   UNL A   1      31.389  27.882  23.966  1.00  0.00    -0.279 N 
ATOM     84  H   UNL A   1      31.617  28.659  24.526  1.00  0.00     0.180 HD
BRANCH  83  85
ATOM     85  S   UNL A   1      30.116  28.052  22.893  1.00  0.00     0.262 S 
ATOM     86  O   UNL A   1      30.581  27.692  21.572  1.00  0.00    -0.201 OA
ATOM     87  O   UNL A   1      28.983  27.393  23.504  1.00  0.00    -0.201 OA
BRANCH  85  88
ATOM     88  C   UNL A   1      29.736  29.785  22.871  1.00  0.00     0.094 A 
ATOM     89  C   UNL A   1      29.860  30.493  24.073  1.00  0.00     0.023 A 
ATOM     90  C   UNL A   1      29.163  30.378  21.744  1.00  0.00     0.107 A 
ATOM     91  C   UNL A   1      29.375  31.797  24.163  1.00  0.00     0.008 A 
ATOM     92  C   UNL A   1      28.624  31.663  21.867  1.00  0.00     0.270 A 
ATOM     93  C   UNL A   1      28.733  32.378  23.068  1.00  0.00     0.086 A 
BRANCH  92  94
ATOM     94  N   UNL A   1      27.849  32.227  20.755  1.00  0.00     0.062 N 
ATOM     95  O   UNL A   1      27.558  33.429  20.810  1.00  0.00    -0.258 OA
ATOM     96  O   UNL A   1      27.506  31.458  19.847  1.00  0.00    -0.258 OA
ENDBRANCH  92  94
ENDBRANCH  85  88
ENDBRANCH  83  85
ENDBRANCH  79  83
ENDBRANCH  74  77
ENDBRANCH   1  73
TORSDOF 14
ENDMDL
MODEL 3
REMARK VINA RESULT:     -12.1      4.139      9.479
REMARK SMILES O=C(NCCCNC(=O)c1ccccc1NS(=O)(=O)c1cccc([N+](=O)[O-])c1)c1ccc(-c2c3nc(c(-c4c(F)c(F)c(F)c(F)c4F)c4ccc([nH]4)c(-c4c(F)c(F)c(F)c(F)c4F)c4nc(c(-c5c(F)c(F)c(F)c(F)c5F)c5ccc2[nH]5)C=C4)C=C3)cc1
REMARK SMILES IDX 6 1 5 2 4 3 3 4 1 5 2 6 29 8 30 9 91 10 31 11 90 12 32 13
REMARK SMILES IDX 33 14 34 15 84 16 35 17 89 18 83 19 85 20 36 21 88 22 82 23
REMARK SMILES IDX 81 24 37 26 69 27 49 28 68 29 50 30 53 31 67 32 86 33 51 34
REMARK SMILES IDX 52 35 66 37 87 38 54 39 38 40 39 41 47 42 40 43 41 44 45 45
REMARK SMILES IDX 48 46 42 47 43 48 46 49 44 50 70 51 71 52 79 53 72 54 73 55
REMARK SMILES IDX 77 56 80 57 74 58 75 59 78 60 76 61 55 62 56 63 64 64 57 65
REMARK SMILES IDX 58 66 62 67 65 68 59 69 60 70 63 71 61 72 7 73 8 74 9 76
REMARK SMILES IDX 10 77 11 78 15 79 12 80 14 81 13 82 16 83 17 85 18 86 19 87
REMARK SMILES IDX 20 88 21 89 28 90 22 91 24 92 23 93 25 94 26 95 27 96
REMARK H PARENT 3 7 85 25 53 36 7 75 16 84
REMARK Flexibility Score: inf
ROOT
ATOM      1  C   UNL A   1      35.104  24.469  25.025  1.00  0.00     0.118 C 
ENDROOT
BRANCH   1   2
ATOM      2  C   UNL A   1      35.511  23.010  24.870  1.00  0.00     0.042 C 
BRANCH   2   3
ATOM      3  C   UNL A   1      35.955  22.354  26.169  1.00  0.00     0.118 C 
BRANCH   3   4
ATOM      4  N   UNL A   1      36.959  21.319  25.962  1.00  0.00    -0.352 N 
ATOM      5  O   UNL A   1      38.938  20.373  25.508  1.00  0.00    -0.269 OA
ATOM      6  C   UNL A   1      38.329  21.366  25.903  1.00  0.00     0.251 C 
ATOM      7  H   UNL A   1      36.585  20.417  25.842  1.00  0.00     0.163 HD
BRANCH   6   8
ATOM      8  C   UNL A   1      39.095  22.572  26.294  1.00  0.00     0.039 A 
ATOM      9  C   UNL A   1      38.770  23.840  25.814  1.00  0.00     0.014 A 
ATOM     10  C   UNL A   1      40.107  22.441  27.256  1.00  0.00     0.014 A 
ATOM     11  C   UNL A   1      39.535  24.945  26.183  1.00  0.00     0.010 A 
ATOM     12  C   UNL A   1      40.815  23.565  27.696  1.00  0.00     0.010 A 
ATOM     13  C   UNL A   1      40.552  24.824  27.143  1.00  0.00    -0.014 A 
BRANCH  13  14
ATOM     14  C   UNL A   1      41.268  26.045  27.594  1.00  0.00     0.031 A 
ATOM     15  C   UNL A   1      42.672  26.336  27.148  1.00  0.00     0.074 A 
ATOM     16  C   UNL A   1      40.620  26.919  28.388  1.00  0.00     0.049 A 
ATOM     17  N   UNL A   1      43.415  27.386  27.399  1.00  0.00    -0.248 NA
ATOM     18  C   UNL A   1      43.337  25.316  26.324  1.00  0.00     0.031 C 
ATOM     19  C   UNL A   1      39.268  26.732  28.917  1.00  0.00     0.029 A 
ATOM     20  N   UNL A   1      40.995  28.151  28.863  1.00  0.00    -0.354 N 
ATOM     21  C   UNL A   1      44.637  27.143  26.788  1.00  0.00     0.074 A 
ATOM     22  C   UNL A   1      44.545  25.840  26.164  1.00  0.00     0.031 C 
ATOM     23  C   UNL A   1      38.902  27.834  29.590  1.00  0.00     0.029 A 
ATOM     24  C   UNL A   1      40.007  28.786  29.575  1.00  0.00     0.049 A 
ATOM     25  H   UNL A   1      41.885  28.541  28.708  1.00  0.00     0.167 HD
ATOM     26  C   UNL A   1      45.732  27.938  26.749  1.00  0.00     0.037 A 
ATOM     27  C   UNL A   1      39.989  30.003  30.149  1.00  0.00     0.037 A 
ATOM     28  C   UNL A   1      45.813  29.249  27.337  1.00  0.00     0.049 A 
ATOM     29  C   UNL A   1      41.200  30.881  30.048  1.00  0.00     0.074 A 
ATOM     30  C   UNL A   1      46.868  30.146  27.306  1.00  0.00     0.029 A 
ATOM     31  N   UNL A   1      44.796  29.852  28.059  1.00  0.00    -0.354 N 
ATOM     32  N   UNL A   1      42.337  30.650  29.442  1.00  0.00    -0.248 NA
ATOM     33  C   UNL A   1      41.128  32.187  30.718  1.00  0.00     0.031 C 
ATOM     34  C   UNL A   1      46.496  31.284  28.030  1.00  0.00     0.029 A 
ATOM     35  C   UNL A   1      45.202  31.106  28.490  1.00  0.00     0.049 A 
ATOM     36  H   UNL A   1      43.916  29.451  28.240  1.00  0.00     0.167 HD
ATOM     37  C   UNL A   1      43.119  31.772  29.660  1.00  0.00     0.074 A 
ATOM     38  C   UNL A   1      42.316  32.700  30.431  1.00  0.00     0.031 C 
ATOM     39  C   UNL A   1      44.393  32.009  29.265  1.00  0.00     0.037 A 
BRANCH  26  40
ATOM     40  C   UNL A   1      46.947  27.407  26.049  1.00  0.00     0.064 A 
ATOM     41  C   UNL A   1      47.158  27.629  24.681  1.00  0.00     0.173 A 
ATOM     42  C   UNL A   1      47.932  26.714  26.766  1.00  0.00     0.173 A 
ATOM     43  F   UNL A   1      46.237  28.277  23.952  1.00  0.00    -0.203 F 
ATOM     44  C   UNL A   1      48.310  27.162  24.052  1.00  0.00     0.198 A 
ATOM     45  C   UNL A   1      49.090  26.263  26.138  1.00  0.00     0.198 A 
ATOM     46  F   UNL A   1      47.775  26.481  28.078  1.00  0.00    -0.203 F 
ATOM     47  F   UNL A   1      48.481  27.360  22.738  1.00  0.00    -0.200 F 
ATOM     48  C   UNL A   1      49.276  26.485  24.782  1.00  0.00     0.200 A 
ATOM     49  F   UNL A   1      50.026  25.615  26.846  1.00  0.00    -0.200 F 
ATOM     50  F   UNL A   1      50.387  26.042  24.177  1.00  0.00    -0.200 F 
ENDBRANCH  26  40
BRANCH  27  51
ATOM     51  C   UNL A   1      38.764  30.460  30.848  1.00  0.00     0.064 A 
ATOM     52  C   UNL A   1      38.662  30.378  32.242  1.00  0.00     0.173 A 
ATOM     53  C   UNL A   1      37.692  31.023  30.141  1.00  0.00     0.173 A 
ATOM     54  F   UNL A   1      39.657  29.832  32.956  1.00  0.00    -0.203 F 
ATOM     55  C   UNL A   1      37.529  30.842  32.906  1.00  0.00     0.198 A 
ATOM     56  C   UNL A   1      36.568  31.505  30.807  1.00  0.00     0.198 A 
ATOM     57  F   UNL A   1      37.750  31.125  28.806  1.00  0.00    -0.203 F 
ATOM     58  F   UNL A   1      37.445  30.736  34.239  1.00  0.00    -0.200 F 
ATOM     59  C   UNL A   1      36.487  31.412  32.189  1.00  0.00     0.200 A 
ATOM     60  F   UNL A   1      35.569  32.065  30.112  1.00  0.00    -0.200 F 
ATOM     61  F   UNL A   1      35.402  31.871  32.829  1.00  0.00    -0.200 F 
ENDBRANCH  27  51
BRANCH  39  62
ATOM     62  C   UNL A   1      44.995  33.317  29.671  1.00  0.00     0.064 A 
ATOM     63  C   UNL A   1      45.725  33.439  30.863  1.00  0.00     0.173 A 
ATOM     64  C   UNL A   1      44.867  34.448  28.854  1.00  0.00     0.173 A 
ATOM     65  F   UNL A   1      45.859  32.384  31.682  1.00  0.00    -0.203 F 
ATOM     66  C   UNL A   1      46.294  34.655  31.229  1.00  0.00     0.198 A 
ATOM     67  C   UNL A   1      45.452  35.659  29.217  1.00  0.00     0.198 A 
ATOM     68  F   UNL A   1      44.178  34.379  27.706  1.00  0.00    -0.203 F 
ATOM     69  F   UNL A   1      46.960  34.758  32.388  1.00  0.00    -0.200 F 
ATOM     70  C   UNL A   1      46.160  35.762  30.405  1.00  0.00     0.200 A 
ATOM     71  F   UNL A   1      45.324  36.728  28.419  1.00  0.00    -0.200 F 
ATOM     72  F   UNL A   1      46.707  36.932  30.760  1.00  0.00    -0.200 F 
ENDBRANCH  39  62
ENDBRANCH  13  14
ENDBRANCH   6   8
ENDBRANCH   3   4
ENDBRANCH   2   3
ENDBRANCH   1   2
BRANCH   1  73
ATOM     73  N   UNL A   1      34.412  25.003  23.858  1.00  0.00    -0.352 N 
ATOM     74  C   UNL A   1      33.363  25.888  23.793  1.00  0.00     0.253 C 
ATOM     75  H   UNL A   1      34.747  24.683  22.989  1.00  0.00     0.163 HD
ATOM     76  O   UNL A   1      32.832  26.143  22.718  1.00  0.00    -0.269 OA
BRANCH  74  77
ATOM     77  C   UNL A   1      32.854  26.512  25.028  1.00  0.00     0.063 A 
ATOM     78  C   UNL A   1      33.607  27.572  25.556  1.00  0.00     0.016 A 
ATOM     79  C   UNL A   1      31.665  26.089  25.645  1.00  0.00     0.062 A 
ATOM     80  C   UNL A   1      33.138  28.268  26.666  1.00  0.00     0.001 A 
ATOM     81  C   UNL A   1      31.172  26.854  26.705  1.00  0.00     0.027 A 
ATOM     82  C   UNL A   1      31.906  27.930  27.218  1.00  0.00     0.002 A 
BRANCH  79  83
ATOM     83  N   UNL A   1      31.092  24.820  25.291  1.00  0.00    -0.279 N 
ATOM     84  H   UNL A   1      30.508  24.791  24.500  1.00  0.00     0.180 HD
BRANCH  83  85
ATOM     85  S   UNL A   1      31.342  23.387  26.120  1.00  0.00     0.262 S 
ATOM     86  O   UNL A   1      32.430  23.583  27.051  1.00  0.00    -0.201 OA
ATOM     87  O   UNL A   1      30.038  22.942  26.558  1.00  0.00    -0.201 OA
BRANCH  85  88
ATOM     88  C   UNL A   1      31.887  22.218  24.900  1.00  0.00     0.094 A 
ATOM     89  C   UNL A   1      31.803  22.595  23.554  1.00  0.00     0.023 A 
ATOM     90  C   UNL A   1      32.214  20.909  25.261  1.00  0.00     0.107 A 
ATOM     91  C   UNL A   1      32.013  21.648  22.554  1.00  0.00     0.008 A 
ATOM     92  C   UNL A   1      32.361  19.955  24.248  1.00  0.00     0.270 A 
ATOM     93  C   UNL A   1      32.269  20.319  22.897  1.00  0.00     0.086 A 
BRANCH  92  94
ATOM     94  N   UNL A   1      32.513  18.541  24.610  1.00  0.00     0.062 N 
ATOM     95  O   UNL A   1      32.690  17.729  23.691  1.00  0.00    -0.258 OA
ATOM     96  O   UNL A   1      32.422  18.243  25.808  1.00  0.00    -0.258 OA
ENDBRANCH  92  94
ENDBRANCH  85  88
ENDBRANCH  83  85
ENDBRANCH  79  83
ENDBRANCH  74  77
ENDBRANCH   1  73
TORSDOF 14
ENDMDL
