MODEL 1
REMARK VINA RESULT:     -13.1      0.000      0.000
REMARK SMILES COc1ccc(NS(=O)(=O)c2ccc(NC(=O)[C@H]3CCCC[C@@H]3C(=O)NCCCNC(=O)c3ccc(-c4c5nc(c(-c6c(F)c(F)c(F)c(F)c6F)c6ccc([nH]6)c(-c6c(F)c(F)c(F)c(F)c6F)c6nc(c(-c7c(F)c(F)c(F)c(F)c7F)c7ccc4[nH]7)C=C6)C=C5)cc3)cc2)cc1
REMARK SMILES IDX 24 1 25 2 26 3 23 5 18 6 19 7 20 8 22 9 21 10 16 11 15 12
REMARK SMILES IDX 17 14 14 15 11 16 12 17 97 18 13 19 96 20 8 21 9 22 10 23
REMARK SMILES IDX 7 24 6 26 3 27 4 28 99 29 5 30 98 31 2 32 1 33 27 34 28 35
REMARK SMILES IDX 29 36 30 37 31 38 32 40 33 41 34 42 95 43 35 44 94 45 36 46
REMARK SMILES IDX 37 47 38 48 88 49 39 50 93 51 87 52 89 53 40 54 92 55 86 56
REMARK SMILES IDX 85 57 41 59 73 60 53 61 72 62 54 63 57 64 71 65 90 66 55 67
REMARK SMILES IDX 56 68 70 70 91 71 58 72 42 73 43 74 51 75 44 76 45 77 49 78
REMARK SMILES IDX 52 79 46 80 47 81 50 82 48 83 74 84 75 85 83 86 76 87 77 88
REMARK SMILES IDX 81 89 84 90 78 91 79 92 82 93 80 94 59 95 60 96 68 97 61 98
REMARK SMILES IDX 62 99 66 100 69 101 63 102 64 103 67 104 65 105
REMARK H PARENT 26 4 15 13 7 25 30 39 89 58 57 69
REMARK Flexibility Score: inf
ROOT
ATOM      1  C   UNL A   1      38.841  23.208  26.216  1.00  0.00     0.223 C 
ATOM      2  O   UNL A   1      38.733  24.441  26.130  1.00  0.00    -0.275 OA
ATOM      3  N   UNL A   1      40.124  22.757  26.257  1.00  0.00    -0.356 N 
ATOM      4  H   UNL A   1      40.755  23.278  25.709  1.00  0.00     0.163 HD
ENDROOT
BRANCH   1   5
ATOM      5  C   UNL A   1      37.577  22.347  26.003  1.00  0.00     0.091 C 
ATOM      6  C   UNL A   1      37.318  21.577  24.703  1.00  0.00     0.091 C 
ATOM      7  C   UNL A   1      36.663  22.366  23.572  1.00  0.00     0.014 C 
ATOM      8  C   UNL A   1      35.705  23.485  23.970  1.00  0.00     0.001 C 
ATOM      9  C   UNL A   1      36.388  23.196  26.440  1.00  0.00     0.014 C 
ATOM     10  C   UNL A   1      35.863  24.114  25.352  1.00  0.00     0.001 C 
BRANCH   6  11
ATOM     11  C   UNL A   1      36.735  20.145  24.918  1.00  0.00     0.228 C 
ATOM     12  N   UNL A   1      35.395  19.844  24.911  1.00  0.00    -0.326 N 
ATOM     13  H   UNL A   1      35.178  18.924  24.637  1.00  0.00     0.169 HD
ATOM     14  O   UNL A   1      37.520  19.189  24.984  1.00  0.00    -0.274 OA
BRANCH  12  15
ATOM     15  C   UNL A   1      34.289  20.639  25.231  1.00  0.00     0.041 A 
ATOM     16  C   UNL A   1      32.370  22.588  25.763  1.00  0.00     0.087 A 
ATOM     17  C   UNL A   1      33.130  22.062  26.814  1.00  0.00     0.024 A 
ATOM     18  C   UNL A   1      32.468  22.037  24.477  1.00  0.00     0.024 A 
ATOM     19  C   UNL A   1      34.076  21.067  26.541  1.00  0.00     0.027 A 
ATOM     20  C   UNL A   1      33.406  21.028  24.221  1.00  0.00     0.027 A 
BRANCH  16  21
ATOM     21  S   UNL A   1      31.470  24.109  26.003  1.00  0.00     0.261 S 
ATOM     22  O   UNL A   1      32.421  25.198  25.932  1.00  0.00    -0.201 OA
ATOM     23  O   UNL A   1      30.642  23.950  27.184  1.00  0.00    -0.201 OA
BRANCH  21  24
ATOM     24  N   UNL A   1      30.410  24.289  24.680  1.00  0.00    -0.280 N 
ATOM     25  H   UNL A   1      29.788  23.572  24.413  1.00  0.00     0.180 HD
BRANCH  24  26
ATOM     26  C   UNL A   1      30.470  25.533  23.977  1.00  0.00     0.049 A 
ATOM     27  C   UNL A   1      30.301  27.866  22.457  1.00  0.00     0.119 A 
ATOM     28  C   UNL A   1      29.512  27.713  23.595  1.00  0.00     0.048 A 
ATOM     29  C   UNL A   1      31.236  26.882  22.128  1.00  0.00     0.048 A 
ATOM     30  C   UNL A   1      29.619  26.563  24.370  1.00  0.00     0.030 A 
ATOM     31  C   UNL A   1      31.306  25.699  22.875  1.00  0.00     0.030 A 
BRANCH  27  32
ATOM     32  O   UNL A   1      30.077  29.018  21.759  1.00  0.00    -0.497 OA
ATOM     33  C   UNL A   1      28.929  29.764  22.146  1.00  0.00     0.278 C 
ENDBRANCH  27  32
ENDBRANCH  24  26
ENDBRANCH  21  24
ENDBRANCH  16  21
ENDBRANCH  12  15
ENDBRANCH   6  11
ENDBRANCH   1   5
BRANCH   3  34
ATOM     34  C   UNL A   1      40.727  21.642  26.964  1.00  0.00     0.117 C 
BRANCH  34  35
ATOM     35  C   UNL A   1      41.075  20.447  26.084  1.00  0.00     0.042 C 
BRANCH  35  36
ATOM     36  C   UNL A   1      42.128  19.487  26.601  1.00  0.00     0.118 C 
BRANCH  36  37
ATOM     37  N   UNL A   1      43.057  19.104  25.559  1.00  0.00    -0.352 N 
ATOM     38  C   UNL A   1      43.886  19.855  24.766  1.00  0.00     0.251 C 
ATOM     39  H   UNL A   1      43.102  18.135  25.392  1.00  0.00     0.163 HD
ATOM     40  O   UNL A   1      44.335  19.329  23.747  1.00  0.00    -0.269 OA
BRANCH  38  41
ATOM     41  C   UNL A   1      44.280  21.252  25.091  1.00  0.00     0.039 A 
ATOM     42  C   UNL A   1      45.042  21.459  26.249  1.00  0.00     0.014 A 
ATOM     43  C   UNL A   1      43.816  22.366  24.384  1.00  0.00     0.014 A 
ATOM     44  C   UNL A   1      45.311  22.755  26.701  1.00  0.00     0.010 A 
ATOM     45  C   UNL A   1      44.176  23.658  24.774  1.00  0.00     0.010 A 
ATOM     46  C   UNL A   1      44.877  23.869  25.967  1.00  0.00    -0.014 A 
BRANCH  46  47
ATOM     47  C   UNL A   1      45.071  25.245  26.499  1.00  0.00     0.031 A 
ATOM     48  C   UNL A   1      46.422  25.911  26.403  1.00  0.00     0.074 A 
ATOM     49  C   UNL A   1      44.036  25.900  27.057  1.00  0.00     0.049 A 
ATOM     50  N   UNL A   1      46.785  27.114  26.776  1.00  0.00    -0.248 NA
ATOM     51  C   UNL A   1      47.520  25.112  25.838  1.00  0.00     0.031 C 
ATOM     52  C   UNL A   1      42.695  25.348  27.249  1.00  0.00     0.029 A 
ATOM     53  N   UNL A   1      43.945  27.176  27.554  1.00  0.00    -0.354 N 
ATOM     54  C   UNL A   1      48.145  27.204  26.503  1.00  0.00     0.074 A 
ATOM     55  C   UNL A   1      48.560  25.916  25.996  1.00  0.00     0.031 C 
ATOM     56  C   UNL A   1      41.904  26.291  27.786  1.00  0.00     0.029 A 
ATOM     57  C   UNL A   1      42.689  27.503  28.004  1.00  0.00     0.049 A 
ATOM     58  H   UNL A   1      44.707  27.798  27.586  1.00  0.00     0.167 HD
ATOM     59  C   UNL A   1      48.969  28.272  26.631  1.00  0.00     0.037 A 
ATOM     60  C   UNL A   1      42.223  28.653  28.526  1.00  0.00     0.037 A 
ATOM     61  C   UNL A   1      48.545  29.562  27.108  1.00  0.00     0.049 A 
ATOM     62  C   UNL A   1      43.154  29.829  28.647  1.00  0.00     0.074 A 
ATOM     63  C   UNL A   1      49.281  30.728  27.224  1.00  0.00     0.029 A 
ATOM     64  N   UNL A   1      47.261  29.854  27.549  1.00  0.00    -0.354 N 
ATOM     65  N   UNL A   1      44.419  29.922  28.316  1.00  0.00    -0.248 NA
ATOM     66  C   UNL A   1      42.587  31.065  29.203  1.00  0.00     0.031 C 
ATOM     67  C   UNL A   1      48.457  31.712  27.781  1.00  0.00     0.029 A 
ATOM     68  C   UNL A   1      47.192  31.176  27.960  1.00  0.00     0.049 A 
ATOM     69  H   UNL A   1      46.511  29.217  27.567  1.00  0.00     0.167 HD
ATOM     70  C   UNL A   1      44.794  31.229  28.601  1.00  0.00     0.074 A 
ATOM     71  C   UNL A   1      43.613  31.898  29.106  1.00  0.00     0.031 C 
ATOM     72  C   UNL A   1      46.006  31.821  28.463  1.00  0.00     0.037 A 
BRANCH  59  73
ATOM     73  C   UNL A   1      50.411  28.091  26.246  1.00  0.00     0.064 A 
ATOM     74  C   UNL A   1      50.825  28.100  24.905  1.00  0.00     0.173 A 
ATOM     75  C   UNL A   1      51.399  27.932  27.231  1.00  0.00     0.173 A 
ATOM     76  F   UNL A   1      49.923  28.236  23.921  1.00  0.00    -0.203 F 
ATOM     77  C   UNL A   1      52.164  27.921  24.564  1.00  0.00     0.198 A 
ATOM     78  C   UNL A   1      52.740  27.789  26.888  1.00  0.00     0.198 A 
ATOM     79  F   UNL A   1      51.063  27.923  28.531  1.00  0.00    -0.203 F 
ATOM     80  F   UNL A   1      52.524  27.877  23.273  1.00  0.00    -0.200 F 
ATOM     81  C   UNL A   1      53.121  27.774  25.555  1.00  0.00     0.200 A 
ATOM     82  F   UNL A   1      53.667  27.661  27.848  1.00  0.00    -0.200 F 
ATOM     83  F   UNL A   1      54.410  27.610  25.226  1.00  0.00    -0.200 F 
ENDBRANCH  59  73
BRANCH  60  84
ATOM     84  C   UNL A   1      40.797  28.759  28.937  1.00  0.00     0.064 A 
ATOM     85  C   UNL A   1      40.408  28.520  30.263  1.00  0.00     0.173 A 
ATOM     86  C   UNL A   1      39.795  29.096  28.016  1.00  0.00     0.173 A 
ATOM     87  F   UNL A   1      41.325  28.175  31.178  1.00  0.00    -0.203 F 
ATOM     88  C   UNL A   1      39.070  28.592  30.646  1.00  0.00     0.198 A 
ATOM     89  C   UNL A   1      38.462  29.199  28.405  1.00  0.00     0.198 A 
ATOM     90  F   UNL A   1      40.114  29.340  26.736  1.00  0.00    -0.203 F 
ATOM     91  F   UNL A   1      38.720  28.311  31.908  1.00  0.00    -0.200 F 
ATOM     92  C   UNL A   1      38.099  28.938  29.719  1.00  0.00     0.200 A 
ATOM     93  F   UNL A   1      37.529  29.549  27.510  1.00  0.00    -0.200 F 
ATOM     94  F   UNL A   1      36.812  29.012  30.087  1.00  0.00    -0.200 F 
ENDBRANCH  60  84
BRANCH  72  95
ATOM     95  C   UNL A   1      46.102  33.271  28.845  1.00  0.00     0.064 A 
ATOM     96  C   UNL A   1      45.846  34.294  27.921  1.00  0.00     0.173 A 
ATOM     97  C   UNL A   1      46.439  33.639  30.157  1.00  0.00     0.173 A 
ATOM     98  F   UNL A   1      45.533  33.995  26.651  1.00  0.00    -0.203 F 
ATOM     99  C   UNL A   1      45.962  35.632  28.286  1.00  0.00     0.198 A 
ATOM    100  C   UNL A   1      46.520  34.979  30.527  1.00  0.00     0.198 A 
ATOM    101  F   UNL A   1      46.685  32.699  31.082  1.00  0.00    -0.203 F 
ATOM    102  F   UNL A   1      45.775  36.593  27.370  1.00  0.00    -0.200 F 
ATOM    103  C   UNL A   1      46.292  35.973  29.589  1.00  0.00     0.200 A 
ATOM    104  F   UNL A   1      46.824  35.306  31.790  1.00  0.00    -0.200 F 
ATOM    105  F   UNL A   1      46.403  37.262  29.938  1.00  0.00    -0.200 F 
ENDBRANCH  72  95
ENDBRANCH  46  47
ENDBRANCH  38  41
ENDBRANCH  36  37
ENDBRANCH  35  36
ENDBRANCH  34  35
ENDBRANCH   3  34
TORSDOF 16
ENDMDL
MODEL 2
REMARK VINA RESULT:     -12.9      3.451      9.793
REMARK SMILES COc1ccc(NS(=O)(=O)c2ccc(NC(=O)[C@H]3CCCC[C@@H]3C(=O)NCCCNC(=O)c3ccc(-c4c5nc(c(-c6c(F)c(F)c(F)c(F)c6F)c6ccc([nH]6)c(-c6c(F)c(F)c(F)c(F)c6F)c6nc(c(-c7c(F)c(F)c(F)c(F)c7F)c7ccc4[nH]7)C=C6)C=C5)cc3)cc2)cc1
REMARK SMILES IDX 24 1 25 2 26 3 23 5 18 6 19 7 20 8 22 9 21 10 16 11 15 12
REMARK SMILES IDX 17 14 14 15 11 16 12 17 97 18 13 19 96 20 8 21 9 22 10 23
REMARK SMILES IDX 7 24 6 26 3 27 4 28 99 29 5 30 98 31 2 32 1 33 27 34 28 35
REMARK SMILES IDX 29 36 30 37 31 38 32 40 33 41 34 42 95 43 35 44 94 45 36 46
REMARK SMILES IDX 37 47 38 48 88 49 39 50 93 51 87 52 89 53 40 54 92 55 86 56
REMARK SMILES IDX 85 57 41 59 73 60 53 61 72 62 54 63 57 64 71 65 90 66 55 67
REMARK SMILES IDX 56 68 70 70 91 71 58 72 42 73 43 74 51 75 44 76 45 77 49 78
REMARK SMILES IDX 52 79 46 80 47 81 50 82 48 83 74 84 75 85 83 86 76 87 77 88
REMARK SMILES IDX 81 89 84 90 78 91 79 92 82 93 80 94 59 95 60 96 68 97 61 98
REMARK SMILES IDX 62 99 66 100 69 101 63 102 64 103 67 104 65 105
REMARK H PARENT 26 4 15 13 7 25 30 39 89 58 57 69
REMARK Flexibility Score: inf
ROOT
ATOM      1  C   UNL A   1      34.719  30.109  27.660  1.00  0.00     0.223 C 
ATOM      2  O   UNL A   1      35.522  29.181  27.841  1.00  0.00    -0.275 OA
ATOM      3  N   UNL A   1      34.710  31.046  28.647  1.00  0.00    -0.356 N 
ATOM      4  H   UNL A   1      34.863  30.686  29.550  1.00  0.00     0.163 HD
ENDROOT
BRANCH   1   5
ATOM      5  C   UNL A   1      33.678  29.965  26.528  1.00  0.00     0.091 C 
ATOM      6  C   UNL A   1      32.169  29.967  26.796  1.00  0.00     0.091 C 
ATOM      7  C   UNL A   1      31.553  28.627  27.190  1.00  0.00     0.014 C 
ATOM      8  C   UNL A   1      32.198  27.370  26.613  1.00  0.00     0.001 C 
ATOM      9  C   UNL A   1      34.128  28.793  25.664  1.00  0.00     0.014 C 
ATOM     10  C   UNL A   1      33.658  27.444  26.175  1.00  0.00     0.001 C 
BRANCH   6  11
ATOM     11  C   UNL A   1      31.339  30.783  25.755  1.00  0.00     0.228 C 
ATOM     12  N   UNL A   1      30.762  30.244  24.631  1.00  0.00    -0.326 N 
ATOM     13  H   UNL A   1      29.961  30.718  24.309  1.00  0.00     0.169 HD
ATOM     14  O   UNL A   1      31.077  31.968  26.003  1.00  0.00    -0.274 OA
BRANCH  12  15
ATOM     15  C   UNL A   1      31.131  29.130  23.872  1.00  0.00     0.041 A 
ATOM     16  C   UNL A   1      32.063  26.749  22.761  1.00  0.00     0.087 A 
ATOM     17  C   UNL A   1      32.825  27.916  22.634  1.00  0.00     0.024 A 
ATOM     18  C   UNL A   1      30.775  26.805  23.314  1.00  0.00     0.024 A 
ATOM     19  C   UNL A   1      32.339  29.112  23.174  1.00  0.00     0.027 A 
ATOM     20  C   UNL A   1      30.292  28.013  23.835  1.00  0.00     0.027 A 
BRANCH  16  21
ATOM     21  S   UNL A   1      32.822  25.164  22.454  1.00  0.00     0.261 S 
ATOM     22  O   UNL A   1      33.763  24.913  23.525  1.00  0.00    -0.201 OA
ATOM     23  O   UNL A   1      33.276  25.153  21.077  1.00  0.00    -0.201 OA
BRANCH  21  24
ATOM     24  N   UNL A   1      31.600  23.981  22.580  1.00  0.00    -0.280 N 
ATOM     25  H   UNL A   1      30.732  24.083  22.125  1.00  0.00     0.180 HD
BRANCH  24  26
ATOM     26  C   UNL A   1      31.901  22.835  23.380  1.00  0.00     0.049 A 
ATOM     27  C   UNL A   1      32.211  20.459  24.810  1.00  0.00     0.119 A 
ATOM     28  C   UNL A   1      32.568  20.519  23.465  1.00  0.00     0.048 A 
ATOM     29  C   UNL A   1      31.775  21.616  25.461  1.00  0.00     0.048 A 
ATOM     30  C   UNL A   1      32.443  21.712  22.760  1.00  0.00     0.030 A 
ATOM     31  C   UNL A   1      31.595  22.803  24.740  1.00  0.00     0.030 A 
BRANCH  27  32
ATOM     32  O   UNL A   1      32.342  19.226  25.380  1.00  0.00    -0.497 OA
ATOM     33  C   UNL A   1      32.509  18.140  24.477  1.00  0.00     0.278 C 
ENDBRANCH  27  32
ENDBRANCH  24  26
ENDBRANCH  21  24
ENDBRANCH  16  21
ENDBRANCH  12  15
ENDBRANCH   6  11
ENDBRANCH   1   5
BRANCH   3  34
ATOM     34  C   UNL A   1      34.513  32.483  28.603  1.00  0.00     0.117 C 
BRANCH  34  35
ATOM     35  C   UNL A   1      34.434  33.154  29.970  1.00  0.00     0.042 C 
BRANCH  35  36
ATOM     36  C   UNL A   1      34.771  32.306  31.180  1.00  0.00     0.118 C 
BRANCH  36  37
ATOM     37  N   UNL A   1      35.545  33.049  32.153  1.00  0.00    -0.352 N 
ATOM     38  C   UNL A   1      36.850  32.928  32.554  1.00  0.00     0.251 C 
ATOM     39  H   UNL A   1      35.045  33.766  32.605  1.00  0.00     0.163 HD
ATOM     40  O   UNL A   1      37.176  33.462  33.615  1.00  0.00    -0.269 OA
BRANCH  38  41
ATOM     41  C   UNL A   1      37.883  32.210  31.760  1.00  0.00     0.039 A 
ATOM     42  C   UNL A   1      38.787  31.395  32.455  1.00  0.00     0.014 A 
ATOM     43  C   UNL A   1      38.080  32.415  30.390  1.00  0.00     0.014 A 
ATOM     44  C   UNL A   1      39.878  30.820  31.797  1.00  0.00     0.010 A 
ATOM     45  C   UNL A   1      39.106  31.753  29.711  1.00  0.00     0.010 A 
ATOM     46  C   UNL A   1      40.049  30.996  30.416  1.00  0.00    -0.014 A 
BRANCH  46  47
ATOM     47  C   UNL A   1      41.263  30.472  29.733  1.00  0.00     0.031 A 
ATOM     48  C   UNL A   1      41.261  29.084  29.141  1.00  0.00     0.074 A 
ATOM     49  C   UNL A   1      42.362  31.243  29.635  1.00  0.00     0.049 A 
ATOM     50  N   UNL A   1      42.204  28.460  28.479  1.00  0.00    -0.248 NA
ATOM     51  C   UNL A   1      40.046  28.277  29.341  1.00  0.00     0.031 C 
ATOM     52  C   UNL A   1      42.505  32.582  30.206  1.00  0.00     0.029 A 
ATOM     53  N   UNL A   1      43.564  31.018  29.011  1.00  0.00    -0.354 N 
ATOM     54  C   UNL A   1      41.701  27.194  28.200  1.00  0.00     0.074 A 
ATOM     55  C   UNL A   1      40.398  27.111  28.820  1.00  0.00     0.031 C 
ATOM     56  C   UNL A   1      43.709  33.076  29.873  1.00  0.00     0.029 A 
ATOM     57  C   UNL A   1      44.433  32.078  29.092  1.00  0.00     0.049 A 
ATOM     58  H   UNL A   1      43.781  30.176  28.549  1.00  0.00     0.167 HD
ATOM     59  C   UNL A   1      42.259  26.200  27.467  1.00  0.00     0.037 A 
ATOM     60  C   UNL A   1      45.672  32.228  28.587  1.00  0.00     0.037 A 
ATOM     61  C   UNL A   1      43.543  26.298  26.826  1.00  0.00     0.049 A 
ATOM     62  C   UNL A   1      46.265  31.115  27.765  1.00  0.00     0.074 A 
ATOM     63  C   UNL A   1      44.178  25.375  26.014  1.00  0.00     0.029 A 
ATOM     64  N   UNL A   1      44.391  27.392  26.928  1.00  0.00    -0.354 N 
ATOM     65  N   UNL A   1      45.748  29.953  27.449  1.00  0.00    -0.248 NA
ATOM     66  C   UNL A   1      47.610  31.342  27.221  1.00  0.00     0.031 C 
ATOM     67  C   UNL A   1      45.431  25.889  25.664  1.00  0.00     0.029 A 
ATOM     68  C   UNL A   1      45.555  27.157  26.211  1.00  0.00     0.049 A 
ATOM     69  H   UNL A   1      44.196  28.213  27.434  1.00  0.00     0.167 HD
ATOM     70  C   UNL A   1      46.692  29.319  26.650  1.00  0.00     0.074 A 
ATOM     71  C   UNL A   1      47.801  30.240  26.510  1.00  0.00     0.031 C 
ATOM     72  C   UNL A   1      46.649  28.086  26.088  1.00  0.00     0.037 A 
BRANCH  59  73
ATOM     73  C   UNL A   1      41.479  24.923  27.316  1.00  0.00     0.064 A 
ATOM     74  C   UNL A   1      41.831  23.755  28.011  1.00  0.00     0.173 A 
ATOM     75  C   UNL A   1      40.347  24.871  26.487  1.00  0.00     0.173 A 
ATOM     76  F   UNL A   1      42.910  23.743  28.808  1.00  0.00    -0.203 F 
ATOM     77  C   UNL A   1      41.104  22.578  27.854  1.00  0.00     0.198 A 
ATOM     78  C   UNL A   1      39.602  23.702  26.359  1.00  0.00     0.198 A 
ATOM     79  F   UNL A   1      39.959  25.959  25.804  1.00  0.00    -0.203 F 
ATOM     80  F   UNL A   1      41.496  21.461  28.484  1.00  0.00    -0.200 F 
ATOM     81  C   UNL A   1      39.986  22.554  27.035  1.00  0.00     0.200 A 
ATOM     82  F   UNL A   1      38.513  23.684  25.578  1.00  0.00    -0.200 F 
ATOM     83  F   UNL A   1      39.283  21.422  26.890  1.00  0.00    -0.200 F 
ENDBRANCH  59  73
BRANCH  60  84
ATOM     84  C   UNL A   1      46.418  33.495  28.812  1.00  0.00     0.064 A 
ATOM     85  C   UNL A   1      46.294  34.575  27.925  1.00  0.00     0.173 A 
ATOM     86  C   UNL A   1      47.271  33.653  29.914  1.00  0.00     0.173 A 
ATOM     87  F   UNL A   1      45.506  34.466  26.845  1.00  0.00    -0.203 F 
ATOM     88  C   UNL A   1      47.011  35.753  28.119  1.00  0.00     0.198 A 
ATOM     89  C   UNL A   1      47.964  34.844  30.124  1.00  0.00     0.198 A 
ATOM     90  F   UNL A   1      47.421  32.655  30.796  1.00  0.00    -0.203 F 
ATOM     91  F   UNL A   1      46.912  36.749  27.228  1.00  0.00    -0.200 F 
ATOM     92  C   UNL A   1      47.840  35.889  29.221  1.00  0.00     0.200 A 
ATOM     93  F   UNL A   1      48.751  34.978  31.200  1.00  0.00    -0.200 F 
ATOM     94  F   UNL A   1      48.527  37.025  29.410  1.00  0.00    -0.200 F 
ENDBRANCH  60  84
BRANCH  72  95
ATOM     95  C   UNL A   1      47.828  27.677  25.253  1.00  0.00     0.064 A 
ATOM     96  C   UNL A   1      48.982  27.124  25.828  1.00  0.00     0.173 A 
ATOM     97  C   UNL A   1      47.796  27.824  23.858  1.00  0.00     0.173 A 
ATOM     98  F   UNL A   1      49.068  26.975  27.159  1.00  0.00    -0.203 F 
ATOM     99  C   UNL A   1      50.074  26.771  25.042  1.00  0.00     0.198 A 
ATOM    100  C   UNL A   1      48.877  27.437  23.071  1.00  0.00     0.198 A 
ATOM    101  F   UNL A   1      46.713  28.338  23.256  1.00  0.00    -0.203 F 
ATOM    102  F   UNL A   1      51.190  26.306  25.620  1.00  0.00    -0.200 F 
ATOM    103  C   UNL A   1      50.019  26.922  23.665  1.00  0.00     0.200 A 
ATOM    104  F   UNL A   1      48.816  27.569  21.739  1.00  0.00    -0.200 F 
ATOM    105  F   UNL A   1      51.072  26.582  22.909  1.00  0.00    -0.200 F 
ENDBRANCH  72  95
ENDBRANCH  46  47
ENDBRANCH  38  41
ENDBRANCH  36  37
ENDBRANCH  35  36
ENDBRANCH  34  35
ENDBRANCH   3  34
TORSDOF 16
ENDMDL
MODEL 3
REMARK VINA RESULT:     -12.7      5.597     10.808
REMARK SMILES COc1ccc(NS(=O)(=O)c2ccc(NC(=O)[C@H]3CCCC[C@@H]3C(=O)NCCCNC(=O)c3ccc(-c4c5nc(c(-c6c(F)c(F)c(F)c(F)c6F)c6ccc([nH]6)c(-c6c(F)c(F)c(F)c(F)c6F)c6nc(c(-c7c(F)c(F)c(F)c(F)c7F)c7ccc4[nH]7)C=C6)C=C5)cc3)cc2)cc1
REMARK SMILES IDX 24 1 25 2 26 3 23 5 18 6 19 7 20 8 22 9 21 10 16 11 15 12
REMARK SMILES IDX 17 14 14 15 11 16 12 17 97 18 13 19 96 20 8 21 9 22 10 23
REMARK SMILES IDX 7 24 6 26 3 27 4 28 99 29 5 30 98 31 2 32 1 33 27 34 28 35
REMARK SMILES IDX 29 36 30 37 31 38 32 40 33 41 34 42 95 43 35 44 94 45 36 46
REMARK SMILES IDX 37 47 38 48 88 49 39 50 93 51 87 52 89 53 40 54 92 55 86 56
REMARK SMILES IDX 85 57 41 59 73 60 53 61 72 62 54 63 57 64 71 65 90 66 55 67
REMARK SMILES IDX 56 68 70 70 91 71 58 72 42 73 43 74 51 75 44 76 45 77 49 78
REMARK SMILES IDX 52 79 46 80 47 81 50 82 48 83 74 84 75 85 83 86 76 87 77 88
REMARK SMILES IDX 81 89 84 90 78 91 79 92 82 93 80 94 59 95 60 96 68 97 61 98
REMARK SMILES IDX 62 99 66 100 69 101 63 102 64 103 67 104 65 105
REMARK H PARENT 26 4 15 13 7 25 30 39 89 58 57 69
REMARK Flexibility Score: inf
ROOT
ATOM      1  C   UNL A   1      32.779  29.255  25.210  1.00  0.00     0.223 C 
ATOM      2  O   UNL A   1      33.946  28.923  25.467  1.00  0.00    -0.275 OA
ATOM      3  N   UNL A   1      32.239  30.143  26.089  1.00  0.00    -0.356 N 
ATOM      4  H   UNL A   1      32.531  30.019  27.021  1.00  0.00     0.163 HD
ENDROOT
BRANCH   1   5
ATOM      5  C   UNL A   1      32.013  28.458  24.132  1.00  0.00     0.091 C 
ATOM      6  C   UNL A   1      31.878  26.932  24.180  1.00  0.00     0.091 C 
ATOM      7  C   UNL A   1      33.036  26.135  23.586  1.00  0.00     0.014 C 
ATOM      8  C   UNL A   1      33.795  26.772  22.425  1.00  0.00     0.001 C 
ATOM      9  C   UNL A   1      32.496  28.972  22.780  1.00  0.00     0.014 C 
ATOM     10  C   UNL A   1      33.760  28.292  22.287  1.00  0.00     0.001 C 
BRANCH   6  11
ATOM     11  C   UNL A   1      30.460  26.407  23.791  1.00  0.00     0.228 C 
ATOM     12  N   UNL A   1      29.946  25.196  24.189  1.00  0.00    -0.326 N 
ATOM     13  H   UNL A   1      28.964  25.163  24.250  1.00  0.00     0.169 HD
ATOM     14  O   UNL A   1      29.692  27.166  23.184  1.00  0.00    -0.274 OA
BRANCH  12  15
ATOM     15  C   UNL A   1      30.597  24.004  24.519  1.00  0.00     0.041 A 
ATOM     16  C   UNL A   1      32.288  21.893  25.195  1.00  0.00     0.087 A 
ATOM     17  C   UNL A   1      31.969  22.120  23.852  1.00  0.00     0.024 A 
ATOM     18  C   UNL A   1      31.648  22.628  26.206  1.00  0.00     0.024 A 
ATOM     19  C   UNL A   1      31.101  23.167  23.523  1.00  0.00     0.027 A 
ATOM     20  C   UNL A   1      30.767  23.662  25.863  1.00  0.00     0.027 A 
BRANCH  16  21
ATOM     21  S   UNL A   1      33.678  20.855  25.608  1.00  0.00     0.261 S 
ATOM     22  O   UNL A   1      33.230  19.479  25.553  1.00  0.00    -0.201 OA
ATOM     23  O   UNL A   1      34.268  21.373  26.827  1.00  0.00    -0.201 OA
BRANCH  21  24
ATOM     24  N   UNL A   1      34.842  21.048  24.377  1.00  0.00    -0.280 N 
ATOM     25  H   UNL A   1      34.630  20.871  23.432  1.00  0.00     0.180 HD
BRANCH  24  26
ATOM     26  C   UNL A   1      36.143  21.478  24.790  1.00  0.00     0.049 A 
ATOM     27  C   UNL A   1      38.599  22.198  25.898  1.00  0.00     0.119 A 
ATOM     28  C   UNL A   1      38.350  20.873  25.547  1.00  0.00     0.048 A 
ATOM     29  C   UNL A   1      37.645  23.178  25.616  1.00  0.00     0.048 A 
ATOM     30  C   UNL A   1      37.137  20.519  24.966  1.00  0.00     0.030 A 
ATOM     31  C   UNL A   1      36.401  22.815  25.082  1.00  0.00     0.030 A 
BRANCH  27  32
ATOM     32  O   UNL A   1      39.808  22.412  26.495  1.00  0.00    -0.497 OA
ATOM     33  C   UNL A   1      40.637  21.265  26.646  1.00  0.00     0.278 C 
ENDBRANCH  27  32
ENDBRANCH  24  26
ENDBRANCH  21  24
ENDBRANCH  16  21
ENDBRANCH  12  15
ENDBRANCH   6  11
ENDBRANCH   1   5
BRANCH   3  34
ATOM     34  C   UNL A   1      31.309  31.240  25.895  1.00  0.00     0.117 C 
BRANCH  34  35
ATOM     35  C   UNL A   1      31.366  32.317  26.972  1.00  0.00     0.042 C 
BRANCH  35  36
ATOM     36  C   UNL A   1      32.719  32.934  27.266  1.00  0.00     0.118 C 
BRANCH  36  37
ATOM     37  N   UNL A   1      32.601  34.331  27.627  1.00  0.00    -0.352 N 
ATOM     38  C   UNL A   1      33.075  35.029  28.708  1.00  0.00     0.251 C 
ATOM     39  H   UNL A   1      32.093  34.874  26.983  1.00  0.00     0.163 HD
ATOM     40  O   UNL A   1      32.572  36.128  28.945  1.00  0.00    -0.269 OA
BRANCH  38  41
ATOM     41  C   UNL A   1      34.172  34.533  29.582  1.00  0.00     0.039 A 
ATOM     42  C   UNL A   1      35.475  34.557  29.067  1.00  0.00     0.014 A 
ATOM     43  C   UNL A   1      33.950  33.924  30.821  1.00  0.00     0.014 A 
ATOM     44  C   UNL A   1      36.528  33.961  29.767  1.00  0.00     0.010 A 
ATOM     45  C   UNL A   1      35.019  33.425  31.571  1.00  0.00     0.010 A 
ATOM     46  C   UNL A   1      36.309  33.385  31.027  1.00  0.00    -0.014 A 
BRANCH  46  47
ATOM     47  C   UNL A   1      37.403  32.660  31.727  1.00  0.00     0.031 A 
ATOM     48  C   UNL A   1      38.089  31.494  31.057  1.00  0.00     0.074 A 
ATOM     49  C   UNL A   1      37.788  33.051  32.956  1.00  0.00     0.049 A 
ATOM     50  N   UNL A   1      39.082  30.755  31.486  1.00  0.00    -0.248 NA
ATOM     51  C   UNL A   1      37.573  31.085  29.741  1.00  0.00     0.031 C 
ATOM     52  C   UNL A   1      37.174  34.132  33.727  1.00  0.00     0.029 A 
ATOM     53  N   UNL A   1      38.795  32.593  33.769  1.00  0.00    -0.354 N 
ATOM     54  C   UNL A   1      39.296  29.795  30.503  1.00  0.00     0.074 A 
ATOM     55  C   UNL A   1      38.289  30.000  29.487  1.00  0.00     0.031 C 
ATOM     56  C   UNL A   1      37.840  34.281  34.883  1.00  0.00     0.029 A 
ATOM     57  C   UNL A   1      38.908  33.288  34.948  1.00  0.00     0.049 A 
ATOM     58  H   UNL A   1      39.380  31.839  33.529  1.00  0.00     0.167 HD
ATOM     59  C   UNL A   1      40.264  28.849  30.435  1.00  0.00     0.037 A 
ATOM     60  C   UNL A   1      39.780  33.144  35.964  1.00  0.00     0.037 A 
ATOM     61  C   UNL A   1      41.283  28.668  31.434  1.00  0.00     0.049 A 
ATOM     62  C   UNL A   1      40.854  32.093  35.859  1.00  0.00     0.074 A 
ATOM     63  C   UNL A   1      42.344  27.780  31.438  1.00  0.00     0.029 A 
ATOM     64  N   UNL A   1      41.367  29.397  32.612  1.00  0.00    -0.354 N 
ATOM     65  N   UNL A   1      41.089  31.242  34.891  1.00  0.00    -0.248 NA
ATOM     66  C   UNL A   1      41.791  31.994  36.985  1.00  0.00     0.031 C 
ATOM     67  C   UNL A   1      43.041  27.937  32.641  1.00  0.00     0.029 A 
ATOM     68  C   UNL A   1      42.449  28.962  33.362  1.00  0.00     0.049 A 
ATOM     69  H   UNL A   1      40.749  30.117  32.877  1.00  0.00     0.167 HD
ATOM     70  C   UNL A   1      42.211  30.522  35.278  1.00  0.00     0.074 A 
ATOM     71  C   UNL A   1      42.625  31.058  36.558  1.00  0.00     0.031 C 
ATOM     72  C   UNL A   1      42.841  29.506  34.636  1.00  0.00     0.037 A 
BRANCH  59  73
ATOM     73  C   UNL A   1      40.266  27.939  29.237  1.00  0.00     0.064 A 
ATOM     74  C   UNL A   1      39.531  26.743  29.216  1.00  0.00     0.173 A 
ATOM     75  C   UNL A   1      40.990  28.279  28.084  1.00  0.00     0.173 A 
ATOM     76  F   UNL A   1      38.830  26.363  30.294  1.00  0.00    -0.203 F 
ATOM     77  C   UNL A   1      39.551  25.907  28.102  1.00  0.00     0.198 A 
ATOM     78  C   UNL A   1      40.980  27.457  26.960  1.00  0.00     0.198 A 
ATOM     79  F   UNL A   1      41.706  29.414  28.045  1.00  0.00    -0.203 F 
ATOM     80  F   UNL A   1      38.886  24.743  28.129  1.00  0.00    -0.200 F 
ATOM     81  C   UNL A   1      40.268  26.268  26.973  1.00  0.00     0.200 A 
ATOM     82  F   UNL A   1      41.663  27.815  25.863  1.00  0.00    -0.200 F 
ATOM     83  F   UNL A   1      40.280  25.465  25.899  1.00  0.00    -0.200 F 
ENDBRANCH  59  73
BRANCH  60  84
ATOM     84  C   UNL A   1      39.698  34.040  37.148  1.00  0.00     0.064 A 
ATOM     85  C   UNL A   1      40.381  35.264  37.177  1.00  0.00     0.173 A 
ATOM     86  C   UNL A   1      38.939  33.691  38.275  1.00  0.00     0.173 A 
ATOM     87  F   UNL A   1      41.136  35.634  36.133  1.00  0.00    -0.203 F 
ATOM     88  C   UNL A   1      40.327  36.093  38.295  1.00  0.00     0.198 A 
ATOM     89  C   UNL A   1      38.860  34.535  39.380  1.00  0.00     0.198 A 
ATOM     90  F   UNL A   1      38.261  32.534  38.297  1.00  0.00    -0.203 F 
ATOM     91  F   UNL A   1      41.030  37.234  38.315  1.00  0.00    -0.200 F 
ATOM     92  C   UNL A   1      39.562  35.732  39.393  1.00  0.00     0.200 A 
ATOM     93  F   UNL A   1      38.106  34.190  40.432  1.00  0.00    -0.200 F 
ATOM     94  F   UNL A   1      39.506  36.531  40.468  1.00  0.00    -0.200 F 
ENDBRANCH  60  84
BRANCH  72  95
ATOM     95  C   UNL A   1      44.055  28.929  35.304  1.00  0.00     0.064 A 
ATOM     96  C   UNL A   1      43.962  27.854  36.201  1.00  0.00     0.173 A 
ATOM     97  C   UNL A   1      45.331  29.446  35.030  1.00  0.00     0.173 A 
ATOM     98  F   UNL A   1      42.765  27.332  36.507  1.00  0.00    -0.203 F 
ATOM     99  C   UNL A   1      45.095  27.345  36.828  1.00  0.00     0.198 A 
ATOM    100  C   UNL A   1      46.466  28.912  35.633  1.00  0.00     0.198 A 
ATOM    101  F   UNL A   1      45.478  30.467  34.173  1.00  0.00    -0.203 F 
ATOM    102  F   UNL A   1      44.974  26.361  37.730  1.00  0.00    -0.200 F 
ATOM    103  C   UNL A   1      46.346  27.870  36.540  1.00  0.00     0.200 A 
ATOM    104  F   UNL A   1      47.676  29.409  35.341  1.00  0.00    -0.200 F 
ATOM    105  F   UNL A   1      47.436  27.379  37.145  1.00  0.00    -0.200 F 
ENDBRANCH  72  95
ENDBRANCH  46  47
ENDBRANCH  38  41
ENDBRANCH  36  37
ENDBRANCH  35  36
ENDBRANCH  34  35
ENDBRANCH   3  34
TORSDOF 16
ENDMDL
