MODEL 1
REMARK VINA RESULT:     -13.7      0.000      0.000
REMARK SMILES O=C(NCCCNC(=O)c1ccc(-c2c3nc(c(-c4c(F)c(F)c(F)c(F)c4F)c4ccc([nH]4)c(-c4c(F)c(F)c(F)c(F)c4F)c4nc(c(-c5c(F)c(F)c(F)c(F)c5F)c5ccc2[nH]5)C=C4)C=C3)cc1)/C(=C/c1ccc([N+](=O)[O-])cc1)Sc1nnc2c(n1)[nH]c1ccccc12
REMARK SMILES IDX 5 1 4 2 3 3 1 4 2 5 73 7 74 8 84 9 85 10 86 11 90 12 87 13
REMARK SMILES IDX 89 14 88 15 91 16 97 17 92 18 96 20 93 21 95 22 94 23 75 24
REMARK SMILES IDX 76 25 83 26 77 27 82 28 78 29 79 30 80 31 81 32 6 33 7 34
REMARK SMILES IDX 8 35 9 37 10 38 11 39 72 40 12 41 71 42 13 43 14 44 15 45
REMARK SMILES IDX 65 46 16 47 70 48 64 49 66 50 17 51 69 52 63 53 62 54 18 56
REMARK SMILES IDX 50 57 30 58 49 59 31 60 34 61 48 62 67 63 32 64 33 65 47 67
REMARK SMILES IDX 68 68 35 69 19 70 20 71 28 72 21 73 22 74 26 75 29 76 23 77
REMARK SMILES IDX 24 78 27 79 25 80 51 81 52 82 60 83 53 84 54 85 58 86 61 87
REMARK SMILES IDX 55 88 56 89 59 90 57 91 36 92 37 93 45 94 38 95 39 96 43 97
REMARK SMILES IDX 46 98 40 99 41 100 44 101 42 102
REMARK H PARENT 3 6 91 19 7 36 66 55 34 66
REMARK Flexibility Score: inf
ROOT
ATOM      1  C   UNL A   1      31.983  28.378  25.568  1.00  0.00     0.042 C 
ENDROOT
BRANCH   1   2
ATOM      2  C   UNL A   1      31.886  27.736  26.952  1.00  0.00     0.118 C 
BRANCH   2   3
ATOM      3  N   UNL A   1      30.967  26.610  26.954  1.00  0.00    -0.352 N 
ATOM      4  O   UNL A   1      29.945  24.706  26.697  1.00  0.00    -0.269 OA
ATOM      5  C   UNL A   1      30.972  25.352  26.445  1.00  0.00     0.258 C 
ATOM      6  H   UNL A   1      30.138  26.809  27.445  1.00  0.00     0.163 HD
BRANCH   5   7
ATOM      7  C   UNL A   1      32.088  24.717  25.636  1.00  0.00     0.081 C 
ATOM      8  C   UNL A   1      33.135  24.334  26.403  1.00  0.00     0.029 C 
BRANCH   7   9
ATOM      9  S   UNL A   1      31.822  24.318  23.975  1.00  0.00    -0.042 SA
BRANCH   9  10
ATOM     10  C   UNL A   1      30.902  25.677  23.279  1.00  0.00     0.216 A 
ATOM     11  N   UNL A   1      31.653  26.500  22.489  1.00  0.00    -0.122 NA
ATOM     12  N   UNL A   1      29.591  25.845  23.580  1.00  0.00    -0.201 NA
ATOM     13  N   UNL A   1      31.173  27.661  22.043  1.00  0.00    -0.144 NA
ATOM     14  C   UNL A   1      29.172  27.060  23.162  1.00  0.00     0.162 A 
ATOM     15  C   UNL A   1      29.926  27.983  22.457  1.00  0.00     0.138 A 
ATOM     16  N   UNL A   1      27.982  27.665  23.473  1.00  0.00    -0.338 N 
ATOM     17  C   UNL A   1      29.239  29.224  22.474  1.00  0.00     0.029 A 
ATOM     18  C   UNL A   1      28.066  29.021  23.209  1.00  0.00     0.049 A 
ATOM     19  H   UNL A   1      27.188  27.204  23.829  1.00  0.00     0.168 HD
ATOM     20  C   UNL A   1      29.567  30.530  22.056  1.00  0.00     0.013 A 
ATOM     21  C   UNL A   1      27.238  30.079  23.603  1.00  0.00     0.027 A 
ATOM     22  C   UNL A   1      28.758  31.597  22.460  1.00  0.00     0.001 A 
ATOM     23  C   UNL A   1      27.625  31.375  23.239  1.00  0.00     0.002 A 
ENDBRANCH   9  10
ENDBRANCH   7   9
BRANCH   8  24
ATOM     24  C   UNL A   1      34.332  23.579  26.028  1.00  0.00    -0.024 A 
ATOM     25  C   UNL A   1      35.456  24.217  25.488  1.00  0.00     0.015 A 
ATOM     26  C   UNL A   1      34.340  22.190  26.218  1.00  0.00     0.015 A 
ATOM     27  C   UNL A   1      36.625  23.490  25.250  1.00  0.00     0.086 A 
ATOM     28  C   UNL A   1      35.500  21.454  25.984  1.00  0.00     0.086 A 
ATOM     29  C   UNL A   1      36.642  22.123  25.541  1.00  0.00     0.269 A 
BRANCH  29  30
ATOM     30  N   UNL A   1      37.888  21.387  25.437  1.00  0.00     0.062 N 
ATOM     31  O   UNL A   1      37.837  20.258  24.930  1.00  0.00    -0.258 OA
ATOM     32  O   UNL A   1      38.908  21.941  25.869  1.00  0.00    -0.258 OA
ENDBRANCH  29  30
ENDBRANCH   8  24
ENDBRANCH   5   7
ENDBRANCH   2   3
ENDBRANCH   1   2
BRANCH   1  33
ATOM     33  C   UNL A   1      33.092  29.427  25.451  1.00  0.00     0.118 C 
BRANCH  33  34
ATOM     34  N   UNL A   1      32.667  30.742  25.916  1.00  0.00    -0.352 N 
ATOM     35  C   UNL A   1      33.104  31.503  26.971  1.00  0.00     0.251 C 
ATOM     36  H   UNL A   1      31.947  31.152  25.384  1.00  0.00     0.163 HD
ATOM     37  O   UNL A   1      32.452  32.482  27.320  1.00  0.00    -0.269 OA
BRANCH  35  38
ATOM     38  C   UNL A   1      34.347  31.161  27.697  1.00  0.00     0.039 A 
ATOM     39  C   UNL A   1      35.285  32.170  27.937  1.00  0.00     0.014 A 
ATOM     40  C   UNL A   1      34.626  29.848  28.081  1.00  0.00     0.014 A 
ATOM     41  C   UNL A   1      36.472  31.875  28.614  1.00  0.00     0.010 A 
ATOM     42  C   UNL A   1      35.777  29.567  28.816  1.00  0.00     0.010 A 
ATOM     43  C   UNL A   1      36.714  30.576  29.087  1.00  0.00    -0.014 A 
BRANCH  43  44
ATOM     44  C   UNL A   1      37.937  30.252  29.866  1.00  0.00     0.031 A 
ATOM     45  C   UNL A   1      38.978  29.329  29.296  1.00  0.00     0.074 A 
ATOM     46  C   UNL A   1      38.079  30.737  31.114  1.00  0.00     0.049 A 
ATOM     47  N   UNL A   1      40.065  28.858  29.855  1.00  0.00    -0.248 NA
ATOM     48  C   UNL A   1      38.753  28.849  27.923  1.00  0.00     0.031 C 
ATOM     49  C   UNL A   1      37.123  31.611  31.795  1.00  0.00     0.029 A 
ATOM     50  N   UNL A   1      39.077  30.550  32.040  1.00  0.00    -0.354 N 
ATOM     51  C   UNL A   1      40.642  28.016  28.912  1.00  0.00     0.074 A 
ATOM     52  C   UNL A   1      39.759  28.001  27.765  1.00  0.00     0.031 C 
ATOM     53  C   UNL A   1      37.587  31.900  33.020  1.00  0.00     0.029 A 
ATOM     54  C   UNL A   1      38.851  31.200  33.228  1.00  0.00     0.049 A 
ATOM     55  H   UNL A   1      39.876  30.003  31.867  1.00  0.00     0.167 HD
ATOM     56  C   UNL A   1      41.810  27.334  28.988  1.00  0.00     0.037 A 
ATOM     57  C   UNL A   1      39.576  31.220  34.363  1.00  0.00     0.037 A 
ATOM     58  C   UNL A   1      42.697  27.369  30.122  1.00  0.00     0.049 A 
ATOM     59  C   UNL A   1      40.864  30.443  34.427  1.00  0.00     0.074 A 
ATOM     60  C   UNL A   1      43.931  26.761  30.273  1.00  0.00     0.029 A 
ATOM     61  N   UNL A   1      42.441  28.050  31.304  1.00  0.00    -0.354 N 
ATOM     62  N   UNL A   1      41.429  29.701  33.507  1.00  0.00    -0.248 NA
ATOM     63  C   UNL A   1      41.616  30.514  35.688  1.00  0.00     0.031 C 
ATOM     64  C   UNL A   1      44.401  27.035  31.562  1.00  0.00     0.029 A 
ATOM     65  C   UNL A   1      43.483  27.858  32.197  1.00  0.00     0.049 A 
ATOM     66  H   UNL A   1      41.638  28.591  31.482  1.00  0.00     0.167 HD
ATOM     67  C   UNL A   1      42.613  29.238  34.065  1.00  0.00     0.074 A 
ATOM     68  C   UNL A   1      42.692  29.795  35.399  1.00  0.00     0.031 C 
ATOM     69  C   UNL A   1      43.551  28.424  33.520  1.00  0.00     0.037 A 
BRANCH  56  70
ATOM     70  C   UNL A   1      42.197  26.488  27.809  1.00  0.00     0.064 A 
ATOM     71  C   UNL A   1      43.016  26.985  26.782  1.00  0.00     0.173 A 
ATOM     72  C   UNL A   1      41.767  25.155  27.716  1.00  0.00     0.173 A 
ATOM     73  F   UNL A   1      43.446  28.255  26.818  1.00  0.00    -0.203 F 
ATOM     74  C   UNL A   1      43.361  26.190  25.692  1.00  0.00     0.198 A 
ATOM     75  C   UNL A   1      42.140  24.354  26.640  1.00  0.00     0.198 A 
ATOM     76  F   UNL A   1      40.989  24.626  28.673  1.00  0.00    -0.203 F 
ATOM     77  F   UNL A   1      44.099  26.704  24.698  1.00  0.00    -0.200 F 
ATOM     78  C   UNL A   1      42.928  24.874  25.625  1.00  0.00     0.200 A 
ATOM     79  F   UNL A   1      41.734  23.078  26.584  1.00  0.00    -0.200 F 
ATOM     80  F   UNL A   1      43.265  24.110  24.577  1.00  0.00    -0.200 F 
ENDBRANCH  56  70
BRANCH  57  81
ATOM     81  C   UNL A   1      39.112  32.022  35.524  1.00  0.00     0.064 A 
ATOM     82  C   UNL A   1      39.431  33.383  35.629  1.00  0.00     0.173 A 
ATOM     83  C   UNL A   1      38.343  31.451  36.549  1.00  0.00     0.173 A 
ATOM     84  F   UNL A   1      40.183  33.969  34.685  1.00  0.00    -0.203 F 
ATOM     85  C   UNL A   1      39.014  34.139  36.723  1.00  0.00     0.198 A 
ATOM     86  C   UNL A   1      37.902  32.214  37.628  1.00  0.00     0.198 A 
ATOM     87  F   UNL A   1      38.007  30.154  36.493  1.00  0.00    -0.203 F 
ATOM     88  F   UNL A   1      39.370  35.427  36.819  1.00  0.00    -0.200 F 
ATOM     89  C   UNL A   1      38.244  33.555  37.717  1.00  0.00     0.200 A 
ATOM     90  F   UNL A   1      37.147  31.651  38.580  1.00  0.00    -0.200 F 
ATOM     91  F   UNL A   1      37.838  34.283  38.767  1.00  0.00    -0.200 F 
ENDBRANCH  57  81
BRANCH  69  92
ATOM     92  C   UNL A   1      44.761  28.115  34.354  1.00  0.00     0.064 A 
ATOM     93  C   UNL A   1      45.894  28.943  34.344  1.00  0.00     0.173 A 
ATOM     94  C   UNL A   1      44.771  26.997  35.202  1.00  0.00     0.173 A 
ATOM     95  F   UNL A   1      45.940  30.014  33.539  1.00  0.00    -0.203 F 
ATOM     96  C   UNL A   1      47.002  28.646  35.133  1.00  0.00     0.198 A 
ATOM     97  C   UNL A   1      45.869  26.721  36.013  1.00  0.00     0.198 A 
ATOM     98  F   UNL A   1      43.711  26.177  35.253  1.00  0.00    -0.203 F 
ATOM     99  F   UNL A   1      48.092  29.424  35.072  1.00  0.00    -0.200 F 
ATOM    100  C   UNL A   1      46.986  27.541  35.973  1.00  0.00     0.200 A 
ATOM    101  F   UNL A   1      45.845  25.662  36.832  1.00  0.00    -0.200 F 
ATOM    102  F   UNL A   1      48.050  27.263  36.737  1.00  0.00    -0.200 F 
ENDBRANCH  69  92
ENDBRANCH  43  44
ENDBRANCH  35  38
ENDBRANCH  33  34
ENDBRANCH   1  33
TORSDOF 14
ENDMDL
MODEL 2
REMARK VINA RESULT:     -13.7      2.217      7.231
REMARK SMILES O=C(NCCCNC(=O)c1ccc(-c2c3nc(c(-c4c(F)c(F)c(F)c(F)c4F)c4ccc([nH]4)c(-c4c(F)c(F)c(F)c(F)c4F)c4nc(c(-c5c(F)c(F)c(F)c(F)c5F)c5ccc2[nH]5)C=C4)C=C3)cc1)/C(=C/c1ccc([N+](=O)[O-])cc1)Sc1nnc2c(n1)[nH]c1ccccc12
REMARK SMILES IDX 5 1 4 2 3 3 1 4 2 5 73 7 74 8 84 9 85 10 86 11 90 12 87 13
REMARK SMILES IDX 89 14 88 15 91 16 97 17 92 18 96 20 93 21 95 22 94 23 75 24
REMARK SMILES IDX 76 25 83 26 77 27 82 28 78 29 79 30 80 31 81 32 6 33 7 34
REMARK SMILES IDX 8 35 9 37 10 38 11 39 72 40 12 41 71 42 13 43 14 44 15 45
REMARK SMILES IDX 65 46 16 47 70 48 64 49 66 50 17 51 69 52 63 53 62 54 18 56
REMARK SMILES IDX 50 57 30 58 49 59 31 60 34 61 48 62 67 63 32 64 33 65 47 67
REMARK SMILES IDX 68 68 35 69 19 70 20 71 28 72 21 73 22 74 26 75 29 76 23 77
REMARK SMILES IDX 24 78 27 79 25 80 51 81 52 82 60 83 53 84 54 85 58 86 61 87
REMARK SMILES IDX 55 88 56 89 59 90 57 91 36 92 37 93 45 94 38 95 39 96 43 97
REMARK SMILES IDX 46 98 40 99 41 100 44 101 42 102
REMARK H PARENT 3 6 91 19 7 36 66 55 34 66
REMARK Flexibility Score: inf
ROOT
ATOM      1  C   UNL A   1      33.027  27.757  26.880  1.00  0.00     0.042 C 
ENDROOT
BRANCH   1   2
ATOM      2  C   UNL A   1      31.635  27.672  26.254  1.00  0.00     0.118 C 
BRANCH   2   3
ATOM      3  N   UNL A   1      30.957  26.441  26.624  1.00  0.00    -0.352 N 
ATOM      4  O   UNL A   1      30.303  24.387  26.920  1.00  0.00    -0.269 OA
ATOM      5  C   UNL A   1      31.153  25.118  26.394  1.00  0.00     0.258 C 
ATOM      6  H   UNL A   1      30.161  26.608  27.177  1.00  0.00     0.163 HD
BRANCH   5   7
ATOM      7  C   UNL A   1      32.280  24.507  25.581  1.00  0.00     0.081 C 
ATOM      8  C   UNL A   1      33.330  24.130  26.347  1.00  0.00     0.029 C 
BRANCH   7   9
ATOM      9  S   UNL A   1      32.025  24.123  23.915  1.00  0.00    -0.042 SA
BRANCH   9  10
ATOM     10  C   UNL A   1      31.074  25.469  23.235  1.00  0.00     0.216 A 
ATOM     11  N   UNL A   1      31.800  26.304  22.435  1.00  0.00    -0.122 NA
ATOM     12  N   UNL A   1      29.766  25.617  23.557  1.00  0.00    -0.201 NA
ATOM     13  N   UNL A   1      31.296  27.458  21.997  1.00  0.00    -0.144 NA
ATOM     14  C   UNL A   1      29.322  26.826  23.147  1.00  0.00     0.162 A 
ATOM     15  C   UNL A   1      30.051  27.761  22.431  1.00  0.00     0.138 A 
ATOM     16  N   UNL A   1      28.128  27.412  23.477  1.00  0.00    -0.338 N 
ATOM     17  C   UNL A   1      29.346  28.991  22.460  1.00  0.00     0.029 A 
ATOM     18  C   UNL A   1      28.188  28.770  23.213  1.00  0.00     0.049 A 
ATOM     19  H   UNL A   1      27.347  26.940  23.845  1.00  0.00     0.168 HD
ATOM     20  C   UNL A   1      29.647  30.302  22.038  1.00  0.00     0.013 A 
ATOM     21  C   UNL A   1      27.350  29.815  23.622  1.00  0.00     0.027 A 
ATOM     22  C   UNL A   1      28.829  31.357  22.456  1.00  0.00     0.001 A 
ATOM     23  C   UNL A   1      27.712  31.116  23.253  1.00  0.00     0.002 A 
ENDBRANCH   9  10
ENDBRANCH   7   9
BRANCH   8  24
ATOM     24  C   UNL A   1      34.539  23.396  25.968  1.00  0.00    -0.024 A 
ATOM     25  C   UNL A   1      35.726  24.064  25.644  1.00  0.00     0.015 A 
ATOM     26  C   UNL A   1      34.492  21.995  25.933  1.00  0.00     0.015 A 
ATOM     27  C   UNL A   1      36.893  23.337  25.401  1.00  0.00     0.086 A 
ATOM     28  C   UNL A   1      35.651  21.258  25.692  1.00  0.00     0.086 A 
ATOM     29  C   UNL A   1      36.847  21.942  25.469  1.00  0.00     0.269 A 
BRANCH  29  30
ATOM     30  N   UNL A   1      38.079  21.181  25.364  1.00  0.00     0.062 N 
ATOM     31  O   UNL A   1      39.122  21.743  25.723  1.00  0.00    -0.258 OA
ATOM     32  O   UNL A   1      37.994  20.030  24.915  1.00  0.00    -0.258 OA
ENDBRANCH  29  30
ENDBRANCH   8  24
ENDBRANCH   5   7
ENDBRANCH   2   3
ENDBRANCH   1   2
BRANCH   1  33
ATOM     33  C   UNL A   1      33.963  28.741  26.174  1.00  0.00     0.118 C 
BRANCH  33  34
ATOM     34  N   UNL A   1      33.815  30.104  26.669  1.00  0.00    -0.352 N 
ATOM     35  C   UNL A   1      34.539  30.801  27.605  1.00  0.00     0.251 C 
ATOM     36  H   UNL A   1      33.074  30.609  26.264  1.00  0.00     0.163 HD
ATOM     37  O   UNL A   1      34.102  31.862  28.036  1.00  0.00    -0.269 OA
BRANCH  35  38
ATOM     38  C   UNL A   1      35.835  30.289  28.103  1.00  0.00     0.039 A 
ATOM     39  C   UNL A   1      36.958  30.386  27.276  1.00  0.00     0.014 A 
ATOM     40  C   UNL A   1      35.938  29.660  29.346  1.00  0.00     0.014 A 
ATOM     41  C   UNL A   1      38.194  29.905  27.718  1.00  0.00     0.010 A 
ATOM     42  C   UNL A   1      37.184  29.243  29.814  1.00  0.00     0.010 A 
ATOM     43  C   UNL A   1      38.324  29.358  29.004  1.00  0.00    -0.014 A 
BRANCH  43  44
ATOM     44  C   UNL A   1      39.640  28.900  29.520  1.00  0.00     0.031 A 
ATOM     45  C   UNL A   1      40.402  29.738  30.509  1.00  0.00     0.074 A 
ATOM     46  C   UNL A   1      40.182  27.763  29.045  1.00  0.00     0.049 A 
ATOM     47  N   UNL A   1      41.600  29.553  31.005  1.00  0.00    -0.248 NA
ATOM     48  C   UNL A   1      39.738  30.963  30.984  1.00  0.00     0.031 C 
ATOM     49  C   UNL A   1      39.561  26.880  28.055  1.00  0.00     0.029 A 
ATOM     50  N   UNL A   1      41.384  27.159  29.321  1.00  0.00    -0.354 N 
ATOM     51  C   UNL A   1      41.839  30.642  31.834  1.00  0.00     0.074 A 
ATOM     52  C   UNL A   1      40.684  31.508  31.735  1.00  0.00     0.031 C 
ATOM     53  C   UNL A   1      40.377  25.842  27.820  1.00  0.00     0.029 A 
ATOM     54  C   UNL A   1      41.595  26.003  28.610  1.00  0.00     0.049 A 
ATOM     55  H   UNL A   1      42.032  27.521  29.966  1.00  0.00     0.167 HD
ATOM     56  C   UNL A   1      42.914  30.887  32.620  1.00  0.00     0.037 A 
ATOM     57  C   UNL A   1      42.655  25.174  28.587  1.00  0.00     0.037 A 
ATOM     58  C   UNL A   1      44.052  30.011  32.734  1.00  0.00     0.049 A 
ATOM     59  C   UNL A   1      43.843  25.474  29.460  1.00  0.00     0.074 A 
ATOM     60  C   UNL A   1      45.165  30.141  33.547  1.00  0.00     0.029 A 
ATOM     61  N   UNL A   1      44.224  28.842  32.007  1.00  0.00    -0.354 N 
ATOM     62  N   UNL A   1      44.031  26.475  30.286  1.00  0.00    -0.248 NA
ATOM     63  C   UNL A   1      44.964  24.526  29.401  1.00  0.00     0.031 C 
ATOM     64  C   UNL A   1      46.031  29.075  33.279  1.00  0.00     0.029 A 
ATOM     65  C   UNL A   1      45.435  28.253  32.336  1.00  0.00     0.049 A 
ATOM     66  H   UNL A   1      43.581  28.483  31.354  1.00  0.00     0.167 HD
ATOM     67  C   UNL A   1      45.276  26.263  30.863  1.00  0.00     0.074 A 
ATOM     68  C   UNL A   1      45.793  25.031  30.304  1.00  0.00     0.031 C 
ATOM     69  C   UNL A   1      45.933  27.022  31.775  1.00  0.00     0.037 A 
BRANCH  56  70
ATOM     70  C   UNL A   1      42.913  32.157  33.422  1.00  0.00     0.064 A 
ATOM     71  C   UNL A   1      42.373  32.211  34.717  1.00  0.00     0.173 A 
ATOM     72  C   UNL A   1      43.483  33.330  32.901  1.00  0.00     0.173 A 
ATOM     73  F   UNL A   1      41.807  31.121  35.257  1.00  0.00    -0.203 F 
ATOM     74  C   UNL A   1      42.372  33.397  35.445  1.00  0.00     0.198 A 
ATOM     75  C   UNL A   1      43.509  34.507  33.645  1.00  0.00     0.198 A 
ATOM     76  F   UNL A   1      44.020  33.334  31.672  1.00  0.00    -0.203 F 
ATOM     77  F   UNL A   1      41.802  33.437  36.658  1.00  0.00    -0.200 F 
ATOM     78  C   UNL A   1      42.946  34.542  34.912  1.00  0.00     0.200 A 
ATOM     79  F   UNL A   1      44.077  35.608  33.135  1.00  0.00    -0.200 F 
ATOM     80  F   UNL A   1      42.948  35.683  35.617  1.00  0.00    -0.200 F 
ENDBRANCH  56  70
BRANCH  57  81
ATOM     81  C   UNL A   1      42.631  23.965  27.725  1.00  0.00     0.064 A 
ATOM     82  C   UNL A   1      42.972  24.044  26.368  1.00  0.00     0.173 A 
ATOM     83  C   UNL A   1      42.268  22.709  28.234  1.00  0.00     0.173 A 
ATOM     84  F   UNL A   1      43.305  25.227  25.830  1.00  0.00    -0.203 F 
ATOM     85  C   UNL A   1      42.936  22.918  25.548  1.00  0.00     0.198 A 
ATOM     86  C   UNL A   1      42.260  21.578  27.420  1.00  0.00     0.198 A 
ATOM     87  F   UNL A   1      41.937  22.578  29.526  1.00  0.00    -0.203 F 
ATOM     88  F   UNL A   1      43.226  23.032  24.245  1.00  0.00    -0.200 F 
ATOM     89  C   UNL A   1      42.587  21.685  26.076  1.00  0.00     0.200 A 
ATOM     90  F   UNL A   1      41.935  20.386  27.936  1.00  0.00    -0.200 F 
ATOM     91  F   UNL A   1      42.557  20.601  25.289  1.00  0.00    -0.200 F 
ENDBRANCH  57  81
BRANCH  69  92
ATOM     92  C   UNL A   1      47.266  26.524  32.252  1.00  0.00     0.064 A 
ATOM     93  C   UNL A   1      48.467  26.967  31.676  1.00  0.00     0.173 A 
ATOM     94  C   UNL A   1      47.345  25.622  33.324  1.00  0.00     0.173 A 
ATOM     95  F   UNL A   1      48.445  27.817  30.640  1.00  0.00    -0.203 F 
ATOM     96  C   UNL A   1      49.695  26.504  32.140  1.00  0.00     0.198 A 
ATOM     97  C   UNL A   1      48.576  25.185  33.805  1.00  0.00     0.198 A 
ATOM     98  F   UNL A   1      46.227  25.173  33.913  1.00  0.00    -0.203 F 
ATOM     99  F   UNL A   1      50.828  26.903  31.544  1.00  0.00    -0.200 F 
ATOM    100  C   UNL A   1      49.750  25.620  33.208  1.00  0.00     0.200 A 
ATOM    101  F   UNL A   1      48.627  24.342  34.845  1.00  0.00    -0.200 F 
ATOM    102  F   UNL A   1      50.933  25.182  33.657  1.00  0.00    -0.200 F 
ENDBRANCH  69  92
ENDBRANCH  43  44
ENDBRANCH  35  38
ENDBRANCH  33  34
ENDBRANCH   1  33
TORSDOF 14
ENDMDL
MODEL 3
REMARK VINA RESULT:     -13.5      0.444      7.183
REMARK SMILES O=C(NCCCNC(=O)c1ccc(-c2c3nc(c(-c4c(F)c(F)c(F)c(F)c4F)c4ccc([nH]4)c(-c4c(F)c(F)c(F)c(F)c4F)c4nc(c(-c5c(F)c(F)c(F)c(F)c5F)c5ccc2[nH]5)C=C4)C=C3)cc1)/C(=C/c1ccc([N+](=O)[O-])cc1)Sc1nnc2c(n1)[nH]c1ccccc12
REMARK SMILES IDX 5 1 4 2 3 3 1 4 2 5 73 7 74 8 84 9 85 10 86 11 90 12 87 13
REMARK SMILES IDX 89 14 88 15 91 16 97 17 92 18 96 20 93 21 95 22 94 23 75 24
REMARK SMILES IDX 76 25 83 26 77 27 82 28 78 29 79 30 80 31 81 32 6 33 7 34
REMARK SMILES IDX 8 35 9 37 10 38 11 39 72 40 12 41 71 42 13 43 14 44 15 45
REMARK SMILES IDX 65 46 16 47 70 48 64 49 66 50 17 51 69 52 63 53 62 54 18 56
REMARK SMILES IDX 50 57 30 58 49 59 31 60 34 61 48 62 67 63 32 64 33 65 47 67
REMARK SMILES IDX 68 68 35 69 19 70 20 71 28 72 21 73 22 74 26 75 29 76 23 77
REMARK SMILES IDX 24 78 27 79 25 80 51 81 52 82 60 83 53 84 54 85 58 86 61 87
REMARK SMILES IDX 55 88 56 89 59 90 57 91 36 92 37 93 45 94 38 95 39 96 43 97
REMARK SMILES IDX 46 98 40 99 41 100 44 101 42 102
REMARK H PARENT 3 6 91 19 7 36 66 55 34 66
REMARK Flexibility Score: inf
ROOT
ATOM      1  C   UNL A   1      32.180  28.374  25.373  1.00  0.00     0.042 C 
ENDROOT
BRANCH   1   2
ATOM      2  C   UNL A   1      31.872  27.981  26.818  1.00  0.00     0.118 C 
BRANCH   2   3
ATOM      3  N   UNL A   1      30.949  26.861  26.880  1.00  0.00    -0.352 N 
ATOM      4  O   UNL A   1      29.914  24.953  26.716  1.00  0.00    -0.269 OA
ATOM      5  C   UNL A   1      30.940  25.583  26.423  1.00  0.00     0.258 C 
ATOM      6  H   UNL A   1      30.128  27.084  27.375  1.00  0.00     0.163 HD
BRANCH   5   7
ATOM      7  C   UNL A   1      32.040  24.911  25.623  1.00  0.00     0.081 C 
ATOM      8  C   UNL A   1      33.086  24.528  26.392  1.00  0.00     0.029 C 
BRANCH   7   9
ATOM      9  S   UNL A   1      31.758  24.477  23.973  1.00  0.00    -0.042 SA
BRANCH   9  10
ATOM     10  C   UNL A   1      30.845  25.829  23.253  1.00  0.00     0.216 A 
ATOM     11  N   UNL A   1      31.588  26.608  22.416  1.00  0.00    -0.122 NA
ATOM     12  N   UNL A   1      29.546  26.032  23.583  1.00  0.00    -0.201 NA
ATOM     13  N   UNL A   1      31.118  27.762  21.941  1.00  0.00    -0.144 NA
ATOM     14  C   UNL A   1      29.138  27.239  23.134  1.00  0.00     0.162 A 
ATOM     15  C   UNL A   1      29.890  28.122  22.377  1.00  0.00     0.138 A 
ATOM     16  N   UNL A   1      27.968  27.877  23.455  1.00  0.00    -0.338 N 
ATOM     17  C   UNL A   1      29.226  29.376  22.367  1.00  0.00     0.029 A 
ATOM     18  C   UNL A   1      28.070  29.222  23.140  1.00  0.00     0.049 A 
ATOM     19  H   UNL A   1      27.176  27.445  23.847  1.00  0.00     0.168 HD
ATOM     20  C   UNL A   1      29.566  30.660  21.894  1.00  0.00     0.013 A 
ATOM     21  C   UNL A   1      27.272  30.309  23.519  1.00  0.00     0.027 A 
ATOM     22  C   UNL A   1      28.788  31.756  22.281  1.00  0.00     0.001 A 
ATOM     23  C   UNL A   1      27.673  31.583  23.098  1.00  0.00     0.002 A 
ENDBRANCH   9  10
ENDBRANCH   7   9
BRANCH   8  24
ATOM     24  C   UNL A   1      34.268  23.745  26.029  1.00  0.00    -0.024 A 
ATOM     25  C   UNL A   1      35.357  24.332  25.373  1.00  0.00     0.015 A 
ATOM     26  C   UNL A   1      34.297  22.380  26.350  1.00  0.00     0.015 A 
ATOM     27  C   UNL A   1      36.518  23.588  25.144  1.00  0.00     0.086 A 
ATOM     28  C   UNL A   1      35.449  21.628  26.127  1.00  0.00     0.086 A 
ATOM     29  C   UNL A   1      36.561  22.256  25.563  1.00  0.00     0.269 A 
BRANCH  29  30
ATOM     30  N   UNL A   1      37.806  21.517  25.464  1.00  0.00     0.062 N 
ATOM     31  O   UNL A   1      38.788  21.983  26.058  1.00  0.00    -0.258 OA
ATOM     32  O   UNL A   1      37.795  20.480  24.787  1.00  0.00    -0.258 OA
ENDBRANCH  29  30
ENDBRANCH   8  24
ENDBRANCH   5   7
ENDBRANCH   2   3
ENDBRANCH   1   2
BRANCH   1  33
ATOM     33  C   UNL A   1      33.294  29.417  25.241  1.00  0.00     0.118 C 
BRANCH  33  34
ATOM     34  N   UNL A   1      32.912  30.713  25.790  1.00  0.00    -0.352 N 
ATOM     35  C   UNL A   1      33.353  31.377  26.908  1.00  0.00     0.251 C 
ATOM     36  H   UNL A   1      32.224  31.190  25.273  1.00  0.00     0.163 HD
ATOM     37  O   UNL A   1      32.733  32.355  27.311  1.00  0.00    -0.269 OA
BRANCH  35  38
ATOM     38  C   UNL A   1      34.561  30.930  27.635  1.00  0.00     0.039 A 
ATOM     39  C   UNL A   1      35.663  31.789  27.698  1.00  0.00     0.014 A 
ATOM     40  C   UNL A   1      34.643  29.654  28.195  1.00  0.00     0.014 A 
ATOM     41  C   UNL A   1      36.822  31.392  28.372  1.00  0.00     0.010 A 
ATOM     42  C   UNL A   1      35.771  29.284  28.925  1.00  0.00     0.010 A 
ATOM     43  C   UNL A   1      36.873  30.147  29.019  1.00  0.00    -0.014 A 
BRANCH  43  44
ATOM     44  C   UNL A   1      38.069  29.729  29.796  1.00  0.00     0.031 A 
ATOM     45  C   UNL A   1      38.305  30.273  31.178  1.00  0.00     0.074 A 
ATOM     46  C   UNL A   1      38.978  28.912  29.231  1.00  0.00     0.049 A 
ATOM     47  N   UNL A   1      39.330  30.098  31.975  1.00  0.00    -0.248 NA
ATOM     48  C   UNL A   1      37.261  31.153  31.727  1.00  0.00     0.031 C 
ATOM     49  C   UNL A   1      38.884  28.347  27.884  1.00  0.00     0.029 A 
ATOM     50  N   UNL A   1      40.168  28.426  29.713  1.00  0.00    -0.354 N 
ATOM     51  C   UNL A   1      39.063  30.858  33.107  1.00  0.00     0.074 A 
ATOM     52  C   UNL A   1      37.805  31.534  32.874  1.00  0.00     0.031 C 
ATOM     53  C   UNL A   1      39.960  27.579  27.654  1.00  0.00     0.029 A 
ATOM     54  C   UNL A   1      40.838  27.628  28.819  1.00  0.00     0.049 A 
ATOM     55  H   UNL A   1      40.508  28.631  30.613  1.00  0.00     0.167 HD
ATOM     56  C   UNL A   1      39.790  30.965  34.245  1.00  0.00     0.037 A 
ATOM     57  C   UNL A   1      42.033  27.014  28.921  1.00  0.00     0.037 A 
ATOM     58  C   UNL A   1      41.031  30.273  34.483  1.00  0.00     0.049 A 
ATOM     59  C   UNL A   1      42.828  27.160  30.191  1.00  0.00     0.074 A 
ATOM     60  C   UNL A   1      41.814  30.270  35.624  1.00  0.00     0.029 A 
ATOM     61  N   UNL A   1      41.672  29.462  33.557  1.00  0.00    -0.354 N 
ATOM     62  N   UNL A   1      42.536  27.830  31.278  1.00  0.00    -0.248 NA
ATOM     63  C   UNL A   1      44.117  26.457  30.247  1.00  0.00     0.031 C 
ATOM     64  C   UNL A   1      42.951  29.494  35.374  1.00  0.00     0.029 A 
ATOM     65  C   UNL A   1      42.852  28.972  34.094  1.00  0.00     0.049 A 
ATOM     66  H   UNL A   1      41.338  29.263  32.653  1.00  0.00     0.167 HD
ATOM     67  C   UNL A   1      43.589  27.611  32.156  1.00  0.00     0.074 A 
ATOM     68  C   UNL A   1      44.520  26.732  31.480  1.00  0.00     0.031 C 
ATOM     69  C   UNL A   1      43.767  28.093  33.411  1.00  0.00     0.037 A 
BRANCH  56  70
ATOM     70  C   UNL A   1      39.263  31.868  35.323  1.00  0.00     0.064 A 
ATOM     71  C   UNL A   1      38.459  31.379  36.365  1.00  0.00     0.173 A 
ATOM     72  C   UNL A   1      39.586  33.234  35.331  1.00  0.00     0.173 A 
ATOM     73  F   UNL A   1      38.112  30.084  36.399  1.00  0.00    -0.203 F 
ATOM     74  C   UNL A   1      37.971  32.230  37.354  1.00  0.00     0.198 A 
ATOM     75  C   UNL A   1      39.123  34.075  36.339  1.00  0.00     0.198 A 
ATOM     76  F   UNL A   1      40.358  33.753  34.364  1.00  0.00    -0.203 F 
ATOM     77  F   UNL A   1      37.161  31.750  38.308  1.00  0.00    -0.200 F 
ATOM     78  C   UNL A   1      38.309  33.575  37.344  1.00  0.00     0.200 A 
ATOM     79  F   UNL A   1      39.462  35.371  36.337  1.00  0.00    -0.200 F 
ATOM     80  F   UNL A   1      37.841  34.391  38.299  1.00  0.00    -0.200 F 
ENDBRANCH  56  70
BRANCH  57  81
ATOM     81  C   UNL A   1      42.538  26.186  27.797  1.00  0.00     0.064 A 
ATOM     82  C   UNL A   1      42.111  24.861  27.633  1.00  0.00     0.173 A 
ATOM     83  C   UNL A   1      43.454  26.696  26.865  1.00  0.00     0.173 A 
ATOM     84  F   UNL A   1      41.253  24.321  28.512  1.00  0.00    -0.203 F 
ATOM     85  C   UNL A   1      42.593  24.072  26.591  1.00  0.00     0.198 A 
ATOM     86  C   UNL A   1      43.913  25.916  25.806  1.00  0.00     0.198 A 
ATOM     87  F   UNL A   1      43.890  27.959  26.975  1.00  0.00    -0.203 F 
ATOM     88  F   UNL A   1      42.200  22.795  26.483  1.00  0.00    -0.200 F 
ATOM     89  C   UNL A   1      43.488  24.602  25.674  1.00  0.00     0.200 A 
ATOM     90  F   UNL A   1      44.767  26.435  24.915  1.00  0.00    -0.200 F 
ATOM     91  F   UNL A   1      43.947  23.845  24.668  1.00  0.00    -0.200 F 
ENDBRANCH  57  81
BRANCH  69  92
ATOM     92  C   UNL A   1      44.999  27.654  34.147  1.00  0.00     0.064 A 
ATOM     93  C   UNL A   1      45.027  26.466  34.894  1.00  0.00     0.173 A 
ATOM     94  C   UNL A   1      46.178  28.412  34.073  1.00  0.00     0.173 A 
ATOM     95  F   UNL A   1      43.923  25.715  35.009  1.00  0.00    -0.203 F 
ATOM     96  C   UNL A   1      46.183  26.069  35.561  1.00  0.00     0.198 A 
ATOM     97  C   UNL A   1      47.341  27.995  34.716  1.00  0.00     0.198 A 
ATOM     98  F   UNL A   1      46.206  29.551  33.367  1.00  0.00    -0.203 F 
ATOM     99  F   UNL A   1      46.174  24.955  36.308  1.00  0.00    -0.200 F 
ATOM    100  C   UNL A   1      47.341  26.828  35.465  1.00  0.00     0.200 A 
ATOM    101  F   UNL A   1      48.461  28.723  34.610  1.00  0.00    -0.200 F 
ATOM    102  F   UNL A   1      48.454  26.439  36.101  1.00  0.00    -0.200 F 
ENDBRANCH  69  92
ENDBRANCH  43  44
ENDBRANCH  35  38
ENDBRANCH  33  34
ENDBRANCH   1  33
TORSDOF 14
ENDMDL
