MODEL 1
REMARK VINA RESULT:     -12.3      0.000      0.000
REMARK SMILES O=C(CCC(=O)Nc1ccc(Oc2ccccc2Cl)cc1)NCCCNC(=O)c1ccc(-c2c3nc(c(-c4c(F)c(F)c(F)c(F)c4F)c4ccc([nH]4)c(-c4c(F)c(F)c(F)c(F)c4F)c4nc(c(-c5c(F)c(F)c(F)c(F)c5F)c5ccc2[nH]5)C=C4)C=C3)cc1
REMARK SMILES IDX 1 1 2 2 22 3 3 5 4 6 5 7 6 8 7 9 8 11 9 12 21 13 10 14 20 15
REMARK SMILES IDX 11 16 12 17 13 18 14 19 18 20 15 21 17 22 19 23 16 24 23 25
REMARK SMILES IDX 24 26 25 27 26 28 27 29 28 31 29 32 30 33 91 34 31 35 90 36
REMARK SMILES IDX 32 37 33 38 34 39 84 40 35 41 89 42 83 43 85 44 36 45 88 46
REMARK SMILES IDX 82 47 81 48 37 50 69 51 49 52 68 53 50 54 53 55 67 56 86 57
REMARK SMILES IDX 51 58 52 59 66 61 87 62 54 63 38 64 39 65 47 66 40 67 41 68
REMARK SMILES IDX 45 69 48 70 42 71 43 72 46 73 44 74 70 75 71 76 79 77 72 78
REMARK SMILES IDX 73 79 77 80 80 81 74 82 75 83 78 84 76 85 55 86 56 87 64 88
REMARK SMILES IDX 57 89 58 90 62 91 65 92 59 93 60 94 63 95 61 96
REMARK H PARENT 22 4 7 10 26 30 85 49 53 60
REMARK Flexibility Score: inf
ROOT
ATOM      1  O   UNL A   1      32.735  26.269  24.568  1.00  0.00    -0.275 OA
ATOM      2  C   UNL A   1      31.570  26.501  24.872  1.00  0.00     0.220 C 
ATOM      3  N   UNL A   1      30.970  27.737  24.774  1.00  0.00    -0.356 N 
ATOM      4  H   UNL A   1      29.990  27.803  24.852  1.00  0.00     0.163 HD
ENDROOT
BRANCH   2   5
ATOM      5  C   UNL A   1      30.678  25.437  25.467  1.00  0.00     0.110 C 
BRANCH   5   6
ATOM      6  C   UNL A   1      31.333  24.680  26.619  1.00  0.00     0.110 C 
BRANCH   6   7
ATOM      7  C   UNL A   1      30.827  23.265  26.789  1.00  0.00     0.224 C 
ATOM      8  O   UNL A   1      29.946  23.054  27.634  1.00  0.00    -0.275 OA
ATOM      9  N   UNL A   1      31.309  22.173  26.134  1.00  0.00    -0.326 N 
ATOM     10  H   UNL A   1      30.722  21.387  26.222  1.00  0.00     0.169 HD
BRANCH   9  11
ATOM     11  C   UNL A   1      32.457  21.909  25.358  1.00  0.00     0.041 A 
ATOM     12  C   UNL A   1      33.509  21.244  26.013  1.00  0.00     0.030 A 
ATOM     13  C   UNL A   1      32.688  22.379  24.074  1.00  0.00     0.030 A 
ATOM     14  C   UNL A   1      34.801  21.226  25.466  1.00  0.00     0.049 A 
ATOM     15  C   UNL A   1      33.977  22.367  23.526  1.00  0.00     0.049 A 
ATOM     16  C   UNL A   1      35.053  21.848  24.244  1.00  0.00     0.127 A 
BRANCH  16  17
ATOM     17  O   UNL A   1      36.374  21.915  23.843  1.00  0.00    -0.456 OA
BRANCH  17  18
ATOM     18  C   UNL A   1      37.283  22.340  24.789  1.00  0.00     0.146 A 
ATOM     19  C   UNL A   1      37.261  23.689  25.157  1.00  0.00     0.049 A 
ATOM     20  C   UNL A   1      38.212  21.470  25.370  1.00  0.00     0.083 A 
ATOM     21  C   UNL A   1      38.103  24.148  26.170  1.00  0.00     0.004 A 
ATOM     22  C   UNL A   1      39.048  21.932  26.391  1.00  0.00     0.024 A 
ATOM     23  Cl  UNL A   1      38.382  19.837  24.843  1.00  0.00    -0.080 Cl
ATOM     24  C   UNL A   1      38.984  23.266  26.799  1.00  0.00     0.002 A 
ENDBRANCH  17  18
ENDBRANCH  16  17
ENDBRANCH   9  11
ENDBRANCH   6   7
ENDBRANCH   5   6
ENDBRANCH   2   5
BRANCH   3  25
ATOM     25  C   UNL A   1      31.744  28.942  24.561  1.00  0.00     0.117 C 
BRANCH  25  26
ATOM     26  C   UNL A   1      31.455  30.060  25.541  1.00  0.00     0.042 C 
BRANCH  26  27
ATOM     27  C   UNL A   1      32.641  30.477  26.397  1.00  0.00     0.118 C 
BRANCH  27  28
ATOM     28  N   UNL A   1      32.591  31.845  26.905  1.00  0.00    -0.352 N 
ATOM     29  C   UNL A   1      33.554  32.541  27.607  1.00  0.00     0.251 C 
ATOM     30  H   UNL A   1      31.758  32.338  26.722  1.00  0.00     0.163 HD
ATOM     31  O   UNL A   1      33.339  33.684  27.996  1.00  0.00    -0.269 OA
BRANCH  29  32
ATOM     32  C   UNL A   1      34.827  31.865  27.944  1.00  0.00     0.039 A 
ATOM     33  C   UNL A   1      35.984  32.634  28.093  1.00  0.00     0.014 A 
ATOM     34  C   UNL A   1      34.849  30.500  28.232  1.00  0.00     0.014 A 
ATOM     35  C   UNL A   1      37.124  32.061  28.661  1.00  0.00     0.010 A 
ATOM     36  C   UNL A   1      35.946  29.960  28.893  1.00  0.00     0.010 A 
ATOM     37  C   UNL A   1      37.089  30.739  29.136  1.00  0.00    -0.014 A 
BRANCH  37  38
ATOM     38  C   UNL A   1      38.207  30.153  29.922  1.00  0.00     0.031 A 
ATOM     39  C   UNL A   1      38.434  30.586  31.343  1.00  0.00     0.074 A 
ATOM     40  C   UNL A   1      39.089  29.326  29.324  1.00  0.00     0.049 A 
ATOM     41  N   UNL A   1      39.438  30.322  32.142  1.00  0.00    -0.248 NA
ATOM     42  C   UNL A   1      37.417  31.471  31.932  1.00  0.00     0.031 C 
ATOM     43  C   UNL A   1      39.026  28.877  27.932  1.00  0.00     0.029 A 
ATOM     44  N   UNL A   1      40.227  28.729  29.810  1.00  0.00    -0.354 N 
ATOM     45  C   UNL A   1      39.189  31.034  33.307  1.00  0.00     0.074 A 
ATOM     46  C   UNL A   1      37.968  31.779  33.096  1.00  0.00     0.031 C 
ATOM     47  C   UNL A   1      40.061  28.059  27.683  1.00  0.00     0.029 A 
ATOM     48  C   UNL A   1      40.888  27.958  28.882  1.00  0.00     0.049 A 
ATOM     49  H   UNL A   1      40.542  28.843  30.736  1.00  0.00     0.167 HD
ATOM     50  C   UNL A   1      39.901  31.047  34.459  1.00  0.00     0.037 A 
ATOM     51  C   UNL A   1      42.034  27.260  28.981  1.00  0.00     0.037 A 
ATOM     52  C   UNL A   1      41.086  30.264  34.689  1.00  0.00     0.049 A 
ATOM     53  C   UNL A   1      42.790  27.266  30.282  1.00  0.00     0.074 A 
ATOM     54  C   UNL A   1      41.830  30.145  35.849  1.00  0.00     0.029 A 
ATOM     55  N   UNL A   1      41.695  29.459  33.738  1.00  0.00    -0.354 N 
ATOM     56  N   UNL A   1      42.511  27.894  31.397  1.00  0.00    -0.248 NA
ATOM     57  C   UNL A   1      44.023  26.466  30.336  1.00  0.00     0.031 C 
ATOM     58  C   UNL A   1      42.908  29.293  35.592  1.00  0.00     0.029 A 
ATOM     59  C   UNL A   1      42.814  28.851  34.282  1.00  0.00     0.049 A 
ATOM     60  H   UNL A   1      41.379  29.338  32.813  1.00  0.00     0.167 HD
ATOM     61  C   UNL A   1      43.513  27.546  32.292  1.00  0.00     0.074 A 
ATOM     62  C   UNL A   1      44.403  26.643  31.594  1.00  0.00     0.031 C 
ATOM     63  C   UNL A   1      43.682  27.944  33.577  1.00  0.00     0.037 A 
BRANCH  50  64
ATOM     64  C   UNL A   1      39.407  31.929  35.567  1.00  0.00     0.064 A 
ATOM     65  C   UNL A   1      39.810  33.269  35.675  1.00  0.00     0.173 A 
ATOM     66  C   UNL A   1      38.499  31.437  36.517  1.00  0.00     0.173 A 
ATOM     67  F   UNL A   1      40.687  33.781  34.798  1.00  0.00    -0.203 F 
ATOM     68  C   UNL A   1      39.348  34.075  36.711  1.00  0.00     0.198 A 
ATOM     69  C   UNL A   1      38.016  32.256  37.534  1.00  0.00     0.198 A 
ATOM     70  F   UNL A   1      38.078  30.166  36.457  1.00  0.00    -0.203 F 
ATOM     71  F   UNL A   1      39.787  35.336  36.823  1.00  0.00    -0.200 F 
ATOM     72  C   UNL A   1      38.447  33.570  37.636  1.00  0.00     0.200 A 
ATOM     73  F   UNL A   1      37.136  31.770  38.422  1.00  0.00    -0.200 F 
ATOM     74  F   UNL A   1      37.999  34.349  38.630  1.00  0.00    -0.200 F 
ENDBRANCH  50  64
BRANCH  51  75
ATOM     75  C   UNL A   1      42.528  26.472  27.823  1.00  0.00     0.064 A 
ATOM     76  C   UNL A   1      43.354  27.065  26.856  1.00  0.00     0.173 A 
ATOM     77  C   UNL A   1      42.186  25.124  27.651  1.00  0.00     0.173 A 
ATOM     78  F   UNL A   1      43.688  28.358  26.965  1.00  0.00    -0.203 F 
ATOM     79  C   UNL A   1      43.804  26.343  25.753  1.00  0.00     0.198 A 
ATOM     80  C   UNL A   1      42.656  24.395  26.561  1.00  0.00     0.198 A 
ATOM     81  F   UNL A   1      41.401  24.511  28.549  1.00  0.00    -0.203 F 
ATOM     82  F   UNL A   1      44.556  26.945  24.821  1.00  0.00    -0.200 F 
ATOM     83  C   UNL A   1      43.459  25.007  25.608  1.00  0.00     0.200 A 
ATOM     84  F   UNL A   1      42.330  23.103  26.429  1.00  0.00    -0.200 F 
ATOM     85  F   UNL A   1      43.893  24.312  24.548  1.00  0.00    -0.200 F 
ENDBRANCH  51  75
BRANCH  63  86
ATOM     86  C   UNL A   1      44.852  27.379  34.324  1.00  0.00     0.064 A 
ATOM     87  C   UNL A   1      44.764  26.160  35.012  1.00  0.00     0.173 A 
ATOM     88  C   UNL A   1      46.089  28.041  34.310  1.00  0.00     0.173 A 
ATOM     89  F   UNL A   1      43.598  25.499  35.068  1.00  0.00    -0.203 F 
ATOM     90  C   UNL A   1      45.870  25.632  35.672  1.00  0.00     0.198 A 
ATOM     91  C   UNL A   1      47.199  27.497  34.950  1.00  0.00     0.198 A 
ATOM     92  F   UNL A   1      46.223  29.208  33.662  1.00  0.00    -0.203 F 
ATOM     93  F   UNL A   1      45.756  24.484  36.354  1.00  0.00    -0.200 F 
ATOM     94  C   UNL A   1      47.087  26.297  35.634  1.00  0.00     0.200 A 
ATOM     95  F   UNL A   1      48.377  28.135  34.903  1.00  0.00    -0.200 F 
ATOM     96  F   UNL A   1      48.154  25.781  36.262  1.00  0.00    -0.200 F 
ENDBRANCH  63  86
ENDBRANCH  37  38
ENDBRANCH  29  32
ENDBRANCH  27  28
ENDBRANCH  26  27
ENDBRANCH  25  26
ENDBRANCH   3  25
TORSDOF 15
ENDMDL
MODEL 2
REMARK VINA RESULT:     -12.3      0.628      2.089
REMARK SMILES O=C(CCC(=O)Nc1ccc(Oc2ccccc2Cl)cc1)NCCCNC(=O)c1ccc(-c2c3nc(c(-c4c(F)c(F)c(F)c(F)c4F)c4ccc([nH]4)c(-c4c(F)c(F)c(F)c(F)c4F)c4nc(c(-c5c(F)c(F)c(F)c(F)c5F)c5ccc2[nH]5)C=C4)C=C3)cc1
REMARK SMILES IDX 1 1 2 2 22 3 3 5 4 6 5 7 6 8 7 9 8 11 9 12 21 13 10 14 20 15
REMARK SMILES IDX 11 16 12 17 13 18 14 19 18 20 15 21 17 22 19 23 16 24 23 25
REMARK SMILES IDX 24 26 25 27 26 28 27 29 28 31 29 32 30 33 91 34 31 35 90 36
REMARK SMILES IDX 32 37 33 38 34 39 84 40 35 41 89 42 83 43 85 44 36 45 88 46
REMARK SMILES IDX 82 47 81 48 37 50 69 51 49 52 68 53 50 54 53 55 67 56 86 57
REMARK SMILES IDX 51 58 52 59 66 61 87 62 54 63 38 64 39 65 47 66 40 67 41 68
REMARK SMILES IDX 45 69 48 70 42 71 43 72 46 73 44 74 70 75 71 76 79 77 72 78
REMARK SMILES IDX 73 79 77 80 80 81 74 82 75 83 78 84 76 85 55 86 56 87 64 88
REMARK SMILES IDX 57 89 58 90 62 91 65 92 59 93 60 94 63 95 61 96
REMARK H PARENT 22 4 7 10 26 30 85 49 53 60
REMARK Flexibility Score: inf
ROOT
ATOM      1  O   UNL A   1      32.842  25.989  24.566  1.00  0.00    -0.275 OA
ATOM      2  C   UNL A   1      31.644  26.215  24.706  1.00  0.00     0.220 C 
ATOM      3  N   UNL A   1      31.055  27.445  24.513  1.00  0.00    -0.356 N 
ATOM      4  H   UNL A   1      30.073  27.504  24.455  1.00  0.00     0.163 HD
ENDROOT
BRANCH   2   5
ATOM      5  C   UNL A   1      30.687  25.150  25.184  1.00  0.00     0.110 C 
BRANCH   5   6
ATOM      6  C   UNL A   1      31.031  24.611  26.571  1.00  0.00     0.110 C 
BRANCH   6   7
ATOM      7  C   UNL A   1      30.567  23.193  26.810  1.00  0.00     0.224 C 
ATOM      8  O   UNL A   1      29.681  22.999  27.654  1.00  0.00    -0.275 OA
ATOM      9  N   UNL A   1      31.092  22.082  26.221  1.00  0.00    -0.326 N 
ATOM     10  H   UNL A   1      30.528  21.285  26.344  1.00  0.00     0.169 HD
BRANCH   9  11
ATOM     11  C   UNL A   1      32.258  21.813  25.476  1.00  0.00     0.041 A 
ATOM     12  C   UNL A   1      33.348  21.294  26.195  1.00  0.00     0.030 A 
ATOM     13  C   UNL A   1      32.464  22.158  24.148  1.00  0.00     0.030 A 
ATOM     14  C   UNL A   1      34.642  21.304  25.650  1.00  0.00     0.049 A 
ATOM     15  C   UNL A   1      33.753  22.173  23.602  1.00  0.00     0.049 A 
ATOM     16  C   UNL A   1      34.858  21.806  24.368  1.00  0.00     0.127 A 
BRANCH  16  17
ATOM     17  O   UNL A   1      36.174  21.918  23.959  1.00  0.00    -0.456 OA
BRANCH  17  18
ATOM     18  C   UNL A   1      37.078  22.347  24.907  1.00  0.00     0.146 A 
ATOM     19  C   UNL A   1      38.110  21.476  25.270  1.00  0.00     0.049 A 
ATOM     20  C   UNL A   1      36.982  23.608  25.507  1.00  0.00     0.083 A 
ATOM     21  C   UNL A   1      39.097  21.899  26.160  1.00  0.00     0.004 A 
ATOM     22  C   UNL A   1      37.978  24.031  26.392  1.00  0.00     0.024 A 
ATOM     23  Cl  UNL A   1      35.647  24.658  25.208  1.00  0.00    -0.080 Cl
ATOM     24  C   UNL A   1      39.040  23.181  26.708  1.00  0.00     0.002 A 
ENDBRANCH  17  18
ENDBRANCH  16  17
ENDBRANCH   9  11
ENDBRANCH   6   7
ENDBRANCH   5   6
ENDBRANCH   2   5
BRANCH   3  25
ATOM     25  C   UNL A   1      31.843  28.654  24.395  1.00  0.00     0.117 C 
BRANCH  25  26
ATOM     26  C   UNL A   1      31.516  29.723  25.417  1.00  0.00     0.042 C 
BRANCH  26  27
ATOM     27  C   UNL A   1      32.694  30.172  26.267  1.00  0.00     0.118 C 
BRANCH  27  28
ATOM     28  N   UNL A   1      32.589  31.522  26.813  1.00  0.00    -0.352 N 
ATOM     29  C   UNL A   1      33.519  32.232  27.545  1.00  0.00     0.251 C 
ATOM     30  H   UNL A   1      31.741  31.989  26.634  1.00  0.00     0.163 HD
ATOM     31  O   UNL A   1      33.258  33.354  27.964  1.00  0.00    -0.269 OA
BRANCH  29  32
ATOM     32  C   UNL A   1      34.812  31.593  27.878  1.00  0.00     0.039 A 
ATOM     33  C   UNL A   1      35.948  32.394  28.017  1.00  0.00     0.014 A 
ATOM     34  C   UNL A   1      34.873  30.230  28.172  1.00  0.00     0.014 A 
ATOM     35  C   UNL A   1      37.107  31.855  28.580  1.00  0.00     0.010 A 
ATOM     36  C   UNL A   1      35.989  29.723  28.829  1.00  0.00     0.010 A 
ATOM     37  C   UNL A   1      37.111  30.535  29.061  1.00  0.00    -0.014 A 
BRANCH  37  38
ATOM     38  C   UNL A   1      38.250  29.984  29.844  1.00  0.00     0.031 A 
ATOM     39  C   UNL A   1      38.487  30.447  31.253  1.00  0.00     0.074 A 
ATOM     40  C   UNL A   1      39.139  29.162  29.249  1.00  0.00     0.049 A 
ATOM     41  N   UNL A   1      39.505  30.216  32.044  1.00  0.00    -0.248 NA
ATOM     42  C   UNL A   1      37.461  31.325  31.839  1.00  0.00     0.031 C 
ATOM     43  C   UNL A   1      39.066  28.686  27.867  1.00  0.00     0.029 A 
ATOM     44  N   UNL A   1      40.294  28.594  29.732  1.00  0.00    -0.354 N 
ATOM     45  C   UNL A   1      39.259  30.945  33.199  1.00  0.00     0.074 A 
ATOM     46  C   UNL A   1      38.021  31.665  32.990  1.00  0.00     0.031 C 
ATOM     47  C   UNL A   1      40.112  27.882  27.620  1.00  0.00     0.029 A 
ATOM     48  C   UNL A   1      40.956  27.818  28.809  1.00  0.00     0.049 A 
ATOM     49  H   UNL A   1      40.618  28.731  30.651  1.00  0.00     0.167 HD
ATOM     50  C   UNL A   1      39.985  30.992  34.340  1.00  0.00     0.037 A 
ATOM     51  C   UNL A   1      42.116  27.143  28.906  1.00  0.00     0.037 A 
ATOM     52  C   UNL A   1      41.187  30.235  34.569  1.00  0.00     0.049 A 
ATOM     53  C   UNL A   1      42.888  27.186  30.197  1.00  0.00     0.074 A 
ATOM     54  C   UNL A   1      41.947  30.151  35.722  1.00  0.00     0.029 A 
ATOM     55  N   UNL A   1      41.797  29.423  33.626  1.00  0.00    -0.354 N 
ATOM     56  N   UNL A   1      42.612  27.830  31.304  1.00  0.00    -0.248 NA
ATOM     57  C   UNL A   1      44.136  26.410  30.250  1.00  0.00     0.031 C 
ATOM     58  C   UNL A   1      43.038  29.313  35.466  1.00  0.00     0.029 A 
ATOM     59  C   UNL A   1      42.935  28.846  34.166  1.00  0.00     0.049 A 
ATOM     60  H   UNL A   1      41.472  29.280  32.708  1.00  0.00     0.167 HD
ATOM     61  C   UNL A   1      43.632  27.517  32.192  1.00  0.00     0.074 A 
ATOM     62  C   UNL A   1      44.529  26.617  31.499  1.00  0.00     0.031 C 
ATOM     63  C   UNL A   1      43.810  27.941  33.467  1.00  0.00     0.037 A 
BRANCH  50  64
ATOM     64  C   UNL A   1      39.489  31.886  35.438  1.00  0.00     0.064 A 
ATOM     65  C   UNL A   1      38.560  31.435  36.389  1.00  0.00     0.173 A 
ATOM     66  C   UNL A   1      39.968  33.200  35.559  1.00  0.00     0.173 A 
ATOM     67  F   UNL A   1      38.063  30.192  36.309  1.00  0.00    -0.203 F 
ATOM     68  C   UNL A   1      38.105  32.276  37.400  1.00  0.00     0.198 A 
ATOM     69  C   UNL A   1      39.532  34.028  36.590  1.00  0.00     0.198 A 
ATOM     70  F   UNL A   1      40.860  33.678  34.680  1.00  0.00    -0.203 F 
ATOM     71  F   UNL A   1      37.179  31.840  38.265  1.00  0.00    -0.200 F 
ATOM     72  C   UNL A   1      38.595  33.569  37.504  1.00  0.00     0.200 A 
ATOM     73  F   UNL A   1      40.016  35.274  36.696  1.00  0.00    -0.200 F 
ATOM     74  F   UNL A   1      38.160  34.376  38.481  1.00  0.00    -0.200 F 
ENDBRANCH  50  64
BRANCH  51  75
ATOM     75  C   UNL A   1      42.609  26.342  27.756  1.00  0.00     0.064 A 
ATOM     76  C   UNL A   1      42.220  25.004  27.598  1.00  0.00     0.173 A 
ATOM     77  C   UNL A   1      43.478  26.887  26.800  1.00  0.00     0.173 A 
ATOM     78  F   UNL A   1      41.410  24.433  28.500  1.00  0.00    -0.203 F 
ATOM     79  C   UNL A   1      42.695  24.237  26.537  1.00  0.00     0.198 A 
ATOM     80  C   UNL A   1      43.933  26.126  25.725  1.00  0.00     0.198 A 
ATOM     81  F   UNL A   1      43.878  28.162  26.906  1.00  0.00    -0.203 F 
ATOM     82  F   UNL A   1      42.341  22.948  26.433  1.00  0.00    -0.200 F 
ATOM     83  C   UNL A   1      43.547  24.799  25.598  1.00  0.00     0.200 A 
ATOM     84  F   UNL A   1      44.748  26.675  24.815  1.00  0.00    -0.200 F 
ATOM     85  F   UNL A   1      44.003  24.061  24.577  1.00  0.00    -0.200 F 
ENDBRANCH  51  75
BRANCH  63  86
ATOM     86  C   UNL A   1      44.999  27.411  34.209  1.00  0.00     0.064 A 
ATOM     87  C   UNL A   1      46.243  28.055  34.156  1.00  0.00     0.173 A 
ATOM     88  C   UNL A   1      44.878  26.274  35.022  1.00  0.00     0.173 A 
ATOM     89  F   UNL A   1      46.412  29.135  33.379  1.00  0.00    -0.203 F 
ATOM     90  C   UNL A   1      47.330  27.570  34.879  1.00  0.00     0.198 A 
ATOM     91  C   UNL A   1      45.960  25.807  35.764  1.00  0.00     0.198 A 
ATOM     92  F   UNL A   1      43.707  25.627  35.109  1.00  0.00    -0.203 F 
ATOM     93  F   UNL A   1      48.520  28.178  34.786  1.00  0.00    -0.200 F 
ATOM     94  C   UNL A   1      47.185  26.452  35.687  1.00  0.00     0.200 A 
ATOM     95  F   UNL A   1      45.815  24.733  36.553  1.00  0.00    -0.200 F 
ATOM     96  F   UNL A   1      48.229  25.991  36.390  1.00  0.00    -0.200 F 
ENDBRANCH  63  86
ENDBRANCH  37  38
ENDBRANCH  29  32
ENDBRANCH  27  28
ENDBRANCH  26  27
ENDBRANCH  25  26
ENDBRANCH   3  25
TORSDOF 15
ENDMDL
MODEL 3
REMARK VINA RESULT:     -12.2      3.217      4.077
REMARK SMILES O=C(CCC(=O)Nc1ccc(Oc2ccccc2Cl)cc1)NCCCNC(=O)c1ccc(-c2c3nc(c(-c4c(F)c(F)c(F)c(F)c4F)c4ccc([nH]4)c(-c4c(F)c(F)c(F)c(F)c4F)c4nc(c(-c5c(F)c(F)c(F)c(F)c5F)c5ccc2[nH]5)C=C4)C=C3)cc1
REMARK SMILES IDX 1 1 2 2 22 3 3 5 4 6 5 7 6 8 7 9 8 11 9 12 21 13 10 14 20 15
REMARK SMILES IDX 11 16 12 17 13 18 14 19 18 20 15 21 17 22 19 23 16 24 23 25
REMARK SMILES IDX 24 26 25 27 26 28 27 29 28 31 29 32 30 33 91 34 31 35 90 36
REMARK SMILES IDX 32 37 33 38 34 39 84 40 35 41 89 42 83 43 85 44 36 45 88 46
REMARK SMILES IDX 82 47 81 48 37 50 69 51 49 52 68 53 50 54 53 55 67 56 86 57
REMARK SMILES IDX 51 58 52 59 66 61 87 62 54 63 38 64 39 65 47 66 40 67 41 68
REMARK SMILES IDX 45 69 48 70 42 71 43 72 46 73 44 74 70 75 71 76 79 77 72 78
REMARK SMILES IDX 73 79 77 80 80 81 74 82 75 83 78 84 76 85 55 86 56 87 64 88
REMARK SMILES IDX 57 89 58 90 62 91 65 92 59 93 60 94 63 95 61 96
REMARK H PARENT 22 4 7 10 26 30 85 49 53 60
REMARK Flexibility Score: inf
ROOT
ATOM      1  O   UNL A   1      33.787  25.376  25.581  1.00  0.00    -0.275 OA
ATOM      2  C   UNL A   1      32.722  25.830  25.175  1.00  0.00     0.220 C 
ATOM      3  N   UNL A   1      32.577  27.065  24.582  1.00  0.00    -0.356 N 
ATOM      4  H   UNL A   1      31.738  27.276  24.112  1.00  0.00     0.163 HD
ENDROOT
BRANCH   2   5
ATOM      5  C   UNL A   1      31.422  25.085  25.355  1.00  0.00     0.110 C 
BRANCH   5   6
ATOM      6  C   UNL A   1      31.190  24.619  26.791  1.00  0.00     0.110 C 
BRANCH   6   7
ATOM      7  C   UNL A   1      30.576  23.242  26.897  1.00  0.00     0.224 C 
ATOM      8  O   UNL A   1      29.593  23.093  27.638  1.00  0.00    -0.275 OA
ATOM      9  N   UNL A   1      31.055  22.118  26.296  1.00  0.00    -0.326 N 
ATOM     10  H   UNL A   1      30.411  21.373  26.315  1.00  0.00     0.169 HD
BRANCH   9  11
ATOM     11  C   UNL A   1      32.262  21.775  25.654  1.00  0.00     0.041 A 
ATOM     12  C   UNL A   1      33.433  21.914  26.419  1.00  0.00     0.030 A 
ATOM     13  C   UNL A   1      32.400  21.469  24.308  1.00  0.00     0.030 A 
ATOM     14  C   UNL A   1      34.696  21.932  25.807  1.00  0.00     0.049 A 
ATOM     15  C   UNL A   1      33.658  21.489  23.693  1.00  0.00     0.049 A 
ATOM     16  C   UNL A   1      34.807  21.783  24.425  1.00  0.00     0.127 A 
BRANCH  16  17
ATOM     17  O   UNL A   1      36.066  21.958  23.881  1.00  0.00    -0.456 OA
BRANCH  17  18
ATOM     18  C   UNL A   1      37.071  22.308  24.757  1.00  0.00     0.146 A 
ATOM     19  C   UNL A   1      37.171  23.651  25.135  1.00  0.00     0.049 A 
ATOM     20  C   UNL A   1      37.979  21.370  25.260  1.00  0.00     0.083 A 
ATOM     21  C   UNL A   1      38.117  24.038  26.084  1.00  0.00     0.004 A 
ATOM     22  C   UNL A   1      38.919  21.760  26.218  1.00  0.00     0.024 A 
ATOM     23  Cl  UNL A   1      37.994  19.735  24.711  1.00  0.00    -0.080 Cl
ATOM     24  C   UNL A   1      38.979  23.091  26.638  1.00  0.00     0.002 A 
ENDBRANCH  17  18
ENDBRANCH  16  17
ENDBRANCH   9  11
ENDBRANCH   6   7
ENDBRANCH   5   6
ENDBRANCH   2   5
BRANCH   3  25
ATOM     25  C   UNL A   1      33.627  28.060  24.634  1.00  0.00     0.117 C 
BRANCH  25  26
ATOM     26  C   UNL A   1      33.281  29.302  25.429  1.00  0.00     0.042 C 
BRANCH  26  27
ATOM     27  C   UNL A   1      33.426  29.153  26.936  1.00  0.00     0.118 C 
BRANCH  27  28
ATOM     28  N   UNL A   1      33.426  30.405  27.688  1.00  0.00    -0.352 N 
ATOM     29  C   UNL A   1      34.454  30.979  28.408  1.00  0.00     0.251 C 
ATOM     30  H   UNL A   1      32.578  30.907  27.680  1.00  0.00     0.163 HD
ATOM     31  O   UNL A   1      34.278  32.028  29.018  1.00  0.00    -0.269 OA
BRANCH  29  32
ATOM     32  C   UNL A   1      35.754  30.277  28.490  1.00  0.00     0.039 A 
ATOM     33  C   UNL A   1      36.633  30.348  27.406  1.00  0.00     0.014 A 
ATOM     34  C   UNL A   1      36.151  29.659  29.676  1.00  0.00     0.014 A 
ATOM     35  C   UNL A   1      37.953  29.921  27.560  1.00  0.00     0.010 A 
ATOM     36  C   UNL A   1      37.490  29.334  29.861  1.00  0.00     0.010 A 
ATOM     37  C   UNL A   1      38.412  29.481  28.813  1.00  0.00    -0.014 A 
BRANCH  37  38
ATOM     38  C   UNL A   1      39.851  29.207  29.074  1.00  0.00     0.031 A 
ATOM     39  C   UNL A   1      40.713  30.259  29.712  1.00  0.00     0.074 A 
ATOM     40  C   UNL A   1      40.408  28.061  28.629  1.00  0.00     0.049 A 
ATOM     41  N   UNL A   1      42.012  30.281  29.876  1.00  0.00    -0.248 NA
ATOM     42  C   UNL A   1      40.028  31.470  30.191  1.00  0.00     0.031 C 
ATOM     43  C   UNL A   1      39.701  26.984  27.935  1.00  0.00     0.029 A 
ATOM     44  N   UNL A   1      41.709  27.621  28.680  1.00  0.00    -0.354 N 
ATOM     45  C   UNL A   1      42.299  31.516  30.442  1.00  0.00     0.074 A 
ATOM     46  C   UNL A   1      41.049  32.235  30.548  1.00  0.00     0.031 C 
ATOM     47  C   UNL A   1      40.567  26.000  27.647  1.00  0.00     0.029 A 
ATOM     48  C   UNL A   1      41.900  26.392  28.094  1.00  0.00     0.049 A 
ATOM     49  H   UNL A   1      42.437  28.138  29.095  1.00  0.00     0.167 HD
ATOM     50  C   UNL A   1      43.494  31.998  30.858  1.00  0.00     0.037 A 
ATOM     51  C   UNL A   1      43.023  25.668  27.926  1.00  0.00     0.037 A 
ATOM     52  C   UNL A   1      44.729  31.263  30.803  1.00  0.00     0.049 A 
ATOM     53  C   UNL A   1      44.333  26.213  28.426  1.00  0.00     0.074 A 
ATOM     54  C   UNL A   1      45.975  31.634  31.276  1.00  0.00     0.029 A 
ATOM     55  N   UNL A   1      44.870  30.001  30.247  1.00  0.00    -0.354 N 
ATOM     56  N   UNL A   1      44.581  27.356  29.016  1.00  0.00    -0.248 NA
ATOM     57  C   UNL A   1      45.520  25.367  28.234  1.00  0.00     0.031 C 
ATOM     58  C   UNL A   1      46.879  30.609  30.977  1.00  0.00     0.029 A 
ATOM     59  C   UNL A   1      46.187  29.584  30.352  1.00  0.00     0.049 A 
ATOM     60  H   UNL A   1      44.143  29.479  29.837  1.00  0.00     0.167 HD
ATOM     61  C   UNL A   1      45.941  27.357  29.290  1.00  0.00     0.074 A 
ATOM     62  C   UNL A   1      46.466  26.095  28.811  1.00  0.00     0.031 C 
ATOM     63  C   UNL A   1      46.690  28.319  29.882  1.00  0.00     0.037 A 
BRANCH  50  64
ATOM     64  C   UNL A   1      43.519  33.387  31.424  1.00  0.00     0.064 A 
ATOM     65  C   UNL A   1      43.708  34.511  30.606  1.00  0.00     0.173 A 
ATOM     66  C   UNL A   1      43.325  33.600  32.798  1.00  0.00     0.173 A 
ATOM     67  F   UNL A   1      43.910  34.359  29.289  1.00  0.00    -0.203 F 
ATOM     68  C   UNL A   1      43.734  35.794  31.145  1.00  0.00     0.198 A 
ATOM     69  C   UNL A   1      43.321  34.887  33.329  1.00  0.00     0.198 A 
ATOM     70  F   UNL A   1      43.135  32.560  33.624  1.00  0.00    -0.203 F 
ATOM     71  F   UNL A   1      43.967  36.847  30.351  1.00  0.00    -0.200 F 
ATOM     72  C   UNL A   1      43.534  35.982  32.505  1.00  0.00     0.200 A 
ATOM     73  F   UNL A   1      43.117  35.068  34.642  1.00  0.00    -0.200 F 
ATOM     74  F   UNL A   1      43.554  37.218  33.021  1.00  0.00    -0.200 F 
ENDBRANCH  50  64
BRANCH  51  75
ATOM     75  C   UNL A   1      42.957  24.333  27.277  1.00  0.00     0.064 A 
ATOM     76  C   UNL A   1      43.266  24.185  25.917  1.00  0.00     0.173 A 
ATOM     77  C   UNL A   1      42.581  23.186  27.991  1.00  0.00     0.173 A 
ATOM     78  F   UNL A   1      43.606  25.256  25.188  1.00  0.00    -0.203 F 
ATOM     79  C   UNL A   1      43.185  22.942  25.292  1.00  0.00     0.198 A 
ATOM     80  C   UNL A   1      42.525  21.940  27.371  1.00  0.00     0.198 A 
ATOM     81  F   UNL A   1      42.279  23.276  29.294  1.00  0.00    -0.203 F 
ATOM     82  F   UNL A   1      43.443  22.835  23.982  1.00  0.00    -0.200 F 
ATOM     83  C   UNL A   1      42.819  21.820  26.020  1.00  0.00     0.200 A 
ATOM     84  F   UNL A   1      42.181  20.856  28.079  1.00  0.00    -0.200 F 
ATOM     85  F   UNL A   1      42.743  20.624  25.419  1.00  0.00    -0.200 F 
ENDBRANCH  51  75
BRANCH  63  86
ATOM     86  C   UNL A   1      48.148  28.034  30.079  1.00  0.00     0.064 A 
ATOM     87  C   UNL A   1      48.619  27.381  31.227  1.00  0.00     0.173 A 
ATOM     88  C   UNL A   1      49.077  28.374  29.085  1.00  0.00     0.173 A 
ATOM     89  F   UNL A   1      47.771  27.051  32.212  1.00  0.00    -0.203 F 
ATOM     90  C   UNL A   1      49.973  27.092  31.379  1.00  0.00     0.198 A 
ATOM     91  C   UNL A   1      50.426  28.061  29.228  1.00  0.00     0.198 A 
ATOM     92  F   UNL A   1      48.673  28.996  27.967  1.00  0.00    -0.203 F 
ATOM     93  F   UNL A   1      50.408  26.500  32.499  1.00  0.00    -0.200 F 
ATOM     94  C   UNL A   1      50.873  27.426  30.377  1.00  0.00     0.200 A 
ATOM     95  F   UNL A   1      51.293  28.374  28.255  1.00  0.00    -0.200 F 
ATOM     96  F   UNL A   1      52.174  27.138  30.520  1.00  0.00    -0.200 F 
ENDBRANCH  63  86
ENDBRANCH  37  38
ENDBRANCH  29  32
ENDBRANCH  27  28
ENDBRANCH  26  27
ENDBRANCH  25  26
ENDBRANCH   3  25
TORSDOF 15
ENDMDL
