MODEL 1
REMARK VINA RESULT:     -14.3      0.000      0.000
REMARK SMILES COc1cccc(C(=O)N[C@H]2C=C[C@@H](C(=O)NCCCNC(=O)c3ccc(-c4c5nc(c(-c6c(F)c(F)c(F)c(F)c6F)c6ccc([nH]6)c(-c6c(F)c(F)c(F)c(F)c6F)c6nc(c(-c7c(F)c(F)c(F)c(F)c7F)c7ccc4[nH]7)C=C6)C=C5)cc3)C2)c1
REMARK SMILES IDX 18 1 17 2 15 3 16 4 14 6 11 7 12 8 87 9 13 10 10 11 8 12
REMARK SMILES IDX 9 13 7 15 3 16 4 17 88 18 5 19 6 20 2 21 1 22 19 23 20 24
REMARK SMILES IDX 21 25 22 26 23 28 24 29 25 30 86 31 26 32 85 33 27 34 28 35
REMARK SMILES IDX 29 36 79 37 30 38 84 39 78 40 80 41 31 42 83 43 77 44 76 45
REMARK SMILES IDX 32 47 64 48 44 49 63 50 45 51 48 52 62 53 81 54 46 55 47 56
REMARK SMILES IDX 61 58 82 59 49 60 33 61 34 62 42 63 35 64 36 65 40 66 43 67
REMARK SMILES IDX 37 68 38 69 41 70 39 71 65 72 66 73 74 74 67 75 68 76 72 77
REMARK SMILES IDX 75 78 69 79 70 80 73 81 71 82 50 83 51 84 59 85 52 86 53 87
REMARK SMILES IDX 57 88 60 89 54 90 55 91 58 92 56 93
REMARK H PARENT 17 5 10 14 21 27 80 46 48 57
REMARK Flexibility Score: inf
ROOT
ATOM      1  C   UNL A   1      33.724  28.932  23.116  1.00  0.00     0.117 C 
ENDROOT
BRANCH   1   2
ATOM      2  N   UNL A   1      33.478  27.830  21.932  1.00  0.00    -0.356 N 
ATOM      3  C   UNL A   1      33.003  26.534  21.936  1.00  0.00     0.227 C 
ATOM      4  O   UNL A   1      33.751  25.554  21.934  1.00  0.00    -0.274 OA
ATOM      5  H   UNL A   1      33.717  28.157  21.036  1.00  0.00     0.163 HD
BRANCH   3   6
ATOM      6  C   UNL A   1      31.497  26.319  21.904  1.00  0.00     0.103 C 
ATOM      7  C   UNL A   1      30.187  26.214  23.971  1.00  0.00     0.106 C 
ATOM      8  C   UNL A   1      29.990  27.506  23.258  1.00  0.00    -0.006 C 
ATOM      9  C   UNL A   1      31.081  25.385  23.055  1.00  0.00     0.047 C 
ATOM     10  C   UNL A   1      30.664  27.545  22.106  1.00  0.00    -0.016 C 
BRANCH   7  11
ATOM     11  N   UNL A   1      30.616  26.403  25.342  1.00  0.00    -0.346 N 
ATOM     12  C   UNL A   1      31.580  25.883  26.153  1.00  0.00     0.251 C 
ATOM     13  O   UNL A   1      31.777  26.386  27.257  1.00  0.00    -0.269 OA
ATOM     14  H   UNL A   1      30.073  27.081  25.806  1.00  0.00     0.164 HD
BRANCH  12  15
ATOM     15  C   UNL A   1      32.486  24.811  25.750  1.00  0.00     0.043 A 
ATOM     16  C   UNL A   1      33.354  21.812  25.443  1.00  0.00     0.119 A 
ATOM     17  C   UNL A   1      35.022  22.318  25.036  1.00  0.00     0.046 A 
ATOM     18  C   UNL A   1      32.101  23.050  25.867  1.00  0.00     0.060 A 
ATOM     19  C   UNL A   1      35.420  24.065  24.938  1.00  0.00     0.005 A 
ATOM     20  C   UNL A   1      34.170  25.314  25.334  1.00  0.00     0.014 A 
BRANCH  16  21
ATOM     21  O   UNL A   1      33.039  20.481  25.439  1.00  0.00    -0.497 OA
ATOM     22  C   UNL A   1      32.596  20.095  24.132  1.00  0.00     0.278 C 
ENDBRANCH  16  21
ENDBRANCH  12  15
ENDBRANCH   7  11
ENDBRANCH   3   6
ENDBRANCH   1   2
BRANCH   1  23
ATOM     23  C   UNL A   1      33.533  28.967  25.291  1.00  0.00     0.042 C 
BRANCH  23  24
ATOM     24  C   UNL A   1      32.519  29.695  26.504  1.00  0.00     0.118 C 
BRANCH  24  25
ATOM     25  N   UNL A   1      32.457  31.080  26.942  1.00  0.00    -0.352 N 
ATOM     26  C   UNL A   1      33.446  31.913  27.382  1.00  0.00     0.251 C 
ATOM     27  H   UNL A   1      31.558  31.482  26.916  1.00  0.00     0.163 HD
ATOM     28  O   UNL A   1      33.217  33.118  27.458  1.00  0.00    -0.269 OA
BRANCH  26  29
ATOM     29  C   UNL A   1      34.695  31.368  27.946  1.00  0.00     0.039 A 
ATOM     30  C   UNL A   1      35.745  32.283  28.073  1.00  0.00     0.014 A 
ATOM     31  C   UNL A   1      34.835  30.066  28.427  1.00  0.00     0.014 A 
ATOM     32  C   UNL A   1      36.913  31.912  28.719  1.00  0.00     0.010 A 
ATOM     33  C   UNL A   1      35.961  29.725  29.166  1.00  0.00     0.010 A 
ATOM     34  C   UNL A   1      37.013  30.639  29.295  1.00  0.00    -0.014 A 
BRANCH  34  35
ATOM     35  C   UNL A   1      38.268  30.243  29.961  1.00  0.00     0.031 A 
ATOM     36  C   UNL A   1      38.513  30.697  31.369  1.00  0.00     0.074 A 
ATOM     37  C   UNL A   1      39.137  29.455  29.302  1.00  0.00     0.049 A 
ATOM     38  N   UNL A   1      39.508  30.415  32.166  1.00  0.00    -0.248 NA
ATOM     39  C   UNL A   1      37.520  31.615  31.953  1.00  0.00     0.031 C 
ATOM     40  C   UNL A   1      38.984  29.011  27.913  1.00  0.00     0.029 A 
ATOM     41  N   UNL A   1      40.300  28.867  29.713  1.00  0.00    -0.354 N 
ATOM     42  C   UNL A   1      39.262  31.126  33.333  1.00  0.00     0.074 A 
ATOM     43  C   UNL A   1      38.073  31.915  33.115  1.00  0.00     0.031 C 
ATOM     44  C   UNL A   1      39.987  28.174  27.608  1.00  0.00     0.029 A 
ATOM     45  C   UNL A   1      40.867  28.053  28.764  1.00  0.00     0.049 A 
ATOM     46  H   UNL A   1      40.693  29.013  30.604  1.00  0.00     0.167 HD
ATOM     47  C   UNL A   1      39.951  31.089  34.496  1.00  0.00     0.037 A 
ATOM     48  C   UNL A   1      41.972  27.288  28.839  1.00  0.00     0.037 A 
ATOM     49  C   UNL A   1      41.116  30.269  34.687  1.00  0.00     0.049 A 
ATOM     50  C   UNL A   1      42.717  27.261  30.147  1.00  0.00     0.074 A 
ATOM     51  C   UNL A   1      41.888  30.110  35.822  1.00  0.00     0.029 A 
ATOM     52  N   UNL A   1      41.673  29.462  33.702  1.00  0.00    -0.354 N 
ATOM     53  N   UNL A   1      42.446  27.888  31.268  1.00  0.00    -0.248 NA
ATOM     54  C   UNL A   1      43.912  26.413  30.206  1.00  0.00     0.031 C 
ATOM     55  C   UNL A   1      42.945  29.250  35.506  1.00  0.00     0.029 A 
ATOM     56  C   UNL A   1      42.796  28.821  34.194  1.00  0.00     0.049 A 
ATOM     57  H   UNL A   1      41.321  29.362  32.788  1.00  0.00     0.167 HD
ATOM     58  C   UNL A   1      43.424  27.501  32.171  1.00  0.00     0.074 A 
ATOM     59  C   UNL A   1      44.274  26.554  31.473  1.00  0.00     0.031 C 
ATOM     60  C   UNL A   1      43.616  27.891  33.457  1.00  0.00     0.037 A 
BRANCH  47  61
ATOM     61  C   UNL A   1      39.464  31.958  35.618  1.00  0.00     0.064 A 
ATOM     62  C   UNL A   1      39.922  33.275  35.791  1.00  0.00     0.173 A 
ATOM     63  C   UNL A   1      38.536  31.465  36.548  1.00  0.00     0.173 A 
ATOM     64  F   UNL A   1      40.827  33.792  34.947  1.00  0.00    -0.203 F 
ATOM     65  C   UNL A   1      39.501  34.048  36.871  1.00  0.00     0.198 A 
ATOM     66  C   UNL A   1      38.089  32.254  37.606  1.00  0.00     0.198 A 
ATOM     67  F   UNL A   1      38.066  30.214  36.436  1.00  0.00    -0.203 F 
ATOM     68  F   UNL A   1      40.008  35.276  37.052  1.00  0.00    -0.200 F 
ATOM     69  C   UNL A   1      38.580  33.540  37.773  1.00  0.00     0.200 A 
ATOM     70  F   UNL A   1      37.191  31.764  38.471  1.00  0.00    -0.200 F 
ATOM     71  F   UNL A   1      38.174  34.284  38.810  1.00  0.00    -0.200 F 
ENDBRANCH  47  61
BRANCH  48  72
ATOM     72  C   UNL A   1      42.407  26.477  27.670  1.00  0.00     0.064 A 
ATOM     73  C   UNL A   1      41.850  25.217  27.408  1.00  0.00     0.173 A 
ATOM     74  C   UNL A   1      43.389  26.946  26.783  1.00  0.00     0.173 A 
ATOM     75  F   UNL A   1      40.916  24.713  28.230  1.00  0.00    -0.203 F 
ATOM     76  C   UNL A   1      42.274  24.449  26.325  1.00  0.00     0.198 A 
ATOM     77  C   UNL A   1      43.789  26.192  25.680  1.00  0.00     0.198 A 
ATOM     78  F   UNL A   1      43.953  28.147  26.979  1.00  0.00    -0.203 F 
ATOM     79  F   UNL A   1      41.758  23.228  26.129  1.00  0.00    -0.200 F 
ATOM     80  C   UNL A   1      43.239  24.940  25.459  1.00  0.00     0.200 A 
ATOM     81  F   UNL A   1      44.709  26.679  24.837  1.00  0.00    -0.200 F 
ATOM     82  F   UNL A   1      43.643  24.203  24.414  1.00  0.00    -0.200 F 
ENDBRANCH  48  72
BRANCH  60  83
ATOM     83  C   UNL A   1      44.778  27.278  34.179  1.00  0.00     0.064 A 
ATOM     84  C   UNL A   1      44.656  26.062  34.870  1.00  0.00     0.173 A 
ATOM     85  C   UNL A   1      46.035  27.902  34.159  1.00  0.00     0.173 A 
ATOM     86  F   UNL A   1      43.472  25.434  34.926  1.00  0.00    -0.203 F 
ATOM     87  C   UNL A   1      45.739  25.517  35.551  1.00  0.00     0.198 A 
ATOM     88  C   UNL A   1      47.125  27.332  34.807  1.00  0.00     0.198 A 
ATOM     89  F   UNL A   1      46.206  29.058  33.501  1.00  0.00    -0.203 F 
ATOM     90  F   UNL A   1      45.582  24.392  36.261  1.00  0.00    -0.200 F 
ATOM     91  C   UNL A   1      46.973  26.148  35.513  1.00  0.00     0.200 A 
ATOM     92  F   UNL A   1      48.322  27.932  34.752  1.00  0.00    -0.200 F 
ATOM     93  F   UNL A   1      48.017  25.619  36.166  1.00  0.00    -0.200 F 
ENDBRANCH  60  83
ENDBRANCH  34  35
ENDBRANCH  26  29
ENDBRANCH  24  25
ENDBRANCH  23  24
ENDBRANCH   1  23
TORSDOF 13
ENDMDL
MODEL 2
REMARK VINA RESULT:     -14.2      2.038      7.857
REMARK SMILES COc1cccc(C(=O)N[C@H]2C=C[C@@H](C(=O)NCCCNC(=O)c3ccc(-c4c5nc(c(-c6c(F)c(F)c(F)c(F)c6F)c6ccc([nH]6)c(-c6c(F)c(F)c(F)c(F)c6F)c6nc(c(-c7c(F)c(F)c(F)c(F)c7F)c7ccc4[nH]7)C=C6)C=C5)cc3)C2)c1
REMARK SMILES IDX 18 1 17 2 15 3 16 4 14 6 11 7 12 8 87 9 13 10 10 11 8 12
REMARK SMILES IDX 9 13 7 15 3 16 4 17 88 18 5 19 6 20 2 21 1 22 19 23 20 24
REMARK SMILES IDX 21 25 22 26 23 28 24 29 25 30 86 31 26 32 85 33 27 34 28 35
REMARK SMILES IDX 29 36 79 37 30 38 84 39 78 40 80 41 31 42 83 43 77 44 76 45
REMARK SMILES IDX 32 47 64 48 44 49 63 50 45 51 48 52 62 53 81 54 46 55 47 56
REMARK SMILES IDX 61 58 82 59 49 60 33 61 34 62 42 63 35 64 36 65 40 66 43 67
REMARK SMILES IDX 37 68 38 69 41 70 39 71 65 72 66 73 74 74 67 75 68 76 72 77
REMARK SMILES IDX 75 78 69 79 70 80 73 81 71 82 50 83 51 84 59 85 52 86 53 87
REMARK SMILES IDX 57 88 60 89 54 90 55 91 58 92 56 93
REMARK H PARENT 17 5 10 14 21 27 80 46 48 57
REMARK Flexibility Score: inf
ROOT
ATOM      1  C   UNL A   1      31.425  30.200  25.347  1.00  0.00     0.117 C 
ENDROOT
BRANCH   1   2
ATOM      2  N   UNL A   1      32.533  29.078  24.911  1.00  0.00    -0.356 N 
ATOM      3  C   UNL A   1      32.556  27.700  24.981  1.00  0.00     0.227 C 
ATOM      4  O   UNL A   1      33.111  27.092  25.897  1.00  0.00    -0.274 OA
ATOM      5  H   UNL A   1      33.349  29.464  24.519  1.00  0.00     0.163 HD
BRANCH   3   6
ATOM      6  C   UNL A   1      31.897  26.912  23.857  1.00  0.00     0.103 C 
ATOM      7  C   UNL A   1      30.640  24.861  24.317  1.00  0.00     0.106 C 
ATOM      8  C   UNL A   1      29.738  26.003  24.006  1.00  0.00    -0.006 C 
ATOM      9  C   UNL A   1      32.051  25.403  24.123  1.00  0.00     0.047 C 
ATOM     10  C   UNL A   1      30.423  27.109  23.707  1.00  0.00    -0.016 C 
BRANCH   7  11
ATOM     11  N   UNL A   1      30.324  24.240  25.587  1.00  0.00    -0.346 N 
ATOM     12  C   UNL A   1      30.916  23.336  26.417  1.00  0.00     0.251 C 
ATOM     13  O   UNL A   1      30.436  23.130  27.529  1.00  0.00    -0.269 OA
ATOM     14  H   UNL A   1      29.461  24.554  25.944  1.00  0.00     0.164 HD
BRANCH  12  15
ATOM     15  C   UNL A   1      32.171  22.654  26.108  1.00  0.00     0.043 A 
ATOM     16  C   UNL A   1      35.294  22.441  25.904  1.00  0.00     0.119 A 
ATOM     17  C   UNL A   1      35.146  20.949  24.926  1.00  0.00     0.046 A 
ATOM     18  C   UNL A   1      33.812  23.334  26.439  1.00  0.00     0.060 A 
ATOM     19  C   UNL A   1      33.519  20.276  24.575  1.00  0.00     0.005 A 
ATOM     20  C   UNL A   1      32.030  21.145  25.126  1.00  0.00     0.014 A 
BRANCH  16  21
ATOM     21  O   UNL A   1      36.539  22.903  26.234  1.00  0.00    -0.497 OA
ATOM     22  C   UNL A   1      37.059  23.697  25.160  1.00  0.00     0.278 C 
ENDBRANCH  16  21
ENDBRANCH  12  15
ENDBRANCH   7  11
ENDBRANCH   3   6
ENDBRANCH   1   2
BRANCH   1  23
ATOM     23  C   UNL A   1      31.416  31.995  26.591  1.00  0.00     0.042 C 
BRANCH  23  24
ATOM     24  C   UNL A   1      32.558  33.058  27.362  1.00  0.00     0.118 C 
BRANCH  24  25
ATOM     25  N   UNL A   1      32.345  34.377  27.936  1.00  0.00    -0.352 N 
ATOM     26  C   UNL A   1      33.188  35.175  28.657  1.00  0.00     0.251 C 
ATOM     27  H   UNL A   1      31.449  34.756  27.780  1.00  0.00     0.163 HD
ATOM     28  O   UNL A   1      32.889  36.355  28.825  1.00  0.00    -0.269 OA
BRANCH  26  29
ATOM     29  C   UNL A   1      34.329  34.596  29.390  1.00  0.00     0.039 A 
ATOM     30  C   UNL A   1      34.000  33.891  30.552  1.00  0.00     0.014 A 
ATOM     31  C   UNL A   1      35.651  34.637  28.943  1.00  0.00     0.014 A 
ATOM     32  C   UNL A   1      34.979  33.190  31.237  1.00  0.00     0.010 A 
ATOM     33  C   UNL A   1      36.611  33.851  29.567  1.00  0.00     0.010 A 
ATOM     34  C   UNL A   1      36.284  33.144  30.730  1.00  0.00    -0.014 A 
BRANCH  34  35
ATOM     35  C   UNL A   1      37.325  32.415  31.478  1.00  0.00     0.031 A 
ATOM     36  C   UNL A   1      38.030  31.273  30.809  1.00  0.00     0.074 A 
ATOM     37  C   UNL A   1      37.640  32.820  32.721  1.00  0.00     0.049 A 
ATOM     38  N   UNL A   1      39.016  30.540  31.249  1.00  0.00    -0.248 NA
ATOM     39  C   UNL A   1      37.543  30.883  29.474  1.00  0.00     0.031 C 
ATOM     40  C   UNL A   1      36.965  33.897  33.452  1.00  0.00     0.029 A 
ATOM     41  N   UNL A   1      38.618  32.398  33.578  1.00  0.00    -0.354 N 
ATOM     42  C   UNL A   1      39.256  29.602  30.252  1.00  0.00     0.074 A 
ATOM     43  C   UNL A   1      38.264  29.804  29.223  1.00  0.00     0.031 C 
ATOM     44  C   UNL A   1      37.588  34.087  34.626  1.00  0.00     0.029 A 
ATOM     45  C   UNL A   1      38.678  33.126  34.741  1.00  0.00     0.049 A 
ATOM     46  H   UNL A   1      39.221  31.645  33.381  1.00  0.00     0.167 HD
ATOM     47  C   UNL A   1      40.244  28.682  30.190  1.00  0.00     0.037 A 
ATOM     48  C   UNL A   1      39.535  33.024  35.773  1.00  0.00     0.037 A 
ATOM     49  C   UNL A   1      41.233  28.528  31.222  1.00  0.00     0.049 A 
ATOM     50  C   UNL A   1      40.629  31.994  35.676  1.00  0.00     0.074 A 
ATOM     51  C   UNL A   1      42.307  27.661  31.271  1.00  0.00     0.029 A 
ATOM     52  N   UNL A   1      41.261  29.274  32.394  1.00  0.00    -0.354 N 
ATOM     53  N   UNL A   1      40.889  31.151  34.704  1.00  0.00    -0.248 NA
ATOM     54  C   UNL A   1      41.555  31.908  36.810  1.00  0.00     0.031 C 
ATOM     55  C   UNL A   1      42.952  27.844  32.498  1.00  0.00     0.029 A 
ATOM     56  C   UNL A   1      42.321  28.869  33.187  1.00  0.00     0.049 A 
ATOM     57  H   UNL A   1      40.621  29.985  32.627  1.00  0.00     0.167 HD
ATOM     58  C   UNL A   1      42.016  30.446  35.098  1.00  0.00     0.074 A 
ATOM     59  C   UNL A   1      42.409  30.989  36.385  1.00  0.00     0.031 C 
ATOM     60  C   UNL A   1      42.668  29.436  34.467  1.00  0.00     0.037 A 
BRANCH  47  61
ATOM     61  C   UNL A   1      40.284  27.788  28.985  1.00  0.00     0.064 A 
ATOM     62  C   UNL A   1      41.006  28.130  27.829  1.00  0.00     0.173 A 
ATOM     63  C   UNL A   1      39.576  26.576  28.975  1.00  0.00     0.173 A 
ATOM     64  F   UNL A   1      41.683  29.287  27.773  1.00  0.00    -0.203 F 
ATOM     65  C   UNL A   1      40.987  27.313  26.700  1.00  0.00     0.198 A 
ATOM     66  C   UNL A   1      39.590  25.745  27.857  1.00  0.00     0.198 A 
ATOM     67  F   UNL A   1      38.866  26.200  30.048  1.00  0.00    -0.203 F 
ATOM     68  F   UNL A   1      41.627  27.697  25.587  1.00  0.00    -0.200 F 
ATOM     69  C   UNL A   1      40.285  26.119  26.718  1.00  0.00     0.200 A 
ATOM     70  F   UNL A   1      38.917  24.586  27.880  1.00  0.00    -0.200 F 
ATOM     71  F   UNL A   1      40.268  25.334  25.632  1.00  0.00    -0.200 F 
ENDBRANCH  47  61
BRANCH  48  72
ATOM     72  C   UNL A   1      39.411  33.929  36.947  1.00  0.00     0.064 A 
ATOM     73  C   UNL A   1      39.983  35.209  36.945  1.00  0.00     0.173 A 
ATOM     74  C   UNL A   1      38.711  33.536  38.100  1.00  0.00     0.173 A 
ATOM     75  F   UNL A   1      40.674  35.633  35.876  1.00  0.00    -0.203 F 
ATOM     76  C   UNL A   1      39.884  36.048  38.055  1.00  0.00     0.198 A 
ATOM     77  C   UNL A   1      38.583  34.388  39.196  1.00  0.00     0.198 A 
ATOM     78  F   UNL A   1      38.137  32.326  38.157  1.00  0.00    -0.203 F 
ATOM     79  F   UNL A   1      40.483  37.246  38.041  1.00  0.00    -0.200 F 
ATOM     80  C   UNL A   1      39.179  35.639  39.176  1.00  0.00     0.200 A 
ATOM     81  F   UNL A   1      37.886  33.995  40.270  1.00  0.00    -0.200 F 
ATOM     82  F   UNL A   1      39.080  36.448  40.241  1.00  0.00    -0.200 F 
ENDBRANCH  48  72
BRANCH  60  83
ATOM     83  C   UNL A   1      43.874  28.878  35.162  1.00  0.00     0.064 A 
ATOM     84  C   UNL A   1      43.775  27.800  36.054  1.00  0.00     0.173 A 
ATOM     85  C   UNL A   1      45.147  29.413  34.913  1.00  0.00     0.173 A 
ATOM     86  F   UNL A   1      42.577  27.262  36.332  1.00  0.00    -0.203 F 
ATOM     87  C   UNL A   1      44.900  27.307  36.705  1.00  0.00     0.198 A 
ATOM     88  C   UNL A   1      46.275  28.890  35.535  1.00  0.00     0.198 A 
ATOM     89  F   UNL A   1      45.296  30.437  34.058  1.00  0.00    -0.203 F 
ATOM     90  F   UNL A   1      44.772  26.322  37.605  1.00  0.00    -0.200 F 
ATOM     91  C   UNL A   1      46.149  27.847  36.440  1.00  0.00     0.200 A 
ATOM     92  F   UNL A   1      47.484  29.400  35.262  1.00  0.00    -0.200 F 
ATOM     93  F   UNL A   1      47.233  27.367  37.065  1.00  0.00    -0.200 F 
ENDBRANCH  60  83
ENDBRANCH  34  35
ENDBRANCH  26  29
ENDBRANCH  24  25
ENDBRANCH  23  24
ENDBRANCH   1  23
TORSDOF 13
ENDMDL
MODEL 3
REMARK VINA RESULT:     -14.2      9.168     13.248
REMARK SMILES COc1cccc(C(=O)N[C@H]2C=C[C@@H](C(=O)NCCCNC(=O)c3ccc(-c4c5nc(c(-c6c(F)c(F)c(F)c(F)c6F)c6ccc([nH]6)c(-c6c(F)c(F)c(F)c(F)c6F)c6nc(c(-c7c(F)c(F)c(F)c(F)c7F)c7ccc4[nH]7)C=C6)C=C5)cc3)C2)c1
REMARK SMILES IDX 18 1 17 2 15 3 16 4 14 6 11 7 12 8 87 9 13 10 10 11 8 12
REMARK SMILES IDX 9 13 7 15 3 16 4 17 88 18 5 19 6 20 2 21 1 22 19 23 20 24
REMARK SMILES IDX 21 25 22 26 23 28 24 29 25 30 86 31 26 32 85 33 27 34 28 35
REMARK SMILES IDX 29 36 79 37 30 38 84 39 78 40 80 41 31 42 83 43 77 44 76 45
REMARK SMILES IDX 32 47 64 48 44 49 63 50 45 51 48 52 62 53 81 54 46 55 47 56
REMARK SMILES IDX 61 58 82 59 49 60 33 61 34 62 42 63 35 64 36 65 40 66 43 67
REMARK SMILES IDX 37 68 38 69 41 70 39 71 65 72 66 73 74 74 67 75 68 76 72 77
REMARK SMILES IDX 75 78 69 79 70 80 73 81 71 82 50 83 51 84 59 85 52 86 53 87
REMARK SMILES IDX 57 88 60 89 54 90 55 91 58 92 56 93
REMARK H PARENT 17 5 10 14 21 27 80 46 48 57
REMARK Flexibility Score: inf
ROOT
ATOM      1  C   UNL A   1      41.992  40.567  26.290  1.00  0.00     0.117 C 
ENDROOT
BRANCH   1   2
ATOM      2  N   UNL A   1      42.807  41.859  25.703  1.00  0.00    -0.356 N 
ATOM      3  C   UNL A   1      43.230  42.210  24.438  1.00  0.00     0.227 C 
ATOM      4  O   UNL A   1      44.377  42.000  24.039  1.00  0.00    -0.274 OA
ATOM      5  H   UNL A   1      43.046  42.519  26.393  1.00  0.00     0.163 HD
BRANCH   3   6
ATOM      6  C   UNL A   1      42.242  42.917  23.520  1.00  0.00     0.103 C 
ATOM      7  C   UNL A   1      42.906  43.675  21.287  1.00  0.00     0.106 C 
ATOM      8  C   UNL A   1      42.050  42.459  21.225  1.00  0.00    -0.006 C 
ATOM      9  C   UNL A   1      42.957  44.052  22.764  1.00  0.00     0.047 C 
ATOM     10  C   UNL A   1      41.647  42.073  22.439  1.00  0.00    -0.016 C 
BRANCH   7  11
ATOM     11  N   UNL A   1      44.164  43.497  20.592  1.00  0.00    -0.346 N 
ATOM     12  C   UNL A   1      44.756  44.015  19.479  1.00  0.00     0.251 C 
ATOM     13  O   UNL A   1      45.933  43.750  19.241  1.00  0.00    -0.269 OA
ATOM     14  H   UNL A   1      44.740  42.835  21.038  1.00  0.00     0.164 HD
BRANCH  12  15
ATOM     15  C   UNL A   1      44.105  44.968  18.584  1.00  0.00     0.043 A 
ATOM     16  C   UNL A   1      43.229  47.838  17.667  1.00  0.00     0.119 A 
ATOM     17  C   UNL A   1      42.114  47.129  16.458  1.00  0.00     0.046 A 
ATOM     18  C   UNL A   1      44.175  46.763  18.777  1.00  0.00     0.060 A 
ATOM     19  C   UNL A   1      42.023  45.347  16.273  1.00  0.00     0.005 A 
ATOM     20  C   UNL A   1      42.982  44.262  17.358  1.00  0.00     0.014 A 
BRANCH  16  21
ATOM     21  O   UNL A   1      43.351  49.197  17.748  1.00  0.00    -0.497 OA
ATOM     22  C   UNL A   1      44.343  49.648  16.817  1.00  0.00     0.278 C 
ENDBRANCH  16  21
ENDBRANCH  12  15
ENDBRANCH   7  11
ENDBRANCH   3   6
ENDBRANCH   1   2
BRANCH   1  23
ATOM     23  C   UNL A   1      42.392  38.987  27.742  1.00  0.00     0.042 C 
BRANCH  23  24
ATOM     24  C   UNL A   1      43.592  38.577  28.934  1.00  0.00     0.118 C 
BRANCH  24  25
ATOM     25  N   UNL A   1      45.037  38.491  28.793  1.00  0.00    -0.352 N 
ATOM     26  C   UNL A   1      45.828  37.440  28.419  1.00  0.00     0.251 C 
ATOM     27  H   UNL A   1      45.523  39.322  28.999  1.00  0.00     0.163 HD
ATOM     28  O   UNL A   1      47.000  37.658  28.119  1.00  0.00    -0.269 OA
BRANCH  26  29
ATOM     29  C   UNL A   1      45.353  36.052  28.561  1.00  0.00     0.039 A 
ATOM     30  C   UNL A   1      44.679  35.532  27.450  1.00  0.00     0.014 A 
ATOM     31  C   UNL A   1      45.619  35.241  29.664  1.00  0.00     0.014 A 
ATOM     32  C   UNL A   1      44.316  34.195  27.424  1.00  0.00     0.010 A 
ATOM     33  C   UNL A   1      45.351  33.880  29.596  1.00  0.00     0.010 A 
ATOM     34  C   UNL A   1      44.677  33.357  28.486  1.00  0.00    -0.014 A 
BRANCH  34  35
ATOM     35  C   UNL A   1      44.266  31.940  28.461  1.00  0.00     0.031 A 
ATOM     36  C   UNL A   1      42.953  31.557  29.075  1.00  0.00     0.074 A 
ATOM     37  C   UNL A   1      45.062  31.042  27.854  1.00  0.00     0.049 A 
ATOM     38  N   UNL A   1      42.366  30.392  29.107  1.00  0.00    -0.248 NA
ATOM     39  C   UNL A   1      42.210  32.622  29.771  1.00  0.00     0.031 C 
ATOM     40  C   UNL A   1      46.376  31.336  27.273  1.00  0.00     0.029 A 
ATOM     41  N   UNL A   1      44.877  29.711  27.600  1.00  0.00    -0.354 N 
ATOM     42  C   UNL A   1      41.197  30.585  29.832  1.00  0.00     0.074 A 
ATOM     43  C   UNL A   1      41.195  31.954  30.291  1.00  0.00     0.031 C 
ATOM     44  C   UNL A   1      46.851  30.230  26.680  1.00  0.00     0.029 A 
ATOM     45  C   UNL A   1      45.894  29.146  26.870  1.00  0.00     0.049 A 
ATOM     46  H   UNL A   1      44.089  29.207  27.909  1.00  0.00     0.167 HD
ATOM     47  C   UNL A   1      40.198  29.703  30.058  1.00  0.00     0.037 A 
ATOM     48  C   UNL A   1      46.019  27.891  26.403  1.00  0.00     0.037 A 
ATOM     49  C   UNL A   1      40.221  28.354  29.561  1.00  0.00     0.049 A 
ATOM     50  C   UNL A   1      44.890  26.930  26.665  1.00  0.00     0.074 A 
ATOM     51  C   UNL A   1      39.262  27.367  29.687  1.00  0.00     0.029 A 
ATOM     52  N   UNL A   1      41.271  27.807  28.834  1.00  0.00    -0.354 N 
ATOM     53  N   UNL A   1      43.759  27.134  27.298  1.00  0.00    -0.248 NA
ATOM     54  C   UNL A   1      45.047  25.570  26.138  1.00  0.00     0.031 C 
ATOM     55  C   UNL A   1      39.757  26.207  29.084  1.00  0.00     0.029 A 
ATOM     56  C   UNL A   1      40.996  26.487  28.526  1.00  0.00     0.049 A 
ATOM     57  H   UNL A   1      42.091  28.288  28.577  1.00  0.00     0.167 HD
ATOM     58  C   UNL A   1      43.060  25.938  27.234  1.00  0.00     0.074 A 
ATOM     59  C   UNL A   1      43.885  25.024  26.466  1.00  0.00     0.031 C 
ATOM     60  C   UNL A   1      41.854  25.612  27.763  1.00  0.00     0.037 A 
BRANCH  47  61
ATOM     61  C   UNL A   1      39.029  30.173  30.873  1.00  0.00     0.064 A 
ATOM     62  C   UNL A   1      37.920  30.806  30.287  1.00  0.00     0.173 A 
ATOM     63  C   UNL A   1      39.020  30.006  32.266  1.00  0.00     0.173 A 
ATOM     64  F   UNL A   1      37.884  31.015  28.962  1.00  0.00    -0.203 F 
ATOM     65  C   UNL A   1      36.869  31.286  31.065  1.00  0.00     0.198 A 
ATOM     66  C   UNL A   1      37.950  30.454  33.038  1.00  0.00     0.198 A 
ATOM     67  F   UNL A   1      40.053  29.412  32.882  1.00  0.00    -0.203 F 
ATOM     68  F   UNL A   1      35.857  31.948  30.487  1.00  0.00    -0.200 F 
ATOM     69  C   UNL A   1      36.881  31.103  32.439  1.00  0.00     0.200 A 
ATOM     70  F   UNL A   1      37.960  30.268  34.365  1.00  0.00    -0.200 F 
ATOM     71  F   UNL A   1      35.870  31.563  33.187  1.00  0.00    -0.200 F 
ENDBRANCH  47  61
BRANCH  48  72
ATOM     72  C   UNL A   1      47.225  27.493  25.628  1.00  0.00     0.064 A 
ATOM     73  C   UNL A   1      48.338  26.915  26.256  1.00  0.00     0.173 A 
ATOM     74  C   UNL A   1      47.291  27.678  24.237  1.00  0.00     0.173 A 
ATOM     75  F   UNL A   1      48.335  26.728  27.584  1.00  0.00    -0.203 F 
ATOM     76  C   UNL A   1      49.476  26.563  25.531  1.00  0.00     0.198 A 
ATOM     77  C   UNL A   1      48.416  27.294  23.508  1.00  0.00     0.198 A 
ATOM     78  F   UNL A   1      46.254  28.219  23.582  1.00  0.00    -0.203 F 
ATOM     79  F   UNL A   1      50.543  26.059  26.166  1.00  0.00    -0.200 F 
ATOM     80  C   UNL A   1      49.512  26.747  24.158  1.00  0.00     0.200 A 
ATOM     81  F   UNL A   1      48.438  27.457  22.179  1.00  0.00    -0.200 F 
ATOM     82  F   UNL A   1      50.604  26.403  23.461  1.00  0.00    -0.200 F 
ENDBRANCH  48  72
BRANCH  60  83
ATOM     83  C   UNL A   1      41.363  24.218  27.510  1.00  0.00     0.064 A 
ATOM     84  C   UNL A   1      40.271  23.965  26.666  1.00  0.00     0.173 A 
ATOM     85  C   UNL A   1      42.009  23.121  28.100  1.00  0.00     0.173 A 
ATOM     86  F   UNL A   1      39.614  24.983  26.088  1.00  0.00    -0.203 F 
ATOM     87  C   UNL A   1      39.816  22.668  26.458  1.00  0.00     0.198 A 
ATOM     88  C   UNL A   1      41.576  21.822  27.855  1.00  0.00     0.198 A 
ATOM     89  F   UNL A   1      43.066  23.309  28.903  1.00  0.00    -0.203 F 
ATOM     90  F   UNL A   1      38.729  22.455  25.703  1.00  0.00    -0.200 F 
ATOM     91  C   UNL A   1      40.473  21.598  27.046  1.00  0.00     0.200 A 
ATOM     92  F   UNL A   1      42.225  20.788  28.408  1.00  0.00    -0.200 F 
ATOM     93  F   UNL A   1      40.036  20.348  26.840  1.00  0.00    -0.200 F 
ENDBRANCH  60  83
ENDBRANCH  34  35
ENDBRANCH  26  29
ENDBRANCH  24  25
ENDBRANCH  23  24
ENDBRANCH   1  23
TORSDOF 13
ENDMDL
