MODEL 1
REMARK VINA RESULT:     -11.7      0.000      0.000
REMARK SMILES CCOc1ccc(Cl)cc1NS(=O)(=O)c1cc(C(=O)NCCCNC(=O)c2ccc(-c3c4nc(c(-c5c(F)c(F)c(F)c(F)c5F)c5ccc([nH]5)c(-c5c(F)c(F)c(F)c(F)c5F)c5nc(c(-c6c(F)c(F)c(F)c(F)c6F)c6ccc3[nH]6)C=C5)C=C4)cc2)cs1
REMARK SMILES IDX 18 1 19 2 20 3 17 5 15 6 16 7 91 8 90 9 12 10 13 11 14 12
REMARK SMILES IDX 11 13 10 15 4 16 5 17 6 18 9 19 7 20 8 21 3 22 2 23 1 24
REMARK SMILES IDX 21 25 22 26 23 27 24 28 25 29 26 31 27 32 28 33 89 34 29 35
REMARK SMILES IDX 88 36 30 37 31 38 32 39 82 40 33 41 87 42 81 43 83 44 34 45
REMARK SMILES IDX 86 46 80 47 79 48 35 50 67 51 47 52 66 53 48 54 51 55 65 56
REMARK SMILES IDX 84 57 49 58 50 59 64 61 85 62 52 63 36 64 37 65 45 66 38 67
REMARK SMILES IDX 39 68 43 69 46 70 40 71 41 72 44 73 42 74 68 75 69 76 77 77
REMARK SMILES IDX 70 78 71 79 75 80 78 81 72 82 73 83 76 84 74 85 53 86 54 87
REMARK SMILES IDX 62 88 55 89 56 90 60 91 63 92 57 93 58 94 61 95 59 96
REMARK H PARENT 20 4 11 14 24 30 83 49 51 60
REMARK Flexibility Score: inf
ROOT
ATOM      1  C   UNL A   1      29.508  30.494  23.481  1.00  0.00     0.252 C 
ATOM      2  O   UNL A   1      28.469  30.851  22.924  1.00  0.00    -0.269 OA
ATOM      3  N   UNL A   1      29.930  31.258  24.541  1.00  0.00    -0.352 N 
ATOM      4  H   UNL A   1      29.354  32.036  24.719  1.00  0.00     0.163 HD
ENDROOT
BRANCH   1   5
ATOM      5  C   UNL A   1      30.218  29.281  23.058  1.00  0.00     0.051 A 
ATOM      6  C   UNL A   1      31.954  27.766  22.617  1.00  0.00     0.141 A 
ATOM      7  C   UNL A   1      31.573  29.092  22.642  1.00  0.00     0.048 A 
ATOM      8  S   UNL A   1      30.595  26.738  22.620  1.00  0.00    -0.130 S 
ATOM      9  C   UNL A   1      29.566  28.052  23.027  1.00  0.00     0.080 A 
BRANCH   6  10
ATOM     10  S   UNL A   1      33.573  27.042  22.645  1.00  0.00     0.271 S 
ATOM     11  O   UNL A   1      34.463  28.175  22.453  1.00  0.00    -0.200 OA
ATOM     12  O   UNL A   1      33.541  25.963  21.690  1.00  0.00    -0.200 OA
BRANCH  10  13
ATOM     13  N   UNL A   1      33.937  26.370  24.157  1.00  0.00    -0.275 N 
ATOM     14  H   UNL A   1      34.428  25.518  24.191  1.00  0.00     0.180 HD
BRANCH  13  15
ATOM     15  C   UNL A   1      33.551  27.004  25.397  1.00  0.00     0.092 A 
ATOM     16  C   UNL A   1      32.314  26.661  25.973  1.00  0.00     0.143 A 
ATOM     17  C   UNL A   1      31.803  27.378  27.062  1.00  0.00     0.050 A 
ATOM     18  C   UNL A   1      32.490  28.486  27.554  1.00  0.00     0.024 A 
ATOM     19  C   UNL A   1      34.225  28.111  25.912  1.00  0.00     0.051 A 
ATOM     20  C   UNL A   1      33.703  28.840  26.982  1.00  0.00     0.043 A 
ATOM     21  Cl  UNL A   1      34.566  30.207  27.576  1.00  0.00    -0.084 Cl
BRANCH  16  22
ATOM     22  O   UNL A   1      31.661  25.536  25.534  1.00  0.00    -0.492 OA
BRANCH  22  23
ATOM     23  C   UNL A   1      31.854  24.391  26.375  1.00  0.00     0.226 C 
ATOM     24  C   UNL A   1      30.739  23.364  26.243  1.00  0.00     0.049 C 
ENDBRANCH  22  23
ENDBRANCH  16  22
ENDBRANCH  13  15
ENDBRANCH  10  13
ENDBRANCH   6  10
ENDBRANCH   1   5
BRANCH   3  25
ATOM     25  C   UNL A   1      31.055  31.147  25.451  1.00  0.00     0.118 C 
BRANCH  25  26
ATOM     26  C   UNL A   1      31.010  32.221  26.538  1.00  0.00     0.042 C 
BRANCH  26  27
ATOM     27  C   UNL A   1      32.393  32.728  26.942  1.00  0.00     0.118 C 
BRANCH  27  28
ATOM     28  N   UNL A   1      32.339  34.071  27.500  1.00  0.00    -0.352 N 
ATOM     29  C   UNL A   1      33.060  34.646  28.514  1.00  0.00     0.251 C 
ATOM     30  H   UNL A   1      31.675  34.665  27.080  1.00  0.00     0.163 HD
ATOM     31  O   UNL A   1      32.711  35.741  28.948  1.00  0.00    -0.269 OA
BRANCH  29  32
ATOM     32  C   UNL A   1      34.244  33.975  29.099  1.00  0.00     0.039 A 
ATOM     33  C   UNL A   1      34.032  32.959  30.040  1.00  0.00     0.014 A 
ATOM     34  C   UNL A   1      35.547  34.379  28.799  1.00  0.00     0.014 A 
ATOM     35  C   UNL A   1      35.120  32.330  30.650  1.00  0.00     0.010 A 
ATOM     36  C   UNL A   1      36.634  33.708  29.361  1.00  0.00     0.010 A 
ATOM     37  C   UNL A   1      36.432  32.686  30.301  1.00  0.00    -0.014 A 
BRANCH  37  38
ATOM     38  C   UNL A   1      37.597  32.007  30.924  1.00  0.00     0.031 A 
ATOM     39  C   UNL A   1      38.052  32.392  32.305  1.00  0.00     0.074 A 
ATOM     40  C   UNL A   1      38.273  31.073  30.228  1.00  0.00     0.049 A 
ATOM     41  N   UNL A   1      39.073  31.947  32.995  1.00  0.00    -0.248 NA
ATOM     42  C   UNL A   1      37.271  33.432  32.992  1.00  0.00     0.031 C 
ATOM     43  C   UNL A   1      37.959  30.645  28.865  1.00  0.00     0.029 A 
ATOM     44  N   UNL A   1      39.371  30.324  30.568  1.00  0.00    -0.354 N 
ATOM     45  C   UNL A   1      39.068  32.664  34.184  1.00  0.00     0.074 A 
ATOM     46  C   UNL A   1      37.968  33.603  34.106  1.00  0.00     0.031 C 
ATOM     47  C   UNL A   1      38.830  29.695  28.492  1.00  0.00     0.029 A 
ATOM     48  C   UNL A   1      39.782  29.469  29.575  1.00  0.00     0.049 A 
ATOM     49  H   UNL A   1      39.821  30.393  31.441  1.00  0.00     0.167 HD
ATOM     50  C   UNL A   1      39.892  32.538  35.253  1.00  0.00     0.037 A 
ATOM     51  C   UNL A   1      40.811  28.601  29.543  1.00  0.00     0.037 A 
ATOM     52  C   UNL A   1      40.965  31.583  35.341  1.00  0.00     0.049 A 
ATOM     53  C   UNL A   1      41.695  28.462  30.752  1.00  0.00     0.074 A 
ATOM     54  C   UNL A   1      41.822  31.341  36.402  1.00  0.00     0.029 A 
ATOM     55  N   UNL A   1      41.326  30.706  34.329  1.00  0.00    -0.354 N 
ATOM     56  N   UNL A   1      41.643  29.103  31.894  1.00  0.00    -0.248 NA
ATOM     57  C   UNL A   1      42.772  27.466  30.672  1.00  0.00     0.031 C 
ATOM     58  C   UNL A   1      42.725  30.342  36.018  1.00  0.00     0.029 A 
ATOM     59  C   UNL A   1      42.400  29.930  34.736  1.00  0.00     0.049 A 
ATOM     60  H   UNL A   1      40.885  30.643  33.451  1.00  0.00     0.167 HD
ATOM     61  C   UNL A   1      42.656  28.570  32.678  1.00  0.00     0.074 A 
ATOM     62  C   UNL A   1      43.301  27.543  31.885  1.00  0.00     0.031 C 
ATOM     63  C   UNL A   1      43.021  28.902  33.940  1.00  0.00     0.037 A 
BRANCH  50  64
ATOM     64  C   UNL A   1      39.661  33.456  36.419  1.00  0.00     0.064 A 
ATOM     65  C   UNL A   1      40.245  34.731  36.476  1.00  0.00     0.173 A 
ATOM     66  C   UNL A   1      38.818  33.073  37.472  1.00  0.00     0.173 A 
ATOM     67  F   UNL A   1      41.068  35.142  35.499  1.00  0.00    -0.203 F 
ATOM     68  C   UNL A   1      40.016  35.576  37.559  1.00  0.00     0.198 A 
ATOM     69  C   UNL A   1      38.568  33.932  38.539  1.00  0.00     0.198 A 
ATOM     70  F   UNL A   1      38.229  31.867  37.463  1.00  0.00    -0.203 F 
ATOM     71  F   UNL A   1      40.621  36.771  37.615  1.00  0.00    -0.200 F 
ATOM     72  C   UNL A   1      39.173  35.179  38.586  1.00  0.00     0.200 A 
ATOM     73  F   UNL A   1      37.744  33.551  39.525  1.00  0.00    -0.200 F 
ATOM     74  F   UNL A   1      38.949  35.995  39.625  1.00  0.00    -0.200 F 
ENDBRANCH  50  64
BRANCH  51  75
ATOM     75  C   UNL A   1      41.038  27.769  28.335  1.00  0.00     0.064 A 
ATOM     76  C   UNL A   1      41.867  28.220  27.298  1.00  0.00     0.173 A 
ATOM     77  C   UNL A   1      40.437  26.510  28.191  1.00  0.00     0.173 A 
ATOM     78  F   UNL A   1      42.447  29.426  27.382  1.00  0.00    -0.203 F 
ATOM     79  C   UNL A   1      42.070  27.452  26.154  1.00  0.00     0.198 A 
ATOM     80  C   UNL A   1      40.661  25.732  27.057  1.00  0.00     0.198 A 
ATOM     81  F   UNL A   1      39.640  26.032  29.158  1.00  0.00    -0.203 F 
ATOM     82  F   UNL A   1      42.831  27.925  25.158  1.00  0.00    -0.200 F 
ATOM     83  C   UNL A   1      41.471  26.206  26.037  1.00  0.00     0.200 A 
ATOM     84  F   UNL A   1      40.092  24.524  26.953  1.00  0.00    -0.200 F 
ATOM     85  F   UNL A   1      41.670  25.466  24.937  1.00  0.00    -0.200 F 
ENDBRANCH  51  75
BRANCH  63  86
ATOM     86  C   UNL A   1      44.140  28.117  34.559  1.00  0.00     0.064 A 
ATOM     87  C   UNL A   1      45.473  28.546  34.481  1.00  0.00     0.173 A 
ATOM     88  C   UNL A   1      43.869  26.933  35.260  1.00  0.00     0.173 A 
ATOM     89  F   UNL A   1      45.784  29.664  33.809  1.00  0.00    -0.203 F 
ATOM     90  C   UNL A   1      46.498  27.802  35.060  1.00  0.00     0.198 A 
ATOM     91  C   UNL A   1      44.893  26.205  35.861  1.00  0.00     0.198 A 
ATOM     92  F   UNL A   1      42.610  26.482  35.369  1.00  0.00    -0.203 F 
ATOM     93  F   UNL A   1      47.770  28.205  34.931  1.00  0.00    -0.200 F 
ATOM     94  C   UNL A   1      46.207  26.637  35.753  1.00  0.00     0.200 A 
ATOM     95  F   UNL A   1      44.609  25.086  36.541  1.00  0.00    -0.200 F 
ATOM     96  F   UNL A   1      47.195  25.923  36.311  1.00  0.00    -0.200 F 
ENDBRANCH  63  86
ENDBRANCH  37  38
ENDBRANCH  29  32
ENDBRANCH  27  28
ENDBRANCH  26  27
ENDBRANCH  25  26
ENDBRANCH   3  25
TORSDOF 15
ENDMDL
MODEL 2
REMARK VINA RESULT:     -11.7      6.764     12.225
REMARK SMILES CCOc1ccc(Cl)cc1NS(=O)(=O)c1cc(C(=O)NCCCNC(=O)c2ccc(-c3c4nc(c(-c5c(F)c(F)c(F)c(F)c5F)c5ccc([nH]5)c(-c5c(F)c(F)c(F)c(F)c5F)c5nc(c(-c6c(F)c(F)c(F)c(F)c6F)c6ccc3[nH]6)C=C5)C=C4)cc2)cs1
REMARK SMILES IDX 18 1 19 2 20 3 17 5 15 6 16 7 91 8 90 9 12 10 13 11 14 12
REMARK SMILES IDX 11 13 10 15 4 16 5 17 6 18 9 19 7 20 8 21 3 22 2 23 1 24
REMARK SMILES IDX 21 25 22 26 23 27 24 28 25 29 26 31 27 32 28 33 89 34 29 35
REMARK SMILES IDX 88 36 30 37 31 38 32 39 82 40 33 41 87 42 81 43 83 44 34 45
REMARK SMILES IDX 86 46 80 47 79 48 35 50 67 51 47 52 66 53 48 54 51 55 65 56
REMARK SMILES IDX 84 57 49 58 50 59 64 61 85 62 52 63 36 64 37 65 45 66 38 67
REMARK SMILES IDX 39 68 43 69 46 70 40 71 41 72 44 73 42 74 68 75 69 76 77 77
REMARK SMILES IDX 70 78 71 79 75 80 78 81 72 82 73 83 76 84 74 85 53 86 54 87
REMARK SMILES IDX 62 88 55 89 56 90 60 91 63 92 57 93 58 94 61 95 59 96
REMARK H PARENT 20 4 11 14 24 30 83 49 51 60
REMARK Flexibility Score: inf
ROOT
ATOM      1  C   UNL A   1      41.551  21.979  28.007  1.00  0.00     0.252 C 
ATOM      2  O   UNL A   1      42.126  22.865  28.641  1.00  0.00    -0.269 OA
ATOM      3  N   UNL A   1      42.013  20.698  28.187  1.00  0.00    -0.352 N 
ATOM      4  H   UNL A   1      42.784  20.639  28.796  1.00  0.00     0.163 HD
ENDROOT
BRANCH   1   5
ATOM      5  C   UNL A   1      40.400  22.284  27.149  1.00  0.00     0.051 A 
ATOM      6  C   UNL A   1      38.538  22.000  25.750  1.00  0.00     0.141 A 
ATOM      7  C   UNL A   1      39.776  21.513  26.119  1.00  0.00     0.048 A 
ATOM      8  S   UNL A   1      38.332  23.609  26.271  1.00  0.00    -0.130 S 
ATOM      9  C   UNL A   1      39.719  23.490  27.279  1.00  0.00     0.080 A 
BRANCH   6  10
ATOM     10  S   UNL A   1      37.197  21.194  24.914  1.00  0.00     0.271 S 
ATOM     11  O   UNL A   1      37.697  19.851  24.670  1.00  0.00    -0.200 OA
ATOM     12  O   UNL A   1      36.841  22.056  23.815  1.00  0.00    -0.200 OA
BRANCH  10  13
ATOM     13  N   UNL A   1      35.833  21.048  25.906  1.00  0.00    -0.275 N 
ATOM     14  H   UNL A   1      35.958  20.822  26.856  1.00  0.00     0.180 HD
BRANCH  13  15
ATOM     15  C   UNL A   1      34.490  21.242  25.408  1.00  0.00     0.092 A 
ATOM     16  C   UNL A   1      33.906  20.226  24.628  1.00  0.00     0.143 A 
ATOM     17  C   UNL A   1      32.694  20.436  23.961  1.00  0.00     0.050 A 
ATOM     18  C   UNL A   1      32.075  21.683  24.012  1.00  0.00     0.024 A 
ATOM     19  C   UNL A   1      33.848  22.479  25.451  1.00  0.00     0.051 A 
ATOM     20  C   UNL A   1      32.651  22.695  24.765  1.00  0.00     0.043 A 
ATOM     21  Cl  UNL A   1      31.901  24.244  24.840  1.00  0.00    -0.084 Cl
BRANCH  16  22
ATOM     22  O   UNL A   1      34.478  18.977  24.622  1.00  0.00    -0.492 OA
BRANCH  22  23
ATOM     23  C   UNL A   1      33.546  17.916  24.375  1.00  0.00     0.226 C 
ATOM     24  C   UNL A   1      34.019  16.950  23.299  1.00  0.00     0.049 C 
ENDBRANCH  22  23
ENDBRANCH  16  22
ENDBRANCH  13  15
ENDBRANCH  10  13
ENDBRANCH   6  10
ENDBRANCH   1   5
BRANCH   3  25
ATOM     25  C   UNL A   1      41.588  19.414  27.660  1.00  0.00     0.118 C 
BRANCH  25  26
ATOM     26  C   UNL A   1      42.691  18.750  26.836  1.00  0.00     0.042 C 
BRANCH  26  27
ATOM     27  C   UNL A   1      42.706  19.199  25.376  1.00  0.00     0.118 C 
BRANCH  27  28
ATOM     28  N   UNL A   1      43.928  18.798  24.695  1.00  0.00    -0.352 N 
ATOM     29  C   UNL A   1      45.001  19.542  24.275  1.00  0.00     0.251 C 
ATOM     30  H   UNL A   1      43.996  17.835  24.505  1.00  0.00     0.163 HD
ATOM     31  O   UNL A   1      45.840  19.020  23.546  1.00  0.00    -0.269 OA
BRANCH  29  32
ATOM     32  C   UNL A   1      45.165  20.958  24.676  1.00  0.00     0.039 A 
ATOM     33  C   UNL A   1      45.527  21.234  26.000  1.00  0.00     0.014 A 
ATOM     34  C   UNL A   1      44.895  22.011  23.798  1.00  0.00     0.014 A 
ATOM     35  C   UNL A   1      45.650  22.557  26.432  1.00  0.00     0.010 A 
ATOM     36  C   UNL A   1      45.078  23.331  24.213  1.00  0.00     0.010 A 
ATOM     37  C   UNL A   1      45.445  23.618  25.536  1.00  0.00    -0.014 A 
BRANCH  37  38
ATOM     38  C   UNL A   1      45.597  25.028  25.977  1.00  0.00     0.031 A 
ATOM     39  C   UNL A   1      46.938  25.706  25.908  1.00  0.00     0.074 A 
ATOM     40  C   UNL A   1      44.536  25.685  26.483  1.00  0.00     0.049 A 
ATOM     41  N   UNL A   1      47.278  26.912  26.289  1.00  0.00    -0.248 NA
ATOM     42  C   UNL A   1      48.051  24.915  25.359  1.00  0.00     0.031 C 
ATOM     43  C   UNL A   1      43.195  25.124  26.645  1.00  0.00     0.029 A 
ATOM     44  N   UNL A   1      44.422  26.965  26.964  1.00  0.00    -0.354 N 
ATOM     45  C   UNL A   1      48.641  27.017  26.046  1.00  0.00     0.074 A 
ATOM     46  C   UNL A   1      49.076  25.739  25.523  1.00  0.00     0.031 C 
ATOM     47  C   UNL A   1      42.388  26.060  27.168  1.00  0.00     0.029 A 
ATOM     48  C   UNL A   1      43.160  27.275  27.407  1.00  0.00     0.049 A 
ATOM     49  H   UNL A   1      45.174  27.601  26.989  1.00  0.00     0.167 HD
ATOM     50  C   UNL A   1      49.453  28.088  26.222  1.00  0.00     0.037 A 
ATOM     51  C   UNL A   1      42.680  28.413  27.945  1.00  0.00     0.037 A 
ATOM     52  C   UNL A   1      49.013  29.367  26.713  1.00  0.00     0.049 A 
ATOM     53  C   UNL A   1      43.596  29.595  28.105  1.00  0.00     0.074 A 
ATOM     54  C   UNL A   1      49.748  30.530  26.877  1.00  0.00     0.029 A 
ATOM     55  N   UNL A   1      47.717  29.655  27.115  1.00  0.00    -0.354 N 
ATOM     56  N   UNL A   1      44.869  29.701  27.816  1.00  0.00    -0.248 NA
ATOM     57  C   UNL A   1      43.002  30.821  28.656  1.00  0.00     0.031 C 
ATOM     58  C   UNL A   1      48.904  31.510  27.412  1.00  0.00     0.029 A 
ATOM     59  C   UNL A   1      47.634  30.972  27.537  1.00  0.00     0.049 A 
ATOM     60  H   UNL A   1      46.966  29.018  27.102  1.00  0.00     0.167 HD
ATOM     61  C   UNL A   1      45.223  31.008  28.118  1.00  0.00     0.074 A 
ATOM     62  C   UNL A   1      44.025  31.662  28.604  1.00  0.00     0.031 C 
ATOM     63  C   UNL A   1      46.430  31.612  28.005  1.00  0.00     0.037 A 
BRANCH  50  64
ATOM     64  C   UNL A   1      50.905  27.921  25.878  1.00  0.00     0.064 A 
ATOM     65  C   UNL A   1      51.384  28.146  24.579  1.00  0.00     0.173 A 
ATOM     66  C   UNL A   1      51.836  27.568  26.868  1.00  0.00     0.173 A 
ATOM     67  F   UNL A   1      50.533  28.476  23.594  1.00  0.00    -0.203 F 
ATOM     68  C   UNL A   1      52.734  27.996  24.275  1.00  0.00     0.198 A 
ATOM     69  C   UNL A   1      53.190  27.447  26.567  1.00  0.00     0.198 A 
ATOM     70  F   UNL A   1      51.432  27.348  28.128  1.00  0.00    -0.203 F 
ATOM     71  F   UNL A   1      53.161  28.171  23.017  1.00  0.00    -0.200 F 
ATOM     72  C   UNL A   1      53.637  27.653  25.271  1.00  0.00     0.200 A 
ATOM     73  F   UNL A   1      54.063  27.127  27.532  1.00  0.00    -0.200 F 
ATOM     74  F   UNL A   1      54.938  27.514  24.978  1.00  0.00    -0.200 F 
ENDBRANCH  50  64
BRANCH  51  75
ATOM     75  C   UNL A   1      41.250  28.499  28.336  1.00  0.00     0.064 A 
ATOM     76  C   UNL A   1      40.835  28.126  29.622  1.00  0.00     0.173 A 
ATOM     77  C   UNL A   1      40.273  28.956  27.440  1.00  0.00     0.173 A 
ATOM     78  F   UNL A   1      41.730  27.664  30.507  1.00  0.00    -0.203 F 
ATOM     79  C   UNL A   1      39.493  28.188  29.990  1.00  0.00     0.198 A 
ATOM     80  C   UNL A   1      38.935  29.041  27.817  1.00  0.00     0.198 A 
ATOM     81  F   UNL A   1      40.622  29.329  26.200  1.00  0.00    -0.203 F 
ATOM     82  F   UNL A   1      39.116  27.784  31.211  1.00  0.00    -0.200 F 
ATOM     83  C   UNL A   1      38.545  28.651  29.089  1.00  0.00     0.200 A 
ATOM     84  F   UNL A   1      38.024  29.500  26.950  1.00  0.00    -0.200 F 
ATOM     85  F   UNL A   1      37.254  28.713  29.445  1.00  0.00    -0.200 F 
ENDBRANCH  51  75
BRANCH  63  86
ATOM     86  C   UNL A   1      46.507  33.065  28.370  1.00  0.00     0.064 A 
ATOM     87  C   UNL A   1      46.823  33.483  29.671  1.00  0.00     0.173 A 
ATOM     88  C   UNL A   1      46.285  34.052  27.397  1.00  0.00     0.173 A 
ATOM     89  F   UNL A   1      47.029  32.578  30.639  1.00  0.00    -0.203 F 
ATOM     90  C   UNL A   1      46.886  34.837  29.992  1.00  0.00     0.198 A 
ATOM     91  C   UNL A   1      46.375  35.404  27.715  1.00  0.00     0.198 A 
ATOM     92  F   UNL A   1      45.985  33.705  26.137  1.00  0.00    -0.203 F 
ATOM     93  F   UNL A   1      47.141  35.213  31.252  1.00  0.00    -0.200 F 
ATOM     94  C   UNL A   1      46.669  35.795  29.013  1.00  0.00     0.200 A 
ATOM     95  F   UNL A   1      46.177  36.329  26.765  1.00  0.00    -0.200 F 
ATOM     96  F   UNL A   1      46.732  37.097  29.323  1.00  0.00    -0.200 F 
ENDBRANCH  63  86
ENDBRANCH  37  38
ENDBRANCH  29  32
ENDBRANCH  27  28
ENDBRANCH  26  27
ENDBRANCH  25  26
ENDBRANCH   3  25
TORSDOF 15
ENDMDL
MODEL 3
REMARK VINA RESULT:     -11.6      6.687     12.219
REMARK SMILES CCOc1ccc(Cl)cc1NS(=O)(=O)c1cc(C(=O)NCCCNC(=O)c2ccc(-c3c4nc(c(-c5c(F)c(F)c(F)c(F)c5F)c5ccc([nH]5)c(-c5c(F)c(F)c(F)c(F)c5F)c5nc(c(-c6c(F)c(F)c(F)c(F)c6F)c6ccc3[nH]6)C=C5)C=C4)cc2)cs1
REMARK SMILES IDX 18 1 19 2 20 3 17 5 15 6 16 7 91 8 90 9 12 10 13 11 14 12
REMARK SMILES IDX 11 13 10 15 4 16 5 17 6 18 9 19 7 20 8 21 3 22 2 23 1 24
REMARK SMILES IDX 21 25 22 26 23 27 24 28 25 29 26 31 27 32 28 33 89 34 29 35
REMARK SMILES IDX 88 36 30 37 31 38 32 39 82 40 33 41 87 42 81 43 83 44 34 45
REMARK SMILES IDX 86 46 80 47 79 48 35 50 67 51 47 52 66 53 48 54 51 55 65 56
REMARK SMILES IDX 84 57 49 58 50 59 64 61 85 62 52 63 36 64 37 65 45 66 38 67
REMARK SMILES IDX 39 68 43 69 46 70 40 71 41 72 44 73 42 74 68 75 69 76 77 77
REMARK SMILES IDX 70 78 71 79 75 80 78 81 72 82 73 83 76 84 74 85 53 86 54 87
REMARK SMILES IDX 62 88 55 89 56 90 60 91 63 92 57 93 58 94 61 95 59 96
REMARK H PARENT 20 4 11 14 24 30 83 49 51 60
REMARK Flexibility Score: inf
ROOT
ATOM      1  C   UNL A   1      41.876  21.870  27.927  1.00  0.00     0.252 C 
ATOM      2  O   UNL A   1      42.569  22.727  28.477  1.00  0.00    -0.269 OA
ATOM      3  N   UNL A   1      42.253  20.563  28.115  1.00  0.00    -0.352 N 
ATOM      4  H   UNL A   1      43.067  20.462  28.658  1.00  0.00     0.163 HD
ENDROOT
BRANCH   1   5
ATOM      5  C   UNL A   1      40.681  22.239  27.159  1.00  0.00     0.051 A 
ATOM      6  C   UNL A   1      38.746  22.061  25.844  1.00  0.00     0.141 A 
ATOM      7  C   UNL A   1      40.002  21.551  26.105  1.00  0.00     0.048 A 
ATOM      8  S   UNL A   1      38.571  23.624  26.501  1.00  0.00    -0.130 S 
ATOM      9  C   UNL A   1      40.010  23.430  27.420  1.00  0.00     0.080 A 
BRANCH   6  10
ATOM     10  S   UNL A   1      37.361  21.321  25.019  1.00  0.00     0.271 S 
ATOM     11  O   UNL A   1      37.799  19.959  24.761  1.00  0.00    -0.200 OA
ATOM     12  O   UNL A   1      37.030  22.205  23.929  1.00  0.00    -0.200 OA
BRANCH  10  13
ATOM     13  N   UNL A   1      36.004  21.228  26.027  1.00  0.00    -0.275 N 
ATOM     14  H   UNL A   1      36.136  21.229  27.002  1.00  0.00     0.180 HD
BRANCH  13  15
ATOM     15  C   UNL A   1      34.658  21.147  25.506  1.00  0.00     0.092 A 
ATOM     16  C   UNL A   1      33.684  22.028  26.013  1.00  0.00     0.143 A 
ATOM     17  C   UNL A   1      32.331  21.869  25.690  1.00  0.00     0.050 A 
ATOM     18  C   UNL A   1      31.921  20.793  24.908  1.00  0.00     0.024 A 
ATOM     19  C   UNL A   1      34.224  20.081  24.718  1.00  0.00     0.051 A 
ATOM     20  C   UNL A   1      32.872  19.910  24.417  1.00  0.00     0.043 A 
ATOM     21  Cl  UNL A   1      32.384  18.573  23.448  1.00  0.00    -0.084 Cl
BRANCH  16  22
ATOM     22  O   UNL A   1      34.086  23.125  26.734  1.00  0.00    -0.492 OA
BRANCH  22  23
ATOM     23  C   UNL A   1      33.738  24.376  26.126  1.00  0.00     0.226 C 
ATOM     24  C   UNL A   1      34.741  24.824  25.073  1.00  0.00     0.049 C 
ENDBRANCH  22  23
ENDBRANCH  16  22
ENDBRANCH  13  15
ENDBRANCH  10  13
ENDBRANCH   6  10
ENDBRANCH   1   5
BRANCH   3  25
ATOM     25  C   UNL A   1      41.687  19.301  27.674  1.00  0.00     0.118 C 
BRANCH  25  26
ATOM     26  C   UNL A   1      42.634  18.558  26.730  1.00  0.00     0.042 C 
BRANCH  26  27
ATOM     27  C   UNL A   1      42.734  19.200  25.348  1.00  0.00     0.118 C 
BRANCH  27  28
ATOM     28  N   UNL A   1      43.951  18.809  24.652  1.00  0.00    -0.352 N 
ATOM     29  C   UNL A   1      45.015  19.561  24.225  1.00  0.00     0.251 C 
ATOM     30  H   UNL A   1      44.022  17.847  24.456  1.00  0.00     0.163 HD
ATOM     31  O   UNL A   1      45.849  19.047  23.484  1.00  0.00    -0.269 OA
BRANCH  29  32
ATOM     32  C   UNL A   1      45.176  20.976  24.631  1.00  0.00     0.039 A 
ATOM     33  C   UNL A   1      45.536  21.248  25.956  1.00  0.00     0.014 A 
ATOM     34  C   UNL A   1      44.904  22.031  23.757  1.00  0.00     0.014 A 
ATOM     35  C   UNL A   1      45.656  22.570  26.393  1.00  0.00     0.010 A 
ATOM     36  C   UNL A   1      45.084  23.351  24.175  1.00  0.00     0.010 A 
ATOM     37  C   UNL A   1      45.450  23.634  25.501  1.00  0.00    -0.014 A 
BRANCH  37  38
ATOM     38  C   UNL A   1      45.598  25.042  25.947  1.00  0.00     0.031 A 
ATOM     39  C   UNL A   1      46.939  25.723  25.883  1.00  0.00     0.074 A 
ATOM     40  C   UNL A   1      44.535  25.696  26.452  1.00  0.00     0.049 A 
ATOM     41  N   UNL A   1      47.275  26.928  26.269  1.00  0.00    -0.248 NA
ATOM     42  C   UNL A   1      48.053  24.935  25.334  1.00  0.00     0.031 C 
ATOM     43  C   UNL A   1      43.195  25.132  26.609  1.00  0.00     0.029 A 
ATOM     44  N   UNL A   1      44.417  26.974  26.937  1.00  0.00    -0.354 N 
ATOM     45  C   UNL A   1      48.638  27.036  26.029  1.00  0.00     0.074 A 
ATOM     46  C   UNL A   1      49.077  25.760  25.503  1.00  0.00     0.031 C 
ATOM     47  C   UNL A   1      42.384  26.065  27.133  1.00  0.00     0.029 A 
ATOM     48  C   UNL A   1      43.154  27.281  27.377  1.00  0.00     0.049 A 
ATOM     49  H   UNL A   1      45.168  27.611  26.966  1.00  0.00     0.167 HD
ATOM     50  C   UNL A   1      49.449  28.107  26.211  1.00  0.00     0.037 A 
ATOM     51  C   UNL A   1      42.671  28.416  27.918  1.00  0.00     0.037 A 
ATOM     52  C   UNL A   1      49.005  29.384  26.705  1.00  0.00     0.049 A 
ATOM     53  C   UNL A   1      43.585  29.599  28.085  1.00  0.00     0.074 A 
ATOM     54  C   UNL A   1      49.738  30.548  26.875  1.00  0.00     0.029 A 
ATOM     55  N   UNL A   1      47.708  29.669  27.105  1.00  0.00    -0.354 N 
ATOM     56  N   UNL A   1      44.858  29.708  27.799  1.00  0.00    -0.248 NA
ATOM     57  C   UNL A   1      42.987  30.822  28.638  1.00  0.00     0.031 C 
ATOM     58  C   UNL A   1      48.891  31.525  27.411  1.00  0.00     0.029 A 
ATOM     59  C   UNL A   1      47.621  30.985  27.531  1.00  0.00     0.049 A 
ATOM     60  H   UNL A   1      46.958  29.030  27.088  1.00  0.00     0.167 HD
ATOM     61  C   UNL A   1      45.209  31.015  28.106  1.00  0.00     0.074 A 
ATOM     62  C   UNL A   1      44.009  31.665  28.591  1.00  0.00     0.031 C 
ATOM     63  C   UNL A   1      46.416  31.621  27.998  1.00  0.00     0.037 A 
BRANCH  50  64
ATOM     64  C   UNL A   1      50.902  27.944  25.870  1.00  0.00     0.064 A 
ATOM     65  C   UNL A   1      51.362  28.039  24.548  1.00  0.00     0.173 A 
ATOM     66  C   UNL A   1      51.851  27.727  26.881  1.00  0.00     0.173 A 
ATOM     67  F   UNL A   1      50.494  28.236  23.544  1.00  0.00    -0.203 F 
ATOM     68  C   UNL A   1      52.714  27.894  24.247  1.00  0.00     0.198 A 
ATOM     69  C   UNL A   1      53.205  27.611  26.579  1.00  0.00     0.198 A 
ATOM     70  F   UNL A   1      51.465  27.634  28.163  1.00  0.00    -0.203 F 
ATOM     71  F   UNL A   1      53.124  27.942  22.972  1.00  0.00    -0.200 F 
ATOM     72  C   UNL A   1      53.635  27.687  25.263  1.00  0.00     0.200 A 
ATOM     73  F   UNL A   1      54.096  27.422  27.563  1.00  0.00    -0.200 F 
ATOM     74  F   UNL A   1      54.936  27.553  24.972  1.00  0.00    -0.200 F 
ENDBRANCH  50  64
BRANCH  51  75
ATOM     75  C   UNL A   1      41.240  28.499  28.306  1.00  0.00     0.064 A 
ATOM     76  C   UNL A   1      40.274  28.947  27.394  1.00  0.00     0.173 A 
ATOM     77  C   UNL A   1      40.808  28.130  29.588  1.00  0.00     0.173 A 
ATOM     78  F   UNL A   1      40.643  29.329  26.162  1.00  0.00    -0.203 F 
ATOM     79  C   UNL A   1      38.933  29.043  27.756  1.00  0.00     0.198 A 
ATOM     80  C   UNL A   1      39.462  28.203  29.941  1.00  0.00     0.198 A 
ATOM     81  F   UNL A   1      41.693  27.690  30.494  1.00  0.00    -0.203 F 
ATOM     82  F   UNL A   1      38.037  29.517  26.879  1.00  0.00    -0.200 F 
ATOM     83  C   UNL A   1      38.527  28.665  29.027  1.00  0.00     0.200 A 
ATOM     84  F   UNL A   1      39.071  27.826  31.165  1.00  0.00    -0.200 F 
ATOM     85  F   UNL A   1      37.235  28.755  29.374  1.00  0.00    -0.200 F 
ENDBRANCH  51  75
BRANCH  63  86
ATOM     86  C   UNL A   1      46.489  33.073  28.368  1.00  0.00     0.064 A 
ATOM     87  C   UNL A   1      46.250  34.087  27.429  1.00  0.00     0.173 A 
ATOM     88  C   UNL A   1      46.777  33.453  29.688  1.00  0.00     0.173 A 
ATOM     89  F   UNL A   1      45.986  33.775  26.151  1.00  0.00    -0.203 F 
ATOM     90  C   UNL A   1      46.325  35.429  27.791  1.00  0.00     0.198 A 
ATOM     91  C   UNL A   1      46.824  34.795  30.053  1.00  0.00     0.198 A 
ATOM     92  F   UNL A   1      47.007  32.522  30.626  1.00  0.00    -0.203 F 
ATOM     93  F   UNL A   1      46.142  36.382  26.867  1.00  0.00    -0.200 F 
ATOM     94  C   UNL A   1      46.606  35.782  29.103  1.00  0.00     0.200 A 
ATOM     95  F   UNL A   1      47.083  35.134  31.323  1.00  0.00    -0.200 F 
ATOM     96  F   UNL A   1      46.676  37.075  29.450  1.00  0.00    -0.200 F 
ENDBRANCH  63  86
ENDBRANCH  37  38
ENDBRANCH  29  32
ENDBRANCH  27  28
ENDBRANCH  26  27
ENDBRANCH  25  26
ENDBRANCH   3  25
TORSDOF 15
ENDMDL
