MODEL 1
REMARK VINA RESULT:     -13.2      0.000      0.000
REMARK SMILES O=C(NCCCNC(=O)c1ccccc1Nc1cccc(C(F)(F)F)c1)c1ccc(-c2c3nc(c(-c4c(F)c(F)c(F)c(F)c4F)c4ccc([nH]4)c(-c4c(F)c(F)c(F)c(F)c4F)c4nc(c(-c5c(F)c(F)c(F)c(F)c5F)c5ccc2[nH]5)C=C4)C=C3)cc1
REMARK SMILES IDX 5 1 4 2 3 3 1 4 2 5 27 7 28 8 89 9 29 10 88 11 30 12 31 13
REMARK SMILES IDX 32 14 82 15 33 16 87 17 81 18 83 19 34 20 86 21 80 22 79 23
REMARK SMILES IDX 35 25 67 26 47 27 66 28 48 29 51 30 65 31 84 32 49 33 50 34
REMARK SMILES IDX 64 36 85 37 52 38 36 39 37 40 45 41 38 42 39 43 43 44 46 45
REMARK SMILES IDX 40 46 41 47 44 48 42 49 68 50 69 51 77 52 70 53 71 54 75 55
REMARK SMILES IDX 78 56 72 57 73 58 76 59 74 60 53 61 54 62 62 63 55 64 56 65
REMARK SMILES IDX 60 66 63 67 57 68 58 69 61 70 59 71 6 72 7 73 8 74 9 76
REMARK SMILES IDX 10 77 11 78 15 79 12 80 14 81 13 82 16 83 17 85 18 86 26 87
REMARK SMILES IDX 19 88 21 89 20 90 22 91 23 92 24 93 25 94
REMARK H PARENT 3 6 83 24 51 35 7 75 16 84
REMARK Flexibility Score: inf
ROOT
ATOM      1  C   UNL A   1      31.993  28.023  26.486  1.00  0.00     0.042 C 
ENDROOT
BRANCH   1   2
ATOM      2  C   UNL A   1      32.928  29.052  25.873  1.00  0.00     0.118 C 
BRANCH   2   3
ATOM      3  N   UNL A   1      32.552  30.429  26.176  1.00  0.00    -0.352 N 
ATOM      4  O   UNL A   1      32.566  32.425  27.220  1.00  0.00    -0.269 OA
ATOM      5  C   UNL A   1      33.140  31.362  26.997  1.00  0.00     0.251 C 
ATOM      6  H   UNL A   1      31.741  30.742  25.714  1.00  0.00     0.163 HD
BRANCH   5   7
ATOM      7  C   UNL A   1      34.443  31.085  27.641  1.00  0.00     0.039 A 
ATOM      8  C   UNL A   1      34.745  29.811  28.116  1.00  0.00     0.014 A 
ATOM      9  C   UNL A   1      35.387  32.111  27.763  1.00  0.00     0.014 A 
ATOM     10  C   UNL A   1      35.876  29.615  28.894  1.00  0.00     0.010 A 
ATOM     11  C   UNL A   1      36.594  31.876  28.434  1.00  0.00     0.010 A 
ATOM     12  C   UNL A   1      36.830  30.636  29.044  1.00  0.00    -0.014 A 
BRANCH  12  13
ATOM     13  C   UNL A   1      38.078  30.326  29.790  1.00  0.00     0.031 A 
ATOM     14  C   UNL A   1      38.282  30.775  31.210  1.00  0.00     0.074 A 
ATOM     15  C   UNL A   1      38.999  29.547  29.189  1.00  0.00     0.049 A 
ATOM     16  N   UNL A   1      39.272  30.500  32.024  1.00  0.00    -0.248 NA
ATOM     17  C   UNL A   1      37.256  31.652  31.794  1.00  0.00     0.031 C 
ATOM     18  C   UNL A   1      38.923  29.077  27.802  1.00  0.00     0.029 A 
ATOM     19  N   UNL A   1      40.150  28.976  29.667  1.00  0.00    -0.354 N 
ATOM     20  C   UNL A   1      38.997  31.177  33.206  1.00  0.00     0.074 A 
ATOM     21  C   UNL A   1      37.762  31.902  32.996  1.00  0.00     0.031 C 
ATOM     22  C   UNL A   1      39.931  28.226  27.569  1.00  0.00     0.029 A 
ATOM     23  C   UNL A   1      40.766  28.147  28.761  1.00  0.00     0.049 A 
ATOM     24  H   UNL A   1      40.501  29.143  30.572  1.00  0.00     0.167 HD
ATOM     25  C   UNL A   1      39.706  31.184  34.360  1.00  0.00     0.037 A 
ATOM     26  C   UNL A   1      41.884  27.407  28.870  1.00  0.00     0.037 A 
ATOM     27  C   UNL A   1      40.929  30.449  34.567  1.00  0.00     0.049 A 
ATOM     28  C   UNL A   1      42.637  27.420  30.167  1.00  0.00     0.074 A 
ATOM     29  C   UNL A   1      41.721  30.389  35.702  1.00  0.00     0.029 A 
ATOM     30  N   UNL A   1      41.536  29.638  33.617  1.00  0.00    -0.354 N 
ATOM     31  N   UNL A   1      42.355  28.057  31.278  1.00  0.00    -0.248 NA
ATOM     32  C   UNL A   1      43.862  26.615  30.227  1.00  0.00     0.031 C 
ATOM     33  C   UNL A   1      42.822  29.570  35.428  1.00  0.00     0.029 A 
ATOM     34  C   UNL A   1      42.695  29.083  34.138  1.00  0.00     0.049 A 
ATOM     35  H   UNL A   1      41.193  29.481  32.708  1.00  0.00     0.167 HD
ATOM     36  C   UNL A   1      43.368  27.735  32.166  1.00  0.00     0.074 A 
ATOM     37  C   UNL A   1      44.248  26.811  31.479  1.00  0.00     0.031 C 
ATOM     38  C   UNL A   1      43.563  28.176  33.433  1.00  0.00     0.037 A 
BRANCH  25  39
ATOM     39  C   UNL A   1      39.185  32.015  35.496  1.00  0.00     0.064 A 
ATOM     40  C   UNL A   1      38.385  31.460  36.506  1.00  0.00     0.173 A 
ATOM     41  C   UNL A   1      39.541  33.368  35.611  1.00  0.00     0.173 A 
ATOM     42  F   UNL A   1      38.009  30.175  36.437  1.00  0.00    -0.203 F 
ATOM     43  C   UNL A   1      37.949  32.233  37.580  1.00  0.00     0.198 A 
ATOM     44  C   UNL A   1      39.122  34.131  36.699  1.00  0.00     0.198 A 
ATOM     45  F   UNL A   1      40.310  33.948  34.676  1.00  0.00    -0.203 F 
ATOM     46  F   UNL A   1      37.158  31.689  38.516  1.00  0.00    -0.200 F 
ATOM     47  C   UNL A   1      38.324  33.563  37.681  1.00  0.00     0.200 A 
ATOM     48  F   UNL A   1      39.497  35.414  36.801  1.00  0.00    -0.200 F 
ATOM     49  F   UNL A   1      37.913  34.301  38.722  1.00  0.00    -0.200 F 
ENDBRANCH  25  39
BRANCH  26  50
ATOM     50  C   UNL A   1      42.355  26.608  27.709  1.00  0.00     0.064 A 
ATOM     51  C   UNL A   1      43.306  27.116  26.816  1.00  0.00     0.173 A 
ATOM     52  C   UNL A   1      41.871  25.311  27.483  1.00  0.00     0.173 A 
ATOM     53  F   UNL A   1      43.786  28.358  26.980  1.00  0.00    -0.203 F 
ATOM     54  C   UNL A   1      43.744  26.362  25.729  1.00  0.00     0.198 A 
ATOM     55  C   UNL A   1      42.335  24.546  26.415  1.00  0.00     0.198 A 
ATOM     56  F   UNL A   1      40.965  24.776  28.314  1.00  0.00    -0.203 F 
ATOM     57  F   UNL A   1      44.623  26.887  24.864  1.00  0.00    -0.200 F 
ATOM     58  C   UNL A   1      43.264  25.075  25.535  1.00  0.00     0.200 A 
ATOM     59  F   UNL A   1      41.883  23.296  26.245  1.00  0.00    -0.200 F 
ATOM     60  F   UNL A   1      43.694  24.347  24.495  1.00  0.00    -0.200 F 
ENDBRANCH  26  50
BRANCH  38  61
ATOM     61  C   UNL A   1      44.774  27.656  34.148  1.00  0.00     0.064 A 
ATOM     62  C   UNL A   1      45.999  28.340  34.099  1.00  0.00     0.173 A 
ATOM     63  C   UNL A   1      44.712  26.466  34.885  1.00  0.00     0.173 A 
ATOM     64  F   UNL A   1      46.112  29.473  33.390  1.00  0.00    -0.203 F 
ATOM     65  C   UNL A   1      47.127  27.831  34.737  1.00  0.00     0.198 A 
ATOM     66  C   UNL A   1      45.835  25.975  35.546  1.00  0.00     0.198 A 
ATOM     67  F   UNL A   1      43.564  25.778  34.965  1.00  0.00    -0.203 F 
ATOM     68  F   UNL A   1      48.299  28.470  34.630  1.00  0.00    -0.200 F 
ATOM     69  C   UNL A   1      47.043  26.652  35.461  1.00  0.00     0.200 A 
ATOM     70  F   UNL A   1      45.752  24.839  36.252  1.00  0.00    -0.200 F 
ATOM     71  F   UNL A   1      48.131  26.160  36.070  1.00  0.00    -0.200 F 
ENDBRANCH  38  61
ENDBRANCH  12  13
ENDBRANCH   5   7
ENDBRANCH   2   3
ENDBRANCH   1   2
BRANCH   1  72
ATOM     72  C   UNL A   1      32.421  26.585  26.257  1.00  0.00     0.118 C 
BRANCH  72  73
ATOM     73  N   UNL A   1      31.558  25.629  26.937  1.00  0.00    -0.352 N 
ATOM     74  C   UNL A   1      31.084  24.418  26.502  1.00  0.00     0.253 C 
ATOM     75  H   UNL A   1      31.273  25.890  27.842  1.00  0.00     0.163 HD
ATOM     76  O   UNL A   1      30.244  23.821  27.168  1.00  0.00    -0.269 OA
BRANCH  74  77
ATOM     77  C   UNL A   1      31.556  23.836  25.227  1.00  0.00     0.063 A 
ATOM     78  C   UNL A   1      32.609  22.912  25.316  1.00  0.00     0.016 A 
ATOM     79  C   UNL A   1      31.014  24.202  23.978  1.00  0.00     0.051 A 
ATOM     80  C   UNL A   1      33.098  22.298  24.166  1.00  0.00     0.001 A 
ATOM     81  C   UNL A   1      31.508  23.545  22.839  1.00  0.00     0.027 A 
ATOM     82  C   UNL A   1      32.539  22.607  22.929  1.00  0.00     0.002 A 
BRANCH  79  83
ATOM     83  N   UNL A   1      29.982  25.158  23.862  1.00  0.00    -0.355 N 
ATOM     84  H   UNL A   1      29.087  24.826  24.100  1.00  0.00     0.167 HD
BRANCH  83  85
ATOM     85  C   UNL A   1      30.021  26.505  23.463  1.00  0.00     0.039 A 
ATOM     86  C   UNL A   1      31.234  27.054  23.032  1.00  0.00     0.026 A 
ATOM     87  C   UNL A   1      28.876  27.312  23.431  1.00  0.00     0.039 A 
ATOM     88  C   UNL A   1      31.302  28.372  22.576  1.00  0.00     0.003 A 
ATOM     89  C   UNL A   1      28.930  28.647  22.998  1.00  0.00     0.058 A 
ATOM     90  C   UNL A   1      30.155  29.164  22.557  1.00  0.00     0.013 A 
BRANCH  89  91
ATOM     91  C   UNL A   1      27.692  29.506  22.982  1.00  0.00     0.416 C 
ATOM     92  F   UNL A   1      27.396  29.981  21.739  1.00  0.00    -0.166 F 
ATOM     93  F   UNL A   1      26.586  28.831  23.398  1.00  0.00    -0.166 F 
ATOM     94  F   UNL A   1      27.783  30.605  23.783  1.00  0.00    -0.166 F 
ENDBRANCH  89  91
ENDBRANCH  83  85
ENDBRANCH  79  83
ENDBRANCH  74  77
ENDBRANCH  72  73
ENDBRANCH   1  72
TORSDOF 13
ENDMDL
MODEL 2
REMARK VINA RESULT:     -12.9      2.867      4.166
REMARK SMILES O=C(NCCCNC(=O)c1ccccc1Nc1cccc(C(F)(F)F)c1)c1ccc(-c2c3nc(c(-c4c(F)c(F)c(F)c(F)c4F)c4ccc([nH]4)c(-c4c(F)c(F)c(F)c(F)c4F)c4nc(c(-c5c(F)c(F)c(F)c(F)c5F)c5ccc2[nH]5)C=C4)C=C3)cc1
REMARK SMILES IDX 5 1 4 2 3 3 1 4 2 5 27 7 28 8 89 9 29 10 88 11 30 12 31 13
REMARK SMILES IDX 32 14 82 15 33 16 87 17 81 18 83 19 34 20 86 21 80 22 79 23
REMARK SMILES IDX 35 25 67 26 47 27 66 28 48 29 51 30 65 31 84 32 49 33 50 34
REMARK SMILES IDX 64 36 85 37 52 38 36 39 37 40 45 41 38 42 39 43 43 44 46 45
REMARK SMILES IDX 40 46 41 47 44 48 42 49 68 50 69 51 77 52 70 53 71 54 75 55
REMARK SMILES IDX 78 56 72 57 73 58 76 59 74 60 53 61 54 62 62 63 55 64 56 65
REMARK SMILES IDX 60 66 63 67 57 68 58 69 61 70 59 71 6 72 7 73 8 74 9 76
REMARK SMILES IDX 10 77 11 78 15 79 12 80 14 81 13 82 16 83 17 85 18 86 26 87
REMARK SMILES IDX 19 88 21 89 20 90 22 91 23 92 24 93 25 94
REMARK H PARENT 3 6 83 24 51 35 7 75 16 84
REMARK Flexibility Score: inf
ROOT
ATOM      1  C   UNL A   1      33.786  28.952  23.655  1.00  0.00     0.042 C 
ENDROOT
BRANCH   1   2
ATOM      2  C   UNL A   1      33.608  28.858  25.162  1.00  0.00     0.118 C 
BRANCH   2   3
ATOM      3  N   UNL A   1      32.977  30.037  25.745  1.00  0.00    -0.352 N 
ATOM      4  O   UNL A   1      32.582  31.689  27.225  1.00  0.00    -0.269 OA
ATOM      5  C   UNL A   1      33.347  30.821  26.811  1.00  0.00     0.251 C 
ATOM      6  H   UNL A   1      32.146  30.319  25.298  1.00  0.00     0.163 HD
BRANCH   5   7
ATOM      7  C   UNL A   1      34.646  30.609  27.487  1.00  0.00     0.039 A 
ATOM      8  C   UNL A   1      34.991  29.355  27.987  1.00  0.00     0.014 A 
ATOM      9  C   UNL A   1      35.542  31.676  27.616  1.00  0.00     0.014 A 
ATOM     10  C   UNL A   1      36.112  29.219  28.793  1.00  0.00     0.010 A 
ATOM     11  C   UNL A   1      36.743  31.502  28.316  1.00  0.00     0.010 A 
ATOM     12  C   UNL A   1      37.018  30.281  28.949  1.00  0.00    -0.014 A 
BRANCH  12  13
ATOM     13  C   UNL A   1      38.261  30.036  29.727  1.00  0.00     0.031 A 
ATOM     14  C   UNL A   1      38.428  30.544  31.132  1.00  0.00     0.074 A 
ATOM     15  C   UNL A   1      39.214  29.262  29.170  1.00  0.00     0.049 A 
ATOM     16  N   UNL A   1      39.411  30.328  31.972  1.00  0.00    -0.248 NA
ATOM     17  C   UNL A   1      37.368  31.412  31.665  1.00  0.00     0.031 C 
ATOM     18  C   UNL A   1      39.175  28.737  27.802  1.00  0.00     0.029 A 
ATOM     19  N   UNL A   1      40.371  28.741  29.689  1.00  0.00    -0.354 N 
ATOM     20  C   UNL A   1      39.097  31.041  33.122  1.00  0.00     0.074 A 
ATOM     21  C   UNL A   1      37.846  31.722  32.864  1.00  0.00     0.031 C 
ATOM     22  C   UNL A   1      40.209  27.907  27.618  1.00  0.00     0.029 A 
ATOM     23  C   UNL A   1      41.026  27.897  28.825  1.00  0.00     0.049 A 
ATOM     24  H   UNL A   1      40.702  28.953  30.593  1.00  0.00     0.167 HD
ATOM     25  C   UNL A   1      39.786  31.111  34.286  1.00  0.00     0.037 A 
ATOM     26  C   UNL A   1      42.162  27.194  28.980  1.00  0.00     0.037 A 
ATOM     27  C   UNL A   1      41.025  30.419  34.541  1.00  0.00     0.049 A 
ATOM     28  C   UNL A   1      42.891  27.277  30.288  1.00  0.00     0.074 A 
ATOM     29  C   UNL A   1      41.798  30.425  35.691  1.00  0.00     0.029 A 
ATOM     30  N   UNL A   1      41.670  29.591  33.633  1.00  0.00    -0.354 N 
ATOM     31  N   UNL A   1      42.573  27.947  31.369  1.00  0.00    -0.248 NA
ATOM     32  C   UNL A   1      44.138  26.510  30.398  1.00  0.00     0.031 C 
ATOM     33  C   UNL A   1      42.926  29.628  35.465  1.00  0.00     0.029 A 
ATOM     34  C   UNL A   1      42.835  29.089  34.193  1.00  0.00     0.049 A 
ATOM     35  H   UNL A   1      41.347  29.390  32.724  1.00  0.00     0.167 HD
ATOM     36  C   UNL A   1      43.579  27.687  32.286  1.00  0.00     0.074 A 
ATOM     37  C   UNL A   1      44.497  26.763  31.648  1.00  0.00     0.031 C 
ATOM     38  C   UNL A   1      43.740  28.181  33.537  1.00  0.00     0.037 A 
BRANCH  25  39
ATOM     39  C   UNL A   1      39.222  31.970  35.381  1.00  0.00     0.064 A 
ATOM     40  C   UNL A   1      38.431  31.428  36.406  1.00  0.00     0.173 A 
ATOM     41  C   UNL A   1      39.528  33.338  35.443  1.00  0.00     0.173 A 
ATOM     42  F   UNL A   1      38.102  30.128  36.387  1.00  0.00    -0.203 F 
ATOM     43  C   UNL A   1      37.955  32.228  37.442  1.00  0.00     0.198 A 
ATOM     44  C   UNL A   1      39.069  34.130  36.494  1.00  0.00     0.198 A 
ATOM     45  F   UNL A   1      40.285  33.906  34.492  1.00  0.00    -0.203 F 
ATOM     46  F   UNL A   1      37.174  31.695  38.392  1.00  0.00    -0.200 F 
ATOM     47  C   UNL A   1      38.280  33.575  37.490  1.00  0.00     0.200 A 
ATOM     48  F   UNL A   1      39.396  35.429  36.545  1.00  0.00    -0.200 F 
ATOM     49  F   UNL A   1      37.832  34.339  38.495  1.00  0.00    -0.200 F 
ENDBRANCH  25  39
BRANCH  26  50
ATOM     50  C   UNL A   1      42.675  26.365  27.859  1.00  0.00     0.064 A 
ATOM     51  C   UNL A   1      43.510  26.911  26.875  1.00  0.00     0.173 A 
ATOM     52  C   UNL A   1      42.350  25.004  27.760  1.00  0.00     0.173 A 
ATOM     53  F   UNL A   1      43.835  28.211  26.917  1.00  0.00    -0.203 F 
ATOM     54  C   UNL A   1      43.988  26.129  25.826  1.00  0.00     0.198 A 
ATOM     55  C   UNL A   1      42.856  24.216  26.729  1.00  0.00     0.198 A 
ATOM     56  F   UNL A   1      41.560  24.433  28.681  1.00  0.00    -0.203 F 
ATOM     57  F   UNL A   1      44.751  26.684  24.874  1.00  0.00    -0.200 F 
ATOM     58  C   UNL A   1      43.667  24.781  25.759  1.00  0.00     0.200 A 
ATOM     59  F   UNL A   1      42.559  22.911  26.681  1.00  0.00    -0.200 F 
ATOM     60  F   UNL A   1      44.136  24.028  24.754  1.00  0.00    -0.200 F 
ENDBRANCH  26  50
BRANCH  38  61
ATOM     61  C   UNL A   1      44.952  27.723  34.291  1.00  0.00     0.064 A 
ATOM     62  C   UNL A   1      44.916  26.580  35.106  1.00  0.00     0.173 A 
ATOM     63  C   UNL A   1      46.159  28.429  34.200  1.00  0.00     0.173 A 
ATOM     64  F   UNL A   1      43.778  25.882  35.239  1.00  0.00    -0.203 F 
ATOM     65  C   UNL A   1      46.036  26.183  35.829  1.00  0.00     0.198 A 
ATOM     66  C   UNL A   1      47.287  28.012  34.903  1.00  0.00     0.198 A 
ATOM     67  F   UNL A   1      46.246  29.525  33.431  1.00  0.00    -0.203 F 
ATOM     68  F   UNL A   1      45.963  25.123  36.645  1.00  0.00    -0.200 F 
ATOM     69  C   UNL A   1      47.221  26.897  35.724  1.00  0.00     0.200 A 
ATOM     70  F   UNL A   1      48.433  28.698  34.795  1.00  0.00    -0.200 F 
ATOM     71  F   UNL A   1      48.298  26.516  36.425  1.00  0.00    -0.200 F 
ENDBRANCH  38  61
ENDBRANCH  12  13
ENDBRANCH   5   7
ENDBRANCH   2   3
ENDBRANCH   1   2
BRANCH   1  72
ATOM     72  C   UNL A   1      32.580  28.484  22.861  1.00  0.00     0.118 C 
BRANCH  72  73
ATOM     73  N   UNL A   1      32.884  27.350  21.998  1.00  0.00    -0.352 N 
ATOM     74  C   UNL A   1      32.849  26.008  22.276  1.00  0.00     0.253 C 
ATOM     75  H   UNL A   1      33.155  27.582  21.081  1.00  0.00     0.163 HD
ATOM     76  O   UNL A   1      33.285  25.207  21.455  1.00  0.00    -0.269 OA
BRANCH  74  77
ATOM     77  C   UNL A   1      32.313  25.518  23.564  1.00  0.00     0.063 A 
ATOM     78  C   UNL A   1      30.918  25.559  23.715  1.00  0.00     0.016 A 
ATOM     79  C   UNL A   1      33.144  25.062  24.609  1.00  0.00     0.051 A 
ATOM     80  C   UNL A   1      30.329  25.093  24.888  1.00  0.00     0.001 A 
ATOM     81  C   UNL A   1      32.520  24.573  25.767  1.00  0.00     0.027 A 
ATOM     82  C   UNL A   1      31.130  24.589  25.908  1.00  0.00     0.002 A 
BRANCH  79  83
ATOM     83  N   UNL A   1      34.551  25.050  24.493  1.00  0.00    -0.355 N 
ATOM     84  H   UNL A   1      34.934  25.848  24.063  1.00  0.00     0.167 HD
BRANCH  83  85
ATOM     85  C   UNL A   1      35.494  24.087  24.890  1.00  0.00     0.039 A 
ATOM     86  C   UNL A   1      35.301  22.751  24.524  1.00  0.00     0.026 A 
ATOM     87  C   UNL A   1      36.656  24.422  25.600  1.00  0.00     0.039 A 
ATOM     88  C   UNL A   1      36.243  21.775  24.852  1.00  0.00     0.003 A 
ATOM     89  C   UNL A   1      37.603  23.449  25.959  1.00  0.00     0.058 A 
ATOM     90  C   UNL A   1      37.391  22.122  25.564  1.00  0.00     0.013 A 
BRANCH  89  91
ATOM     91  C   UNL A   1      38.840  23.823  26.735  1.00  0.00     0.416 C 
ATOM     92  F   UNL A   1      39.647  22.755  26.987  1.00  0.00    -0.166 F 
ATOM     93  F   UNL A   1      39.612  24.729  26.076  1.00  0.00    -0.166 F 
ATOM     94  F   UNL A   1      38.572  24.376  27.951  1.00  0.00    -0.166 F 
ENDBRANCH  89  91
ENDBRANCH  83  85
ENDBRANCH  79  83
ENDBRANCH  74  77
ENDBRANCH  72  73
ENDBRANCH   1  72
TORSDOF 13
ENDMDL
MODEL 3
REMARK VINA RESULT:     -12.9      2.148      2.877
REMARK SMILES O=C(NCCCNC(=O)c1ccccc1Nc1cccc(C(F)(F)F)c1)c1ccc(-c2c3nc(c(-c4c(F)c(F)c(F)c(F)c4F)c4ccc([nH]4)c(-c4c(F)c(F)c(F)c(F)c4F)c4nc(c(-c5c(F)c(F)c(F)c(F)c5F)c5ccc2[nH]5)C=C4)C=C3)cc1
REMARK SMILES IDX 5 1 4 2 3 3 1 4 2 5 27 7 28 8 89 9 29 10 88 11 30 12 31 13
REMARK SMILES IDX 32 14 82 15 33 16 87 17 81 18 83 19 34 20 86 21 80 22 79 23
REMARK SMILES IDX 35 25 67 26 47 27 66 28 48 29 51 30 65 31 84 32 49 33 50 34
REMARK SMILES IDX 64 36 85 37 52 38 36 39 37 40 45 41 38 42 39 43 43 44 46 45
REMARK SMILES IDX 40 46 41 47 44 48 42 49 68 50 69 51 77 52 70 53 71 54 75 55
REMARK SMILES IDX 78 56 72 57 73 58 76 59 74 60 53 61 54 62 62 63 55 64 56 65
REMARK SMILES IDX 60 66 63 67 57 68 58 69 61 70 59 71 6 72 7 73 8 74 9 76
REMARK SMILES IDX 10 77 11 78 15 79 12 80 14 81 13 82 16 83 17 85 18 86 26 87
REMARK SMILES IDX 19 88 21 89 20 90 22 91 23 92 24 93 25 94
REMARK H PARENT 3 6 83 24 51 35 7 75 16 84
REMARK Flexibility Score: inf
ROOT
ATOM      1  C   UNL A   1      31.355  31.848  26.668  1.00  0.00     0.042 C 
ENDROOT
BRANCH   1   2
ATOM      2  C   UNL A   1      32.626  32.655  26.870  1.00  0.00     0.118 C 
BRANCH   2   3
ATOM      3  N   UNL A   1      32.405  33.919  27.565  1.00  0.00    -0.352 N 
ATOM      4  O   UNL A   1      32.618  35.506  29.151  1.00  0.00    -0.269 OA
ATOM      5  C   UNL A   1      33.069  34.491  28.624  1.00  0.00     0.251 C 
ATOM      6  H   UNL A   1      31.655  34.452  27.216  1.00  0.00     0.163 HD
BRANCH   5   7
ATOM      7  C   UNL A   1      34.306  33.880  29.157  1.00  0.00     0.039 A 
ATOM      8  C   UNL A   1      34.248  32.750  29.971  1.00  0.00     0.014 A 
ATOM      9  C   UNL A   1      35.550  34.434  28.832  1.00  0.00     0.014 A 
ATOM     10  C   UNL A   1      35.389  32.313  30.626  1.00  0.00     0.010 A 
ATOM     11  C   UNL A   1      36.721  33.904  29.389  1.00  0.00     0.010 A 
ATOM     12  C   UNL A   1      36.646  32.865  30.327  1.00  0.00    -0.014 A 
BRANCH  12  13
ATOM     13  C   UNL A   1      37.846  32.271  30.973  1.00  0.00     0.031 A 
ATOM     14  C   UNL A   1      38.232  32.611  32.386  1.00  0.00     0.074 A 
ATOM     15  C   UNL A   1      38.540  31.341  30.288  1.00  0.00     0.049 A 
ATOM     16  N   UNL A   1      39.192  32.103  33.120  1.00  0.00    -0.248 NA
ATOM     17  C   UNL A   1      37.455  33.659  33.064  1.00  0.00     0.031 C 
ATOM     18  C   UNL A   1      38.276  30.952  28.900  1.00  0.00     0.029 A 
ATOM     19  N   UNL A   1      39.572  30.522  30.668  1.00  0.00    -0.354 N 
ATOM     20  C   UNL A   1      39.144  32.775  34.334  1.00  0.00     0.074 A 
ATOM     21  C   UNL A   1      38.079  33.751  34.232  1.00  0.00     0.031 C 
ATOM     22  C   UNL A   1      39.063  29.919  28.573  1.00  0.00     0.029 A 
ATOM     23  C   UNL A   1      39.939  29.620  29.700  1.00  0.00     0.049 A 
ATOM     24  H   UNL A   1      40.008  30.577  31.550  1.00  0.00     0.167 HD
ATOM     25  C   UNL A   1      39.912  32.587  35.434  1.00  0.00     0.037 A 
ATOM     26  C   UNL A   1      40.879  28.658  29.709  1.00  0.00     0.037 A 
ATOM     27  C   UNL A   1      40.963  31.604  35.535  1.00  0.00     0.049 A 
ATOM     28  C   UNL A   1      41.700  28.462  30.950  1.00  0.00     0.074 A 
ATOM     29  C   UNL A   1      41.795  31.335  36.608  1.00  0.00     0.029 A 
ATOM     30  N   UNL A   1      41.320  30.723  34.524  1.00  0.00    -0.354 N 
ATOM     31  N   UNL A   1      41.633  29.099  32.093  1.00  0.00    -0.248 NA
ATOM     32  C   UNL A   1      42.729  27.416  30.901  1.00  0.00     0.031 C 
ATOM     33  C   UNL A   1      42.678  30.316  36.235  1.00  0.00     0.029 A 
ATOM     34  C   UNL A   1      42.367  29.917  34.946  1.00  0.00     0.049 A 
ATOM     35  H   UNL A   1      40.894  30.678  33.638  1.00  0.00     0.167 HD
ATOM     36  C   UNL A   1      42.610  28.537  32.898  1.00  0.00     0.074 A 
ATOM     37  C   UNL A   1      43.228  27.477  32.127  1.00  0.00     0.031 C 
ATOM     38  C   UNL A   1      42.975  28.877  34.158  1.00  0.00     0.037 A 
BRANCH  25  39
ATOM     39  C   UNL A   1      39.654  33.464  36.625  1.00  0.00     0.064 A 
ATOM     40  C   UNL A   1      38.798  33.062  37.662  1.00  0.00     0.173 A 
ATOM     41  C   UNL A   1      40.318  34.693  36.763  1.00  0.00     0.173 A 
ATOM     42  F   UNL A   1      38.133  31.901  37.574  1.00  0.00    -0.203 F 
ATOM     43  C   UNL A   1      38.606  33.864  38.784  1.00  0.00     0.198 A 
ATOM     44  C   UNL A   1      40.141  35.482  37.898  1.00  0.00     0.198 A 
ATOM     45  F   UNL A   1      41.152  35.124  35.804  1.00  0.00    -0.203 F 
ATOM     46  F   UNL A   1      37.758  33.474  39.747  1.00  0.00    -0.200 F 
ATOM     47  C   UNL A   1      39.282  35.068  38.905  1.00  0.00     0.200 A 
ATOM     48  F   UNL A   1      40.805  36.639  38.018  1.00  0.00    -0.200 F 
ATOM     49  F   UNL A   1      39.105  35.833  39.992  1.00  0.00    -0.200 F 
ENDBRANCH  25  39
BRANCH  26  50
ATOM     50  C   UNL A   1      41.093  27.825  28.499  1.00  0.00     0.064 A 
ATOM     51  C   UNL A   1      41.973  28.228  27.486  1.00  0.00     0.173 A 
ATOM     52  C   UNL A   1      40.432  26.598  28.341  1.00  0.00     0.173 A 
ATOM     53  F   UNL A   1      42.615  29.401  27.582  1.00  0.00    -0.203 F 
ATOM     54  C   UNL A   1      42.170  27.442  26.352  1.00  0.00     0.198 A 
ATOM     55  C   UNL A   1      40.656  25.798  27.223  1.00  0.00     0.198 A 
ATOM     56  F   UNL A   1      39.586  26.163  29.286  1.00  0.00    -0.203 F 
ATOM     57  F   UNL A   1      42.984  27.870  25.377  1.00  0.00    -0.200 F 
ATOM     58  C   UNL A   1      41.518  26.224  26.226  1.00  0.00     0.200 A 
ATOM     59  F   UNL A   1      40.039  24.613  27.117  1.00  0.00    -0.200 F 
ATOM     60  F   UNL A   1      41.717  25.465  25.140  1.00  0.00    -0.200 F 
ENDBRANCH  26  50
BRANCH  38  61
ATOM     61  C   UNL A   1      44.093  28.087  34.771  1.00  0.00     0.064 A 
ATOM     62  C   UNL A   1      45.429  28.500  34.652  1.00  0.00     0.173 A 
ATOM     63  C   UNL A   1      43.829  26.908  35.481  1.00  0.00     0.173 A 
ATOM     64  F   UNL A   1      45.733  29.612  33.965  1.00  0.00    -0.203 F 
ATOM     65  C   UNL A   1      46.463  27.742  35.194  1.00  0.00     0.198 A 
ATOM     66  C   UNL A   1      44.862  26.167  36.047  1.00  0.00     0.198 A 
ATOM     67  F   UNL A   1      42.568  26.473  35.626  1.00  0.00    -0.203 F 
ATOM     68  F   UNL A   1      47.734  28.124  35.019  1.00  0.00    -0.200 F 
ATOM     69  C   UNL A   1      46.178  26.578  35.893  1.00  0.00     0.200 A 
ATOM     70  F   UNL A   1      44.586  25.047  36.729  1.00  0.00    -0.200 F 
ATOM     71  F   UNL A   1      47.174  25.846  36.410  1.00  0.00    -0.200 F 
ENDBRANCH  38  61
ENDBRANCH  12  13
ENDBRANCH   5   7
ENDBRANCH   2   3
ENDBRANCH   1   2
BRANCH   1  72
ATOM     72  C   UNL A   1      31.593  30.365  26.451  1.00  0.00     0.118 C 
BRANCH  72  73
ATOM     73  N   UNL A   1      32.482  30.099  25.328  1.00  0.00    -0.352 N 
ATOM     74  C   UNL A   1      32.520  29.022  24.481  1.00  0.00     0.253 C 
ATOM     75  H   UNL A   1      33.155  30.796  25.151  1.00  0.00     0.163 HD
ATOM     76  O   UNL A   1      33.444  28.912  23.681  1.00  0.00    -0.269 OA
BRANCH  74  77
ATOM     77  C   UNL A   1      31.473  27.980  24.537  1.00  0.00     0.063 A 
ATOM     78  C   UNL A   1      31.617  27.003  25.535  1.00  0.00     0.016 A 
ATOM     79  C   UNL A   1      30.398  27.932  23.624  1.00  0.00     0.051 A 
ATOM     80  C   UNL A   1      30.662  26.000  25.673  1.00  0.00     0.001 A 
ATOM     81  C   UNL A   1      29.437  26.925  23.807  1.00  0.00     0.027 A 
ATOM     82  C   UNL A   1      29.566  25.968  24.816  1.00  0.00     0.002 A 
BRANCH  79  83
ATOM     83  N   UNL A   1      30.255  28.880  22.588  1.00  0.00    -0.355 N 
ATOM     84  H   UNL A   1      30.731  28.653  21.757  1.00  0.00     0.167 HD
BRANCH  83  85
ATOM     85  C   UNL A   1      29.548  30.093  22.548  1.00  0.00     0.039 A 
ATOM     86  C   UNL A   1      29.378  30.824  23.728  1.00  0.00     0.026 A 
ATOM     87  C   UNL A   1      29.045  30.629  21.354  1.00  0.00     0.039 A 
ATOM     88  C   UNL A   1      28.728  32.059  23.719  1.00  0.00     0.003 A 
ATOM     89  C   UNL A   1      28.368  31.860  21.330  1.00  0.00     0.058 A 
ATOM     90  C   UNL A   1      28.227  32.577  22.525  1.00  0.00     0.013 A 
BRANCH  89  91
ATOM     91  C   UNL A   1      27.821  32.416  20.040  1.00  0.00     0.416 C 
ATOM     92  F   UNL A   1      27.005  33.490  20.234  1.00  0.00    -0.166 F 
ATOM     93  F   UNL A   1      28.803  32.839  19.199  1.00  0.00    -0.166 F 
ATOM     94  F   UNL A   1      27.083  31.517  19.331  1.00  0.00    -0.166 F 
ENDBRANCH  89  91
ENDBRANCH  83  85
ENDBRANCH  79  83
ENDBRANCH  74  77
ENDBRANCH  72  73
ENDBRANCH   1  72
TORSDOF 13
ENDMDL
