MODEL 1
REMARK VINA RESULT:     -12.2      0.000      0.000
REMARK SMILES CC[NH2+][C@]1(C(=O)NCCCNC(=O)c2ccc(-c3c4nc(c(-c5c(F)c(F)c(F)c(F)c5F)c5ccc([nH]5)c(-c5c(F)c(F)c(F)c(F)c5F)c5nc(c(-c6c(F)c(F)c(F)c(F)c6F)c6ccc3[nH]6)C=C5)C=C4)cc2)CC[C@@H](Sc2ccccc2C)C1
REMARK SMILES IDX 9 1 8 2 7 3 5 4 6 5 4 7 77 8 88 9 78 10 79 11 3 12 2 15 1 16
REMARK SMILES IDX 80 17 81 18 82 19 86 20 83 21 85 22 87 23 84 24 10 25 11 26
REMARK SMILES IDX 12 27 13 29 14 30 15 31 76 32 16 33 75 34 17 35 18 36 19 37
REMARK SMILES IDX 69 38 20 39 74 40 68 41 70 42 21 43 73 44 67 45 66 46 22 48
REMARK SMILES IDX 54 49 34 50 53 51 35 52 38 53 52 54 71 55 36 56 37 57 51 59
REMARK SMILES IDX 72 60 39 61 23 62 24 63 32 64 25 65 26 66 30 67 33 68 27 69
REMARK SMILES IDX 28 70 31 71 29 72 55 73 56 74 64 75 57 76 58 77 62 78 65 79
REMARK SMILES IDX 59 80 60 81 63 82 61 83 40 84 41 85 49 86 42 87 43 88 47 89
REMARK SMILES IDX 50 90 44 91 45 92 48 93 46 94
REMARK H PARENT 7 6 3 13 3 14 11 28 70 47 38 58
REMARK Flexibility Score: inf
ROOT
ATOM      1  C   UNL A   1      31.416  32.111  26.527  1.00  0.00     0.042 C 
ENDROOT
BRANCH   1   2
ATOM      2  C   UNL A   1      31.513  30.604  26.360  1.00  0.00     0.118 C 
BRANCH   2   3
ATOM      3  N   UNL A   1      32.240  30.214  25.165  1.00  0.00    -0.351 N 
ATOM      4  C   UNL A   1      32.828  29.035  24.802  1.00  0.00     0.281 C 
ATOM      5  O   UNL A   1      33.298  28.990  23.661  1.00  0.00    -0.268 OA
ATOM      6  H   UNL A   1      32.325  30.930  24.493  1.00  0.00     0.163 HD
BRANCH   4   7
ATOM      7  C   UNL A   1      32.895  27.823  25.774  1.00  0.00     0.176 C 
ATOM      8  C   UNL A   1      31.488  27.221  25.990  1.00  0.00     0.080 C 
ATOM      9  C   UNL A   1      33.615  26.630  25.114  1.00  0.00     0.094 C 
ATOM     10  C   UNL A   1      31.738  25.796  26.464  1.00  0.00     0.022 C 
ATOM     11  C   UNL A   1      33.006  25.365  25.729  1.00  0.00     0.058 C 
BRANCH   7  12
ATOM     12  N   UNL A   1      33.615  28.177  27.022  1.00  0.00    -0.334 N 
ATOM     13  H   UNL A   1      33.002  28.775  27.578  1.00  0.00     0.347 HD
ATOM     14  H   UNL A   1      33.846  27.290  27.469  1.00  0.00     0.347 HD
BRANCH  12  15
ATOM     15  C   UNL A   1      34.885  28.875  26.850  1.00  0.00     0.257 C 
ATOM     16  C   UNL A   1      34.901  30.087  27.778  1.00  0.00     0.071 C 
ENDBRANCH  12  15
ENDBRANCH   7  12
BRANCH  11  17
ATOM     17  S   UNL A   1      32.884  23.984  24.518  1.00  0.00    -0.122 SA
BRANCH  17  18
ATOM     18  C   UNL A   1      34.499  23.205  24.557  1.00  0.00     0.010 A 
ATOM     19  C   UNL A   1      35.347  23.479  23.468  1.00  0.00     0.015 A 
ATOM     20  C   UNL A   1      34.901  22.244  25.504  1.00  0.00    -0.038 A 
ATOM     21  C   UNL A   1      36.593  22.860  23.345  1.00  0.00     0.001 A 
ATOM     22  C   UNL A   1      36.180  21.661  25.387  1.00  0.00     0.004 A 
ATOM     23  C   UNL A   1      34.054  21.772  26.652  1.00  0.00     0.045 C 
ATOM     24  C   UNL A   1      37.016  21.961  24.315  1.00  0.00     0.000 A 
ENDBRANCH  17  18
ENDBRANCH  11  17
ENDBRANCH   4   7
ENDBRANCH   2   3
ENDBRANCH   1   2
BRANCH   1  25
ATOM     25  C   UNL A   1      32.576  32.728  27.291  1.00  0.00     0.118 C 
BRANCH  25  26
ATOM     26  N   UNL A   1      32.364  34.136  27.607  1.00  0.00    -0.352 N 
ATOM     27  C   UNL A   1      32.963  34.943  28.544  1.00  0.00     0.251 C 
ATOM     28  H   UNL A   1      31.679  34.582  27.058  1.00  0.00     0.163 HD
ATOM     29  O   UNL A   1      32.503  36.054  28.774  1.00  0.00    -0.269 OA
BRANCH  27  30
ATOM     30  C   UNL A   1      34.144  34.465  29.295  1.00  0.00     0.039 A 
ATOM     31  C   UNL A   1      33.959  33.889  30.555  1.00  0.00     0.014 A 
ATOM     32  C   UNL A   1      35.431  34.589  28.768  1.00  0.00     0.014 A 
ATOM     33  C   UNL A   1      35.055  33.359  31.241  1.00  0.00     0.010 A 
ATOM     34  C   UNL A   1      36.501  33.970  29.401  1.00  0.00     0.010 A 
ATOM     35  C   UNL A   1      36.327  33.351  30.647  1.00  0.00    -0.014 A 
BRANCH  35  36
ATOM     36  C   UNL A   1      37.489  32.703  31.307  1.00  0.00     0.031 A 
ATOM     37  C   UNL A   1      38.203  31.564  30.635  1.00  0.00     0.074 A 
ATOM     38  C   UNL A   1      37.851  33.090  32.547  1.00  0.00     0.049 A 
ATOM     39  N   UNL A   1      39.176  30.812  31.084  1.00  0.00    -0.248 NA
ATOM     40  C   UNL A   1      37.740  31.198  29.285  1.00  0.00     0.031 C 
ATOM     41  C   UNL A   1      37.207  34.148  33.327  1.00  0.00     0.029 A 
ATOM     42  N   UNL A   1      38.844  32.627  33.376  1.00  0.00    -0.354 N 
ATOM     43  C   UNL A   1      39.427  29.881  30.086  1.00  0.00     0.074 A 
ATOM     44  C   UNL A   1      38.465  30.119  29.033  1.00  0.00     0.031 C 
ATOM     45  C   UNL A   1      37.834  34.272  34.506  1.00  0.00     0.029 A 
ATOM     46  C   UNL A   1      38.894  33.272  34.588  1.00  0.00     0.049 A 
ATOM     47  H   UNL A   1      39.461  31.902  33.125  1.00  0.00     0.167 HD
ATOM     48  C   UNL A   1      40.390  28.929  30.040  1.00  0.00     0.037 A 
ATOM     49  C   UNL A   1      39.696  33.070  35.652  1.00  0.00     0.037 A 
ATOM     50  C   UNL A   1      41.358  28.712  31.082  1.00  0.00     0.049 A 
ATOM     51  C   UNL A   1      40.747  31.993  35.582  1.00  0.00     0.074 A 
ATOM     52  C   UNL A   1      42.413  27.816  31.106  1.00  0.00     0.029 A 
ATOM     53  N   UNL A   1      41.387  29.394  32.290  1.00  0.00    -0.354 N 
ATOM     54  N   UNL A   1      41.023  31.167  34.602  1.00  0.00    -0.248 NA
ATOM     55  C   UNL A   1      41.601  31.825  36.766  1.00  0.00     0.031 C 
ATOM     56  C   UNL A   1      43.041  27.913  32.351  1.00  0.00     0.029 A 
ATOM     57  C   UNL A   1      42.422  28.917  33.078  1.00  0.00     0.049 A 
ATOM     58  H   UNL A   1      40.763  30.111  32.549  1.00  0.00     0.167 HD
ATOM     59  C   UNL A   1      42.099  30.406  35.036  1.00  0.00     0.074 A 
ATOM     60  C   UNL A   1      42.436  30.879  36.363  1.00  0.00     0.031 C 
ATOM     61  C   UNL A   1      42.750  29.404  34.395  1.00  0.00     0.037 A 
BRANCH  48  62
ATOM     62  C   UNL A   1      40.444  28.051  28.822  1.00  0.00     0.064 A 
ATOM     63  C   UNL A   1      41.201  28.400  27.693  1.00  0.00     0.173 A 
ATOM     64  C   UNL A   1      39.759  26.827  28.797  1.00  0.00     0.173 A 
ATOM     65  F   UNL A   1      41.866  29.565  27.659  1.00  0.00    -0.203 F 
ATOM     66  C   UNL A   1      41.243  27.573  26.573  1.00  0.00     0.198 A 
ATOM     67  C   UNL A   1      39.833  25.986  27.689  1.00  0.00     0.198 A 
ATOM     68  F   UNL A   1      39.025  26.439  29.851  1.00  0.00    -0.203 F 
ATOM     69  F   UNL A   1      41.927  27.956  25.485  1.00  0.00    -0.200 F 
ATOM     70  C   UNL A   1      40.567  26.364  26.575  1.00  0.00     0.200 A 
ATOM     71  F   UNL A   1      39.191  24.810  27.699  1.00  0.00    -0.200 F 
ATOM     72  F   UNL A   1      40.615  25.566  25.500  1.00  0.00    -0.200 F 
ENDBRANCH  48  62
BRANCH  49  73
ATOM     73  C   UNL A   1      39.549  33.914  36.866  1.00  0.00     0.064 A 
ATOM     74  C   UNL A   1      38.784  33.480  37.958  1.00  0.00     0.173 A 
ATOM     75  C   UNL A   1      40.162  35.172  36.962  1.00  0.00     0.173 A 
ATOM     76  F   UNL A   1      38.163  32.292  37.909  1.00  0.00    -0.203 F 
ATOM     77  C   UNL A   1      38.616  34.282  39.085  1.00  0.00     0.198 A 
ATOM     78  C   UNL A   1      40.019  35.959  38.102  1.00  0.00     0.198 A 
ATOM     79  F   UNL A   1      40.911  35.633  35.949  1.00  0.00    -0.203 F 
ATOM     80  F   UNL A   1      37.835  33.863  40.091  1.00  0.00    -0.200 F 
ATOM     81  C   UNL A   1      39.238  35.518  39.159  1.00  0.00     0.200 A 
ATOM     82  F   UNL A   1      40.638  37.146  38.177  1.00  0.00    -0.200 F 
ATOM     83  F   UNL A   1      39.079  36.287  40.245  1.00  0.00    -0.200 F 
ENDBRANCH  49  73
BRANCH  61  84
ATOM     84  C   UNL A   1      43.921  28.778  35.098  1.00  0.00     0.064 A 
ATOM     85  C   UNL A   1      43.771  27.662  35.935  1.00  0.00     0.173 A 
ATOM     86  C   UNL A   1      45.217  29.277  34.896  1.00  0.00     0.173 A 
ATOM     87  F   UNL A   1      42.552  27.156  36.172  1.00  0.00    -0.203 F 
ATOM     88  C   UNL A   1      44.871  27.086  36.564  1.00  0.00     0.198 A 
ATOM     89  C   UNL A   1      46.319  28.677  35.498  1.00  0.00     0.198 A 
ATOM     90  F   UNL A   1      45.418  30.337  34.099  1.00  0.00    -0.203 F 
ATOM     91  F   UNL A   1      44.698  26.053  37.399  1.00  0.00    -0.200 F 
ATOM     92  C   UNL A   1      46.145  27.587  36.338  1.00  0.00     0.200 A 
ATOM     93  F   UNL A   1      47.550  29.152  35.264  1.00  0.00    -0.200 F 
ATOM     94  F   UNL A   1      47.203  27.025  36.935  1.00  0.00    -0.200 F 
ENDBRANCH  61  84
ENDBRANCH  35  36
ENDBRANCH  27  30
ENDBRANCH  25  26
ENDBRANCH   1  25
TORSDOF 14
ENDMDL
MODEL 2
REMARK VINA RESULT:     -12.2      0.453      1.672
REMARK SMILES CC[NH2+][C@]1(C(=O)NCCCNC(=O)c2ccc(-c3c4nc(c(-c5c(F)c(F)c(F)c(F)c5F)c5ccc([nH]5)c(-c5c(F)c(F)c(F)c(F)c5F)c5nc(c(-c6c(F)c(F)c(F)c(F)c6F)c6ccc3[nH]6)C=C5)C=C4)cc2)CC[C@@H](Sc2ccccc2C)C1
REMARK SMILES IDX 9 1 8 2 7 3 5 4 6 5 4 7 77 8 88 9 78 10 79 11 3 12 2 15 1 16
REMARK SMILES IDX 80 17 81 18 82 19 86 20 83 21 85 22 87 23 84 24 10 25 11 26
REMARK SMILES IDX 12 27 13 29 14 30 15 31 76 32 16 33 75 34 17 35 18 36 19 37
REMARK SMILES IDX 69 38 20 39 74 40 68 41 70 42 21 43 73 44 67 45 66 46 22 48
REMARK SMILES IDX 54 49 34 50 53 51 35 52 38 53 52 54 71 55 36 56 37 57 51 59
REMARK SMILES IDX 72 60 39 61 23 62 24 63 32 64 25 65 26 66 30 67 33 68 27 69
REMARK SMILES IDX 28 70 31 71 29 72 55 73 56 74 64 75 57 76 58 77 62 78 65 79
REMARK SMILES IDX 59 80 60 81 63 82 61 83 40 84 41 85 49 86 42 87 43 88 47 89
REMARK SMILES IDX 50 90 44 91 45 92 48 93 46 94
REMARK H PARENT 7 6 3 13 3 14 11 28 70 47 38 58
REMARK Flexibility Score: inf
ROOT
ATOM      1  C   UNL A   1      31.425  32.198  26.530  1.00  0.00     0.042 C 
ENDROOT
BRANCH   1   2
ATOM      2  C   UNL A   1      31.480  30.684  26.408  1.00  0.00     0.118 C 
BRANCH   2   3
ATOM      3  N   UNL A   1      32.015  30.239  25.133  1.00  0.00    -0.351 N 
ATOM      4  C   UNL A   1      32.533  29.039  24.733  1.00  0.00     0.281 C 
ATOM      5  O   UNL A   1      32.825  28.944  23.537  1.00  0.00    -0.268 OA
ATOM      6  H   UNL A   1      32.002  30.927  24.429  1.00  0.00     0.163 HD
BRANCH   4   7
ATOM      7  C   UNL A   1      32.737  27.865  25.732  1.00  0.00     0.176 C 
ATOM      8  C   UNL A   1      31.422  27.074  25.917  1.00  0.00     0.080 C 
ATOM      9  C   UNL A   1      33.640  26.775  25.120  1.00  0.00     0.094 C 
ATOM     10  C   UNL A   1      31.855  25.706  26.428  1.00  0.00     0.022 C 
ATOM     11  C   UNL A   1      33.195  25.447  25.741  1.00  0.00     0.058 C 
BRANCH   7  12
ATOM     12  N   UNL A   1      33.359  28.337  26.994  1.00  0.00    -0.334 N 
ATOM     13  H   UNL A   1      32.786  29.099  27.359  1.00  0.00     0.347 HD
ATOM     14  H   UNL A   1      33.402  27.521  27.603  1.00  0.00     0.347 HD
BRANCH  12  15
ATOM     15  C   UNL A   1      34.731  28.822  26.887  1.00  0.00     0.257 C 
ATOM     16  C   UNL A   1      34.871  30.073  27.751  1.00  0.00     0.071 C 
ENDBRANCH  12  15
ENDBRANCH   7  12
BRANCH  11  17
ATOM     17  S   UNL A   1      33.309  24.042  24.556  1.00  0.00    -0.122 SA
BRANCH  17  18
ATOM     18  C   UNL A   1      34.821  23.192  25.008  1.00  0.00     0.010 A 
ATOM     19  C   UNL A   1      35.942  24.006  25.256  1.00  0.00     0.015 A 
ATOM     20  C   UNL A   1      34.992  21.795  24.981  1.00  0.00    -0.038 A 
ATOM     21  C   UNL A   1      37.195  23.453  25.530  1.00  0.00     0.001 A 
ATOM     22  C   UNL A   1      36.254  21.253  25.302  1.00  0.00     0.004 A 
ATOM     23  C   UNL A   1      33.914  20.811  24.623  1.00  0.00     0.045 C 
ATOM     24  C   UNL A   1      37.347  22.073  25.567  1.00  0.00     0.000 A 
ENDBRANCH  17  18
ENDBRANCH  11  17
ENDBRANCH   4   7
ENDBRANCH   2   3
ENDBRANCH   1   2
BRANCH   1  25
ATOM     25  C   UNL A   1      32.572  32.799  27.325  1.00  0.00     0.118 C 
BRANCH  25  26
ATOM     26  N   UNL A   1      32.361  34.205  27.652  1.00  0.00    -0.352 N 
ATOM     27  C   UNL A   1      32.957  35.002  28.600  1.00  0.00     0.251 C 
ATOM     28  H   UNL A   1      31.680  34.657  27.104  1.00  0.00     0.163 HD
ATOM     29  O   UNL A   1      32.498  36.112  28.838  1.00  0.00    -0.269 OA
BRANCH  27  30
ATOM     30  C   UNL A   1      34.134  34.515  29.352  1.00  0.00     0.039 A 
ATOM     31  C   UNL A   1      33.946  33.964  30.623  1.00  0.00     0.014 A 
ATOM     32  C   UNL A   1      35.419  34.607  28.816  1.00  0.00     0.014 A 
ATOM     33  C   UNL A   1      35.035  33.426  31.312  1.00  0.00     0.010 A 
ATOM     34  C   UNL A   1      36.482  33.979  29.454  1.00  0.00     0.010 A 
ATOM     35  C   UNL A   1      36.304  33.384  30.710  1.00  0.00    -0.014 A 
BRANCH  35  36
ATOM     36  C   UNL A   1      37.458  32.726  31.375  1.00  0.00     0.031 A 
ATOM     37  C   UNL A   1      38.139  31.556  30.723  1.00  0.00     0.074 A 
ATOM     38  C   UNL A   1      37.841  33.135  32.601  1.00  0.00     0.049 A 
ATOM     39  N   UNL A   1      39.100  30.793  31.182  1.00  0.00    -0.248 NA
ATOM     40  C   UNL A   1      37.655  31.168  29.388  1.00  0.00     0.031 C 
ATOM     41  C   UNL A   1      37.228  34.225  33.362  1.00  0.00     0.029 A 
ATOM     42  N   UNL A   1      38.832  32.669  33.432  1.00  0.00    -0.354 N 
ATOM     43  C   UNL A   1      39.320  29.833  30.204  1.00  0.00     0.074 A 
ATOM     44  C   UNL A   1      38.353  30.068  29.154  1.00  0.00     0.031 C 
ATOM     45  C   UNL A   1      37.870  34.363  34.532  1.00  0.00     0.029 A 
ATOM     46  C   UNL A   1      38.908  33.341  34.628  1.00  0.00     0.049 A 
ATOM     47  H   UNL A   1      39.430  31.925  33.192  1.00  0.00     0.167 HD
ATOM     48  C   UNL A   1      40.261  28.859  30.171  1.00  0.00     0.037 A 
ATOM     49  C   UNL A   1      39.716  33.147  35.688  1.00  0.00     0.037 A 
ATOM     50  C   UNL A   1      41.235  28.645  31.209  1.00  0.00     0.049 A 
ATOM     51  C   UNL A   1      40.742  32.046  35.634  1.00  0.00     0.074 A 
ATOM     52  C   UNL A   1      42.269  27.726  31.245  1.00  0.00     0.029 A 
ATOM     53  N   UNL A   1      41.291  29.355  32.400  1.00  0.00    -0.354 N 
ATOM     54  N   UNL A   1      40.990  31.191  34.672  1.00  0.00    -0.248 NA
ATOM     55  C   UNL A   1      41.604  31.887  36.814  1.00  0.00     0.031 C 
ATOM     56  C   UNL A   1      42.913  27.839  32.481  1.00  0.00     0.029 A 
ATOM     57  C   UNL A   1      42.323  28.874  33.189  1.00  0.00     0.049 A 
ATOM     58  H   UNL A   1      40.686  30.091  32.648  1.00  0.00     0.167 HD
ATOM     59  C   UNL A   1      42.053  30.416  35.114  1.00  0.00     0.074 A 
ATOM     60  C   UNL A   1      42.413  30.913  36.426  1.00  0.00     0.031 C 
ATOM     61  C   UNL A   1      42.675  29.385  34.491  1.00  0.00     0.037 A 
BRANCH  48  62
ATOM     62  C   UNL A   1      40.284  27.951  28.975  1.00  0.00     0.064 A 
ATOM     63  C   UNL A   1      41.013  28.270  27.819  1.00  0.00     0.173 A 
ATOM     64  C   UNL A   1      39.595  26.728  28.997  1.00  0.00     0.173 A 
ATOM     65  F   UNL A   1      41.680  29.432  27.740  1.00  0.00    -0.203 F 
ATOM     66  C   UNL A   1      41.026  27.416  26.719  1.00  0.00     0.198 A 
ATOM     67  C   UNL A   1      39.640  25.860  27.909  1.00  0.00     0.198 A 
ATOM     68  F   UNL A   1      38.887  26.369  30.077  1.00  0.00    -0.203 F 
ATOM     69  F   UNL A   1      41.684  27.770  25.606  1.00  0.00    -0.200 F 
ATOM     70  C   UNL A   1      40.347  26.209  26.767  1.00  0.00     0.200 A 
ATOM     71  F   UNL A   1      38.996  24.686  27.963  1.00  0.00    -0.200 F 
ATOM     72  F   UNL A   1      40.367  25.384  25.712  1.00  0.00    -0.200 F 
ENDBRANCH  48  62
BRANCH  49  73
ATOM     73  C   UNL A   1      39.601  34.023  36.883  1.00  0.00     0.064 A 
ATOM     74  C   UNL A   1      40.272  35.253  36.944  1.00  0.00     0.173 A 
ATOM     75  C   UNL A   1      38.826  33.650  37.992  1.00  0.00     0.173 A 
ATOM     76  F   UNL A   1      41.040  35.646  35.917  1.00  0.00    -0.203 F 
ATOM     77  C   UNL A   1      40.195  36.062  38.076  1.00  0.00     0.198 A 
ATOM     78  C   UNL A   1      38.724  34.475  39.110  1.00  0.00     0.198 A 
ATOM     79  F   UNL A   1      38.158  32.487  37.985  1.00  0.00    -0.203 F 
ATOM     80  F   UNL A   1      40.891  37.206  38.126  1.00  0.00    -0.200 F 
ATOM     81  C   UNL A   1      39.417  35.675  39.155  1.00  0.00     0.200 A 
ATOM     82  F   UNL A   1      37.955  34.106  40.144  1.00  0.00    -0.200 F 
ATOM     83  F   UNL A   1      39.340  36.456  40.242  1.00  0.00    -0.200 F 
ENDBRANCH  49  73
BRANCH  61  84
ATOM     84  C   UNL A   1      43.839  28.750  35.198  1.00  0.00     0.064 A 
ATOM     85  C   UNL A   1      45.151  29.215  35.028  1.00  0.00     0.173 A 
ATOM     86  C   UNL A   1      43.630  27.687  36.091  1.00  0.00     0.173 A 
ATOM     87  F   UNL A   1      45.407  30.219  34.175  1.00  0.00    -0.203 F 
ATOM     88  C   UNL A   1      46.214  28.623  35.706  1.00  0.00     0.198 A 
ATOM     89  C   UNL A   1      44.689  27.122  36.794  1.00  0.00     0.198 A 
ATOM     90  F   UNL A   1      42.394  27.209  36.296  1.00  0.00    -0.203 F 
ATOM     91  F   UNL A   1      47.465  29.051  35.490  1.00  0.00    -0.200 F 
ATOM     92  C   UNL A   1      45.981  27.584  36.595  1.00  0.00     0.200 A 
ATOM     93  F   UNL A   1      44.460  26.129  37.665  1.00  0.00    -0.200 F 
ATOM     94  F   UNL A   1      47.004  27.024  37.254  1.00  0.00    -0.200 F 
ENDBRANCH  61  84
ENDBRANCH  35  36
ENDBRANCH  27  30
ENDBRANCH  25  26
ENDBRANCH   1  25
TORSDOF 14
ENDMDL
MODEL 3
REMARK VINA RESULT:     -12.1      5.549     10.667
REMARK SMILES CC[NH2+][C@]1(C(=O)NCCCNC(=O)c2ccc(-c3c4nc(c(-c5c(F)c(F)c(F)c(F)c5F)c5ccc([nH]5)c(-c5c(F)c(F)c(F)c(F)c5F)c5nc(c(-c6c(F)c(F)c(F)c(F)c6F)c6ccc3[nH]6)C=C5)C=C4)cc2)CC[C@@H](Sc2ccccc2C)C1
REMARK SMILES IDX 9 1 8 2 7 3 5 4 6 5 4 7 77 8 88 9 78 10 79 11 3 12 2 15 1 16
REMARK SMILES IDX 80 17 81 18 82 19 86 20 83 21 85 22 87 23 84 24 10 25 11 26
REMARK SMILES IDX 12 27 13 29 14 30 15 31 76 32 16 33 75 34 17 35 18 36 19 37
REMARK SMILES IDX 69 38 20 39 74 40 68 41 70 42 21 43 73 44 67 45 66 46 22 48
REMARK SMILES IDX 54 49 34 50 53 51 35 52 38 53 52 54 71 55 36 56 37 57 51 59
REMARK SMILES IDX 72 60 39 61 23 62 24 63 32 64 25 65 26 66 30 67 33 68 27 69
REMARK SMILES IDX 28 70 31 71 29 72 55 73 56 74 64 75 57 76 58 77 62 78 65 79
REMARK SMILES IDX 59 80 60 81 63 82 61 83 40 84 41 85 49 86 42 87 43 88 47 89
REMARK SMILES IDX 50 90 44 91 45 92 48 93 46 94
REMARK H PARENT 7 6 3 13 3 14 11 28 70 47 38 58
REMARK Flexibility Score: inf
ROOT
ATOM      1  C   UNL A   1      37.724  20.070  24.984  1.00  0.00     0.042 C 
ENDROOT
BRANCH   1   2
ATOM      2  C   UNL A   1      36.501  20.929  25.260  1.00  0.00     0.118 C 
BRANCH   2   3
ATOM      3  N   UNL A   1      36.184  21.830  24.165  1.00  0.00    -0.351 N 
ATOM      4  C   UNL A   1      35.078  22.587  23.901  1.00  0.00     0.281 C 
ATOM      5  O   UNL A   1      35.150  23.332  22.919  1.00  0.00    -0.268 OA
ATOM      6  H   UNL A   1      36.897  21.910  23.490  1.00  0.00     0.163 HD
BRANCH   4   7
ATOM      7  C   UNL A   1      33.806  22.511  24.792  1.00  0.00     0.176 C 
ATOM      8  C   UNL A   1      33.980  23.372  26.063  1.00  0.00     0.080 C 
ATOM      9  C   UNL A   1      32.621  23.233  24.120  1.00  0.00     0.094 C 
ATOM     10  C   UNL A   1      32.563  23.662  26.539  1.00  0.00     0.022 C 
ATOM     11  C   UNL A   1      31.742  23.768  25.254  1.00  0.00     0.058 C 
BRANCH   7  12
ATOM     12  N   UNL A   1      33.415  21.102  25.048  1.00  0.00    -0.334 N 
ATOM     13  H   UNL A   1      34.267  20.566  25.214  1.00  0.00     0.347 HD
ATOM     14  H   UNL A   1      32.780  21.131  25.845  1.00  0.00     0.347 HD
BRANCH  12  15
ATOM     15  C   UNL A   1      32.673  20.441  23.979  1.00  0.00     0.257 C 
ATOM     16  C   UNL A   1      32.566  18.956  24.310  1.00  0.00     0.071 C 
ENDBRANCH  12  15
ENDBRANCH   7  12
BRANCH  11  17
ATOM     17  S   UNL A   1      30.972  25.389  24.844  1.00  0.00    -0.122 SA
BRANCH  17  18
ATOM     18  C   UNL A   1      31.949  26.594  25.744  1.00  0.00     0.010 A 
ATOM     19  C   UNL A   1      31.322  27.204  26.846  1.00  0.00     0.015 A 
ATOM     20  C   UNL A   1      33.211  27.066  25.336  1.00  0.00    -0.038 A 
ATOM     21  C   UNL A   1      31.952  28.220  27.569  1.00  0.00     0.001 A 
ATOM     22  C   UNL A   1      33.850  28.062  26.103  1.00  0.00     0.004 A 
ATOM     23  C   UNL A   1      33.947  26.586  24.117  1.00  0.00     0.045 C 
ATOM     24  C   UNL A   1      33.224  28.639  27.205  1.00  0.00     0.000 A 
ENDBRANCH  17  18
ENDBRANCH  11  17
ENDBRANCH   4   7
ENDBRANCH   2   3
ENDBRANCH   1   2
BRANCH   1  25
ATOM     25  C   UNL A   1      38.960  20.479  25.768  1.00  0.00     0.118 C 
BRANCH  25  26
ATOM     26  N   UNL A   1      39.963  19.423  25.840  1.00  0.00    -0.352 N 
ATOM     27  C   UNL A   1      41.316  19.488  26.071  1.00  0.00     0.251 C 
ATOM     28  H   UNL A   1      39.613  18.513  25.698  1.00  0.00     0.163 HD
ATOM     29  O   UNL A   1      42.011  18.494  25.902  1.00  0.00    -0.269 OA
BRANCH  27  30
ATOM     30  C   UNL A   1      41.940  20.758  26.500  1.00  0.00     0.039 A 
ATOM     31  C   UNL A   1      42.348  21.675  25.526  1.00  0.00     0.014 A 
ATOM     32  C   UNL A   1      42.131  21.046  27.852  1.00  0.00     0.014 A 
ATOM     33  C   UNL A   1      42.864  22.913  25.916  1.00  0.00     0.010 A 
ATOM     34  C   UNL A   1      42.545  22.315  28.238  1.00  0.00     0.010 A 
ATOM     35  C   UNL A   1      42.920  23.262  27.275  1.00  0.00    -0.014 A 
BRANCH  35  36
ATOM     36  C   UNL A   1      43.367  24.610  27.714  1.00  0.00     0.031 A 
ATOM     37  C   UNL A   1      42.355  25.670  28.048  1.00  0.00     0.074 A 
ATOM     38  C   UNL A   1      44.682  24.901  27.734  1.00  0.00     0.049 A 
ATOM     39  N   UNL A   1      42.542  26.927  28.362  1.00  0.00    -0.248 NA
ATOM     40  C   UNL A   1      40.938  25.273  27.993  1.00  0.00     0.031 C 
ATOM     41  C   UNL A   1      45.761  23.975  27.382  1.00  0.00     0.029 A 
ATOM     42  N   UNL A   1      45.338  26.065  28.053  1.00  0.00    -0.354 N 
ATOM     43  C   UNL A   1      41.275  27.470  28.523  1.00  0.00     0.074 A 
ATOM     44  C   UNL A   1      40.324  26.425  28.213  1.00  0.00     0.031 C 
ATOM     45  C   UNL A   1      46.941  24.597  27.528  1.00  0.00     0.029 A 
ATOM     46  C   UNL A   1      46.704  25.977  27.937  1.00  0.00     0.049 A 
ATOM     47  H   UNL A   1      44.872  26.885  28.337  1.00  0.00     0.167 HD
ATOM     48  C   UNL A   1      40.933  28.719  28.919  1.00  0.00     0.037 A 
ATOM     49  C   UNL A   1      47.658  26.909  28.128  1.00  0.00     0.037 A 
ATOM     50  C   UNL A   1      41.885  29.748  29.248  1.00  0.00     0.049 A 
ATOM     51  C   UNL A   1      47.251  28.297  28.551  1.00  0.00     0.074 A 
ATOM     52  C   UNL A   1      41.644  31.027  29.719  1.00  0.00     0.029 A 
ATOM     53  N   UNL A   1      43.262  29.617  29.133  1.00  0.00    -0.354 N 
ATOM     54  N   UNL A   1      46.052  28.777  28.772  1.00  0.00    -0.248 NA
ATOM     55  C   UNL A   1      48.333  29.269  28.756  1.00  0.00     0.031 C 
ATOM     56  C   UNL A   1      42.870  31.689  29.831  1.00  0.00     0.029 A 
ATOM     57  C   UNL A   1      43.880  30.803  29.496  1.00  0.00     0.049 A 
ATOM     58  H   UNL A   1      43.730  28.803  28.837  1.00  0.00     0.167 HD
ATOM     59  C   UNL A   1      46.235  30.094  29.172  1.00  0.00     0.074 A 
ATOM     60  C   UNL A   1      47.664  30.332  29.177  1.00  0.00     0.031 C 
ATOM     61  C   UNL A   1      45.306  31.023  29.504  1.00  0.00     0.037 A 
BRANCH  48  62
ATOM     62  C   UNL A   1      39.470  29.044  29.021  1.00  0.00     0.064 A 
ATOM     63  C   UNL A   1      38.713  29.402  27.895  1.00  0.00     0.173 A 
ATOM     64  C   UNL A   1      38.808  28.960  30.255  1.00  0.00     0.173 A 
ATOM     65  F   UNL A   1      39.298  29.508  26.693  1.00  0.00    -0.203 F 
ATOM     66  C   UNL A   1      37.356  29.697  28.007  1.00  0.00     0.198 A 
ATOM     67  C   UNL A   1      37.443  29.221  30.357  1.00  0.00     0.198 A 
ATOM     68  F   UNL A   1      39.480  28.616  31.363  1.00  0.00    -0.203 F 
ATOM     69  F   UNL A   1      36.667  30.092  26.926  1.00  0.00    -0.200 F 
ATOM     70  C   UNL A   1      36.721  29.598  29.234  1.00  0.00     0.200 A 
ATOM     71  F   UNL A   1      36.827  29.109  31.541  1.00  0.00    -0.200 F 
ATOM     72  F   UNL A   1      35.414  29.873  29.338  1.00  0.00    -0.200 F 
ENDBRANCH  48  62
BRANCH  49  73
ATOM     73  C   UNL A   1      49.090  26.560  27.937  1.00  0.00     0.064 A 
ATOM     74  C   UNL A   1      49.917  26.281  29.035  1.00  0.00     0.173 A 
ATOM     75  C   UNL A   1      49.666  26.505  26.659  1.00  0.00     0.173 A 
ATOM     76  F   UNL A   1      49.418  26.339  30.279  1.00  0.00    -0.203 F 
ATOM     77  C   UNL A   1      51.268  25.986  28.864  1.00  0.00     0.198 A 
ATOM     78  C   UNL A   1      51.009  26.178  26.487  1.00  0.00     0.198 A 
ATOM     79  F   UNL A   1      48.919  26.756  25.574  1.00  0.00    -0.203 F 
ATOM     80  F   UNL A   1      52.045  25.777  29.935  1.00  0.00    -0.200 F 
ATOM     81  C   UNL A   1      51.812  25.930  27.590  1.00  0.00     0.200 A 
ATOM     82  F   UNL A   1      51.527  26.107  25.253  1.00  0.00    -0.200 F 
ATOM     83  F   UNL A   1      53.110  25.643  27.426  1.00  0.00    -0.200 F 
ENDBRANCH  49  73
BRANCH  61  84
ATOM     84  C   UNL A   1      45.801  32.371  29.944  1.00  0.00     0.064 A 
ATOM     85  C   UNL A   1      45.970  33.428  29.037  1.00  0.00     0.173 A 
ATOM     86  C   UNL A   1      46.068  32.620  31.299  1.00  0.00     0.173 A 
ATOM     87  F   UNL A   1      45.743  33.239  27.729  1.00  0.00    -0.203 F 
ATOM     88  C   UNL A   1      46.414  34.676  29.468  1.00  0.00     0.198 A 
ATOM     89  C   UNL A   1      46.477  33.877  31.731  1.00  0.00     0.198 A 
ATOM     90  F   UNL A   1      45.914  31.646  32.209  1.00  0.00    -0.203 F 
ATOM     91  F   UNL A   1      46.618  35.656  28.578  1.00  0.00    -0.200 F 
ATOM     92  C   UNL A   1      46.658  34.903  30.815  1.00  0.00     0.200 A 
ATOM     93  F   UNL A   1      46.695  34.099  33.035  1.00  0.00    -0.200 F 
ATOM     94  F   UNL A   1      47.074  36.106  31.228  1.00  0.00    -0.200 F 
ENDBRANCH  61  84
ENDBRANCH  35  36
ENDBRANCH  27  30
ENDBRANCH  25  26
ENDBRANCH   1  25
TORSDOF 14
ENDMDL
