MODEL 1
REMARK VINA RESULT:     -11.6      0.000      0.000
REMARK SMILES C[C@H](CC(=O)NCCCNC(=O)c1ccc(-c2c3nc(c(-c4c(F)c(F)c(F)c(F)c4F)c4ccc([nH]4)c(-c4c(F)c(F)c(F)c(F)c4F)c4nc(c(-c5c(F)c(F)c(F)c(F)c5F)c5ccc2[nH]5)C=C4)C=C3)cc1)c1ccc(O)cc1
REMARK SMILES IDX 7 1 6 2 4 3 5 4 3 6 2 7 1 8 76 9 77 10 82 11 78 12 81 13
REMARK SMILES IDX 79 14 80 15 8 17 9 18 10 19 11 20 12 22 13 23 14 24 75 25
REMARK SMILES IDX 15 26 74 27 16 28 17 29 18 30 68 31 19 32 73 33 67 34 69 35
REMARK SMILES IDX 20 36 72 37 66 38 65 39 21 41 53 42 33 43 52 44 34 45 37 46
REMARK SMILES IDX 51 47 70 48 35 49 36 50 50 52 71 53 38 54 22 55 23 56 31 57
REMARK SMILES IDX 24 58 25 59 29 60 32 61 26 62 27 63 30 64 28 65 54 66 55 67
REMARK SMILES IDX 63 68 56 69 57 70 61 71 64 72 58 73 59 74 62 75 60 76 39 77
REMARK SMILES IDX 40 78 48 79 41 80 42 81 46 82 49 83 43 84 44 85 47 86 45 87
REMARK H PARENT 6 5 80 16 10 21 69 40 37 51
REMARK Flexibility Score: inf
ROOT
ATOM      1  C   UNL A   1      31.346  30.872  26.185  1.00  0.00     0.117 C 
ENDROOT
BRANCH   1   2
ATOM      2  N   UNL A   1      32.526  30.222  26.722  1.00  0.00    -0.356 N 
ATOM      3  C   UNL A   1      32.731  28.946  27.152  1.00  0.00     0.220 C 
ATOM      4  O   UNL A   1      33.868  28.661  27.537  1.00  0.00    -0.275 OA
ATOM      5  H   UNL A   1      33.317  30.806  26.786  1.00  0.00     0.163 HD
BRANCH   3   6
ATOM      6  C   UNL A   1      31.629  27.891  27.131  1.00  0.00     0.108 C 
BRANCH   6   7
ATOM      7  C   UNL A   1      31.720  26.927  25.934  1.00  0.00     0.025 C 
ATOM      8  C   UNL A   1      30.729  25.749  26.055  1.00  0.00     0.013 C 
BRANCH   7   9
ATOM      9  C   UNL A   1      31.464  27.518  24.552  1.00  0.00    -0.044 A 
ATOM     10  C   UNL A   1      32.497  28.091  23.794  1.00  0.00     0.008 A 
ATOM     11  C   UNL A   1      30.133  27.703  24.135  1.00  0.00     0.008 A 
ATOM     12  C   UNL A   1      32.197  28.895  22.693  1.00  0.00     0.046 A 
ATOM     13  C   UNL A   1      29.836  28.510  23.036  1.00  0.00     0.046 A 
ATOM     14  C   UNL A   1      30.873  29.126  22.345  1.00  0.00     0.115 A 
BRANCH  14  15
ATOM     15  O   UNL A   1      30.622  30.003  21.333  1.00  0.00    -0.508 OA
ATOM     16  H   UNL A   1      31.063  29.909  20.512  1.00  0.00     0.293 HD
ENDBRANCH  14  15
ENDBRANCH   7   9
ENDBRANCH   6   7
ENDBRANCH   3   6
ENDBRANCH   1   2
BRANCH   1  17
ATOM     17  C   UNL A   1      31.306  32.365  26.514  1.00  0.00     0.042 C 
BRANCH  17  18
ATOM     18  C   UNL A   1      32.591  32.885  27.149  1.00  0.00     0.118 C 
BRANCH  18  19
ATOM     19  N   UNL A   1      32.443  34.253  27.624  1.00  0.00    -0.352 N 
ATOM     20  C   UNL A   1      33.048  34.902  28.673  1.00  0.00     0.251 C 
ATOM     21  H   UNL A   1      31.807  34.802  27.110  1.00  0.00     0.163 HD
ATOM     22  O   UNL A   1      32.599  35.980  29.049  1.00  0.00    -0.269 OA
BRANCH  20  23
ATOM     23  C   UNL A   1      34.225  34.323  29.366  1.00  0.00     0.039 A 
ATOM     24  C   UNL A   1      34.017  33.568  30.525  1.00  0.00     0.014 A 
ATOM     25  C   UNL A   1      35.530  34.574  28.933  1.00  0.00     0.014 A 
ATOM     26  C   UNL A   1      35.105  33.022  31.214  1.00  0.00     0.010 A 
ATOM     27  C   UNL A   1      36.609  33.970  29.576  1.00  0.00     0.010 A 
ATOM     28  C   UNL A   1      36.410  33.193  30.728  1.00  0.00    -0.014 A 
BRANCH  28  29
ATOM     29  C   UNL A   1      37.580  32.581  31.410  1.00  0.00     0.031 A 
ATOM     30  C   UNL A   1      38.315  31.436  30.774  1.00  0.00     0.074 A 
ATOM     31  C   UNL A   1      37.937  33.009  32.636  1.00  0.00     0.049 A 
ATOM     32  N   UNL A   1      39.292  30.707  31.254  1.00  0.00    -0.248 NA
ATOM     33  C   UNL A   1      37.878  31.041  29.427  1.00  0.00     0.031 C 
ATOM     34  C   UNL A   1      37.290  34.093  33.375  1.00  0.00     0.029 A 
ATOM     35  N   UNL A   1      38.927  32.575  33.482  1.00  0.00    -0.354 N 
ATOM     36  C   UNL A   1      39.567  29.755  30.281  1.00  0.00     0.074 A 
ATOM     37  C   UNL A   1      38.628  29.973  29.201  1.00  0.00     0.031 C 
ATOM     38  C   UNL A   1      37.914  34.257  34.551  1.00  0.00     0.029 A 
ATOM     39  C   UNL A   1      38.977  33.263  34.669  1.00  0.00     0.049 A 
ATOM     40  H   UNL A   1      39.543  31.840  33.259  1.00  0.00     0.167 HD
ATOM     41  C   UNL A   1      40.529  28.800  30.278  1.00  0.00     0.037 A 
ATOM     42  C   UNL A   1      39.783  33.105  35.736  1.00  0.00     0.037 A 
ATOM     43  C   UNL A   1      41.484  28.605  31.338  1.00  0.00     0.049 A 
ATOM     44  C   UNL A   1      40.823  32.021  35.723  1.00  0.00     0.074 A 
ATOM     45  C   UNL A   1      42.542  27.716  31.395  1.00  0.00     0.029 A 
ATOM     46  N   UNL A   1      41.489  29.311  32.532  1.00  0.00    -0.354 N 
ATOM     47  N   UNL A   1      41.109  31.162  34.776  1.00  0.00    -0.248 NA
ATOM     48  C   UNL A   1      41.648  31.881  36.930  1.00  0.00     0.031 C 
ATOM     49  C   UNL A   1      43.165  27.857  32.641  1.00  0.00     0.029 A 
ATOM     50  C   UNL A   1      42.517  28.859  33.345  1.00  0.00     0.049 A 
ATOM     51  H   UNL A   1      40.858  30.029  32.767  1.00  0.00     0.167 HD
ATOM     52  C   UNL A   1      42.157  30.393  35.261  1.00  0.00     0.074 A 
ATOM     53  C   UNL A   1      42.464  30.894  36.586  1.00  0.00     0.031 C 
ATOM     54  C   UNL A   1      42.806  29.364  34.663  1.00  0.00     0.037 A 
BRANCH  41  55
ATOM     55  C   UNL A   1      40.588  27.888  29.088  1.00  0.00     0.064 A 
ATOM     56  C   UNL A   1      41.458  28.133  28.014  1.00  0.00     0.173 A 
ATOM     57  C   UNL A   1      39.769  26.750  29.022  1.00  0.00     0.173 A 
ATOM     58  F   UNL A   1      42.253  29.212  28.024  1.00  0.00    -0.203 F 
ATOM     59  C   UNL A   1      41.478  27.295  26.902  1.00  0.00     0.198 A 
ATOM     60  C   UNL A   1      39.812  25.898  27.920  1.00  0.00     0.198 A 
ATOM     61  F   UNL A   1      38.924  26.466  30.024  1.00  0.00    -0.203 F 
ATOM     62  F   UNL A   1      42.276  27.581  25.863  1.00  0.00    -0.200 F 
ATOM     63  C   UNL A   1      40.658  26.177  26.857  1.00  0.00     0.200 A 
ATOM     64  F   UNL A   1      39.027  24.813  27.883  1.00  0.00    -0.200 F 
ATOM     65  F   UNL A   1      40.676  25.374  25.785  1.00  0.00    -0.200 F 
ENDBRANCH  41  55
BRANCH  42  66
ATOM     66  C   UNL A   1      39.652  34.023  36.895  1.00  0.00     0.064 A 
ATOM     67  C   UNL A   1      38.858  33.671  37.995  1.00  0.00     0.173 A 
ATOM     68  C   UNL A   1      40.332  35.248  36.942  1.00  0.00     0.173 A 
ATOM     69  F   UNL A   1      38.172  32.519  37.983  1.00  0.00    -0.203 F 
ATOM     70  C   UNL A   1      38.748  34.512  39.101  1.00  0.00     0.198 A 
ATOM     71  C   UNL A   1      40.240  36.077  38.058  1.00  0.00     0.198 A 
ATOM     72  F   UNL A   1      41.107  35.627  35.914  1.00  0.00    -0.203 F 
ATOM     73  F   UNL A   1      37.965  34.164  40.129  1.00  0.00    -0.200 F 
ATOM     74  C   UNL A   1      39.446  35.710  39.134  1.00  0.00     0.200 A 
ATOM     75  F   UNL A   1      40.924  37.229  38.092  1.00  0.00    -0.200 F 
ATOM     76  F   UNL A   1      39.351  36.513  40.203  1.00  0.00    -0.200 F 
ENDBRANCH  42  66
BRANCH  54  77
ATOM     77  C   UNL A   1      43.923  28.721  35.429  1.00  0.00     0.064 A 
ATOM     78  C   UNL A   1      43.684  27.667  36.323  1.00  0.00     0.173 A 
ATOM     79  C   UNL A   1      45.250  29.136  35.238  1.00  0.00     0.173 A 
ATOM     80  F   UNL A   1      42.431  27.248  36.552  1.00  0.00    -0.203 F 
ATOM     81  C   UNL A   1      44.733  27.062  37.010  1.00  0.00     0.198 A 
ATOM     82  C   UNL A   1      46.298  28.513  35.909  1.00  0.00     0.198 A 
ATOM     83  F   UNL A   1      45.528  30.139  34.392  1.00  0.00    -0.203 F 
ATOM     84  F   UNL A   1      44.480  26.081  37.888  1.00  0.00    -0.200 F 
ATOM     85  C   UNL A   1      46.038  27.480  36.797  1.00  0.00     0.200 A 
ATOM     86  F   UNL A   1      47.559  28.913  35.697  1.00  0.00    -0.200 F 
ATOM     87  F   UNL A   1      47.047  26.893  37.456  1.00  0.00    -0.200 F 
ENDBRANCH  54  77
ENDBRANCH  28  29
ENDBRANCH  20  23
ENDBRANCH  18  19
ENDBRANCH  17  18
ENDBRANCH   1  17
TORSDOF 13
ENDMDL
MODEL 2
REMARK VINA RESULT:     -11.4      6.116     11.528
REMARK SMILES C[C@H](CC(=O)NCCCNC(=O)c1ccc(-c2c3nc(c(-c4c(F)c(F)c(F)c(F)c4F)c4ccc([nH]4)c(-c4c(F)c(F)c(F)c(F)c4F)c4nc(c(-c5c(F)c(F)c(F)c(F)c5F)c5ccc2[nH]5)C=C4)C=C3)cc1)c1ccc(O)cc1
REMARK SMILES IDX 7 1 6 2 4 3 5 4 3 6 2 7 1 8 76 9 77 10 82 11 78 12 81 13
REMARK SMILES IDX 79 14 80 15 8 17 9 18 10 19 11 20 12 22 13 23 14 24 75 25
REMARK SMILES IDX 15 26 74 27 16 28 17 29 18 30 68 31 19 32 73 33 67 34 69 35
REMARK SMILES IDX 20 36 72 37 66 38 65 39 21 41 53 42 33 43 52 44 34 45 37 46
REMARK SMILES IDX 51 47 70 48 35 49 36 50 50 52 71 53 38 54 22 55 23 56 31 57
REMARK SMILES IDX 24 58 25 59 29 60 32 61 26 62 27 63 30 64 28 65 54 66 55 67
REMARK SMILES IDX 63 68 56 69 57 70 61 71 64 72 58 73 59 74 62 75 60 76 39 77
REMARK SMILES IDX 40 78 48 79 41 80 42 81 46 82 49 83 43 84 44 85 47 86 45 87
REMARK H PARENT 6 5 80 16 10 21 69 40 37 51
REMARK Flexibility Score: inf
ROOT
ATOM      1  C   UNL A   1      37.460  20.825  24.626  1.00  0.00     0.117 C 
ENDROOT
BRANCH   1   2
ATOM      2  N   UNL A   1      38.079  22.065  25.056  1.00  0.00    -0.356 N 
ATOM      3  C   UNL A   1      37.566  23.146  25.706  1.00  0.00     0.220 C 
ATOM      4  O   UNL A   1      38.348  24.061  25.975  1.00  0.00    -0.275 OA
ATOM      5  H   UNL A   1      39.038  22.136  24.841  1.00  0.00     0.163 HD
BRANCH   3   6
ATOM      6  C   UNL A   1      36.101  23.226  26.127  1.00  0.00     0.108 C 
BRANCH   6   7
ATOM      7  C   UNL A   1      35.261  24.181  25.258  1.00  0.00     0.025 C 
ATOM      8  C   UNL A   1      34.884  23.555  23.899  1.00  0.00     0.013 C 
BRANCH   7   9
ATOM      9  C   UNL A   1      33.943  24.669  25.848  1.00  0.00    -0.044 A 
ATOM     10  C   UNL A   1      32.946  23.774  26.266  1.00  0.00     0.008 A 
ATOM     11  C   UNL A   1      33.629  26.037  25.753  1.00  0.00     0.008 A 
ATOM     12  C   UNL A   1      31.648  24.228  26.503  1.00  0.00     0.046 A 
ATOM     13  C   UNL A   1      32.330  26.489  25.986  1.00  0.00     0.046 A 
ATOM     14  C   UNL A   1      31.343  25.572  26.328  1.00  0.00     0.115 A 
BRANCH  14  15
ATOM     15  O   UNL A   1      30.041  25.953  26.463  1.00  0.00    -0.508 OA
ATOM     16  H   UNL A   1      29.830  26.748  26.912  1.00  0.00     0.293 HD
ENDBRANCH  14  15
ENDBRANCH   7   9
ENDBRANCH   6   7
ENDBRANCH   3   6
ENDBRANCH   1   2
BRANCH   1  17
ATOM     17  C   UNL A   1      38.302  19.601  24.989  1.00  0.00     0.042 C 
BRANCH  17  18
ATOM     18  C   UNL A   1      39.250  19.836  26.160  1.00  0.00     0.118 C 
BRANCH  18  19
ATOM     19  N   UNL A   1      40.418  18.970  26.091  1.00  0.00    -0.352 N 
ATOM     20  C   UNL A   1      41.756  19.281  26.055  1.00  0.00     0.251 C 
ATOM     21  H   UNL A   1      40.217  18.007  26.066  1.00  0.00     0.163 HD
ATOM     22  O   UNL A   1      42.565  18.410  25.751  1.00  0.00    -0.269 OA
BRANCH  20  23
ATOM     23  C   UNL A   1      42.242  20.647  26.367  1.00  0.00     0.039 A 
ATOM     24  C   UNL A   1      42.445  21.545  25.312  1.00  0.00     0.014 A 
ATOM     25  C   UNL A   1      42.569  21.032  27.670  1.00  0.00     0.014 A 
ATOM     26  C   UNL A   1      42.919  22.835  25.568  1.00  0.00     0.010 A 
ATOM     27  C   UNL A   1      42.972  22.340  27.934  1.00  0.00     0.010 A 
ATOM     28  C   UNL A   1      43.159  23.255  26.885  1.00  0.00    -0.014 A 
BRANCH  28  29
ATOM     29  C   UNL A   1      43.613  24.636  27.190  1.00  0.00     0.031 A 
ATOM     30  C   UNL A   1      42.646  25.651  27.732  1.00  0.00     0.074 A 
ATOM     31  C   UNL A   1      44.881  24.999  26.913  1.00  0.00     0.049 A 
ATOM     32  N   UNL A   1      42.826  26.927  27.965  1.00  0.00    -0.248 NA
ATOM     33  C   UNL A   1      41.288  25.172  28.027  1.00  0.00     0.031 C 
ATOM     34  C   UNL A   1      45.910  24.118  26.360  1.00  0.00     0.029 A 
ATOM     35  N   UNL A   1      45.515  26.209  27.047  1.00  0.00    -0.354 N 
ATOM     36  C   UNL A   1      41.601  27.406  28.411  1.00  0.00     0.074 A 
ATOM     37  C   UNL A   1      40.675  26.294  28.375  1.00  0.00     0.031 C 
ATOM     38  C   UNL A   1      47.053  24.809  26.227  1.00  0.00     0.029 A 
ATOM     39  C   UNL A   1      46.826  26.190  26.644  1.00  0.00     0.049 A 
ATOM     40  H   UNL A   1      45.071  27.014  27.401  1.00  0.00     0.167 HD
ATOM     41  C   UNL A   1      41.281  28.654  28.830  1.00  0.00     0.037 A 
ATOM     42  C   UNL A   1      47.742  27.177  26.604  1.00  0.00     0.037 A 
ATOM     43  C   UNL A   1      42.210  29.752  28.896  1.00  0.00     0.049 A 
ATOM     44  C   UNL A   1      47.357  28.560  27.048  1.00  0.00     0.074 A 
ATOM     45  C   UNL A   1      42.002  31.032  29.378  1.00  0.00     0.029 A 
ATOM     46  N   UNL A   1      43.526  29.697  28.460  1.00  0.00    -0.354 N 
ATOM     47  N   UNL A   1      46.211  28.989  27.516  1.00  0.00    -0.248 NA
ATOM     48  C   UNL A   1      48.393  29.598  26.950  1.00  0.00     0.031 C 
ATOM     49  C   UNL A   1      43.182  31.765  29.197  1.00  0.00     0.029 A 
ATOM     50  C   UNL A   1      44.135  30.930  28.637  1.00  0.00     0.049 A 
ATOM     51  H   UNL A   1      43.963  28.900  28.083  1.00  0.00     0.167 HD
ATOM     52  C   UNL A   1      46.390  30.337  27.787  1.00  0.00     0.074 A 
ATOM     53  C   UNL A   1      47.760  30.655  27.440  1.00  0.00     0.031 C 
ATOM     54  C   UNL A   1      45.498  31.232  28.280  1.00  0.00     0.037 A 
BRANCH  41  55
ATOM     55  C   UNL A   1      39.859  28.897  29.246  1.00  0.00     0.064 A 
ATOM     56  C   UNL A   1      39.435  28.700  30.569  1.00  0.00     0.173 A 
ATOM     57  C   UNL A   1      38.910  29.338  28.311  1.00  0.00     0.173 A 
ATOM     58  F   UNL A   1      40.300  28.269  31.498  1.00  0.00    -0.203 F 
ATOM     59  C   UNL A   1      38.104  28.898  30.932  1.00  0.00     0.198 A 
ATOM     60  C   UNL A   1      37.587  29.563  28.684  1.00  0.00     0.198 A 
ATOM     61  F   UNL A   1      39.264  29.549  27.034  1.00  0.00    -0.203 F 
ATOM     62  F   UNL A   1      37.710  28.648  32.188  1.00  0.00    -0.200 F 
ATOM     63  C   UNL A   1      37.183  29.332  29.990  1.00  0.00     0.200 A 
ATOM     64  F   UNL A   1      36.700  29.993  27.776  1.00  0.00    -0.200 F 
ATOM     65  F   UNL A   1      35.903  29.518  30.340  1.00  0.00    -0.200 F 
ENDBRANCH  41  55
BRANCH  42  66
ATOM     66  C   UNL A   1      49.124  26.876  26.154  1.00  0.00     0.064 A 
ATOM     67  C   UNL A   1      50.077  26.391  27.059  1.00  0.00     0.173 A 
ATOM     68  C   UNL A   1      49.511  27.037  24.816  1.00  0.00     0.173 A 
ATOM     69  F   UNL A   1      49.756  26.243  28.352  1.00  0.00    -0.203 F 
ATOM     70  C   UNL A   1      51.369  26.079  26.643  1.00  0.00     0.198 A 
ATOM     71  C   UNL A   1      50.797  26.703  24.396  1.00  0.00     0.198 A 
ATOM     72  F   UNL A   1      48.633  27.495  23.912  1.00  0.00    -0.203 F 
ATOM     73  F   UNL A   1      52.269  25.639  27.532  1.00  0.00    -0.200 F 
ATOM     74  C   UNL A   1      51.726  26.227  25.311  1.00  0.00     0.200 A 
ATOM     75  F   UNL A   1      51.135  26.837  23.106  1.00  0.00    -0.200 F 
ATOM     76  F   UNL A   1      52.965  25.915  24.908  1.00  0.00    -0.200 F 
ENDBRANCH  42  66
BRANCH  54  77
ATOM     77  C   UNL A   1      45.981  32.636  28.488  1.00  0.00     0.064 A 
ATOM     78  C   UNL A   1      46.593  33.029  29.686  1.00  0.00     0.173 A 
ATOM     79  C   UNL A   1      45.866  33.588  27.462  1.00  0.00     0.173 A 
ATOM     80  F   UNL A   1      46.708  32.160  30.701  1.00  0.00    -0.203 F 
ATOM     81  C   UNL A   1      47.059  34.330  29.858  1.00  0.00     0.198 A 
ATOM     82  C   UNL A   1      46.356  34.880  27.628  1.00  0.00     0.198 A 
ATOM     83  F   UNL A   1      45.291  33.259  26.297  1.00  0.00    -0.203 F 
ATOM     84  F   UNL A   1      47.608  34.695  31.025  1.00  0.00    -0.200 F 
ATOM     85  C   UNL A   1      46.947  35.251  28.827  1.00  0.00     0.200 A 
ATOM     86  F   UNL A   1      46.253  35.767  26.629  1.00  0.00    -0.200 F 
ATOM     87  F   UNL A   1      47.402  36.501  28.992  1.00  0.00    -0.200 F 
ENDBRANCH  54  77
ENDBRANCH  28  29
ENDBRANCH  20  23
ENDBRANCH  18  19
ENDBRANCH  17  18
ENDBRANCH   1  17
TORSDOF 13
ENDMDL
MODEL 3
REMARK VINA RESULT:     -11.4      5.009      9.491
REMARK SMILES C[C@H](CC(=O)NCCCNC(=O)c1ccc(-c2c3nc(c(-c4c(F)c(F)c(F)c(F)c4F)c4ccc([nH]4)c(-c4c(F)c(F)c(F)c(F)c4F)c4nc(c(-c5c(F)c(F)c(F)c(F)c5F)c5ccc2[nH]5)C=C4)C=C3)cc1)c1ccc(O)cc1
REMARK SMILES IDX 7 1 6 2 4 3 5 4 3 6 2 7 1 8 76 9 77 10 82 11 78 12 81 13
REMARK SMILES IDX 79 14 80 15 8 17 9 18 10 19 11 20 12 22 13 23 14 24 75 25
REMARK SMILES IDX 15 26 74 27 16 28 17 29 18 30 68 31 19 32 73 33 67 34 69 35
REMARK SMILES IDX 20 36 72 37 66 38 65 39 21 41 53 42 33 43 52 44 34 45 37 46
REMARK SMILES IDX 51 47 70 48 35 49 36 50 50 52 71 53 38 54 22 55 23 56 31 57
REMARK SMILES IDX 24 58 25 59 29 60 32 61 26 62 27 63 30 64 28 65 54 66 55 67
REMARK SMILES IDX 63 68 56 69 57 70 61 71 64 72 58 73 59 74 62 75 60 76 39 77
REMARK SMILES IDX 40 78 48 79 41 80 42 81 46 82 49 83 43 84 44 85 47 86 45 87
REMARK H PARENT 6 5 80 16 10 21 69 40 37 51
REMARK Flexibility Score: inf
ROOT
ATOM      1  C   UNL A   1      42.766  21.395  28.010  1.00  0.00     0.117 C 
ENDROOT
BRANCH   1   2
ATOM      2  N   UNL A   1      43.170  22.255  29.106  1.00  0.00    -0.356 N 
ATOM      3  C   UNL A   1      44.221  23.112  29.233  1.00  0.00     0.220 C 
ATOM      4  O   UNL A   1      44.301  23.747  30.288  1.00  0.00    -0.275 OA
ATOM      5  H   UNL A   1      42.582  22.211  29.895  1.00  0.00     0.163 HD
BRANCH   3   6
ATOM      6  C   UNL A   1      45.245  23.320  28.120  1.00  0.00     0.108 C 
BRANCH   6   7
ATOM      7  C   UNL A   1      45.715  24.780  27.979  1.00  0.00     0.025 C 
ATOM      8  C   UNL A   1      47.243  24.886  27.791  1.00  0.00     0.013 C 
BRANCH   7   9
ATOM      9  C   UNL A   1      45.118  25.588  26.833  1.00  0.00    -0.044 A 
ATOM     10  C   UNL A   1      45.295  26.978  26.742  1.00  0.00     0.008 A 
ATOM     11  C   UNL A   1      44.181  24.967  25.987  1.00  0.00     0.008 A 
ATOM     12  C   UNL A   1      44.496  27.733  25.883  1.00  0.00     0.046 A 
ATOM     13  C   UNL A   1      43.380  25.724  25.132  1.00  0.00     0.046 A 
ATOM     14  C   UNL A   1      43.525  27.107  25.113  1.00  0.00     0.115 A 
BRANCH  14  15
ATOM     15  O   UNL A   1      42.694  27.892  24.371  1.00  0.00    -0.508 OA
ATOM     16  H   UNL A   1      41.765  27.803  24.455  1.00  0.00     0.293 HD
ENDBRANCH  14  15
ENDBRANCH   7   9
ENDBRANCH   6   7
ENDBRANCH   3   6
ENDBRANCH   1   2
BRANCH   1  17
ATOM     17  C   UNL A   1      41.307  21.617  27.608  1.00  0.00     0.042 C 
BRANCH  17  18
ATOM     18  C   UNL A   1      41.136  22.128  26.182  1.00  0.00     0.118 C 
BRANCH  18  19
ATOM     19  N   UNL A   1      39.732  22.285  25.829  1.00  0.00    -0.352 N 
ATOM     20  C   UNL A   1      38.815  23.227  26.228  1.00  0.00     0.251 C 
ATOM     21  H   UNL A   1      39.385  21.608  25.204  1.00  0.00     0.163 HD
ATOM     22  O   UNL A   1      37.624  23.034  26.003  1.00  0.00    -0.269 OA
BRANCH  20  23
ATOM     23  C   UNL A   1      39.231  24.465  26.931  1.00  0.00     0.039 A 
ATOM     24  C   UNL A   1      38.886  24.620  28.278  1.00  0.00     0.014 A 
ATOM     25  C   UNL A   1      39.889  25.502  26.265  1.00  0.00     0.014 A 
ATOM     26  C   UNL A   1      39.247  25.782  28.967  1.00  0.00     0.010 A 
ATOM     27  C   UNL A   1      40.313  26.628  26.969  1.00  0.00     0.010 A 
ATOM     28  C   UNL A   1      39.990  26.785  28.326  1.00  0.00    -0.014 A 
BRANCH  28  29
ATOM     29  C   UNL A   1      40.432  28.006  29.048  1.00  0.00     0.031 A 
ATOM     30  C   UNL A   1      41.833  28.108  29.580  1.00  0.00     0.074 A 
ATOM     31  C   UNL A   1      39.550  28.995  29.289  1.00  0.00     0.049 A 
ATOM     32  N   UNL A   1      42.375  29.044  30.319  1.00  0.00    -0.248 NA
ATOM     33  C   UNL A   1      42.741  26.997  29.258  1.00  0.00     0.031 C 
ATOM     34  C   UNL A   1      38.154  29.008  28.851  1.00  0.00     0.029 A 
ATOM     35  N   UNL A   1      39.695  30.177  29.971  1.00  0.00    -0.354 N 
ATOM     36  C   UNL A   1      43.675  28.623  30.569  1.00  0.00     0.074 A 
ATOM     37  C   UNL A   1      43.828  27.329  29.939  1.00  0.00     0.031 C 
ATOM     38  C   UNL A   1      37.578  30.151  29.253  1.00  0.00     0.029 A 
ATOM     39  C   UNL A   1      38.550  30.933  30.012  1.00  0.00     0.049 A 
ATOM     40  H   UNL A   1      40.541  30.457  30.391  1.00  0.00     0.167 HD
ATOM     41  C   UNL A   1      44.658  29.266  31.245  1.00  0.00     0.037 A 
ATOM     42  C   UNL A   1      38.307  32.118  30.603  1.00  0.00     0.037 A 
ATOM     43  C   UNL A   1      44.515  30.568  31.844  1.00  0.00     0.049 A 
ATOM     44  C   UNL A   1      39.404  32.800  31.371  1.00  0.00     0.074 A 
ATOM     45  C   UNL A   1      45.473  31.335  32.483  1.00  0.00     0.029 A 
ATOM     46  N   UNL A   1      43.333  31.293  31.880  1.00  0.00    -0.354 N 
ATOM     47  N   UNL A   1      40.644  32.417  31.557  1.00  0.00    -0.248 NA
ATOM     48  C   UNL A   1      39.065  34.075  32.018  1.00  0.00     0.031 C 
ATOM     49  C   UNL A   1      44.860  32.507  32.941  1.00  0.00     0.029 A 
ATOM     50  C   UNL A   1      43.530  32.487  32.554  1.00  0.00     0.049 A 
ATOM     51  H   UNL A   1      42.481  31.003  31.483  1.00  0.00     0.167 HD
ATOM     52  C   UNL A   1      41.238  33.409  32.323  1.00  0.00     0.074 A 
ATOM     53  C   UNL A   1      40.225  34.418  32.560  1.00  0.00     0.031 C 
ATOM     54  C   UNL A   1      42.510  33.478  32.788  1.00  0.00     0.037 A 
BRANCH  41  55
ATOM     55  C   UNL A   1      45.976  28.561  31.377  1.00  0.00     0.064 A 
ATOM     56  C   UNL A   1      46.308  27.826  32.525  1.00  0.00     0.173 A 
ATOM     57  C   UNL A   1      46.918  28.613  30.338  1.00  0.00     0.173 A 
ATOM     58  F   UNL A   1      45.447  27.753  33.551  1.00  0.00    -0.203 F 
ATOM     59  C   UNL A   1      47.548  27.204  32.646  1.00  0.00     0.198 A 
ATOM     60  C   UNL A   1      48.147  27.966  30.449  1.00  0.00     0.198 A 
ATOM     61  F   UNL A   1      46.649  29.296  29.215  1.00  0.00    -0.203 F 
ATOM     62  F   UNL A   1      47.865  26.557  33.776  1.00  0.00    -0.200 F 
ATOM     63  C   UNL A   1      48.465  27.272  31.607  1.00  0.00     0.200 A 
ATOM     64  F   UNL A   1      49.027  28.024  29.441  1.00  0.00    -0.200 F 
ATOM     65  F   UNL A   1      49.659  26.677  31.725  1.00  0.00    -0.200 F 
ENDBRANCH  41  55
BRANCH  42  66
ATOM     66  C   UNL A   1      36.971  32.748  30.460  1.00  0.00     0.064 A 
ATOM     67  C   UNL A   1      36.016  32.630  31.479  1.00  0.00     0.173 A 
ATOM     68  C   UNL A   1      36.630  33.498  29.325  1.00  0.00     0.173 A 
ATOM     69  F   UNL A   1      36.291  31.904  32.571  1.00  0.00    -0.203 F 
ATOM     70  C   UNL A   1      34.768  33.239  31.368  1.00  0.00     0.198 A 
ATOM     71  C   UNL A   1      35.390  34.125  29.226  1.00  0.00     0.198 A 
ATOM     72  F   UNL A   1      37.512  33.642  28.325  1.00  0.00    -0.203 F 
ATOM     73  F   UNL A   1      33.864  33.092  32.345  1.00  0.00    -0.200 F 
ATOM     74  C   UNL A   1      34.459  33.992  30.245  1.00  0.00     0.200 A 
ATOM     75  F   UNL A   1      35.099  34.862  28.145  1.00  0.00    -0.200 F 
ATOM     76  F   UNL A   1      33.263  34.589  30.144  1.00  0.00    -0.200 F 
ENDBRANCH  42  66
BRANCH  54  77
ATOM     77  C   UNL A   1      42.882  34.691  33.587  1.00  0.00     0.064 A 
ATOM     78  C   UNL A   1      42.869  34.675  34.989  1.00  0.00     0.173 A 
ATOM     79  C   UNL A   1      43.295  35.868  32.945  1.00  0.00     0.173 A 
ATOM     80  F   UNL A   1      42.464  33.578  35.647  1.00  0.00    -0.203 F 
ATOM     81  C   UNL A   1      43.240  35.800  35.720  1.00  0.00     0.198 A 
ATOM     82  C   UNL A   1      43.689  36.983  33.679  1.00  0.00     0.198 A 
ATOM     83  F   UNL A   1      43.327  35.931  31.606  1.00  0.00    -0.203 F 
ATOM     84  F   UNL A   1      43.185  35.776  37.059  1.00  0.00    -0.200 F 
ATOM     85  C   UNL A   1      43.656  36.950  35.065  1.00  0.00     0.200 A 
ATOM     86  F   UNL A   1      44.098  38.091  33.045  1.00  0.00    -0.200 F 
ATOM     87  F   UNL A   1      44.019  38.030  35.770  1.00  0.00    -0.200 F 
ENDBRANCH  54  77
ENDBRANCH  28  29
ENDBRANCH  20  23
ENDBRANCH  18  19
ENDBRANCH  17  18
ENDBRANCH   1  17
TORSDOF 13
ENDMDL
