MODEL 1
REMARK VINA RESULT:     -11.6      0.000      0.000
REMARK SMILES CCN1C(NCCCNC(=O)c2ccc(-c3c4nc(c(-c5c(F)c(F)c(F)c(F)c5F)c5ccc([nH]5)c(-c5c(F)c(F)c(F)c(F)c5F)c5nc(c(-c6c(F)c(F)c(F)c(F)c6F)c6ccc3[nH]6)C=C5)C=C4)cc2)=[NH+]C(O)=C2C1=[NH+]C1=C(C(=O)c3ccccc31)[C@H]2c1ccc(C(=O)[O-])cc1
REMARK SMILES IDX 7 1 6 2 5 3 3 4 4 5 79 6 75 7 78 8 80 9 76 11 91 13 81 14
REMARK SMILES IDX 82 16 90 17 83 18 85 19 89 20 84 21 86 22 88 23 87 24 2 25
REMARK SMILES IDX 1 26 77 27 92 29 93 30 100 31 94 32 99 33 95 34 96 35 97 36
REMARK SMILES IDX 98 37 8 38 9 39 10 40 11 42 12 43 13 44 74 45 14 46 73 47
REMARK SMILES IDX 15 48 16 49 17 50 67 51 18 52 72 53 66 54 68 55 19 56 71 57
REMARK SMILES IDX 65 58 64 59 20 61 52 62 32 63 51 64 33 65 36 66 50 67 69 68
REMARK SMILES IDX 34 69 35 70 49 72 70 73 37 74 21 75 22 76 30 77 23 78 24 79
REMARK SMILES IDX 28 80 31 81 25 82 26 83 29 84 27 85 53 86 54 87 62 88 55 89
REMARK SMILES IDX 56 90 60 91 63 92 57 93 58 94 61 95 59 96 38 97 39 98 47 99
REMARK SMILES IDX 40 100 41 101 45 102 48 103 42 104 43 105 46 106 44 107
REMARK H PARENT 5 10 75 12 80 15 77 28 9 41 68 60 36 71
REMARK Flexibility Score: inf
ROOT
ATOM      1  C   UNL A   1      49.190  26.029  34.231  1.00  0.00     0.059 C 
ENDROOT
BRANCH   1   2
ATOM      2  C   UNL A   1      48.543  25.702  32.898  1.00  0.00     0.199 C 
BRANCH   2   3
ATOM      3  N   UNL A   1      49.187  26.518  31.890  1.00  0.00    -0.270 N 
ATOM      4  N   UNL A   1      47.902  26.581  29.963  1.00  0.00    -0.171 N 
ATOM      5  C   UNL A   1      49.058  26.151  30.596  1.00  0.00     0.389 C 
ATOM      6  C   UNL A   1      47.711  25.870  28.764  1.00  0.00     0.295 C 
ATOM      7  N   UNL A   1      49.973  25.424  30.006  1.00  0.00    -0.207 N 
ATOM      8  C   UNL A   1      48.954  26.021  27.920  1.00  0.00     0.130 C 
ATOM      9  N   UNL A   1      46.765  25.021  28.380  1.00  0.00    -0.239 N 
ATOM     10  H   UNL A   1      49.704  27.318  32.140  1.00  0.00     0.260 HD
ATOM     11  C   UNL A   1      49.784  25.245  28.644  1.00  0.00     0.265 C 
ATOM     12  H   UNL A   1      50.737  25.036  30.491  1.00  0.00     0.271 HD
ATOM     13  C   UNL A   1      48.529  26.277  26.517  1.00  0.00     0.103 C 
ATOM     14  C   UNL A   1      46.896  24.526  27.064  1.00  0.00     0.141 C 
ATOM     15  H   UNL A   1      46.024  24.755  28.971  1.00  0.00     0.312 HD
ATOM     16  C   UNL A   1      47.658  25.165  26.156  1.00  0.00     0.060 C 
ATOM     17  C   UNL A   1      46.053  23.602  26.282  1.00  0.00     0.033 A 
ATOM     18  C   UNL A   1      47.260  24.881  24.788  1.00  0.00     0.195 C 
ATOM     19  C   UNL A   1      46.206  23.902  24.918  1.00  0.00     0.034 A 
ATOM     20  C   UNL A   1      45.265  22.511  26.593  1.00  0.00     0.013 A 
ATOM     21  O   UNL A   1      47.687  25.388  23.782  1.00  0.00    -0.289 OA
ATOM     22  C   UNL A   1      45.543  23.299  23.868  1.00  0.00     0.013 A 
ATOM     23  C   UNL A   1      44.633  21.810  25.537  1.00  0.00     0.001 A 
ATOM     24  C   UNL A   1      44.740  22.224  24.193  1.00  0.00     0.001 A 
BRANCH   4  25
ATOM     25  C   UNL A   1      47.820  28.073  29.799  1.00  0.00     0.246 C 
ATOM     26  C   UNL A   1      46.511  28.768  30.148  1.00  0.00     0.055 C 
ENDBRANCH   4  25
BRANCH  11  27
ATOM     27  O   UNL A   1      50.174  24.019  28.169  1.00  0.00    -0.483 OA
ATOM     28  H   UNL A   1      49.851  23.712  27.344  1.00  0.00     0.296 HD
ENDBRANCH  11  27
BRANCH  13  29
ATOM     29  C   UNL A   1      47.740  27.620  26.437  1.00  0.00    -0.035 A 
ATOM     30  C   UNL A   1      46.321  27.644  26.351  1.00  0.00     0.005 A 
ATOM     31  C   UNL A   1      48.397  28.843  26.600  1.00  0.00     0.005 A 
ATOM     32  C   UNL A   1      45.588  28.818  26.459  1.00  0.00     0.010 A 
ATOM     33  C   UNL A   1      47.658  30.035  26.689  1.00  0.00     0.010 A 
ATOM     34  C   UNL A   1      46.256  30.022  26.625  1.00  0.00    -0.003 A 
BRANCH  34  35
ATOM     35  C   UNL A   1      45.422  31.237  26.739  1.00  0.00     0.071 C 
ATOM     36  O   UNL A   1      44.717  31.532  27.686  1.00  0.00    -0.545 OA
ATOM     37  O   UNL A   1      45.495  32.018  25.651  1.00  0.00    -0.545 OA
ENDBRANCH  34  35
ENDBRANCH  13  29
ENDBRANCH   2   3
ENDBRANCH   1   2
BRANCH   1  38
ATOM     38  C   UNL A   1      48.411  25.369  35.357  1.00  0.00     0.119 C 
BRANCH  38  39
ATOM     39  N   UNL A   1      48.316  26.264  36.507  1.00  0.00    -0.352 N 
ATOM     40  C   UNL A   1      47.548  27.399  36.611  1.00  0.00     0.251 C 
ATOM     41  H   UNL A   1      48.860  26.028  37.293  1.00  0.00     0.163 HD
ATOM     42  O   UNL A   1      47.797  28.272  37.429  1.00  0.00    -0.269 OA
BRANCH  40  43
ATOM     43  C   UNL A   1      46.424  27.522  35.671  1.00  0.00     0.039 A 
ATOM     44  C   UNL A   1      46.482  28.533  34.709  1.00  0.00     0.014 A 
ATOM     45  C   UNL A   1      45.268  26.766  35.860  1.00  0.00     0.014 A 
ATOM     46  C   UNL A   1      45.313  28.945  34.100  1.00  0.00     0.010 A 
ATOM     47  C   UNL A   1      44.129  27.092  35.127  1.00  0.00     0.010 A 
ATOM     48  C   UNL A   1      44.128  28.219  34.286  1.00  0.00    -0.014 A 
BRANCH  48  49
ATOM     49  C   UNL A   1      42.898  28.643  33.578  1.00  0.00     0.031 A 
ATOM     50  C   UNL A   1      42.620  28.185  32.176  1.00  0.00     0.074 A 
ATOM     51  C   UNL A   1      42.029  29.442  34.222  1.00  0.00     0.049 A 
ATOM     52  N   UNL A   1      41.678  28.571  31.354  1.00  0.00    -0.248 NA
ATOM     53  C   UNL A   1      43.527  27.172  31.614  1.00  0.00     0.031 C 
ATOM     54  C   UNL A   1      42.178  29.914  35.602  1.00  0.00     0.029 A 
ATOM     55  N   UNL A   1      40.849  30.000  33.807  1.00  0.00    -0.354 N 
ATOM     56  C   UNL A   1      41.903  27.885  30.168  1.00  0.00     0.074 A 
ATOM     57  C   UNL A   1      43.081  27.068  30.370  1.00  0.00     0.031 C 
ATOM     58  C   UNL A   1      41.118  30.661  35.929  1.00  0.00     0.029 A 
ATOM     59  C   UNL A   1      40.273  30.809  34.752  1.00  0.00     0.049 A 
ATOM     60  H   UNL A   1      40.455  29.836  32.920  1.00  0.00     0.167 HD
ATOM     61  C   UNL A   1      41.186  27.942  29.020  1.00  0.00     0.037 A 
ATOM     62  C   UNL A   1      39.213  31.631  34.670  1.00  0.00     0.037 A 
ATOM     63  C   UNL A   1      39.998  28.742  28.854  1.00  0.00     0.049 A 
ATOM     64  C   UNL A   1      38.469  31.714  33.373  1.00  0.00     0.074 A 
ATOM     65  C   UNL A   1      39.175  28.844  27.746  1.00  0.00     0.029 A 
ATOM     66  N   UNL A   1      39.465  29.583  29.824  1.00  0.00    -0.354 N 
ATOM     67  N   UNL A   1      38.693  31.077  32.250  1.00  0.00    -0.248 NA
ATOM     68  C   UNL A   1      37.328  32.633  33.332  1.00  0.00     0.031 C 
ATOM     69  C   UNL A   1      38.187  29.796  28.021  1.00  0.00     0.029 A 
ATOM     70  C   UNL A   1      38.347  30.236  29.326  1.00  0.00     0.049 A 
ATOM     71  H   UNL A   1      39.829  29.697  30.731  1.00  0.00     0.167 HD
ATOM     72  C   UNL A   1      37.721  31.513  31.365  1.00  0.00     0.074 A 
ATOM     73  C   UNL A   1      36.883  32.444  32.098  1.00  0.00     0.031 C 
ATOM     74  C   UNL A   1      37.542  31.180  30.062  1.00  0.00     0.037 A 
BRANCH  61  75
ATOM     75  C   UNL A   1      41.684  27.154  27.839  1.00  0.00     0.064 A 
ATOM     76  C   UNL A   1      41.576  25.757  27.771  1.00  0.00     0.173 A 
ATOM     77  C   UNL A   1      42.243  27.818  26.735  1.00  0.00     0.173 A 
ATOM     78  F   UNL A   1      41.065  25.067  28.801  1.00  0.00    -0.203 F 
ATOM     79  C   UNL A   1      42.031  25.055  26.655  1.00  0.00     0.198 A 
ATOM     80  C   UNL A   1      42.664  27.117  25.608  1.00  0.00     0.198 A 
ATOM     81  F   UNL A   1      42.369  29.155  26.743  1.00  0.00    -0.203 F 
ATOM     82  F   UNL A   1      41.964  23.716  26.635  1.00  0.00    -0.200 F 
ATOM     83  C   UNL A   1      42.565  25.735  25.572  1.00  0.00     0.200 A 
ATOM     84  F   UNL A   1      43.166  27.781  24.557  1.00  0.00    -0.200 F 
ATOM     85  F   UNL A   1      42.992  25.060  24.496  1.00  0.00    -0.200 F 
ENDBRANCH  61  75
BRANCH  62  86
ATOM     86  C   UNL A   1      38.838  32.439  35.856  1.00  0.00     0.064 A 
ATOM     87  C   UNL A   1      38.121  31.869  36.913  1.00  0.00     0.173 A 
ATOM     88  C   UNL A   1      39.268  33.769  35.996  1.00  0.00     0.173 A 
ATOM     89  F   UNL A   1      37.678  30.607  36.819  1.00  0.00    -0.203 F 
ATOM     90  C   UNL A   1      37.853  32.596  38.071  1.00  0.00     0.198 A 
ATOM     91  C   UNL A   1      39.029  34.482  37.167  1.00  0.00     0.198 A 
ATOM     92  F   UNL A   1      39.971  34.355  35.016  1.00  0.00    -0.203 F 
ATOM     93  F   UNL A   1      37.151  32.033  39.064  1.00  0.00    -0.200 F 
ATOM     94  C   UNL A   1      38.320  33.896  38.203  1.00  0.00     0.200 A 
ATOM     95  F   UNL A   1      39.507  35.727  37.300  1.00  0.00    -0.200 F 
ATOM     96  F   UNL A   1      38.090  34.580  39.331  1.00  0.00    -0.200 F 
ENDBRANCH  62  86
BRANCH  74  97
ATOM     97  C   UNL A   1      36.392  31.835  29.348  1.00  0.00     0.064 A 
ATOM     98  C   UNL A   1      36.397  33.206  29.054  1.00  0.00     0.173 A 
ATOM     99  C   UNL A   1      35.281  31.080  28.941  1.00  0.00     0.173 A 
ATOM    100  F   UNL A   1      37.427  33.976  29.435  1.00  0.00    -0.203 F 
ATOM    101  C   UNL A   1      35.315  33.806  28.415  1.00  0.00     0.198 A 
ATOM    102  C   UNL A   1      34.219  31.675  28.266  1.00  0.00     0.198 A 
ATOM    103  F   UNL A   1      35.228  29.763  29.189  1.00  0.00    -0.203 F 
ATOM    104  F   UNL A   1      35.312  35.129  28.207  1.00  0.00    -0.200 F 
ATOM    105  C   UNL A   1      34.231  33.040  28.016  1.00  0.00     0.200 A 
ATOM    106  F   UNL A   1      33.181  30.930  27.863  1.00  0.00    -0.200 F 
ATOM    107  F   UNL A   1      33.192  33.617  27.397  1.00  0.00    -0.200 F 
ENDBRANCH  74  97
ENDBRANCH  48  49
ENDBRANCH  40  43
ENDBRANCH  38  39
ENDBRANCH   1  38
TORSDOF 13
ENDMDL
MODEL 2
REMARK VINA RESULT:     -11.6      4.272     12.396
REMARK SMILES CCN1C(NCCCNC(=O)c2ccc(-c3c4nc(c(-c5c(F)c(F)c(F)c(F)c5F)c5ccc([nH]5)c(-c5c(F)c(F)c(F)c(F)c5F)c5nc(c(-c6c(F)c(F)c(F)c(F)c6F)c6ccc3[nH]6)C=C5)C=C4)cc2)=[NH+]C(O)=C2C1=[NH+]C1=C(C(=O)c3ccccc31)[C@H]2c1ccc(C(=O)[O-])cc1
REMARK SMILES IDX 7 1 6 2 5 3 3 4 4 5 79 6 75 7 78 8 80 9 76 11 91 13 81 14
REMARK SMILES IDX 82 16 90 17 83 18 85 19 89 20 84 21 86 22 88 23 87 24 2 25
REMARK SMILES IDX 1 26 77 27 92 29 93 30 100 31 94 32 99 33 95 34 96 35 97 36
REMARK SMILES IDX 98 37 8 38 9 39 10 40 11 42 12 43 13 44 74 45 14 46 73 47
REMARK SMILES IDX 15 48 16 49 17 50 67 51 18 52 72 53 66 54 68 55 19 56 71 57
REMARK SMILES IDX 65 58 64 59 20 61 52 62 32 63 51 64 33 65 36 66 50 67 69 68
REMARK SMILES IDX 34 69 35 70 49 72 70 73 37 74 21 75 22 76 30 77 23 78 24 79
REMARK SMILES IDX 28 80 31 81 25 82 26 83 29 84 27 85 53 86 54 87 62 88 55 89
REMARK SMILES IDX 56 90 60 91 63 92 57 93 58 94 61 95 59 96 38 97 39 98 47 99
REMARK SMILES IDX 40 100 41 101 45 102 48 103 42 104 43 105 46 106 44 107
REMARK H PARENT 5 10 75 12 80 15 77 28 9 41 68 60 36 71
REMARK Flexibility Score: inf
ROOT
ATOM      1  C   UNL A   1      35.297  33.468  29.888  1.00  0.00     0.059 C 
ENDROOT
BRANCH   1   2
ATOM      2  C   UNL A   1      36.608  33.035  30.518  1.00  0.00     0.199 C 
BRANCH   2   3
ATOM      3  N   UNL A   1      36.389  32.922  31.945  1.00  0.00    -0.270 N 
ATOM      4  N   UNL A   1      38.385  32.473  33.032  1.00  0.00    -0.171 N 
ATOM      5  C   UNL A   1      37.133  32.030  32.634  1.00  0.00     0.389 C 
ATOM      6  C   UNL A   1      39.185  31.384  33.424  1.00  0.00     0.295 C 
ATOM      7  N   UNL A   1      36.683  30.826  32.885  1.00  0.00    -0.207 N 
ATOM      8  C   UNL A   1      38.448  30.614  34.493  1.00  0.00     0.130 C 
ATOM      9  N   UNL A   1      40.302  30.878  32.913  1.00  0.00    -0.239 N 
ATOM     10  H   UNL A   1      35.717  33.480  32.399  1.00  0.00     0.260 HD
ATOM     11  C   UNL A   1      37.487  30.068  33.722  1.00  0.00     0.265 C 
ATOM     12  H   UNL A   1      35.839  30.486  32.508  1.00  0.00     0.271 HD
ATOM     13  C   UNL A   1      39.423  30.262  35.560  1.00  0.00     0.103 C 
ATOM     14  C   UNL A   1      40.843  29.779  33.616  1.00  0.00     0.141 C 
ATOM     15  H   UNL A   1      40.724  31.244  32.103  1.00  0.00     0.312 HD
ATOM     16  C   UNL A   1      40.497  29.535  34.894  1.00  0.00     0.060 C 
ATOM     17  C   UNL A   1      42.058  28.977  33.382  1.00  0.00     0.033 A 
ATOM     18  C   UNL A   1      41.502  28.769  35.612  1.00  0.00     0.195 C 
ATOM     19  C   UNL A   1      42.499  28.464  34.613  1.00  0.00     0.034 A 
ATOM     20  C   UNL A   1      42.753  28.575  32.258  1.00  0.00     0.013 A 
ATOM     21  O   UNL A   1      41.513  28.498  36.786  1.00  0.00    -0.289 OA
ATOM     22  C   UNL A   1      43.635  27.708  34.826  1.00  0.00     0.013 A 
ATOM     23  C   UNL A   1      43.877  27.729  32.423  1.00  0.00     0.001 A 
ATOM     24  C   UNL A   1      44.336  27.332  33.696  1.00  0.00     0.001 A 
BRANCH   4  25
ATOM     25  C   UNL A   1      38.341  33.583  34.045  1.00  0.00     0.246 C 
ATOM     26  C   UNL A   1      39.316  34.742  33.890  1.00  0.00     0.055 C 
ENDBRANCH   4  25
BRANCH  11  27
ATOM     27  O   UNL A   1      37.513  28.728  33.431  1.00  0.00    -0.483 OA
ATOM     28  H   UNL A   1      38.158  28.174  33.828  1.00  0.00     0.296 HD
ENDBRANCH  11  27
BRANCH  13  29
ATOM     29  C   UNL A   1      39.985  31.560  36.217  1.00  0.00    -0.035 A 
ATOM     30  C   UNL A   1      41.283  32.048  35.905  1.00  0.00     0.005 A 
ATOM     31  C   UNL A   1      39.169  32.364  37.018  1.00  0.00     0.005 A 
ATOM     32  C   UNL A   1      41.736  33.288  36.335  1.00  0.00     0.010 A 
ATOM     33  C   UNL A   1      39.632  33.611  37.472  1.00  0.00     0.010 A 
ATOM     34  C   UNL A   1      40.910  34.074  37.125  1.00  0.00    -0.003 A 
BRANCH  34  35
ATOM     35  C   UNL A   1      41.444  35.386  37.548  1.00  0.00     0.071 C 
ATOM     36  O   UNL A   1      42.449  35.568  38.210  1.00  0.00    -0.545 OA
ATOM     37  O   UNL A   1      40.682  36.412  37.138  1.00  0.00    -0.545 OA
ENDBRANCH  34  35
ENDBRANCH  13  29
ENDBRANCH   2   3
ENDBRANCH   1   2
BRANCH   1  38
ATOM     38  C   UNL A   1      35.216  32.954  28.460  1.00  0.00     0.119 C 
BRANCH  38  39
ATOM     39  N   UNL A   1      34.163  31.951  28.336  1.00  0.00    -0.352 N 
ATOM     40  C   UNL A   1      34.311  30.638  27.955  1.00  0.00     0.251 C 
ATOM     41  H   UNL A   1      33.249  32.245  28.550  1.00  0.00     0.163 HD
ATOM     42  O   UNL A   1      33.373  29.984  27.524  1.00  0.00    -0.269 OA
BRANCH  40  43
ATOM     43  C   UNL A   1      35.661  30.067  28.069  1.00  0.00     0.039 A 
ATOM     44  C   UNL A   1      36.085  29.632  29.328  1.00  0.00     0.014 A 
ATOM     45  C   UNL A   1      36.540  30.130  26.990  1.00  0.00     0.014 A 
ATOM     46  C   UNL A   1      37.437  29.486  29.564  1.00  0.00     0.010 A 
ATOM     47  C   UNL A   1      37.885  29.832  27.204  1.00  0.00     0.010 A 
ATOM     48  C   UNL A   1      38.351  29.564  28.504  1.00  0.00    -0.014 A 
BRANCH  48  49
ATOM     49  C   UNL A   1      39.791  29.345  28.768  1.00  0.00     0.031 A 
ATOM     50  C   UNL A   1      40.631  30.419  29.396  1.00  0.00     0.074 A 
ATOM     51  C   UNL A   1      40.332  28.158  28.439  1.00  0.00     0.049 A 
ATOM     52  N   UNL A   1      41.927  30.460  29.564  1.00  0.00    -0.248 NA
ATOM     53  C   UNL A   1      39.926  31.613  29.888  1.00  0.00     0.031 C 
ATOM     54  C   UNL A   1      39.600  27.028  27.862  1.00  0.00     0.029 A 
ATOM     55  N   UNL A   1      41.619  27.702  28.542  1.00  0.00    -0.354 N 
ATOM     56  C   UNL A   1      42.199  31.695  30.137  1.00  0.00     0.074 A 
ATOM     57  C   UNL A   1      40.933  32.383  30.276  1.00  0.00     0.031 C 
ATOM     58  C   UNL A   1      40.439  26.000  27.691  1.00  0.00     0.029 A 
ATOM     59  C   UNL A   1      41.784  26.435  28.044  1.00  0.00     0.049 A 
ATOM     60  H   UNL A   1      42.352  28.230  28.933  1.00  0.00     0.167 HD
ATOM     61  C   UNL A   1      43.401  32.200  30.507  1.00  0.00     0.037 A 
ATOM     62  C   UNL A   1      42.900  25.716  27.836  1.00  0.00     0.037 A 
ATOM     63  C   UNL A   1      44.645  31.482  30.385  1.00  0.00     0.049 A 
ATOM     64  C   UNL A   1      44.220  26.318  28.206  1.00  0.00     0.074 A 
ATOM     65  C   UNL A   1      45.914  31.885  30.763  1.00  0.00     0.029 A 
ATOM     66  N   UNL A   1      44.778  30.212  29.837  1.00  0.00    -0.354 N 
ATOM     67  N   UNL A   1      44.474  27.491  28.733  1.00  0.00    -0.248 NA
ATOM     68  C   UNL A   1      45.407  25.499  27.948  1.00  0.00     0.031 C 
ATOM     69  C   UNL A   1      46.821  30.890  30.382  1.00  0.00     0.029 A 
ATOM     70  C   UNL A   1      46.112  29.833  29.832  1.00  0.00     0.049 A 
ATOM     71  H   UNL A   1      44.034  29.662  29.502  1.00  0.00     0.167 HD
ATOM     72  C   UNL A   1      45.852  27.553  28.875  1.00  0.00     0.074 A 
ATOM     73  C   UNL A   1      46.372  26.282  28.410  1.00  0.00     0.031 C 
ATOM     74  C   UNL A   1      46.616  28.573  29.340  1.00  0.00     0.037 A 
BRANCH  61  75
ATOM     75  C   UNL A   1      43.439  33.606  31.040  1.00  0.00     0.064 A 
ATOM     76  C   UNL A   1      43.636  34.719  30.209  1.00  0.00     0.173 A 
ATOM     77  C   UNL A   1      43.232  33.845  32.408  1.00  0.00     0.173 A 
ATOM     78  F   UNL A   1      43.854  34.551  28.896  1.00  0.00    -0.203 F 
ATOM     79  C   UNL A   1      43.650  36.012  30.730  1.00  0.00     0.198 A 
ATOM     80  C   UNL A   1      43.211  35.141  32.920  1.00  0.00     0.198 A 
ATOM     81  F   UNL A   1      43.035  32.820  33.252  1.00  0.00    -0.203 F 
ATOM     82  F   UNL A   1      43.891  37.054  29.922  1.00  0.00    -0.200 F 
ATOM     83  C   UNL A   1      43.427  36.223  32.082  1.00  0.00     0.200 A 
ATOM     84  F   UNL A   1      42.980  35.340  34.226  1.00  0.00    -0.200 F 
ATOM     85  F   UNL A   1      43.429  37.467  32.579  1.00  0.00    -0.200 F 
ENDBRANCH  61  75
BRANCH  62  86
ATOM     86  C   UNL A   1      42.783  24.368  27.227  1.00  0.00     0.064 A 
ATOM     87  C   UNL A   1      43.043  24.173  25.867  1.00  0.00     0.173 A 
ATOM     88  C   UNL A   1      42.500  23.238  28.011  1.00  0.00     0.173 A 
ATOM     89  F   UNL A   1      43.305  25.224  25.077  1.00  0.00    -0.203 F 
ATOM     90  C   UNL A   1      43.032  22.895  25.312  1.00  0.00     0.198 A 
ATOM     91  C   UNL A   1      42.523  21.959  27.463  1.00  0.00     0.198 A 
ATOM     92  F   UNL A   1      42.257  23.373  29.323  1.00  0.00    -0.203 F 
ATOM     93  F   UNL A   1      43.270  22.735  24.003  1.00  0.00    -0.200 F 
ATOM     94  C   UNL A   1      42.787  21.788  26.113  1.00  0.00     0.200 A 
ATOM     95  F   UNL A   1      42.314  20.892  28.246  1.00  0.00    -0.200 F 
ATOM     96  F   UNL A   1      42.811  20.558  25.584  1.00  0.00    -0.200 F 
ENDBRANCH  62  86
BRANCH  74  97
ATOM     97  C   UNL A   1      48.101  28.349  29.364  1.00  0.00     0.064 A 
ATOM     98  C   UNL A   1      48.914  28.704  28.277  1.00  0.00     0.173 A 
ATOM     99  C   UNL A   1      48.722  27.786  30.490  1.00  0.00     0.173 A 
ATOM    100  F   UNL A   1      48.370  29.231  27.170  1.00  0.00    -0.203 F 
ATOM    101  C   UNL A   1      50.287  28.468  28.301  1.00  0.00     0.198 A 
ATOM    102  C   UNL A   1      50.099  27.588  30.527  1.00  0.00     0.198 A 
ATOM    103  F   UNL A   1      47.993  27.435  31.560  1.00  0.00    -0.203 F 
ATOM    104  F   UNL A   1      51.031  28.752  27.224  1.00  0.00    -0.200 F 
ATOM    105  C   UNL A   1      50.878  27.917  29.427  1.00  0.00     0.200 A 
ATOM    106  F   UNL A   1      50.672  27.074  31.623  1.00  0.00    -0.200 F 
ATOM    107  F   UNL A   1      52.199  27.694  29.450  1.00  0.00    -0.200 F 
ENDBRANCH  74  97
ENDBRANCH  48  49
ENDBRANCH  40  43
ENDBRANCH  38  39
ENDBRANCH   1  38
TORSDOF 13
ENDMDL
MODEL 3
REMARK VINA RESULT:     -11.4      0.767      7.037
REMARK SMILES CCN1C(NCCCNC(=O)c2ccc(-c3c4nc(c(-c5c(F)c(F)c(F)c(F)c5F)c5ccc([nH]5)c(-c5c(F)c(F)c(F)c(F)c5F)c5nc(c(-c6c(F)c(F)c(F)c(F)c6F)c6ccc3[nH]6)C=C5)C=C4)cc2)=[NH+]C(O)=C2C1=[NH+]C1=C(C(=O)c3ccccc31)[C@H]2c1ccc(C(=O)[O-])cc1
REMARK SMILES IDX 7 1 6 2 5 3 3 4 4 5 79 6 75 7 78 8 80 9 76 11 91 13 81 14
REMARK SMILES IDX 82 16 90 17 83 18 85 19 89 20 84 21 86 22 88 23 87 24 2 25
REMARK SMILES IDX 1 26 77 27 92 29 93 30 100 31 94 32 99 33 95 34 96 35 97 36
REMARK SMILES IDX 98 37 8 38 9 39 10 40 11 42 12 43 13 44 74 45 14 46 73 47
REMARK SMILES IDX 15 48 16 49 17 50 67 51 18 52 72 53 66 54 68 55 19 56 71 57
REMARK SMILES IDX 65 58 64 59 20 61 52 62 32 63 51 64 33 65 36 66 50 67 69 68
REMARK SMILES IDX 34 69 35 70 49 72 70 73 37 74 21 75 22 76 30 77 23 78 24 79
REMARK SMILES IDX 28 80 31 81 25 82 26 83 29 84 27 85 53 86 54 87 62 88 55 89
REMARK SMILES IDX 56 90 60 91 63 92 57 93 58 94 61 95 59 96 38 97 39 98 47 99
REMARK SMILES IDX 40 100 41 101 45 102 48 103 42 104 43 105 46 106 44 107
REMARK H PARENT 5 10 75 12 80 15 77 28 9 41 68 60 36 71
REMARK Flexibility Score: inf
ROOT
ATOM      1  C   UNL A   1      48.613  25.650  34.317  1.00  0.00     0.059 C 
ENDROOT
BRANCH   1   2
ATOM      2  C   UNL A   1      49.136  24.936  33.084  1.00  0.00     0.199 C 
BRANCH   2   3
ATOM      3  N   UNL A   1      49.579  25.948  32.149  1.00  0.00    -0.270 N 
ATOM      4  N   UNL A   1      48.022  26.217  30.455  1.00  0.00    -0.171 N 
ATOM      5  C   UNL A   1      49.280  25.783  30.842  1.00  0.00     0.389 C 
ATOM      6  C   UNL A   1      47.694  25.694  29.190  1.00  0.00     0.295 C 
ATOM      7  N   UNL A   1      50.136  25.232  30.018  1.00  0.00    -0.207 N 
ATOM      8  C   UNL A   1      48.789  26.072  28.223  1.00  0.00     0.130 C 
ATOM      9  N   UNL A   1      46.749  24.845  28.802  1.00  0.00    -0.239 N 
ATOM     10  H   UNL A   1      50.083  26.736  32.457  1.00  0.00     0.260 HD
ATOM     11  C   UNL A   1      49.757  25.257  28.685  1.00  0.00     0.265 C 
ATOM     12  H   UNL A   1      50.983  24.832  30.322  1.00  0.00     0.271 HD
ATOM     13  C   UNL A   1      48.148  26.514  26.954  1.00  0.00     0.103 C 
ATOM     14  C   UNL A   1      46.710  24.577  27.417  1.00  0.00     0.141 C 
ATOM     15  H   UNL A   1      46.119  24.432  29.436  1.00  0.00     0.312 HD
ATOM     16  C   UNL A   1      47.294  25.410  26.533  1.00  0.00     0.060 C 
ATOM     17  C   UNL A   1      45.811  23.727  26.614  1.00  0.00     0.033 A 
ATOM     18  C   UNL A   1      46.714  25.316  25.204  1.00  0.00     0.195 C 
ATOM     19  C   UNL A   1      45.745  24.251  25.312  1.00  0.00     0.034 A 
ATOM     20  C   UNL A   1      45.139  22.543  26.841  1.00  0.00     0.013 A 
ATOM     21  O   UNL A   1      46.960  26.008  24.249  1.00  0.00    -0.289 OA
ATOM     22  C   UNL A   1      44.968  23.773  24.276  1.00  0.00     0.013 A 
ATOM     23  C   UNL A   1      44.396  21.971  25.779  1.00  0.00     0.001 A 
ATOM     24  C   UNL A   1      44.280  22.600  24.522  1.00  0.00     0.001 A 
BRANCH   4  25
ATOM     25  C   UNL A   1      47.836  27.706  30.557  1.00  0.00     0.246 C 
ATOM     26  C   UNL A   1      46.554  28.233  31.187  1.00  0.00     0.055 C 
ENDBRANCH   4  25
BRANCH  11  27
ATOM     27  O   UNL A   1      50.138  24.157  27.961  1.00  0.00    -0.483 OA
ATOM     28  H   UNL A   1      50.924  23.697  28.184  1.00  0.00     0.296 HD
ENDBRANCH  11  27
BRANCH  13  29
ATOM     29  C   UNL A   1      47.284  27.787  27.210  1.00  0.00    -0.035 A 
ATOM     30  C   UNL A   1      47.849  29.090  27.157  1.00  0.00     0.005 A 
ATOM     31  C   UNL A   1      45.897  27.691  27.349  1.00  0.00     0.005 A 
ATOM     32  C   UNL A   1      47.074  30.241  27.203  1.00  0.00     0.010 A 
ATOM     33  C   UNL A   1      45.111  28.854  27.416  1.00  0.00     0.010 A 
ATOM     34  C   UNL A   1      45.698  30.126  27.337  1.00  0.00    -0.003 A 
BRANCH  34  35
ATOM     35  C   UNL A   1      44.924  31.385  27.374  1.00  0.00     0.071 C 
ATOM     36  O   UNL A   1      44.792  32.113  28.341  1.00  0.00    -0.545 OA
ATOM     37  O   UNL A   1      44.334  31.665  26.202  1.00  0.00    -0.545 OA
ENDBRANCH  34  35
ENDBRANCH  13  29
ENDBRANCH   2   3
ENDBRANCH   1   2
BRANCH   1  38
ATOM     38  C   UNL A   1      47.608  24.767  35.037  1.00  0.00     0.119 C 
BRANCH  38  39
ATOM     39  N   UNL A   1      47.334  25.286  36.373  1.00  0.00    -0.352 N 
ATOM     40  C   UNL A   1      46.574  26.386  36.694  1.00  0.00     0.251 C 
ATOM     41  H   UNL A   1      47.736  24.795  37.126  1.00  0.00     0.163 HD
ATOM     42  O   UNL A   1      46.695  26.961  37.766  1.00  0.00    -0.269 OA
BRANCH  40  43
ATOM     43  C   UNL A   1      45.624  26.851  35.672  1.00  0.00     0.039 A 
ATOM     44  C   UNL A   1      45.961  27.988  34.934  1.00  0.00     0.014 A 
ATOM     45  C   UNL A   1      44.359  26.274  35.580  1.00  0.00     0.014 A 
ATOM     46  C   UNL A   1      44.961  28.684  34.285  1.00  0.00     0.010 A 
ATOM     47  C   UNL A   1      43.393  26.903  34.798  1.00  0.00     0.010 A 
ATOM     48  C   UNL A   1      43.671  28.142  34.192  1.00  0.00    -0.014 A 
BRANCH  48  49
ATOM     49  C   UNL A   1      42.627  28.877  33.442  1.00  0.00     0.031 A 
ATOM     50  C   UNL A   1      41.832  29.968  34.096  1.00  0.00     0.074 A 
ATOM     51  C   UNL A   1      42.409  28.549  32.155  1.00  0.00     0.049 A 
ATOM     52  N   UNL A   1      40.787  30.612  33.644  1.00  0.00    -0.248 NA
ATOM     53  C   UNL A   1      42.256  30.385  35.443  1.00  0.00     0.031 C 
ATOM     54  C   UNL A   1      43.152  27.532  31.406  1.00  0.00     0.029 A 
ATOM     55  N   UNL A   1      41.504  29.033  31.249  1.00  0.00    -0.354 N 
ATOM     56  C   UNL A   1      40.400  31.474  34.662  1.00  0.00     0.074 A 
ATOM     57  C   UNL A   1      41.315  31.262  35.764  1.00  0.00     0.031 C 
ATOM     58  C   UNL A   1      42.696  27.490  30.149  1.00  0.00     0.029 A 
ATOM     59  C   UNL A   1      41.562  28.396  30.036  1.00  0.00     0.049 A 
ATOM     60  H   UNL A   1      40.876  29.764  31.448  1.00  0.00     0.167 HD
ATOM     61  C   UNL A   1      39.372  32.356  34.667  1.00  0.00     0.037 A 
ATOM     62  C   UNL A   1      40.756  28.484  28.964  1.00  0.00     0.037 A 
ATOM     63  C   UNL A   1      38.492  32.569  33.544  1.00  0.00     0.049 A 
ATOM     64  C   UNL A   1      39.596  29.429  29.015  1.00  0.00     0.074 A 
ATOM     65  C   UNL A   1      37.443  33.464  33.429  1.00  0.00     0.029 A 
ATOM     66  N   UNL A   1      38.557  31.874  32.342  1.00  0.00    -0.354 N 
ATOM     67  N   UNL A   1      39.224  30.230  29.983  1.00  0.00    -0.248 NA
ATOM     68  C   UNL A   1      38.740  29.478  27.826  1.00  0.00     0.031 C 
ATOM     69  C   UNL A   1      36.831  33.263  32.186  1.00  0.00     0.029 A 
ATOM     70  C   UNL A   1      37.542  32.294  31.495  1.00  0.00     0.049 A 
ATOM     71  H   UNL A   1      39.225  31.186  32.125  1.00  0.00     0.167 HD
ATOM     72  C   UNL A   1      38.093  30.884  29.523  1.00  0.00     0.074 A 
ATOM     73  C   UNL A   1      37.863  30.409  28.171  1.00  0.00     0.031 C 
ATOM     74  C   UNL A   1      37.311  31.789  30.163  1.00  0.00     0.037 A 
BRANCH  61  75
ATOM     75  C   UNL A   1      39.112  33.127  35.932  1.00  0.00     0.064 A 
ATOM     76  C   UNL A   1      38.360  32.600  36.992  1.00  0.00     0.173 A 
ATOM     77  C   UNL A   1      39.664  34.408  36.100  1.00  0.00     0.173 A 
ATOM     78  F   UNL A   1      37.795  31.388  36.882  1.00  0.00    -0.203 F 
ATOM     79  C   UNL A   1      38.151  33.332  38.159  1.00  0.00     0.198 A 
ATOM     80  C   UNL A   1      39.483  35.122  37.282  1.00  0.00     0.198 A 
ATOM     81  F   UNL A   1      40.395  34.963  35.121  1.00  0.00    -0.203 F 
ATOM     82  F   UNL A   1      37.386  32.827  39.137  1.00  0.00    -0.200 F 
ATOM     83  C   UNL A   1      38.719  34.588  38.307  1.00  0.00     0.200 A 
ATOM     84  F   UNL A   1      40.048  36.330  37.426  1.00  0.00    -0.200 F 
ATOM     85  F   UNL A   1      38.527  35.286  39.435  1.00  0.00    -0.200 F 
ENDBRANCH  61  75
BRANCH  62  86
ATOM     86  C   UNL A   1      41.032  27.625  27.786  1.00  0.00     0.064 A 
ATOM     87  C   UNL A   1      41.759  28.117  26.697  1.00  0.00     0.173 A 
ATOM     88  C   UNL A   1      40.657  26.272  27.768  1.00  0.00     0.173 A 
ATOM     89  F   UNL A   1      42.127  29.406  26.664  1.00  0.00    -0.203 F 
ATOM     90  C   UNL A   1      42.106  27.287  25.634  1.00  0.00     0.198 A 
ATOM     91  C   UNL A   1      41.034  25.435  26.722  1.00  0.00     0.198 A 
ATOM     92  F   UNL A   1      39.972  25.750  28.797  1.00  0.00    -0.203 F 
ATOM     93  F   UNL A   1      42.788  27.785  24.594  1.00  0.00    -0.200 F 
ATOM     94  C   UNL A   1      41.756  25.944  25.654  1.00  0.00     0.200 A 
ATOM     95  F   UNL A   1      40.719  24.133  26.761  1.00  0.00    -0.200 F 
ATOM     96  F   UNL A   1      42.121  25.140  24.647  1.00  0.00    -0.200 F 
ENDBRANCH  62  86
BRANCH  74  97
ATOM     97  C   UNL A   1      36.130  32.321  29.401  1.00  0.00     0.064 A 
ATOM     98  C   UNL A   1      35.047  31.498  29.059  1.00  0.00     0.173 A 
ATOM     99  C   UNL A   1      36.073  33.672  29.021  1.00  0.00     0.173 A 
ATOM    100  F   UNL A   1      35.058  30.197  29.384  1.00  0.00    -0.203 F 
ATOM    101  C   UNL A   1      33.969  31.997  28.331  1.00  0.00     0.198 A 
ATOM    102  C   UNL A   1      34.975  34.176  28.329  1.00  0.00     0.198 A 
ATOM    103  F   UNL A   1      37.077  34.505  29.330  1.00  0.00    -0.203 F 
ATOM    104  F   UNL A   1      32.980  31.175  27.957  1.00  0.00    -0.200 F 
ATOM    105  C   UNL A   1      33.931  33.335  27.973  1.00  0.00     0.200 A 
ATOM    106  F   UNL A   1      34.931  35.474  28.001  1.00  0.00    -0.200 F 
ATOM    107  F   UNL A   1      32.892  33.814  27.276  1.00  0.00    -0.200 F 
ENDBRANCH  74  97
ENDBRANCH  48  49
ENDBRANCH  40  43
ENDBRANCH  38  39
ENDBRANCH   1  38
TORSDOF 13
ENDMDL
