MODEL 1
REMARK VINA RESULT:     -11.2      0.000      0.000
REMARK SMILES COC(=O)[C@@H]1CN(C(=O)N(CC(=O)NCCCNC(=O)c2ccc(-c3c4nc(c(-c5c(F)c(F)c(F)c(F)c5F)c5ccc([nH]5)c(-c5c(F)c(F)c(F)c(F)c5F)c5nc(c(-c6c(F)c(F)c(F)c(F)c6F)c6ccc3[nH]6)C=C5)C=C4)cc2)C(C)(C)C)C[C@H]1C
REMARK SMILES IDX 12 1 13 2 14 3 11 5 10 6 8 7 9 8 7 9 5 10 6 11 89 12 88 13
REMARK SMILES IDX 90 14 3 15 4 16 2 17 1 18 84 19 85 20 86 21 87 22 15 23
REMARK SMILES IDX 16 24 17 25 18 26 19 27 20 29 21 30 22 31 83 32 23 33 82 34
REMARK SMILES IDX 24 35 25 36 26 37 76 38 27 39 81 40 75 41 77 42 28 43 80 44
REMARK SMILES IDX 74 45 73 46 29 48 61 49 41 50 60 51 42 52 45 53 59 54 78 55
REMARK SMILES IDX 43 56 44 57 58 59 79 60 46 61 30 62 31 63 39 64 32 65 33 66
REMARK SMILES IDX 37 67 40 68 34 69 35 70 38 71 36 72 62 73 63 74 71 75 64 76
REMARK SMILES IDX 65 77 69 78 72 79 66 80 67 81 70 82 68 83 47 84 48 85 56 86
REMARK SMILES IDX 49 87 50 88 54 89 57 90 51 91 52 92 55 93 53 94
REMARK H PARENT 14 4 18 28 77 47 45 58
REMARK Flexibility Score: inf
ROOT
ATOM      1  C   UNL A   1      33.131  28.963  24.369  1.00  0.00     0.239 C 
ATOM      2  O   UNL A   1      33.707  29.149  23.289  1.00  0.00    -0.273 OA
ATOM      3  N   UNL A   1      32.612  30.076  24.957  1.00  0.00    -0.354 N 
ATOM      4  H   UNL A   1      33.006  30.921  24.636  1.00  0.00     0.163 HD
ENDROOT
BRANCH   1   5
ATOM      5  C   UNL A   1      32.927  27.519  24.872  1.00  0.00     0.221 C 
BRANCH   5   6
ATOM      6  N   UNL A   1      32.576  26.482  23.899  1.00  0.00    -0.311 N 
BRANCH   6   7
ATOM      7  C   UNL A   1      33.464  25.582  23.308  1.00  0.00     0.320 C 
ATOM      8  O   UNL A   1      33.990  25.866  22.226  1.00  0.00    -0.248 OA
BRANCH   7   9
ATOM      9  N   UNL A   1      33.826  24.382  23.888  1.00  0.00    -0.323 N 
ATOM     10  C   UNL A   1      35.001  22.802  25.244  1.00  0.00     0.123 C 
ATOM     11  C   UNL A   1      33.931  23.889  25.253  1.00  0.00     0.137 C 
ATOM     12  C   UNL A   1      35.258  22.492  23.756  1.00  0.00     0.021 C 
ATOM     13  C   UNL A   1      34.171  23.267  23.010  1.00  0.00     0.125 C 
ATOM     14  C   UNL A   1      36.653  22.959  23.325  1.00  0.00     0.010 C 
BRANCH  10  15
ATOM     15  C   UNL A   1      34.580  21.598  26.065  1.00  0.00     0.310 C 
ATOM     16  O   UNL A   1      34.339  21.618  27.258  1.00  0.00    -0.252 OA
BRANCH  15  17
ATOM     17  O   UNL A   1      34.349  20.498  25.294  1.00  0.00    -0.469 OA
ATOM     18  C   UNL A   1      33.031  19.950  25.372  1.00  0.00     0.282 C 
ENDBRANCH  15  17
ENDBRANCH  10  15
ENDBRANCH   7   9
ENDBRANCH   6   7
BRANCH   6  19
ATOM     19  C   UNL A   1      31.082  26.339  23.579  1.00  0.00     0.037 C 
ATOM     20  C   UNL A   1      30.196  26.679  24.798  1.00  0.00     0.034 C 
ATOM     21  C   UNL A   1      30.691  27.236  22.380  1.00  0.00     0.034 C 
ATOM     22  C   UNL A   1      30.640  24.902  23.168  1.00  0.00     0.034 C 
ENDBRANCH   6  19
ENDBRANCH   5   6
ENDBRANCH   1   5
BRANCH   3  23
ATOM     23  C   UNL A   1      31.590  30.245  25.967  1.00  0.00     0.117 C 
BRANCH  23  24
ATOM     24  C   UNL A   1      31.404  31.662  26.472  1.00  0.00     0.042 C 
BRANCH  24  25
ATOM     25  C   UNL A   1      32.695  32.342  26.880  1.00  0.00     0.118 C 
BRANCH  25  26
ATOM     26  N   UNL A   1      32.472  33.711  27.328  1.00  0.00    -0.352 N 
ATOM     27  C   UNL A   1      33.027  34.400  28.379  1.00  0.00     0.251 C 
ATOM     28  H   UNL A   1      31.821  34.221  26.794  1.00  0.00     0.163 HD
ATOM     29  O   UNL A   1      32.528  35.464  28.733  1.00  0.00    -0.269 OA
BRANCH  27  30
ATOM     30  C   UNL A   1      34.211  33.868  29.092  1.00  0.00     0.039 A 
ATOM     31  C   UNL A   1      34.028  32.894  30.078  1.00  0.00     0.014 A 
ATOM     32  C   UNL A   1      35.495  34.349  28.825  1.00  0.00     0.014 A 
ATOM     33  C   UNL A   1      35.134  32.365  30.748  1.00  0.00     0.010 A 
ATOM     34  C   UNL A   1      36.602  33.752  29.418  1.00  0.00     0.010 A 
ATOM     35  C   UNL A   1      36.434  32.766  30.400  1.00  0.00    -0.014 A 
BRANCH  35  36
ATOM     36  C   UNL A   1      37.630  32.193  31.067  1.00  0.00     0.031 A 
ATOM     37  C   UNL A   1      38.435  31.121  30.380  1.00  0.00     0.074 A 
ATOM     38  C   UNL A   1      37.953  32.584  32.315  1.00  0.00     0.049 A 
ATOM     39  N   UNL A   1      39.458  30.438  30.826  1.00  0.00    -0.248 NA
ATOM     40  C   UNL A   1      38.011  30.745  29.022  1.00  0.00     0.031 C 
ATOM     41  C   UNL A   1      37.223  33.575  33.107  1.00  0.00     0.029 A 
ATOM     42  N   UNL A   1      38.974  32.185  33.141  1.00  0.00    -0.354 N 
ATOM     43  C   UNL A   1      39.785  29.543  29.816  1.00  0.00     0.074 A 
ATOM     44  C   UNL A   1      38.817  29.727  28.758  1.00  0.00     0.031 C 
ATOM     45  C   UNL A   1      37.833  33.725  34.294  1.00  0.00     0.029 A 
ATOM     46  C   UNL A   1      38.972  32.815  34.362  1.00  0.00     0.049 A 
ATOM     47  H   UNL A   1      39.645  31.513  32.883  1.00  0.00     0.167 HD
ATOM     48  C   UNL A   1      40.814  28.664  29.764  1.00  0.00     0.037 A 
ATOM     49  C   UNL A   1      39.793  32.668  35.419  1.00  0.00     0.037 A 
ATOM     50  C   UNL A   1      41.795  28.507  30.804  1.00  0.00     0.049 A 
ATOM     51  C   UNL A   1      40.933  31.690  35.332  1.00  0.00     0.074 A 
ATOM     52  C   UNL A   1      42.912  27.691  30.821  1.00  0.00     0.029 A 
ATOM     53  N   UNL A   1      41.775  29.183  32.015  1.00  0.00    -0.354 N 
ATOM     54  N   UNL A   1      41.272  30.897  34.344  1.00  0.00    -0.248 NA
ATOM     55  C   UNL A   1      41.810  31.592  36.507  1.00  0.00     0.031 C 
ATOM     56  C   UNL A   1      43.544  27.839  32.059  1.00  0.00     0.029 A 
ATOM     57  C   UNL A   1      42.850  28.788  32.795  1.00  0.00     0.049 A 
ATOM     58  H   UNL A   1      41.098  29.845  32.281  1.00  0.00     0.167 HD
ATOM     59  C   UNL A   1      42.415  30.231  34.764  1.00  0.00     0.074 A 
ATOM     60  C   UNL A   1      42.721  30.724  36.091  1.00  0.00     0.031 C 
ATOM     61  C   UNL A   1      43.147  29.296  34.109  1.00  0.00     0.037 A 
BRANCH  48  62
ATOM     62  C   UNL A   1      40.936  27.809  28.534  1.00  0.00     0.064 A 
ATOM     63  C   UNL A   1      40.262  26.583  28.419  1.00  0.00     0.173 A 
ATOM     64  C   UNL A   1      41.709  28.237  27.444  1.00  0.00     0.173 A 
ATOM     65  F   UNL A   1      39.520  26.122  29.436  1.00  0.00    -0.203 F 
ATOM     66  C   UNL A   1      40.383  25.804  27.270  1.00  0.00     0.198 A 
ATOM     67  C   UNL A   1      41.800  27.470  26.285  1.00  0.00     0.198 A 
ATOM     68  F   UNL A   1      42.369  29.403  27.498  1.00  0.00    -0.203 F 
ATOM     69  F   UNL A   1      39.772  24.613  27.205  1.00  0.00    -0.200 F 
ATOM     70  C   UNL A   1      41.145  26.252  26.202  1.00  0.00     0.200 A 
ATOM     71  F   UNL A   1      42.526  27.910  25.248  1.00  0.00    -0.200 F 
ATOM     72  F   UNL A   1      41.253  25.504  25.095  1.00  0.00    -0.200 F 
ENDBRANCH  48  62
BRANCH  49  73
ATOM     73  C   UNL A   1      39.584  33.488  36.642  1.00  0.00     0.064 A 
ATOM     74  C   UNL A   1      40.229  34.724  36.796  1.00  0.00     0.173 A 
ATOM     75  C   UNL A   1      38.745  33.056  37.679  1.00  0.00     0.173 A 
ATOM     76  F   UNL A   1      41.057  35.170  35.840  1.00  0.00    -0.203 F 
ATOM     77  C   UNL A   1      40.061  35.484  37.951  1.00  0.00     0.198 A 
ATOM     78  C   UNL A   1      38.555  33.832  38.820  1.00  0.00     0.198 A 
ATOM     79  F   UNL A   1      38.102  31.884  37.578  1.00  0.00    -0.203 F 
ATOM     80  F   UNL A   1      40.728  36.638  38.093  1.00  0.00    -0.200 F 
ATOM     81  C   UNL A   1      39.219  35.040  38.960  1.00  0.00     0.200 A 
ATOM     82  F   UNL A   1      37.731  33.406  39.788  1.00  0.00    -0.200 F 
ATOM     83  F   UNL A   1      39.057  35.773  40.069  1.00  0.00    -0.200 F 
ENDBRANCH  49  73
BRANCH  61  84
ATOM     84  C   UNL A   1      44.372  28.773  34.801  1.00  0.00     0.064 A 
ATOM     85  C   UNL A   1      44.334  27.624  35.602  1.00  0.00     0.173 A 
ATOM     86  C   UNL A   1      45.609  29.413  34.627  1.00  0.00     0.173 A 
ATOM     87  F   UNL A   1      43.172  26.984  35.812  1.00  0.00    -0.203 F 
ATOM     88  C   UNL A   1      45.483  27.149  36.228  1.00  0.00     0.198 A 
ATOM     89  C   UNL A   1      46.763  28.917  35.228  1.00  0.00     0.198 A 
ATOM     90  F   UNL A   1      45.701  30.513  33.863  1.00  0.00    -0.203 F 
ATOM     91  F   UNL A   1      45.414  26.078  37.030  1.00  0.00    -0.200 F 
ATOM     92  C   UNL A   1      46.697  27.792  36.035  1.00  0.00     0.200 A 
ATOM     93  F   UNL A   1      47.937  29.531  35.028  1.00  0.00    -0.200 F 
ATOM     94  F   UNL A   1      47.804  27.329  36.633  1.00  0.00    -0.200 F 
ENDBRANCH  61  84
ENDBRANCH  35  36
ENDBRANCH  27  30
ENDBRANCH  25  26
ENDBRANCH  24  25
ENDBRANCH  23  24
ENDBRANCH   3  23
TORSDOF 16
ENDMDL
MODEL 2
REMARK VINA RESULT:     -11.1      1.877      4.061
REMARK SMILES COC(=O)[C@@H]1CN(C(=O)N(CC(=O)NCCCNC(=O)c2ccc(-c3c4nc(c(-c5c(F)c(F)c(F)c(F)c5F)c5ccc([nH]5)c(-c5c(F)c(F)c(F)c(F)c5F)c5nc(c(-c6c(F)c(F)c(F)c(F)c6F)c6ccc3[nH]6)C=C5)C=C4)cc2)C(C)(C)C)C[C@H]1C
REMARK SMILES IDX 12 1 13 2 14 3 11 5 10 6 8 7 9 8 7 9 5 10 6 11 89 12 88 13
REMARK SMILES IDX 90 14 3 15 4 16 2 17 1 18 84 19 85 20 86 21 87 22 15 23
REMARK SMILES IDX 16 24 17 25 18 26 19 27 20 29 21 30 22 31 83 32 23 33 82 34
REMARK SMILES IDX 24 35 25 36 26 37 76 38 27 39 81 40 75 41 77 42 28 43 80 44
REMARK SMILES IDX 74 45 73 46 29 48 61 49 41 50 60 51 42 52 45 53 59 54 78 55
REMARK SMILES IDX 43 56 44 57 58 59 79 60 46 61 30 62 31 63 39 64 32 65 33 66
REMARK SMILES IDX 37 67 40 68 34 69 35 70 38 71 36 72 62 73 63 74 71 75 64 76
REMARK SMILES IDX 65 77 69 78 72 79 66 80 67 81 70 82 68 83 47 84 48 85 56 86
REMARK SMILES IDX 49 87 50 88 54 89 57 90 51 91 52 92 55 93 53 94
REMARK H PARENT 14 4 18 28 77 47 45 58
REMARK Flexibility Score: inf
ROOT
ATOM      1  C   UNL A   1      31.914  28.515  26.976  1.00  0.00     0.239 C 
ATOM      2  O   UNL A   1      31.787  27.867  28.023  1.00  0.00    -0.273 OA
ATOM      3  N   UNL A   1      31.403  29.777  27.001  1.00  0.00    -0.354 N 
ATOM      4  H   UNL A   1      30.734  29.926  27.710  1.00  0.00     0.163 HD
ENDROOT
BRANCH   1   5
ATOM      5  C   UNL A   1      32.740  27.918  25.818  1.00  0.00     0.221 C 
BRANCH   5   6
ATOM      6  N   UNL A   1      32.039  27.175  24.769  1.00  0.00    -0.311 N 
BRANCH   6   7
ATOM      7  C   UNL A   1      30.656  27.129  24.585  1.00  0.00     0.320 C 
ATOM      8  O   UNL A   1      29.989  26.279  25.186  1.00  0.00    -0.248 OA
BRANCH   7   9
ATOM      9  N   UNL A   1      29.968  28.017  23.783  1.00  0.00    -0.323 N 
ATOM     10  C   UNL A   1      28.615  29.878  23.130  1.00  0.00     0.123 C 
ATOM     11  C   UNL A   1      30.015  29.455  23.562  1.00  0.00     0.137 C 
ATOM     12  C   UNL A   1      27.870  28.566  22.813  1.00  0.00     0.021 C 
ATOM     13  C   UNL A   1      28.951  27.487  22.878  1.00  0.00     0.125 C 
ATOM     14  C   UNL A   1      26.765  28.294  23.839  1.00  0.00     0.010 C 
BRANCH  10  15
ATOM     15  C   UNL A   1      28.660  30.860  21.975  1.00  0.00     0.310 C 
ATOM     16  O   UNL A   1      29.118  30.619  20.872  1.00  0.00    -0.252 OA
BRANCH  15  17
ATOM     17  O   UNL A   1      27.989  32.015  22.248  1.00  0.00    -0.469 OA
ATOM     18  C   UNL A   1      28.778  33.081  22.781  1.00  0.00     0.282 C 
ENDBRANCH  15  17
ENDBRANCH  10  15
ENDBRANCH   7   9
ENDBRANCH   6   7
BRANCH   6  19
ATOM     19  C   UNL A   1      32.928  26.458  23.744  1.00  0.00     0.037 C 
ATOM     20  C   UNL A   1      33.574  27.447  22.750  1.00  0.00     0.034 C 
ATOM     21  C   UNL A   1      34.029  25.636  24.456  1.00  0.00     0.034 C 
ATOM     22  C   UNL A   1      32.180  25.432  22.839  1.00  0.00     0.034 C 
ENDBRANCH   6  19
ENDBRANCH   5   6
ENDBRANCH   1   5
BRANCH   3  23
ATOM     23  C   UNL A   1      31.662  30.938  26.178  1.00  0.00     0.117 C 
BRANCH  23  24
ATOM     24  C   UNL A   1      31.472  32.276  26.864  1.00  0.00     0.042 C 
BRANCH  24  25
ATOM     25  C   UNL A   1      32.765  33.021  27.125  1.00  0.00     0.118 C 
BRANCH  25  26
ATOM     26  N   UNL A   1      32.528  34.356  27.659  1.00  0.00    -0.352 N 
ATOM     27  C   UNL A   1      33.039  34.965  28.778  1.00  0.00     0.251 C 
ATOM     28  H   UNL A   1      31.902  34.907  27.135  1.00  0.00     0.163 HD
ATOM     29  O   UNL A   1      32.528  36.005  29.186  1.00  0.00    -0.269 OA
BRANCH  27  30
ATOM     30  C   UNL A   1      34.189  34.377  29.502  1.00  0.00     0.039 A 
ATOM     31  C   UNL A   1      33.950  33.605  30.643  1.00  0.00     0.014 A 
ATOM     32  C   UNL A   1      35.502  34.612  29.089  1.00  0.00     0.014 A 
ATOM     33  C   UNL A   1      35.020  33.025  31.328  1.00  0.00     0.010 A 
ATOM     34  C   UNL A   1      36.558  33.953  29.710  1.00  0.00     0.010 A 
ATOM     35  C   UNL A   1      36.332  33.167  30.847  1.00  0.00    -0.014 A 
BRANCH  35  36
ATOM     36  C   UNL A   1      37.485  32.529  31.533  1.00  0.00     0.031 A 
ATOM     37  C   UNL A   1      38.212  31.386  30.876  1.00  0.00     0.074 A 
ATOM     38  C   UNL A   1      37.834  32.931  32.769  1.00  0.00     0.049 A 
ATOM     39  N   UNL A   1      39.184  30.645  31.342  1.00  0.00    -0.248 NA
ATOM     40  C   UNL A   1      37.763  31.004  29.527  1.00  0.00     0.031 C 
ATOM     41  C   UNL A   1      37.176  33.991  33.534  1.00  0.00     0.029 A 
ATOM     42  N   UNL A   1      38.824  32.483  33.608  1.00  0.00    -0.354 N 
ATOM     43  C   UNL A   1      39.448  29.702  30.357  1.00  0.00     0.074 A 
ATOM     44  C   UNL A   1      38.495  29.925  29.292  1.00  0.00     0.031 C 
ATOM     45  C   UNL A   1      37.794  34.130  34.717  1.00  0.00     0.029 A 
ATOM     46  C   UNL A   1      38.867  33.144  34.812  1.00  0.00     0.049 A 
ATOM     47  H   UNL A   1      39.447  31.759  33.369  1.00  0.00     0.167 HD
ATOM     48  C   UNL A   1      40.413  28.751  30.330  1.00  0.00     0.037 A 
ATOM     49  C   UNL A   1      39.675  32.968  35.874  1.00  0.00     0.037 A 
ATOM     50  C   UNL A   1      41.380  28.554  31.377  1.00  0.00     0.049 A 
ATOM     51  C   UNL A   1      40.744  31.911  35.816  1.00  0.00     0.074 A 
ATOM     52  C   UNL A   1      42.437  27.663  31.417  1.00  0.00     0.029 A 
ATOM     53  N   UNL A   1      41.408  29.263  32.569  1.00  0.00    -0.354 N 
ATOM     54  N   UNL A   1      41.026  31.070  34.850  1.00  0.00    -0.248 NA
ATOM     55  C   UNL A   1      41.612  31.783  36.995  1.00  0.00     0.031 C 
ATOM     56  C   UNL A   1      43.078  27.799  32.653  1.00  0.00     0.029 A 
ATOM     57  C   UNL A   1      42.453  28.814  33.361  1.00  0.00     0.049 A 
ATOM     58  H   UNL A   1      40.779  29.978  32.816  1.00  0.00     0.167 HD
ATOM     59  C   UNL A   1      42.120  30.337  35.290  1.00  0.00     0.074 A 
ATOM     60  C   UNL A   1      42.460  30.843  36.604  1.00  0.00     0.031 C 
ATOM     61  C   UNL A   1      42.784  29.335  34.662  1.00  0.00     0.037 A 
BRANCH  48  62
ATOM     62  C   UNL A   1      40.475  27.858  29.125  1.00  0.00     0.064 A 
ATOM     63  C   UNL A   1      41.313  28.146  28.036  1.00  0.00     0.173 A 
ATOM     64  C   UNL A   1      39.713  26.680  29.071  1.00  0.00     0.173 A 
ATOM     65  F   UNL A   1      42.052  29.264  28.030  1.00  0.00    -0.203 F 
ATOM     66  C   UNL A   1      41.362  27.304  26.927  1.00  0.00     0.198 A 
ATOM     67  C   UNL A   1      39.790  25.825  27.975  1.00  0.00     0.198 A 
ATOM     68  F   UNL A   1      38.900  26.353  30.087  1.00  0.00    -0.203 F 
ATOM     69  F   UNL A   1      42.129  27.629  25.877  1.00  0.00    -0.200 F 
ATOM     70  C   UNL A   1      40.607  26.142  26.901  1.00  0.00     0.200 A 
ATOM     71  F   UNL A   1      39.071  24.694  27.957  1.00  0.00    -0.200 F 
ATOM     72  F   UNL A   1      40.662  25.330  25.836  1.00  0.00    -0.200 F 
ENDBRANCH  48  62
BRANCH  49  73
ATOM     73  C   UNL A   1      39.524  33.834  37.074  1.00  0.00     0.064 A 
ATOM     74  C   UNL A   1      40.211  35.053  37.170  1.00  0.00     0.173 A 
ATOM     75  C   UNL A   1      38.701  33.462  38.146  1.00  0.00     0.173 A 
ATOM     76  F   UNL A   1      41.026  35.442  36.179  1.00  0.00    -0.203 F 
ATOM     77  C   UNL A   1      40.097  35.855  38.303  1.00  0.00     0.198 A 
ATOM     78  C   UNL A   1      38.564  34.280  39.265  1.00  0.00     0.198 A 
ATOM     79  F   UNL A   1      38.019  32.308  38.101  1.00  0.00    -0.203 F 
ATOM     80  F   UNL A   1      40.803  36.992  38.390  1.00  0.00    -0.200 F 
ATOM     81  C   UNL A   1      39.269  35.471  39.348  1.00  0.00     0.200 A 
ATOM     82  F   UNL A   1      37.755  33.912  40.267  1.00  0.00    -0.200 F 
ATOM     83  F   UNL A   1      39.159  36.244  40.436  1.00  0.00    -0.200 F 
ENDBRANCH  49  73
BRANCH  61  84
ATOM     84  C   UNL A   1      43.970  28.747  35.370  1.00  0.00     0.064 A 
ATOM     85  C   UNL A   1      45.265  29.251  35.184  1.00  0.00     0.173 A 
ATOM     86  C   UNL A   1      43.800  27.688  36.275  1.00  0.00     0.173 A 
ATOM     87  F   UNL A   1      45.482  30.253  34.317  1.00  0.00    -0.203 F 
ATOM     88  C   UNL A   1      46.352  28.699  35.856  1.00  0.00     0.198 A 
ATOM     89  C   UNL A   1      44.884  27.160  36.970  1.00  0.00     0.198 A 
ATOM     90  F   UNL A   1      42.580  27.175  36.495  1.00  0.00    -0.203 F 
ATOM     91  F   UNL A   1      47.587  29.163  35.626  1.00  0.00    -0.200 F 
ATOM     92  C   UNL A   1      46.159  27.659  36.754  1.00  0.00     0.200 A 
ATOM     93  F   UNL A   1      44.693  26.165  37.848  1.00  0.00    -0.200 F 
ATOM     94  F   UNL A   1      47.205  27.133  37.406  1.00  0.00    -0.200 F 
ENDBRANCH  61  84
ENDBRANCH  35  36
ENDBRANCH  27  30
ENDBRANCH  25  26
ENDBRANCH  24  25
ENDBRANCH  23  24
ENDBRANCH   3  23
TORSDOF 16
ENDMDL
MODEL 3
REMARK VINA RESULT:     -11.0      5.242      9.178
REMARK SMILES COC(=O)[C@@H]1CN(C(=O)N(CC(=O)NCCCNC(=O)c2ccc(-c3c4nc(c(-c5c(F)c(F)c(F)c(F)c5F)c5ccc([nH]5)c(-c5c(F)c(F)c(F)c(F)c5F)c5nc(c(-c6c(F)c(F)c(F)c(F)c6F)c6ccc3[nH]6)C=C5)C=C4)cc2)C(C)(C)C)C[C@H]1C
REMARK SMILES IDX 12 1 13 2 14 3 11 5 10 6 8 7 9 8 7 9 5 10 6 11 89 12 88 13
REMARK SMILES IDX 90 14 3 15 4 16 2 17 1 18 84 19 85 20 86 21 87 22 15 23
REMARK SMILES IDX 16 24 17 25 18 26 19 27 20 29 21 30 22 31 83 32 23 33 82 34
REMARK SMILES IDX 24 35 25 36 26 37 76 38 27 39 81 40 75 41 77 42 28 43 80 44
REMARK SMILES IDX 74 45 73 46 29 48 61 49 41 50 60 51 42 52 45 53 59 54 78 55
REMARK SMILES IDX 43 56 44 57 58 59 79 60 46 61 30 62 31 63 39 64 32 65 33 66
REMARK SMILES IDX 37 67 40 68 34 69 35 70 38 71 36 72 62 73 63 74 71 75 64 76
REMARK SMILES IDX 65 77 69 78 72 79 66 80 67 81 70 82 68 83 47 84 48 85 56 86
REMARK SMILES IDX 49 87 50 88 54 89 57 90 51 91 52 92 55 93 53 94
REMARK H PARENT 14 4 18 28 77 47 45 58
REMARK Flexibility Score: inf
ROOT
ATOM      1  C   UNL A   1      37.105  23.390  25.479  1.00  0.00     0.239 C 
ATOM      2  O   UNL A   1      37.498  24.069  26.437  1.00  0.00    -0.273 OA
ATOM      3  N   UNL A   1      37.821  22.259  25.228  1.00  0.00    -0.354 N 
ATOM      4  H   UNL A   1      38.726  22.261  25.618  1.00  0.00     0.163 HD
ENDROOT
BRANCH   1   5
ATOM      5  C   UNL A   1      35.798  23.788  24.762  1.00  0.00     0.221 C 
BRANCH   5   6
ATOM      6  N   UNL A   1      34.522  23.450  25.396  1.00  0.00    -0.311 N 
BRANCH   6   7
ATOM      7  C   UNL A   1      34.229  22.258  26.060  1.00  0.00     0.320 C 
ATOM      8  O   UNL A   1      34.415  22.176  27.279  1.00  0.00    -0.248 OA
BRANCH   7   9
ATOM      9  N   UNL A   1      33.698  21.150  25.429  1.00  0.00    -0.323 N 
ATOM     10  C   UNL A   1      33.349  19.446  23.789  1.00  0.00     0.123 C 
ATOM     11  C   UNL A   1      34.231  19.882  24.953  1.00  0.00     0.137 C 
ATOM     12  C   UNL A   1      32.113  20.366  23.842  1.00  0.00     0.021 C 
ATOM     13  C   UNL A   1      32.263  21.131  25.158  1.00  0.00     0.125 C 
ATOM     14  C   UNL A   1      32.088  21.331  22.652  1.00  0.00     0.010 C 
BRANCH  10  15
ATOM     15  C   UNL A   1      33.023  17.966  23.858  1.00  0.00     0.310 C 
ATOM     16  O   UNL A   1      33.599  17.096  23.230  1.00  0.00    -0.252 OA
BRANCH  15  17
ATOM     17  O   UNL A   1      32.103  17.680  24.822  1.00  0.00    -0.469 OA
ATOM     18  C   UNL A   1      32.477  16.664  25.755  1.00  0.00     0.282 C 
ENDBRANCH  15  17
ENDBRANCH  10  15
ENDBRANCH   7   9
ENDBRANCH   6   7
BRANCH   6  19
ATOM     19  C   UNL A   1      33.455  24.554  25.388  1.00  0.00     0.037 C 
ATOM     20  C   UNL A   1      32.383  24.327  26.476  1.00  0.00     0.034 C 
ATOM     21  C   UNL A   1      34.107  25.945  25.574  1.00  0.00     0.034 C 
ATOM     22  C   UNL A   1      32.643  24.662  24.061  1.00  0.00     0.034 C 
ENDBRANCH   6  19
ENDBRANCH   5   6
ENDBRANCH   1   5
BRANCH   3  23
ATOM     23  C   UNL A   1      37.496  21.056  24.494  1.00  0.00     0.117 C 
BRANCH  23  24
ATOM     24  C   UNL A   1      38.333  19.840  24.836  1.00  0.00     0.042 C 
BRANCH  24  25
ATOM     25  C   UNL A   1      39.204  20.020  26.063  1.00  0.00     0.118 C 
BRANCH  25  26
ATOM     26  N   UNL A   1      40.385  19.168  26.023  1.00  0.00    -0.352 N 
ATOM     27  C   UNL A   1      41.718  19.502  26.024  1.00  0.00     0.251 C 
ATOM     28  H   UNL A   1      40.199  18.202  25.989  1.00  0.00     0.163 HD
ATOM     29  O   UNL A   1      42.553  18.648  25.743  1.00  0.00    -0.269 OA
BRANCH  27  30
ATOM     30  C   UNL A   1      42.153  20.879  26.350  1.00  0.00     0.039 A 
ATOM     31  C   UNL A   1      42.348  21.792  25.310  1.00  0.00     0.014 A 
ATOM     32  C   UNL A   1      42.407  21.266  27.667  1.00  0.00     0.014 A 
ATOM     33  C   UNL A   1      42.740  23.103  25.598  1.00  0.00     0.010 A 
ATOM     34  C   UNL A   1      42.697  22.594  27.961  1.00  0.00     0.010 A 
ATOM     35  C   UNL A   1      42.885  23.523  26.930  1.00  0.00    -0.014 A 
BRANCH  35  36
ATOM     36  C   UNL A   1      43.262  24.920  27.267  1.00  0.00     0.031 A 
ATOM     37  C   UNL A   1      44.675  25.392  27.048  1.00  0.00     0.074 A 
ATOM     38  C   UNL A   1      42.355  25.740  27.830  1.00  0.00     0.049 A 
ATOM     39  N   UNL A   1      45.221  26.542  27.353  1.00  0.00    -0.248 NA
ATOM     40  C   UNL A   1      45.606  24.432  26.435  1.00  0.00     0.031 C 
ATOM     41  C   UNL A   1      40.969  25.386  28.141  1.00  0.00     0.029 A 
ATOM     42  N   UNL A   1      42.468  27.041  28.254  1.00  0.00    -0.354 N 
ATOM     43  C   UNL A   1      46.557  26.434  26.989  1.00  0.00     0.074 A 
ATOM     44  C   UNL A   1      46.754  25.089  26.495  1.00  0.00     0.031 C 
ATOM     45  C   UNL A   1      40.354  26.449  28.682  1.00  0.00     0.029 A 
ATOM     46  C   UNL A   1      41.310  27.547  28.793  1.00  0.00     0.049 A 
ATOM     47  H   UNL A   1      43.299  27.563  28.178  1.00  0.00     0.167 HD
ATOM     48  C   UNL A   1      47.527  27.378  27.037  1.00  0.00     0.037 A 
ATOM     49  C   UNL A   1      41.052  28.758  29.323  1.00  0.00     0.037 A 
ATOM     50  C   UNL A   1      47.319  28.726  27.497  1.00  0.00     0.049 A 
ATOM     51  C   UNL A   1      42.145  29.791  29.358  1.00  0.00     0.074 A 
ATOM     52  C   UNL A   1      48.220  29.776  27.526  1.00  0.00     0.029 A 
ATOM     53  N   UNL A   1      46.124  29.209  28.010  1.00  0.00    -0.354 N 
ATOM     54  N   UNL A   1      43.386  29.699  28.947  1.00  0.00    -0.248 NA
ATOM     55  C   UNL A   1      41.796  31.102  29.924  1.00  0.00     0.031 C 
ATOM     56  C   UNL A   1      47.583  30.882  28.098  1.00  0.00     0.029 A 
ATOM     57  C   UNL A   1      46.270  30.537  28.376  1.00  0.00     0.049 A 
ATOM     58  H   UNL A   1      45.296  28.685  28.100  1.00  0.00     0.167 HD
ATOM     59  C   UNL A   1      43.958  30.943  29.176  1.00  0.00     0.074 A 
ATOM     60  C   UNL A   1      42.922  31.779  29.748  1.00  0.00     0.031 C 
ATOM     61  C   UNL A   1      45.226  31.357  28.934  1.00  0.00     0.037 A 
BRANCH  48  62
ATOM     62  C   UNL A   1      48.901  26.989  26.571  1.00  0.00     0.064 A 
ATOM     63  C   UNL A   1      49.308  27.174  25.240  1.00  0.00     0.173 A 
ATOM     64  C   UNL A   1      49.834  26.454  27.473  1.00  0.00     0.173 A 
ATOM     65  F   UNL A   1      48.452  27.669  24.334  1.00  0.00    -0.203 F 
ATOM     66  C   UNL A   1      50.587  26.811  24.824  1.00  0.00     0.198 A 
ATOM     67  C   UNL A   1      51.122  26.124  27.060  1.00  0.00     0.198 A 
ATOM     68  F   UNL A   1      49.501  26.262  28.757  1.00  0.00    -0.203 F 
ATOM     69  F   UNL A   1      50.934  26.949  23.537  1.00  0.00    -0.200 F 
ATOM     70  C   UNL A   1      51.494  26.294  25.735  1.00  0.00     0.200 A 
ATOM     71  F   UNL A   1      52.003  25.637  27.944  1.00  0.00    -0.200 F 
ATOM     72  F   UNL A   1      52.727  25.953  25.334  1.00  0.00    -0.200 F 
ENDBRANCH  48  62
BRANCH  49  73
ATOM     73  C   UNL A   1      39.691  29.069  29.837  1.00  0.00     0.064 A 
ATOM     74  C   UNL A   1      39.367  28.854  31.185  1.00  0.00     0.173 A 
ATOM     75  C   UNL A   1      38.690  29.577  28.998  1.00  0.00     0.173 A 
ATOM     76  F   UNL A   1      40.286  28.350  32.021  1.00  0.00    -0.203 F 
ATOM     77  C   UNL A   1      38.087  29.115  31.667  1.00  0.00     0.198 A 
ATOM     78  C   UNL A   1      37.419  29.866  29.489  1.00  0.00     0.198 A 
ATOM     79  F   UNL A   1      38.950  29.804  27.702  1.00  0.00    -0.203 F 
ATOM     80  F   UNL A   1      37.791  28.856  32.948  1.00  0.00    -0.200 F 
ATOM     81  C   UNL A   1      37.115  29.627  30.820  1.00  0.00     0.200 A 
ATOM     82  F   UNL A   1      36.485  30.371  28.671  1.00  0.00    -0.200 F 
ATOM     83  F   UNL A   1      35.885  29.879  31.286  1.00  0.00    -0.200 F 
ENDBRANCH  49  73
BRANCH  61  84
ATOM     84  C   UNL A   1      45.554  32.788  29.248  1.00  0.00     0.064 A 
ATOM     85  C   UNL A   1      46.086  33.168  30.488  1.00  0.00     0.173 A 
ATOM     86  C   UNL A   1      45.366  33.786  28.279  1.00  0.00     0.173 A 
ATOM     87  F   UNL A   1      46.271  32.254  31.453  1.00  0.00    -0.203 F 
ATOM     88  C   UNL A   1      46.393  34.499  30.758  1.00  0.00     0.198 A 
ATOM     89  C   UNL A   1      45.704  35.111  28.541  1.00  0.00     0.198 A 
ATOM     90  F   UNL A   1      44.867  33.473  27.073  1.00  0.00    -0.203 F 
ATOM     91  F   UNL A   1      46.853  34.847  31.967  1.00  0.00    -0.200 F 
ATOM     92  C   UNL A   1      46.208  35.467  29.781  1.00  0.00     0.200 A 
ATOM     93  F   UNL A   1      45.538  36.042  27.591  1.00  0.00    -0.200 F 
ATOM     94  F   UNL A   1      46.511  36.747  30.041  1.00  0.00    -0.200 F 
ENDBRANCH  61  84
ENDBRANCH  35  36
ENDBRANCH  27  30
ENDBRANCH  25  26
ENDBRANCH  24  25
ENDBRANCH  23  24
ENDBRANCH   3  23
TORSDOF 16
ENDMDL
