MODEL 1
REMARK VINA RESULT:     -13.1      0.000      0.000
REMARK SMILES C[C@@H]1CCC[N@@H+]([C@@H]2CCC[C@]([NH3+])(C(=O)NCCCNC(=O)c3ccc(-c4c5nc(c(-c6c(F)c(F)c(F)c(F)c6F)c6ccc([nH]6)c(-c6c(F)c(F)c(F)c(F)c6F)c6nc(c(-c7c(F)c(F)c(F)c(F)c7F)c7ccc4[nH]7)C=C6)C=C5)cc3)C2)C1
REMARK SMILES IDX 17 1 16 2 15 3 13 4 14 5 11 7 7 8 8 9 85 10 9 11 10 12 6 13
REMARK SMILES IDX 1 14 2 15 3 16 86 17 4 18 5 19 12 21 18 25 19 26 20 27 21 29
REMARK SMILES IDX 22 30 23 31 84 32 24 33 83 34 25 35 26 36 27 37 77 38 28 39
REMARK SMILES IDX 82 40 76 41 78 42 29 43 81 44 75 45 74 46 30 48 62 49 42 50
REMARK SMILES IDX 61 51 43 52 46 53 60 54 79 55 44 56 45 57 59 59 80 60 47 61
REMARK SMILES IDX 31 62 32 63 40 64 33 65 34 66 38 67 41 68 35 69 36 70 39 71
REMARK SMILES IDX 37 72 63 73 64 74 72 75 65 76 66 77 70 78 73 79 67 80 68 81
REMARK SMILES IDX 71 82 69 83 48 84 49 85 57 86 50 87 51 88 55 89 58 90 52 91
REMARK SMILES IDX 53 92 56 93 54 94
REMARK H PARENT 15 6 6 20 12 22 12 23 12 24 19 28 78 47 46 58
REMARK Flexibility Score: inf
ROOT
ATOM      1  C   UNL A   1      31.541  32.226  26.556  1.00  0.00     0.042 C 
ENDROOT
BRANCH   1   2
ATOM      2  C   UNL A   1      31.481  30.716  26.639  1.00  0.00     0.118 C 
BRANCH   2   3
ATOM      3  N   UNL A   1      32.771  30.092  26.368  1.00  0.00    -0.351 N 
ATOM      4  C   UNL A   1      33.169  29.263  25.349  1.00  0.00     0.281 C 
ATOM      5  O   UNL A   1      34.332  28.858  25.361  1.00  0.00    -0.268 OA
ATOM      6  H   UNL A   1      33.474  30.302  27.025  1.00  0.00     0.163 HD
BRANCH   4   7
ATOM      7  C   UNL A   1      32.138  28.838  24.273  1.00  0.00     0.179 C 
ATOM      8  C   UNL A   1      29.828  29.238  23.213  1.00  0.00     0.190 C 
ATOM      9  C   UNL A   1      29.658  27.700  23.143  1.00  0.00     0.065 C 
ATOM     10  C   UNL A   1      30.869  29.722  24.267  1.00  0.00     0.144 C 
ATOM     11  C   UNL A   1      30.881  26.848  23.421  1.00  0.00     0.013 C 
ATOM     12  C   UNL A   1      31.636  27.415  24.598  1.00  0.00     0.079 C 
BRANCH   8  13
ATOM     13  N   UNL A   1      28.556  30.001  23.255  1.00  0.00    -0.332 N 
ATOM     14  C   UNL A   1      29.108  33.823  23.271  1.00  0.00     0.013 C 
ATOM     15  C   UNL A   1      29.092  32.415  22.682  1.00  0.00     0.041 C 
ATOM     16  C   UNL A   1      28.203  32.330  21.436  1.00  0.00     0.015 C 
ATOM     17  C   UNL A   1      28.681  31.380  23.747  1.00  0.00     0.265 C 
ATOM     18  C   UNL A   1      27.996  30.894  20.956  1.00  0.00     0.062 C 
ATOM     19  C   UNL A   1      27.657  29.940  22.100  1.00  0.00     0.262 C 
ATOM     20  H   UNL A   1      28.075  29.442  23.958  1.00  0.00     0.348 HD
ENDBRANCH   8  13
BRANCH   7  21
ATOM     21  N   UNL A   1      32.779  29.008  22.940  1.00  0.00    -0.345 N 
ATOM     22  H   UNL A   1      32.069  29.243  22.248  1.00  0.00     0.345 HD
ATOM     23  H   UNL A   1      33.241  28.138  22.671  1.00  0.00     0.345 HD
ATOM     24  H   UNL A   1      33.470  29.758  22.988  1.00  0.00     0.345 HD
ENDBRANCH   7  21
ENDBRANCH   4   7
ENDBRANCH   2   3
ENDBRANCH   1   2
BRANCH   1  25
ATOM     25  C   UNL A   1      32.606  32.810  27.460  1.00  0.00     0.118 C 
BRANCH  25  26
ATOM     26  N   UNL A   1      32.408  34.235  27.694  1.00  0.00    -0.352 N 
ATOM     27  C   UNL A   1      32.977  35.060  28.633  1.00  0.00     0.251 C 
ATOM     28  H   UNL A   1      31.769  34.674  27.086  1.00  0.00     0.163 HD
ATOM     29  O   UNL A   1      32.523  36.177  28.835  1.00  0.00    -0.269 OA
BRANCH  27  30
ATOM     30  C   UNL A   1      34.132  34.570  29.412  1.00  0.00     0.039 A 
ATOM     31  C   UNL A   1      33.921  34.007  30.671  1.00  0.00     0.014 A 
ATOM     32  C   UNL A   1      35.420  34.647  28.879  1.00  0.00     0.014 A 
ATOM     33  C   UNL A   1      34.999  33.449  31.360  1.00  0.00     0.010 A 
ATOM     34  C   UNL A   1      36.461  33.982  29.504  1.00  0.00     0.010 A 
ATOM     35  C   UNL A   1      36.267  33.393  30.760  1.00  0.00    -0.014 A 
BRANCH  35  36
ATOM     36  C   UNL A   1      37.424  32.754  31.433  1.00  0.00     0.031 A 
ATOM     37  C   UNL A   1      38.124  31.602  30.768  1.00  0.00     0.074 A 
ATOM     38  C   UNL A   1      37.785  33.151  32.669  1.00  0.00     0.049 A 
ATOM     39  N   UNL A   1      39.076  30.832  31.229  1.00  0.00    -0.248 NA
ATOM     40  C   UNL A   1      37.665  31.241  29.415  1.00  0.00     0.031 C 
ATOM     41  C   UNL A   1      37.148  34.223  33.435  1.00  0.00     0.029 A 
ATOM     42  N   UNL A   1      38.770  32.687  33.502  1.00  0.00    -0.354 N 
ATOM     43  C   UNL A   1      39.312  29.891  30.235  1.00  0.00     0.074 A 
ATOM     44  C   UNL A   1      38.358  30.139  29.177  1.00  0.00     0.031 C 
ATOM     45  C   UNL A   1      37.775  34.354  34.615  1.00  0.00     0.029 A 
ATOM     46  C   UNL A   1      38.826  33.343  34.708  1.00  0.00     0.049 A 
ATOM     47  H   UNL A   1      39.379  31.953  33.260  1.00  0.00     0.167 HD
ATOM     48  C   UNL A   1      40.259  28.925  30.195  1.00  0.00     0.037 A 
ATOM     49  C   UNL A   1      39.626  33.143  35.771  1.00  0.00     0.037 A 
ATOM     50  C   UNL A   1      41.222  28.703  31.239  1.00  0.00     0.049 A 
ATOM     51  C   UNL A   1      40.663  32.053  35.707  1.00  0.00     0.074 A 
ATOM     52  C   UNL A   1      42.262  27.792  31.274  1.00  0.00     0.029 A 
ATOM     53  N   UNL A   1      41.261  29.405  32.436  1.00  0.00    -0.354 N 
ATOM     54  N   UNL A   1      40.923  31.213  34.735  1.00  0.00    -0.248 NA
ATOM     55  C   UNL A   1      41.521  31.887  36.888  1.00  0.00     0.031 C 
ATOM     56  C   UNL A   1      42.895  27.903  32.516  1.00  0.00     0.029 A 
ATOM     57  C   UNL A   1      42.293  28.928  33.228  1.00  0.00     0.049 A 
ATOM     58  H   UNL A   1      40.647  30.132  32.685  1.00  0.00     0.167 HD
ATOM     59  C   UNL A   1      41.996  30.445  35.170  1.00  0.00     0.074 A 
ATOM     60  C   UNL A   1      42.344  30.927  36.490  1.00  0.00     0.031 C 
ATOM     61  C   UNL A   1      42.634  29.432  34.534  1.00  0.00     0.037 A 
BRANCH  48  62
ATOM     62  C   UNL A   1      40.300  28.042  28.981  1.00  0.00     0.064 A 
ATOM     63  C   UNL A   1      41.047  28.386  27.842  1.00  0.00     0.173 A 
ATOM     64  C   UNL A   1      39.609  26.821  28.964  1.00  0.00     0.173 A 
ATOM     65  F   UNL A   1      41.717  29.548  27.799  1.00  0.00    -0.203 F 
ATOM     66  C   UNL A   1      41.070  27.558  26.722  1.00  0.00     0.198 A 
ATOM     67  C   UNL A   1      39.664  25.979  27.856  1.00  0.00     0.198 A 
ATOM     68  F   UNL A   1      38.882  26.440  30.026  1.00  0.00    -0.203 F 
ATOM     69  F   UNL A   1      41.743  27.938  25.626  1.00  0.00    -0.200 F 
ATOM     70  C   UNL A   1      40.387  26.353  26.733  1.00  0.00     0.200 A 
ATOM     71  F   UNL A   1      39.015  24.808  27.875  1.00  0.00    -0.200 F 
ATOM     72  F   UNL A   1      40.417  25.554  25.658  1.00  0.00    -0.200 F 
ENDBRANCH  48  62
BRANCH  49  73
ATOM     73  C   UNL A   1      39.497  34.005  36.976  1.00  0.00     0.064 A 
ATOM     74  C   UNL A   1      40.139  35.250  37.043  1.00  0.00     0.173 A 
ATOM     75  C   UNL A   1      38.741  33.603  38.087  1.00  0.00     0.173 A 
ATOM     76  F   UNL A   1      40.888  35.672  36.013  1.00  0.00    -0.203 F 
ATOM     77  C   UNL A   1      40.053  36.046  38.183  1.00  0.00     0.198 A 
ATOM     78  C   UNL A   1      38.628  34.414  39.214  1.00  0.00     0.198 A 
ATOM     79  F   UNL A   1      38.099  32.425  38.072  1.00  0.00    -0.203 F 
ATOM     80  F   UNL A   1      40.721  37.206  38.239  1.00  0.00    -0.200 F 
ATOM     81  C   UNL A   1      39.293  35.629  39.266  1.00  0.00     0.200 A 
ATOM     82  F   UNL A   1      37.878  34.016  40.251  1.00  0.00    -0.200 F 
ATOM     83  F   UNL A   1      39.208  36.396  40.361  1.00  0.00    -0.200 F 
ENDBRANCH  49  73
BRANCH  61  84
ATOM     84  C   UNL A   1      43.809  28.810  35.231  1.00  0.00     0.064 A 
ATOM     85  C   UNL A   1      45.113  29.300  35.066  1.00  0.00     0.173 A 
ATOM     86  C   UNL A   1      43.616  27.740  36.119  1.00  0.00     0.173 A 
ATOM     87  F   UNL A   1      45.352  30.311  34.219  1.00  0.00    -0.203 F 
ATOM     88  C   UNL A   1      46.183  28.724  35.745  1.00  0.00     0.198 A 
ATOM     89  C   UNL A   1      44.684  27.190  36.823  1.00  0.00     0.198 A 
ATOM     90  F   UNL A   1      42.388  27.239  36.318  1.00  0.00    -0.203 F 
ATOM     91  F   UNL A   1      47.427  29.177  35.537  1.00  0.00    -0.200 F 
ATOM     92  C   UNL A   1      45.967  27.677  36.630  1.00  0.00     0.200 A 
ATOM     93  F   UNL A   1      44.469  26.190  37.689  1.00  0.00    -0.200 F 
ATOM     94  F   UNL A   1      46.997  27.134  37.292  1.00  0.00    -0.200 F 
ENDBRANCH  61  84
ENDBRANCH  35  36
ENDBRANCH  27  30
ENDBRANCH  25  26
ENDBRANCH   1  25
TORSDOF 12
ENDMDL
MODEL 2
REMARK VINA RESULT:     -13.1      1.539      3.257
REMARK SMILES C[C@@H]1CCC[N@@H+]([C@@H]2CCC[C@]([NH3+])(C(=O)NCCCNC(=O)c3ccc(-c4c5nc(c(-c6c(F)c(F)c(F)c(F)c6F)c6ccc([nH]6)c(-c6c(F)c(F)c(F)c(F)c6F)c6nc(c(-c7c(F)c(F)c(F)c(F)c7F)c7ccc4[nH]7)C=C6)C=C5)cc3)C2)C1
REMARK SMILES IDX 17 1 16 2 15 3 13 4 14 5 11 7 7 8 8 9 85 10 9 11 10 12 6 13
REMARK SMILES IDX 1 14 2 15 3 16 86 17 4 18 5 19 12 21 18 25 19 26 20 27 21 29
REMARK SMILES IDX 22 30 23 31 84 32 24 33 83 34 25 35 26 36 27 37 77 38 28 39
REMARK SMILES IDX 82 40 76 41 78 42 29 43 81 44 75 45 74 46 30 48 62 49 42 50
REMARK SMILES IDX 61 51 43 52 46 53 60 54 79 55 44 56 45 57 59 59 80 60 47 61
REMARK SMILES IDX 31 62 32 63 40 64 33 65 34 66 38 67 41 68 35 69 36 70 39 71
REMARK SMILES IDX 37 72 63 73 64 74 72 75 65 76 66 77 70 78 73 79 67 80 68 81
REMARK SMILES IDX 71 82 69 83 48 84 49 85 57 86 50 87 51 88 55 89 58 90 52 91
REMARK SMILES IDX 53 92 56 93 54 94
REMARK H PARENT 15 6 6 20 12 22 12 23 12 24 19 28 78 47 46 58
REMARK Flexibility Score: inf
ROOT
ATOM      1  C   UNL A   1      31.517  32.152  26.640  1.00  0.00     0.042 C 
ENDROOT
BRANCH   1   2
ATOM      2  C   UNL A   1      31.811  30.722  26.241  1.00  0.00     0.118 C 
BRANCH   2   3
ATOM      3  N   UNL A   1      31.122  30.335  25.015  1.00  0.00    -0.351 N 
ATOM      4  C   UNL A   1      31.352  29.296  24.148  1.00  0.00     0.281 C 
ATOM      5  O   UNL A   1      30.620  29.200  23.162  1.00  0.00    -0.268 OA
ATOM      6  H   UNL A   1      30.366  30.916  24.768  1.00  0.00     0.163 HD
BRANCH   4   7
ATOM      7  C   UNL A   1      32.536  28.333  24.417  1.00  0.00     0.179 C 
ATOM      8  C   UNL A   1      33.766  26.176  23.745  1.00  0.00     0.190 C 
ATOM      9  C   UNL A   1      33.941  25.873  25.254  1.00  0.00     0.065 C 
ATOM     10  C   UNL A   1      32.600  27.156  23.416  1.00  0.00     0.144 C 
ATOM     11  C   UNL A   1      33.608  26.983  26.232  1.00  0.00     0.013 C 
ATOM     12  C   UNL A   1      32.340  27.675  25.801  1.00  0.00     0.079 C 
BRANCH   8  13
ATOM     13  N   UNL A   1      33.790  24.980  22.866  1.00  0.00    -0.332 N 
ATOM     14  C   UNL A   1      34.816  21.766  24.744  1.00  0.00     0.013 C 
ATOM     15  C   UNL A   1      33.909  22.932  24.361  1.00  0.00     0.041 C 
ATOM     16  C   UNL A   1      32.555  22.449  23.828  1.00  0.00     0.015 C 
ATOM     17  C   UNL A   1      34.614  23.869  23.360  1.00  0.00     0.265 C 
ATOM     18  C   UNL A   1      31.716  23.581  23.237  1.00  0.00     0.062 C 
ATOM     19  C   UNL A   1      32.528  24.486  22.311  1.00  0.00     0.262 C 
ATOM     20  H   UNL A   1      34.252  25.402  22.061  1.00  0.00     0.348 HD
ENDBRANCH   8  13
BRANCH   7  21
ATOM     21  N   UNL A   1      33.796  29.107  24.243  1.00  0.00    -0.345 N 
ATOM     22  H   UNL A   1      34.135  29.414  25.154  1.00  0.00     0.345 HD
ATOM     23  H   UNL A   1      33.618  29.920  23.654  1.00  0.00     0.345 HD
ATOM     24  H   UNL A   1      34.500  28.514  23.801  1.00  0.00     0.345 HD
ENDBRANCH   7  21
ENDBRANCH   4   7
ENDBRANCH   2   3
ENDBRANCH   1   2
BRANCH   1  25
ATOM     25  C   UNL A   1      32.671  32.790  27.385  1.00  0.00     0.118 C 
BRANCH  25  26
ATOM     26  N   UNL A   1      32.435  34.202  27.659  1.00  0.00    -0.352 N 
ATOM     27  C   UNL A   1      32.976  35.012  28.627  1.00  0.00     0.251 C 
ATOM     28  H   UNL A   1      31.790  34.643  27.059  1.00  0.00     0.163 HD
ATOM     29  O   UNL A   1      32.493  36.111  28.858  1.00  0.00    -0.269 OA
BRANCH  27  30
ATOM     30  C   UNL A   1      34.137  34.528  29.401  1.00  0.00     0.039 A 
ATOM     31  C   UNL A   1      33.933  33.962  30.661  1.00  0.00     0.014 A 
ATOM     32  C   UNL A   1      35.422  34.614  28.864  1.00  0.00     0.014 A 
ATOM     33  C   UNL A   1      35.016  33.409  31.345  1.00  0.00     0.010 A 
ATOM     34  C   UNL A   1      36.470  33.955  29.486  1.00  0.00     0.010 A 
ATOM     35  C   UNL A   1      36.283  33.362  30.741  1.00  0.00    -0.014 A 
BRANCH  35  36
ATOM     36  C   UNL A   1      37.446  32.729  31.409  1.00  0.00     0.031 A 
ATOM     37  C   UNL A   1      38.146  31.577  30.743  1.00  0.00     0.074 A 
ATOM     38  C   UNL A   1      37.813  33.131  32.641  1.00  0.00     0.049 A 
ATOM     39  N   UNL A   1      39.103  30.812  31.201  1.00  0.00    -0.248 NA
ATOM     40  C   UNL A   1      37.680  31.211  29.394  1.00  0.00     0.031 C 
ATOM     41  C   UNL A   1      37.176  34.204  33.408  1.00  0.00     0.029 A 
ATOM     42  N   UNL A   1      38.804  32.674  33.471  1.00  0.00    -0.354 N 
ATOM     43  C   UNL A   1      39.336  29.869  30.209  1.00  0.00     0.074 A 
ATOM     44  C   UNL A   1      38.376  30.110  29.156  1.00  0.00     0.031 C 
ATOM     45  C   UNL A   1      37.810  34.340  34.583  1.00  0.00     0.029 A 
ATOM     46  C   UNL A   1      38.865  33.334  34.674  1.00  0.00     0.049 A 
ATOM     47  H   UNL A   1      39.415  31.941  33.227  1.00  0.00     0.167 HD
ATOM     48  C   UNL A   1      40.286  28.906  30.166  1.00  0.00     0.037 A 
ATOM     49  C   UNL A   1      39.672  33.139  35.733  1.00  0.00     0.037 A 
ATOM     50  C   UNL A   1      41.257  28.690  31.205  1.00  0.00     0.049 A 
ATOM     51  C   UNL A   1      40.712  32.052  35.667  1.00  0.00     0.074 A 
ATOM     52  C   UNL A   1      42.300  27.783  31.237  1.00  0.00     0.029 A 
ATOM     53  N   UNL A   1      41.300  29.396  32.400  1.00  0.00    -0.354 N 
ATOM     54  N   UNL A   1      40.969  31.211  34.695  1.00  0.00    -0.248 NA
ATOM     55  C   UNL A   1      41.578  31.893  36.843  1.00  0.00     0.031 C 
ATOM     56  C   UNL A   1      42.940  27.899  32.475  1.00  0.00     0.029 A 
ATOM     57  C   UNL A   1      42.338  28.925  33.187  1.00  0.00     0.049 A 
ATOM     58  H   UNL A   1      40.685  30.122  32.651  1.00  0.00     0.167 HD
ATOM     59  C   UNL A   1      42.047  30.447  35.126  1.00  0.00     0.074 A 
ATOM     60  C   UNL A   1      42.402  30.935  36.443  1.00  0.00     0.031 C 
ATOM     61  C   UNL A   1      42.686  29.434  34.489  1.00  0.00     0.037 A 
BRANCH  48  62
ATOM     62  C   UNL A   1      40.324  28.019  28.955  1.00  0.00     0.064 A 
ATOM     63  C   UNL A   1      41.065  28.361  27.812  1.00  0.00     0.173 A 
ATOM     64  C   UNL A   1      39.634  26.797  28.945  1.00  0.00     0.173 A 
ATOM     65  F   UNL A   1      41.732  29.524  27.762  1.00  0.00    -0.203 F 
ATOM     66  C   UNL A   1      41.084  27.530  26.694  1.00  0.00     0.198 A 
ATOM     67  C   UNL A   1      39.686  25.952  27.840  1.00  0.00     0.198 A 
ATOM     68  F   UNL A   1      38.913  26.418  30.012  1.00  0.00    -0.203 F 
ATOM     69  F   UNL A   1      41.750  27.907  25.594  1.00  0.00    -0.200 F 
ATOM     70  C   UNL A   1      40.403  26.323  26.712  1.00  0.00     0.200 A 
ATOM     71  F   UNL A   1      39.039  24.779  27.865  1.00  0.00    -0.200 F 
ATOM     72  F   UNL A   1      40.429  25.521  25.639  1.00  0.00    -0.200 F 
ENDBRANCH  48  62
BRANCH  49  73
ATOM     73  C   UNL A   1      39.547  34.004  36.936  1.00  0.00     0.064 A 
ATOM     74  C   UNL A   1      38.788  33.595  38.042  1.00  0.00     0.173 A 
ATOM     75  C   UNL A   1      40.171  35.258  37.005  1.00  0.00     0.173 A 
ATOM     76  F   UNL A   1      38.157  32.411  38.018  1.00  0.00    -0.203 F 
ATOM     77  C   UNL A   1      38.636  34.415  39.157  1.00  0.00     0.198 A 
ATOM     78  C   UNL A   1      40.045  36.065  38.134  1.00  0.00     0.198 A 
ATOM     79  F   UNL A   1      40.916  35.696  35.979  1.00  0.00    -0.203 F 
ATOM     80  F   UNL A   1      37.860  34.021  40.176  1.00  0.00    -0.200 F 
ATOM     81  C   UNL A   1      39.268  35.649  39.203  1.00  0.00     0.200 A 
ATOM     82  F   UNL A   1      40.673  37.248  38.183  1.00  0.00    -0.200 F 
ATOM     83  F   UNL A   1      39.124  36.437  40.277  1.00  0.00    -0.200 F 
ENDBRANCH  49  73
BRANCH  61  84
ATOM     84  C   UNL A   1      43.866  28.818  35.182  1.00  0.00     0.064 A 
ATOM     85  C   UNL A   1      45.168  29.309  35.004  1.00  0.00     0.173 A 
ATOM     86  C   UNL A   1      43.682  27.753  36.077  1.00  0.00     0.173 A 
ATOM     87  F   UNL A   1      45.400  30.316  34.149  1.00  0.00    -0.203 F 
ATOM     88  C   UNL A   1      46.244  28.739  35.679  1.00  0.00     0.198 A 
ATOM     89  C   UNL A   1      44.755  27.209  36.777  1.00  0.00     0.198 A 
ATOM     90  F   UNL A   1      42.455  27.252  36.289  1.00  0.00    -0.203 F 
ATOM     91  F   UNL A   1      47.486  29.192  35.458  1.00  0.00    -0.200 F 
ATOM     92  C   UNL A   1      46.036  27.698  36.572  1.00  0.00     0.200 A 
ATOM     93  F   UNL A   1      44.548  26.215  37.651  1.00  0.00    -0.200 F 
ATOM     94  F   UNL A   1      47.072  27.160  37.229  1.00  0.00    -0.200 F 
ENDBRANCH  61  84
ENDBRANCH  35  36
ENDBRANCH  27  30
ENDBRANCH  25  26
ENDBRANCH   1  25
TORSDOF 12
ENDMDL
MODEL 3
REMARK VINA RESULT:     -13.1      1.544      3.454
REMARK SMILES C[C@@H]1CCC[N@@H+]([C@@H]2CCC[C@]([NH3+])(C(=O)NCCCNC(=O)c3ccc(-c4c5nc(c(-c6c(F)c(F)c(F)c(F)c6F)c6ccc([nH]6)c(-c6c(F)c(F)c(F)c(F)c6F)c6nc(c(-c7c(F)c(F)c(F)c(F)c7F)c7ccc4[nH]7)C=C6)C=C5)cc3)C2)C1
REMARK SMILES IDX 17 1 16 2 15 3 13 4 14 5 11 7 7 8 8 9 85 10 9 11 10 12 6 13
REMARK SMILES IDX 1 14 2 15 3 16 86 17 4 18 5 19 12 21 18 25 19 26 20 27 21 29
REMARK SMILES IDX 22 30 23 31 84 32 24 33 83 34 25 35 26 36 27 37 77 38 28 39
REMARK SMILES IDX 82 40 76 41 78 42 29 43 81 44 75 45 74 46 30 48 62 49 42 50
REMARK SMILES IDX 61 51 43 52 46 53 60 54 79 55 44 56 45 57 59 59 80 60 47 61
REMARK SMILES IDX 31 62 32 63 40 64 33 65 34 66 38 67 41 68 35 69 36 70 39 71
REMARK SMILES IDX 37 72 63 73 64 74 72 75 65 76 66 77 70 78 73 79 67 80 68 81
REMARK SMILES IDX 71 82 69 83 48 84 49 85 57 86 50 87 51 88 55 89 58 90 52 91
REMARK SMILES IDX 53 92 56 93 54 94
REMARK H PARENT 15 6 6 20 12 22 12 23 12 24 19 28 78 47 46 58
REMARK Flexibility Score: inf
ROOT
ATOM      1  C   UNL A   1      31.538  32.153  26.625  1.00  0.00     0.042 C 
ENDROOT
BRANCH   1   2
ATOM      2  C   UNL A   1      31.815  30.714  26.247  1.00  0.00     0.118 C 
BRANCH   2   3
ATOM      3  N   UNL A   1      31.107  30.310  25.037  1.00  0.00    -0.351 N 
ATOM      4  C   UNL A   1      31.327  29.263  24.178  1.00  0.00     0.281 C 
ATOM      5  O   UNL A   1      30.578  29.153  23.206  1.00  0.00    -0.268 OA
ATOM      6  H   UNL A   1      30.344  30.885  24.798  1.00  0.00     0.163 HD
BRANCH   4   7
ATOM      7  C   UNL A   1      32.520  28.309  24.437  1.00  0.00     0.179 C 
ATOM      8  C   UNL A   1      33.769  26.169  23.742  1.00  0.00     0.190 C 
ATOM      9  C   UNL A   1      33.949  25.855  25.249  1.00  0.00     0.065 C 
ATOM     10  C   UNL A   1      32.594  27.142  23.424  1.00  0.00     0.144 C 
ATOM     11  C   UNL A   1      33.607  26.952  26.238  1.00  0.00     0.013 C 
ATOM     12  C   UNL A   1      32.332  27.636  25.814  1.00  0.00     0.079 C 
BRANCH   8  13
ATOM     13  N   UNL A   1      33.803  24.983  22.852  1.00  0.00    -0.332 N 
ATOM     14  C   UNL A   1      34.772  21.744  24.718  1.00  0.00     0.013 C 
ATOM     15  C   UNL A   1      33.880  22.919  24.328  1.00  0.00     0.041 C 
ATOM     16  C   UNL A   1      32.534  22.450  23.763  1.00  0.00     0.015 C 
ATOM     17  C   UNL A   1      34.611  23.861  23.351  1.00  0.00     0.265 C 
ATOM     18  C   UNL A   1      31.714  23.594  23.167  1.00  0.00     0.062 C 
ATOM     19  C   UNL A   1      32.550  24.503  22.267  1.00  0.00     0.262 C 
ATOM     20  H   UNL A   1      34.285  25.410  22.061  1.00  0.00     0.348 HD
ENDBRANCH   8  13
BRANCH   7  21
ATOM     21  N   UNL A   1      33.773  29.096  24.269  1.00  0.00    -0.345 N 
ATOM     22  H   UNL A   1      34.478  28.519  23.812  1.00  0.00     0.345 HD
ATOM     23  H   UNL A   1      34.115  29.390  25.184  1.00  0.00     0.345 HD
ATOM     24  H   UNL A   1      33.583  29.919  23.696  1.00  0.00     0.345 HD
ENDBRANCH   7  21
ENDBRANCH   4   7
ENDBRANCH   2   3
ENDBRANCH   1   2
BRANCH   1  25
ATOM     25  C   UNL A   1      32.684  32.778  27.390  1.00  0.00     0.118 C 
BRANCH  25  26
ATOM     26  N   UNL A   1      32.464  34.196  27.650  1.00  0.00    -0.352 N 
ATOM     27  C   UNL A   1      33.016  35.010  28.609  1.00  0.00     0.251 C 
ATOM     28  H   UNL A   1      31.823  34.637  27.046  1.00  0.00     0.163 HD
ATOM     29  O   UNL A   1      32.544  36.117  28.828  1.00  0.00    -0.269 OA
BRANCH  27  30
ATOM     30  C   UNL A   1      34.172  34.522  29.386  1.00  0.00     0.039 A 
ATOM     31  C   UNL A   1      33.958  33.910  30.622  1.00  0.00     0.014 A 
ATOM     32  C   UNL A   1      35.464  34.649  28.874  1.00  0.00     0.014 A 
ATOM     33  C   UNL A   1      35.040  33.355  31.306  1.00  0.00     0.010 A 
ATOM     34  C   UNL A   1      36.514  33.989  29.491  1.00  0.00     0.010 A 
ATOM     35  C   UNL A   1      36.317  33.351  30.723  1.00  0.00    -0.014 A 
BRANCH  35  36
ATOM     36  C   UNL A   1      37.481  32.718  31.389  1.00  0.00     0.031 A 
ATOM     37  C   UNL A   1      38.187  31.573  30.717  1.00  0.00     0.074 A 
ATOM     38  C   UNL A   1      37.844  33.113  32.625  1.00  0.00     0.049 A 
ATOM     39  N   UNL A   1      39.145  30.808  31.172  1.00  0.00    -0.248 NA
ATOM     40  C   UNL A   1      37.725  31.214  29.364  1.00  0.00     0.031 C 
ATOM     41  C   UNL A   1      37.202  34.178  33.397  1.00  0.00     0.029 A 
ATOM     42  N   UNL A   1      38.834  32.653  33.454  1.00  0.00    -0.354 N 
ATOM     43  C   UNL A   1      39.384  29.872  30.174  1.00  0.00     0.074 A 
ATOM     44  C   UNL A   1      38.425  30.118  29.120  1.00  0.00     0.031 C 
ATOM     45  C   UNL A   1      37.832  34.308  34.575  1.00  0.00     0.029 A 
ATOM     46  C   UNL A   1      38.890  33.305  34.661  1.00  0.00     0.049 A 
ATOM     47  H   UNL A   1      39.448  31.924  33.206  1.00  0.00     0.167 HD
ATOM     48  C   UNL A   1      40.337  28.913  30.127  1.00  0.00     0.037 A 
ATOM     49  C   UNL A   1      39.696  33.106  35.721  1.00  0.00     0.037 A 
ATOM     50  C   UNL A   1      41.306  28.694  31.167  1.00  0.00     0.049 A 
ATOM     51  C   UNL A   1      40.739  32.023  35.650  1.00  0.00     0.074 A 
ATOM     52  C   UNL A   1      42.352  27.790  31.195  1.00  0.00     0.029 A 
ATOM     53  N   UNL A   1      41.344  29.391  32.367  1.00  0.00    -0.354 N 
ATOM     54  N   UNL A   1      41.002  31.189  34.673  1.00  0.00    -0.248 NA
ATOM     55  C   UNL A   1      41.603  31.858  36.827  1.00  0.00     0.031 C 
ATOM     56  C   UNL A   1      42.989  27.900  32.435  1.00  0.00     0.029 A 
ATOM     57  C   UNL A   1      42.382  28.918  33.153  1.00  0.00     0.049 A 
ATOM     58  H   UNL A   1      40.726  30.113  32.621  1.00  0.00     0.167 HD
ATOM     59  C   UNL A   1      42.081  30.426  35.101  1.00  0.00     0.074 A 
ATOM     60  C   UNL A   1      42.431  30.906  36.422  1.00  0.00     0.031 C 
ATOM     61  C   UNL A   1      42.725  29.420  34.459  1.00  0.00     0.037 A 
BRANCH  48  62
ATOM     62  C   UNL A   1      40.381  28.034  28.910  1.00  0.00     0.064 A 
ATOM     63  C   UNL A   1      41.128  28.384  27.773  1.00  0.00     0.173 A 
ATOM     64  C   UNL A   1      39.691  26.813  28.888  1.00  0.00     0.173 A 
ATOM     65  F   UNL A   1      41.795  29.547  27.734  1.00  0.00    -0.203 F 
ATOM     66  C   UNL A   1      41.152  27.561  26.649  1.00  0.00     0.198 A 
ATOM     67  C   UNL A   1      39.748  25.975  27.777  1.00  0.00     0.198 A 
ATOM     68  F   UNL A   1      38.964  26.427  29.948  1.00  0.00    -0.203 F 
ATOM     69  F   UNL A   1      41.824  27.945  25.555  1.00  0.00    -0.200 F 
ATOM     70  C   UNL A   1      40.471  26.354  26.656  1.00  0.00     0.200 A 
ATOM     71  F   UNL A   1      39.100  24.803  27.790  1.00  0.00    -0.200 F 
ATOM     72  F   UNL A   1      40.503  25.559  25.577  1.00  0.00    -0.200 F 
ENDBRANCH  48  62
BRANCH  49  73
ATOM     73  C   UNL A   1      39.565  33.962  36.929  1.00  0.00     0.064 A 
ATOM     74  C   UNL A   1      38.800  33.545  38.028  1.00  0.00     0.173 A 
ATOM     75  C   UNL A   1      40.188  35.216  37.010  1.00  0.00     0.173 A 
ATOM     76  F   UNL A   1      38.169  32.362  37.993  1.00  0.00    -0.203 F 
ATOM     77  C   UNL A   1      38.642  34.358  39.149  1.00  0.00     0.198 A 
ATOM     78  C   UNL A   1      40.057  36.015  38.145  1.00  0.00     0.198 A 
ATOM     79  F   UNL A   1      40.939  35.660  35.991  1.00  0.00    -0.203 F 
ATOM     80  F   UNL A   1      37.862  33.956  40.161  1.00  0.00    -0.200 F 
ATOM     81  C   UNL A   1      39.275  35.591  39.207  1.00  0.00     0.200 A 
ATOM     82  F   UNL A   1      40.685  37.196  38.205  1.00  0.00    -0.200 F 
ATOM     83  F   UNL A   1      39.125  36.371  40.286  1.00  0.00    -0.200 F 
ENDBRANCH  49  73
BRANCH  61  84
ATOM     84  C   UNL A   1      43.905  28.803  35.150  1.00  0.00     0.064 A 
ATOM     85  C   UNL A   1      43.773  27.686  35.989  1.00  0.00     0.173 A 
ATOM     86  C   UNL A   1      45.196  29.307  34.926  1.00  0.00     0.173 A 
ATOM     87  F   UNL A   1      42.560  27.176  36.247  1.00  0.00    -0.203 F 
ATOM     88  C   UNL A   1      44.886  27.113  36.597  1.00  0.00     0.198 A 
ATOM     89  C   UNL A   1      46.311  28.709  35.507  1.00  0.00     0.198 A 
ATOM     90  F   UNL A   1      45.379  30.368  34.126  1.00  0.00    -0.203 F 
ATOM     91  F   UNL A   1      44.732  26.077  37.432  1.00  0.00    -0.200 F 
ATOM     92  C   UNL A   1      46.155  27.618  36.347  1.00  0.00     0.200 A 
ATOM     93  F   UNL A   1      47.536  29.189  35.251  1.00  0.00    -0.200 F 
ATOM     94  F   UNL A   1      47.226  27.056  36.924  1.00  0.00    -0.200 F 
ENDBRANCH  61  84
ENDBRANCH  35  36
ENDBRANCH  27  30
ENDBRANCH  25  26
ENDBRANCH   1  25
TORSDOF 12
ENDMDL
