MODEL 1
REMARK VINA RESULT:      -9.8      0.000      0.000
REMARK SMILES C=Cc1cncc(-c2ccc([C@@H](C)C(=O)NCCCNC(=O)c3ccc(-c4c5nc(c(-c6c(F)c(F)c(F)c(F)c6F)c6ccc([nH]6)c(-c6c(F)c(F)c(F)c(F)c6F)c6nc(c(-c7c(F)c(F)c(F)c(F)c7F)c7ccc4[nH]7)C=C6)C=C5)cc3)cc2)c1
REMARK SMILES IDX 17 1 16 2 14 3 15 4 12 6 13 7 11 8 8 9 9 10 87 11 10 12
REMARK SMILES IDX 86 13 7 14 3 15 4 16 88 17 5 18 6 19 2 20 1 21 18 22 19 23
REMARK SMILES IDX 20 24 21 25 22 27 23 28 24 29 85 30 25 31 84 32 26 33 27 34
REMARK SMILES IDX 28 35 78 36 29 37 83 38 77 39 79 40 30 41 82 42 76 43 75 44
REMARK SMILES IDX 31 46 63 47 43 48 62 49 44 50 47 51 61 52 80 53 45 54 46 55
REMARK SMILES IDX 60 57 81 58 48 59 32 60 33 61 41 62 34 63 35 64 39 65 42 66
REMARK SMILES IDX 36 67 37 68 40 69 38 70 64 71 65 72 73 73 66 74 67 75 71 76
REMARK SMILES IDX 74 77 68 78 69 79 72 80 70 81 49 82 50 83 58 84 51 85 52 86
REMARK SMILES IDX 56 87 59 88 53 89 54 90 57 91 55 92
REMARK H PARENT 16 5 20 26 79 45 47 56
REMARK Flexibility Score: inf
ROOT
ATOM      1  C   UNL A   1      34.680  34.137  31.026  1.00  0.00     0.117 C 
ENDROOT
BRANCH   1   2
ATOM      2  N   UNL A   1      35.959  34.626  31.502  1.00  0.00    -0.356 N 
ATOM      3  C   UNL A   1      36.648  34.400  32.653  1.00  0.00     0.227 C 
ATOM      4  O   UNL A   1      37.700  35.038  32.792  1.00  0.00    -0.274 OA
ATOM      5  H   UNL A   1      36.412  35.234  30.875  1.00  0.00     0.163 HD
BRANCH   3   6
ATOM      6  C   UNL A   1      36.194  33.426  33.751  1.00  0.00     0.105 C 
ATOM      7  C   UNL A   1      35.487  34.089  34.933  1.00  0.00     0.023 C 
BRANCH   6   8
ATOM      8  C   UNL A   1      37.249  32.385  34.095  1.00  0.00    -0.036 A 
ATOM      9  C   UNL A   1      39.375  30.533  34.560  1.00  0.00    -0.017 A 
ATOM     10  C   UNL A   1      39.014  31.496  35.516  1.00  0.00     0.009 A 
ATOM     11  C   UNL A   1      38.608  30.484  33.385  1.00  0.00     0.009 A 
ATOM     12  C   UNL A   1      37.955  32.387  35.300  1.00  0.00     0.005 A 
ATOM     13  C   UNL A   1      37.577  31.403  33.150  1.00  0.00     0.005 A 
BRANCH   9  14
ATOM     14  C   UNL A   1      40.531  29.638  34.774  1.00  0.00     0.001 A 
ATOM     15  C   UNL A   1      42.247  28.107  33.944  1.00  0.00    -0.007 A 
ATOM     16  C   UNL A   1      42.744  28.050  35.242  1.00  0.00     0.119 A 
ATOM     17  C   UNL A   1      41.121  28.910  33.727  1.00  0.00     0.020 A 
ATOM     18  N   UNL A   1      42.217  28.722  36.291  1.00  0.00    -0.263 NA
ATOM     19  C   UNL A   1      41.130  29.487  36.029  1.00  0.00     0.119 A 
BRANCH  15  20
ATOM     20  C   UNL A   1      42.870  27.302  32.887  1.00  0.00     0.002 C 
ATOM     21  C   UNL A   1      43.998  26.598  33.040  1.00  0.00     0.009 C 
ENDBRANCH  15  20
ENDBRANCH   9  14
ENDBRANCH   6   8
ENDBRANCH   3   6
ENDBRANCH   1   2
BRANCH   1  22
ATOM     22  C   UNL A   1      34.772  32.729  30.445  1.00  0.00     0.042 C 
BRANCH  22  23
ATOM     23  C   UNL A   1      34.765  32.682  28.921  1.00  0.00     0.118 C 
BRANCH  23  24
ATOM     24  N   UNL A   1      34.128  31.476  28.408  1.00  0.00    -0.352 N 
ATOM     25  C   UNL A   1      34.656  30.259  28.058  1.00  0.00     0.251 C 
ATOM     26  H   UNL A   1      33.153  31.548  28.292  1.00  0.00     0.163 HD
ATOM     27  O   UNL A   1      33.949  29.455  27.456  1.00  0.00    -0.269 OA
BRANCH  25  28
ATOM     28  C   UNL A   1      36.056  29.893  28.380  1.00  0.00     0.039 A 
ATOM     29  C   UNL A   1      37.033  30.055  27.391  1.00  0.00     0.014 A 
ATOM     30  C   UNL A   1      36.409  29.330  29.608  1.00  0.00     0.014 A 
ATOM     31  C   UNL A   1      38.362  29.702  27.648  1.00  0.00     0.010 A 
ATOM     32  C   UNL A   1      37.746  29.050  29.893  1.00  0.00     0.010 A 
ATOM     33  C   UNL A   1      38.735  29.220  28.912  1.00  0.00    -0.014 A 
BRANCH  33  34
ATOM     34  C   UNL A   1      40.146  28.872  29.219  1.00  0.00     0.031 A 
ATOM     35  C   UNL A   1      41.005  29.817  30.013  1.00  0.00     0.074 A 
ATOM     36  C   UNL A   1      40.674  27.731  28.735  1.00  0.00     0.049 A 
ATOM     37  N   UNL A   1      42.277  29.731  30.315  1.00  0.00    -0.248 NA
ATOM     38  C   UNL A   1      40.353  31.038  30.514  1.00  0.00     0.031 C 
ATOM     39  C   UNL A   1      39.960  26.750  27.917  1.00  0.00     0.029 A 
ATOM     40  N   UNL A   1      41.939  27.209  28.852  1.00  0.00    -0.354 N 
ATOM     41  C   UNL A   1      42.579  30.888  31.020  1.00  0.00     0.074 A 
ATOM     42  C   UNL A   1      41.371  31.685  31.062  1.00  0.00     0.031 C 
ATOM     43  C   UNL A   1      40.790  25.735  27.624  1.00  0.00     0.029 A 
ATOM     44  C   UNL A   1      42.101  26.010  28.203  1.00  0.00     0.049 A 
ATOM     45  H   UNL A   1      42.661  27.653  29.353  1.00  0.00     0.167 HD
ATOM     46  C   UNL A   1      43.751  31.246  31.599  1.00  0.00     0.037 A 
ATOM     47  C   UNL A   1      43.188  25.224  28.084  1.00  0.00     0.037 A 
ATOM     48  C   UNL A   1      44.942  30.439  31.586  1.00  0.00     0.049 A 
ATOM     49  C   UNL A   1      44.474  25.639  28.743  1.00  0.00     0.074 A 
ATOM     50  C   UNL A   1      46.163  30.690  32.187  1.00  0.00     0.029 A 
ATOM     51  N   UNL A   1      45.060  29.218  30.937  1.00  0.00    -0.354 N 
ATOM     52  N   UNL A   1      44.734  26.713  29.448  1.00  0.00    -0.248 NA
ATOM     53  C   UNL A   1      45.618  24.729  28.593  1.00  0.00     0.031 C 
ATOM     54  C   UNL A   1      47.031  29.637  31.874  1.00  0.00     0.029 A 
ATOM     55  C   UNL A   1      46.337  28.710  31.114  1.00  0.00     0.049 A 
ATOM     56  H   UNL A   1      44.342  28.777  30.427  1.00  0.00     0.167 HD
ATOM     57  C   UNL A   1      46.058  26.597  29.847  1.00  0.00     0.074 A 
ATOM     58  C   UNL A   1      46.545  25.340  29.317  1.00  0.00     0.031 C 
ATOM     59  C   UNL A   1      46.804  27.454  30.585  1.00  0.00     0.037 A 
BRANCH  46  60
ATOM     60  C   UNL A   1      43.799  32.570  32.305  1.00  0.00     0.064 A 
ATOM     61  C   UNL A   1      43.453  32.693  33.659  1.00  0.00     0.173 A 
ATOM     62  C   UNL A   1      44.227  33.723  31.631  1.00  0.00     0.173 A 
ATOM     63  F   UNL A   1      43.026  31.622  34.347  1.00  0.00    -0.203 F 
ATOM     64  C   UNL A   1      43.507  33.925  34.304  1.00  0.00     0.198 A 
ATOM     65  C   UNL A   1      44.308  34.949  32.286  1.00  0.00     0.198 A 
ATOM     66  F   UNL A   1      44.576  33.660  30.337  1.00  0.00    -0.203 F 
ATOM     67  F   UNL A   1      43.126  34.027  35.585  1.00  0.00    -0.200 F 
ATOM     68  C   UNL A   1      43.940  35.051  33.620  1.00  0.00     0.200 A 
ATOM     69  F   UNL A   1      44.738  36.034  31.627  1.00  0.00    -0.200 F 
ATOM     70  F   UNL A   1      43.997  36.236  34.243  1.00  0.00    -0.200 F 
ENDBRANCH  46  60
BRANCH  47  71
ATOM     71  C   UNL A   1      43.096  23.945  27.334  1.00  0.00     0.064 A 
ATOM     72  C   UNL A   1      42.628  22.781  27.960  1.00  0.00     0.173 A 
ATOM     73  C   UNL A   1      43.471  23.857  25.987  1.00  0.00     0.173 A 
ATOM     74  F   UNL A   1      42.280  22.811  29.255  1.00  0.00    -0.203 F 
ATOM     75  C   UNL A   1      42.554  21.573  27.270  1.00  0.00     0.198 A 
ATOM     76  C   UNL A   1      43.373  22.654  25.290  1.00  0.00     0.198 A 
ATOM     77  F   UNL A   1      43.925  24.943  25.344  1.00  0.00    -0.203 F 
ATOM     78  F   UNL A   1      42.143  20.467  27.904  1.00  0.00    -0.200 F 
ATOM     79  C   UNL A   1      42.921  21.512  25.934  1.00  0.00     0.200 A 
ATOM     80  F   UNL A   1      43.722  22.600  23.998  1.00  0.00    -0.200 F 
ATOM     81  F   UNL A   1      42.849  20.350  25.271  1.00  0.00    -0.200 F 
ENDBRANCH  47  71
BRANCH  59  82
ATOM     82  C   UNL A   1      48.215  27.049  30.891  1.00  0.00     0.064 A 
ATOM     83  C   UNL A   1      49.290  27.479  30.101  1.00  0.00     0.173 A 
ATOM     84  C   UNL A   1      48.497  26.250  32.010  1.00  0.00     0.173 A 
ATOM     85  F   UNL A   1      49.069  28.231  29.012  1.00  0.00    -0.203 F 
ATOM     86  C   UNL A   1      50.596  27.105  30.407  1.00  0.00     0.198 A 
ATOM     87  C   UNL A   1      49.806  25.901  32.328  1.00  0.00     0.198 A 
ATOM     88  F   UNL A   1      47.503  25.818  32.800  1.00  0.00    -0.203 F 
ATOM     89  F   UNL A   1      51.605  27.491  29.614  1.00  0.00    -0.200 F 
ATOM     90  C   UNL A   1      50.853  26.322  31.523  1.00  0.00     0.200 A 
ATOM     91  F   UNL A   1      50.054  25.153  33.412  1.00  0.00    -0.200 F 
ATOM     92  F   UNL A   1      52.111  25.968  31.818  1.00  0.00    -0.200 F 
ENDBRANCH  59  82
ENDBRANCH  33  34
ENDBRANCH  25  28
ENDBRANCH  23  24
ENDBRANCH  22  23
ENDBRANCH   1  22
TORSDOF 13
ENDMDL
MODEL 2
REMARK VINA RESULT:      -9.6      0.728      2.218
REMARK SMILES C=Cc1cncc(-c2ccc([C@@H](C)C(=O)NCCCNC(=O)c3ccc(-c4c5nc(c(-c6c(F)c(F)c(F)c(F)c6F)c6ccc([nH]6)c(-c6c(F)c(F)c(F)c(F)c6F)c6nc(c(-c7c(F)c(F)c(F)c(F)c7F)c7ccc4[nH]7)C=C6)C=C5)cc3)cc2)c1
REMARK SMILES IDX 17 1 16 2 14 3 15 4 12 6 13 7 11 8 8 9 9 10 87 11 10 12
REMARK SMILES IDX 86 13 7 14 3 15 4 16 88 17 5 18 6 19 2 20 1 21 18 22 19 23
REMARK SMILES IDX 20 24 21 25 22 27 23 28 24 29 85 30 25 31 84 32 26 33 27 34
REMARK SMILES IDX 28 35 78 36 29 37 83 38 77 39 79 40 30 41 82 42 76 43 75 44
REMARK SMILES IDX 31 46 63 47 43 48 62 49 44 50 47 51 61 52 80 53 45 54 46 55
REMARK SMILES IDX 60 57 81 58 48 59 32 60 33 61 41 62 34 63 35 64 39 65 42 66
REMARK SMILES IDX 36 67 37 68 40 69 38 70 64 71 65 72 73 73 66 74 67 75 71 76
REMARK SMILES IDX 74 77 68 78 69 79 72 80 70 81 49 82 50 83 58 84 51 85 52 86
REMARK SMILES IDX 56 87 59 88 53 89 54 90 57 91 55 92
REMARK H PARENT 16 5 20 26 79 45 47 56
REMARK Flexibility Score: inf
ROOT
ATOM      1  C   UNL A   1      34.944  32.898  30.908  1.00  0.00     0.117 C 
ENDROOT
BRANCH   1   2
ATOM      2  N   UNL A   1      35.140  33.929  31.908  1.00  0.00    -0.356 N 
ATOM      3  C   UNL A   1      36.263  34.517  32.402  1.00  0.00     0.227 C 
ATOM      4  O   UNL A   1      36.093  35.329  33.321  1.00  0.00    -0.274 OA
ATOM      5  H   UNL A   1      34.303  34.267  32.302  1.00  0.00     0.163 HD
BRANCH   3   6
ATOM      6  C   UNL A   1      37.683  34.225  31.891  1.00  0.00     0.105 C 
ATOM      7  C   UNL A   1      37.806  34.156  30.369  1.00  0.00     0.023 C 
BRANCH   6   8
ATOM      8  C   UNL A   1      38.380  33.124  32.675  1.00  0.00    -0.036 A 
ATOM      9  C   UNL A   1      39.759  30.954  33.924  1.00  0.00    -0.017 A 
ATOM     10  C   UNL A   1      40.211  32.278  34.038  1.00  0.00     0.009 A 
ATOM     11  C   UNL A   1      38.566  30.748  33.214  1.00  0.00     0.009 A 
ATOM     12  C   UNL A   1      39.522  33.346  33.448  1.00  0.00     0.005 A 
ATOM     13  C   UNL A   1      37.899  31.810  32.587  1.00  0.00     0.005 A 
BRANCH   9  14
ATOM     14  C   UNL A   1      40.527  29.832  34.501  1.00  0.00     0.001 A 
ATOM     15  C   UNL A   1      42.125  27.992  34.298  1.00  0.00    -0.007 A 
ATOM     16  C   UNL A   1      41.995  27.803  35.669  1.00  0.00     0.119 A 
ATOM     17  C   UNL A   1      41.368  29.019  33.720  1.00  0.00     0.020 A 
ATOM     18  N   UNL A   1      41.199  28.547  36.470  1.00  0.00    -0.263 NA
ATOM     19  C   UNL A   1      40.488  29.529  35.865  1.00  0.00     0.119 A 
BRANCH  15  20
ATOM     20  C   UNL A   1      42.985  27.098  33.514  1.00  0.00     0.002 C 
ATOM     21  C   UNL A   1      44.316  27.213  33.432  1.00  0.00     0.009 C 
ENDBRANCH  15  20
ENDBRANCH   9  14
ENDBRANCH   6   8
ENDBRANCH   3   6
ENDBRANCH   1   2
BRANCH   1  22
ATOM     22  C   UNL A   1      34.413  33.455  29.590  1.00  0.00     0.042 C 
BRANCH  22  23
ATOM     23  C   UNL A   1      34.921  32.723  28.354  1.00  0.00     0.118 C 
BRANCH  23  24
ATOM     24  N   UNL A   1      34.214  31.471  28.122  1.00  0.00    -0.352 N 
ATOM     25  C   UNL A   1      34.682  30.192  27.952  1.00  0.00     0.251 C 
ATOM     26  H   UNL A   1      33.234  31.557  28.080  1.00  0.00     0.163 HD
ATOM     27  O   UNL A   1      33.905  29.321  27.568  1.00  0.00    -0.269 OA
BRANCH  25  28
ATOM     28  C   UNL A   1      36.097  29.837  28.213  1.00  0.00     0.039 A 
ATOM     29  C   UNL A   1      36.439  29.335  29.474  1.00  0.00     0.014 A 
ATOM     30  C   UNL A   1      37.101  30.056  27.266  1.00  0.00     0.014 A 
ATOM     31  C   UNL A   1      37.767  29.009  29.767  1.00  0.00     0.010 A 
ATOM     32  C   UNL A   1      38.412  29.659  27.530  1.00  0.00     0.010 A 
ATOM     33  C   UNL A   1      38.762  29.143  28.786  1.00  0.00    -0.014 A 
BRANCH  33  34
ATOM     34  C   UNL A   1      40.173  28.770  29.064  1.00  0.00     0.031 A 
ATOM     35  C   UNL A   1      41.082  29.727  29.786  1.00  0.00     0.074 A 
ATOM     36  C   UNL A   1      40.655  27.593  28.618  1.00  0.00     0.049 A 
ATOM     37  N   UNL A   1      42.361  29.619  30.051  1.00  0.00    -0.248 NA
ATOM     38  C   UNL A   1      40.480  30.988  30.249  1.00  0.00     0.031 C 
ATOM     39  C   UNL A   1      39.889  26.596  27.871  1.00  0.00     0.029 A 
ATOM     40  N   UNL A   1      41.909  27.043  28.720  1.00  0.00    -0.354 N 
ATOM     41  C   UNL A   1      42.716  30.800  30.690  1.00  0.00     0.074 A 
ATOM     42  C   UNL A   1      41.532  31.631  30.733  1.00  0.00     0.031 C 
ATOM     43  C   UNL A   1      40.681  25.546  27.600  1.00  0.00     0.029 A 
ATOM     44  C   UNL A   1      42.018  25.811  28.124  1.00  0.00     0.049 A 
ATOM     45  H   UNL A   1      42.658  27.489  29.176  1.00  0.00     0.167 HD
ATOM     46  C   UNL A   1      43.915  31.150  31.215  1.00  0.00     0.037 A 
ATOM     47  C   UNL A   1      43.079  24.990  28.007  1.00  0.00     0.037 A 
ATOM     48  C   UNL A   1      45.084  30.311  31.202  1.00  0.00     0.049 A 
ATOM     49  C   UNL A   1      44.397  25.399  28.605  1.00  0.00     0.074 A 
ATOM     50  C   UNL A   1      46.330  30.556  31.752  1.00  0.00     0.029 A 
ATOM     51  N   UNL A   1      45.148  29.059  30.609  1.00  0.00    -0.354 N 
ATOM     52  N   UNL A   1      44.708  26.497  29.251  1.00  0.00    -0.248 NA
ATOM     53  C   UNL A   1      45.511  24.452  28.462  1.00  0.00     0.031 C 
ATOM     54  C   UNL A   1      47.159  29.466  31.462  1.00  0.00     0.029 A 
ATOM     55  C   UNL A   1      46.416  28.524  30.769  1.00  0.00     0.049 A 
ATOM     56  H   UNL A   1      44.402  28.615  30.143  1.00  0.00     0.167 HD
ATOM     57  C   UNL A   1      46.041  26.363  29.613  1.00  0.00     0.074 A 
ATOM     58  C   UNL A   1      46.477  25.069  29.127  1.00  0.00     0.031 C 
ATOM     59  C   UNL A   1      46.832  27.233  30.286  1.00  0.00     0.037 A 
BRANCH  46  60
ATOM     60  C   UNL A   1      44.021  32.504  31.856  1.00  0.00     0.064 A 
ATOM     61  C   UNL A   1      44.344  33.647  31.109  1.00  0.00     0.173 A 
ATOM     62  C   UNL A   1      43.764  32.667  33.225  1.00  0.00     0.173 A 
ATOM     63  F   UNL A   1      44.610  33.544  29.798  1.00  0.00    -0.203 F 
ATOM     64  C   UNL A   1      44.435  34.897  31.715  1.00  0.00     0.198 A 
ATOM     65  C   UNL A   1      43.826  33.924  33.823  1.00  0.00     0.198 A 
ATOM     66  F   UNL A   1      43.444  31.608  33.985  1.00  0.00    -0.203 F 
ATOM     67  F   UNL A   1      44.792  35.967  30.990  1.00  0.00    -0.200 F 
ATOM     68  C   UNL A   1      44.170  35.036  33.069  1.00  0.00     0.200 A 
ATOM     69  F   UNL A   1      43.558  34.058  35.129  1.00  0.00    -0.200 F 
ATOM     70  F   UNL A   1      44.251  36.241  33.649  1.00  0.00    -0.200 F 
ENDBRANCH  46  60
BRANCH  47  71
ATOM     71  C   UNL A   1      42.929  23.681  27.323  1.00  0.00     0.064 A 
ATOM     72  C   UNL A   1      43.307  23.527  25.982  1.00  0.00     0.173 A 
ATOM     73  C   UNL A   1      42.410  22.562  27.988  1.00  0.00     0.173 A 
ATOM     74  F   UNL A   1      43.787  24.576  25.297  1.00  0.00    -0.203 F 
ATOM     75  C   UNL A   1      43.155  22.307  25.327  1.00  0.00     0.198 A 
ATOM     76  C   UNL A   1      42.282  21.335  27.339  1.00  0.00     0.198 A 
ATOM     77  F   UNL A   1      42.035  22.658  29.272  1.00  0.00    -0.203 F 
ATOM     78  F   UNL A   1      43.484  22.199  24.032  1.00  0.00    -0.200 F 
ATOM     79  C   UNL A   1      42.647  21.210  26.008  1.00  0.00     0.200 A 
ATOM     80  F   UNL A   1      41.798  20.276  28.003  1.00  0.00    -0.200 F 
ATOM     81  F   UNL A   1      42.503  20.037  25.377  1.00  0.00    -0.200 F 
ENDBRANCH  47  71
BRANCH  59  82
ATOM     82  C   UNL A   1      48.242  26.803  30.566  1.00  0.00     0.064 A 
ATOM     83  C   UNL A   1      48.561  26.012  31.679  1.00  0.00     0.173 A 
ATOM     84  C   UNL A   1      49.279  27.157  29.689  1.00  0.00     0.173 A 
ATOM     85  F   UNL A   1      47.607  25.662  32.554  1.00  0.00    -0.203 F 
ATOM     86  C   UNL A   1      49.873  25.610  31.916  1.00  0.00     0.198 A 
ATOM     87  C   UNL A   1      50.584  26.730  29.915  1.00  0.00     0.198 A 
ATOM     88  F   UNL A   1      49.023  27.907  28.607  1.00  0.00    -0.203 F 
ATOM     89  F   UNL A   1      50.163  24.891  33.009  1.00  0.00    -0.200 F 
ATOM     90  C   UNL A   1      50.881  25.963  31.032  1.00  0.00     0.200 A 
ATOM     91  F   UNL A   1      51.555  27.064  29.054  1.00  0.00    -0.200 F 
ATOM     92  F   UNL A   1      52.141  25.571  31.260  1.00  0.00    -0.200 F 
ENDBRANCH  59  82
ENDBRANCH  33  34
ENDBRANCH  25  28
ENDBRANCH  23  24
ENDBRANCH  22  23
ENDBRANCH   1  22
TORSDOF 13
ENDMDL
MODEL 3
REMARK VINA RESULT:      -9.5      3.736      9.651
REMARK SMILES C=Cc1cncc(-c2ccc([C@@H](C)C(=O)NCCCNC(=O)c3ccc(-c4c5nc(c(-c6c(F)c(F)c(F)c(F)c6F)c6ccc([nH]6)c(-c6c(F)c(F)c(F)c(F)c6F)c6nc(c(-c7c(F)c(F)c(F)c(F)c7F)c7ccc4[nH]7)C=C6)C=C5)cc3)cc2)c1
REMARK SMILES IDX 17 1 16 2 14 3 15 4 12 6 13 7 11 8 8 9 9 10 87 11 10 12
REMARK SMILES IDX 86 13 7 14 3 15 4 16 88 17 5 18 6 19 2 20 1 21 18 22 19 23
REMARK SMILES IDX 20 24 21 25 22 27 23 28 24 29 85 30 25 31 84 32 26 33 27 34
REMARK SMILES IDX 28 35 78 36 29 37 83 38 77 39 79 40 30 41 82 42 76 43 75 44
REMARK SMILES IDX 31 46 63 47 43 48 62 49 44 50 47 51 61 52 80 53 45 54 46 55
REMARK SMILES IDX 60 57 81 58 48 59 32 60 33 61 41 62 34 63 35 64 39 65 42 66
REMARK SMILES IDX 36 67 37 68 40 69 38 70 64 71 65 72 73 73 66 74 67 75 71 76
REMARK SMILES IDX 74 77 68 78 69 79 72 80 70 81 49 82 50 83 58 84 51 85 52 86
REMARK SMILES IDX 56 87 59 88 53 89 54 90 57 91 55 92
REMARK H PARENT 16 5 20 26 79 45 47 56
REMARK Flexibility Score: inf
ROOT
ATOM      1  C   UNL A   1      31.741  27.636  25.979  1.00  0.00     0.117 C 
ENDROOT
BRANCH   1   2
ATOM      2  N   UNL A   1      30.962  26.500  26.429  1.00  0.00    -0.356 N 
ATOM      3  C   UNL A   1      30.784  25.255  25.909  1.00  0.00     0.227 C 
ATOM      4  O   UNL A   1      29.980  24.526  26.506  1.00  0.00    -0.274 OA
ATOM      5  H   UNL A   1      30.470  26.660  27.267  1.00  0.00     0.163 HD
BRANCH   3   6
ATOM      6  C   UNL A   1      31.506  24.734  24.658  1.00  0.00     0.105 C 
ATOM      7  C   UNL A   1      30.640  23.868  23.742  1.00  0.00     0.023 C 
BRANCH   6   8
ATOM      8  C   UNL A   1      32.904  24.214  24.953  1.00  0.00    -0.036 A 
ATOM      9  C   UNL A   1      35.613  23.478  25.491  1.00  0.00    -0.017 A 
ATOM     10  C   UNL A   1      34.607  23.350  26.462  1.00  0.00     0.009 A 
ATOM     11  C   UNL A   1      35.218  23.933  24.223  1.00  0.00     0.009 A 
ATOM     12  C   UNL A   1      33.274  23.686  26.191  1.00  0.00     0.005 A 
ATOM     13  C   UNL A   1      33.894  24.310  23.964  1.00  0.00     0.005 A 
BRANCH   9  14
ATOM     14  C   UNL A   1      37.024  23.176  25.807  1.00  0.00     0.001 A 
ATOM     15  C   UNL A   1      39.173  23.761  26.817  1.00  0.00    -0.007 A 
ATOM     16  C   UNL A   1      39.630  22.505  26.435  1.00  0.00     0.119 A 
ATOM     17  C   UNL A   1      37.853  24.089  26.483  1.00  0.00     0.020 A 
ATOM     18  N   UNL A   1      38.884  21.589  25.778  1.00  0.00    -0.263 NA
ATOM     19  C   UNL A   1      37.612  21.951  25.480  1.00  0.00     0.119 A 
BRANCH  15  20
ATOM     20  C   UNL A   1      40.082  24.697  27.489  1.00  0.00     0.002 C 
ATOM     21  C   UNL A   1      39.732  25.484  28.513  1.00  0.00     0.009 C 
ENDBRANCH  15  20
ENDBRANCH   9  14
ENDBRANCH   6   8
ENDBRANCH   3   6
ENDBRANCH   1   2
BRANCH   1  22
ATOM     22  C   UNL A   1      33.174  27.607  26.506  1.00  0.00     0.042 C 
BRANCH  22  23
ATOM     23  C   UNL A   1      34.049  28.744  25.992  1.00  0.00     0.118 C 
BRANCH  23  24
ATOM     24  N   UNL A   1      33.500  30.055  26.316  1.00  0.00    -0.352 N 
ATOM     25  C   UNL A   1      33.893  30.991  27.239  1.00  0.00     0.251 C 
ATOM     26  H   UNL A   1      32.714  30.311  25.781  1.00  0.00     0.163 HD
ATOM     27  O   UNL A   1      33.152  31.943  27.472  1.00  0.00    -0.269 OA
BRANCH  25  28
ATOM     28  C   UNL A   1      35.181  30.881  27.964  1.00  0.00     0.039 A 
ATOM     29  C   UNL A   1      36.062  31.968  27.930  1.00  0.00     0.014 A 
ATOM     30  C   UNL A   1      35.566  29.705  28.612  1.00  0.00     0.014 A 
ATOM     31  C   UNL A   1      37.297  31.895  28.584  1.00  0.00     0.010 A 
ATOM     32  C   UNL A   1      36.762  29.659  29.329  1.00  0.00     0.010 A 
ATOM     33  C   UNL A   1      37.646  30.748  29.312  1.00  0.00    -0.014 A 
BRANCH  33  34
ATOM     34  C   UNL A   1      38.937  30.662  30.043  1.00  0.00     0.031 A 
ATOM     35  C   UNL A   1      40.077  29.862  29.475  1.00  0.00     0.074 A 
ATOM     36  C   UNL A   1      39.067  31.258  31.244  1.00  0.00     0.049 A 
ATOM     37  N   UNL A   1      41.251  29.601  29.997  1.00  0.00    -0.248 NA
ATOM     38  C   UNL A   1      39.860  29.249  28.155  1.00  0.00     0.031 C 
ATOM     39  C   UNL A   1      38.025  32.028  31.923  1.00  0.00     0.029 A 
ATOM     40  N   UNL A   1      40.130  31.298  32.113  1.00  0.00    -0.354 N 
ATOM     41  C   UNL A   1      41.899  28.782  29.081  1.00  0.00     0.074 A 
ATOM     42  C   UNL A   1      40.974  28.550  27.992  1.00  0.00     0.031 C 
ATOM     43  C   UNL A   1      38.505  32.483  33.091  1.00  0.00     0.029 A 
ATOM     44  C   UNL A   1      39.875  32.008  33.260  1.00  0.00     0.049 A 
ATOM     45  H   UNL A   1      40.992  30.858  31.931  1.00  0.00     0.167 HD
ATOM     46  C   UNL A   1      43.159  28.287  29.133  1.00  0.00     0.037 A 
ATOM     47  C   UNL A   1      40.657  32.245  34.330  1.00  0.00     0.037 A 
ATOM     48  C   UNL A   1      44.090  28.545  30.199  1.00  0.00     0.049 A 
ATOM     49  C   UNL A   1      42.055  31.691  34.359  1.00  0.00     0.074 A 
ATOM     50  C   UNL A   1      45.405  28.131  30.317  1.00  0.00     0.029 A 
ATOM     51  N   UNL A   1      43.803  29.290  31.333  1.00  0.00    -0.354 N 
ATOM     52  N   UNL A   1      42.674  30.959  33.464  1.00  0.00    -0.248 NA
ATOM     53  C   UNL A   1      42.866  32.001  35.545  1.00  0.00     0.031 C 
ATOM     54  C   UNL A   1      45.904  28.598  31.539  1.00  0.00     0.029 A 
ATOM     55  C   UNL A   1      44.912  29.337  32.162  1.00  0.00     0.049 A 
ATOM     56  H   UNL A   1      42.937  29.722  31.522  1.00  0.00     0.167 HD
ATOM     57  C   UNL A   1      43.950  30.743  33.965  1.00  0.00     0.074 A 
ATOM     58  C   UNL A   1      44.023  31.433  35.237  1.00  0.00     0.031 C 
ATOM     59  C   UNL A   1      44.970  30.035  33.421  1.00  0.00     0.037 A 
BRANCH  46  60
ATOM     60  C   UNL A   1      43.609  27.418  27.993  1.00  0.00     0.064 A 
ATOM     61  C   UNL A   1      43.462  26.024  28.032  1.00  0.00     0.173 A 
ATOM     62  C   UNL A   1      44.161  27.988  26.837  1.00  0.00     0.173 A 
ATOM     63  F   UNL A   1      42.949  25.429  29.120  1.00  0.00    -0.203 F 
ATOM     64  C   UNL A   1      43.878  25.229  26.967  1.00  0.00     0.198 A 
ATOM     65  C   UNL A   1      44.550  27.193  25.761  1.00  0.00     0.198 A 
ATOM     66  F   UNL A   1      44.318  29.317  26.745  1.00  0.00    -0.203 F 
ATOM     67  F   UNL A   1      43.772  23.895  27.047  1.00  0.00    -0.200 F 
ATOM     68  C   UNL A   1      44.415  25.813  25.830  1.00  0.00     0.200 A 
ATOM     69  F   UNL A   1      45.058  27.760  24.658  1.00  0.00    -0.200 F 
ATOM     70  F   UNL A   1      44.810  25.048  24.804  1.00  0.00    -0.200 F 
ENDBRANCH  46  60
BRANCH  47  71
ATOM     71  C   UNL A   1      40.146  33.075  35.451  1.00  0.00     0.064 A 
ATOM     72  C   UNL A   1      40.365  34.459  35.475  1.00  0.00     0.173 A 
ATOM     73  C   UNL A   1      39.432  32.507  36.515  1.00  0.00     0.173 A 
ATOM     74  F   UNL A   1      41.064  35.043  34.489  1.00  0.00    -0.203 F 
ATOM     75  C   UNL A   1      39.903  35.242  36.529  1.00  0.00     0.198 A 
ATOM     76  C   UNL A   1      38.949  33.296  37.558  1.00  0.00     0.198 A 
ATOM     77  F   UNL A   1      39.196  31.187  36.538  1.00  0.00    -0.203 F 
ATOM     78  F   UNL A   1      40.163  36.557  36.548  1.00  0.00    -0.200 F 
ATOM     79  C   UNL A   1      39.190  34.661  37.567  1.00  0.00     0.200 A 
ATOM     80  F   UNL A   1      38.254  32.732  38.555  1.00  0.00    -0.200 F 
ATOM     81  F   UNL A   1      38.746  35.416  38.581  1.00  0.00    -0.200 F 
ENDBRANCH  47  71
BRANCH  59  82
ATOM     82  C   UNL A   1      46.262  29.998  34.181  1.00  0.00     0.064 A 
ATOM     83  C   UNL A   1      46.537  28.987  35.113  1.00  0.00     0.173 A 
ATOM     84  C   UNL A   1      47.251  30.966  33.948  1.00  0.00     0.173 A 
ATOM     85  F   UNL A   1      45.617  28.049  35.382  1.00  0.00    -0.203 F 
ATOM     86  C   UNL A   1      47.747  28.959  35.800  1.00  0.00     0.198 A 
ATOM     87  C   UNL A   1      48.470  30.918  34.616  1.00  0.00     0.198 A 
ATOM     88  F   UNL A   1      47.038  31.950  33.062  1.00  0.00    -0.203 F 
ATOM     89  F   UNL A   1      47.973  28.009  36.718  1.00  0.00    -0.200 F 
ATOM     90  C   UNL A   1      48.715  29.920  35.547  1.00  0.00     0.200 A 
ATOM     91  F   UNL A   1      49.408  31.842  34.363  1.00  0.00    -0.200 F 
ATOM     92  F   UNL A   1      49.881  29.888  36.206  1.00  0.00    -0.200 F 
ENDBRANCH  59  82
ENDBRANCH  33  34
ENDBRANCH  25  28
ENDBRANCH  23  24
ENDBRANCH  22  23
ENDBRANCH   1  22
TORSDOF 13
ENDMDL
