MODEL 1
REMARK VINA RESULT:     -13.5      0.000      0.000
REMARK SMILES Cc1nc(-c2ccccc2Cl)nc2sc(C(=O)NCCCNC(=O)c3ccc(-c4c5nc(c(-c6c(F)c(F)c(F)c(F)c6F)c6ccc([nH]6)c(-c6c(F)c(F)c(F)c(F)c6F)c6nc(c(-c7c(F)c(F)c(F)c(F)c7F)c7ccc4[nH]7)C=C6)C=C5)cc3)c(N)c12
REMARK SMILES IDX 20 1 19 2 18 3 16 4 17 5 15 7 1 8 2 9 3 10 90 11 4 12 13 13
REMARK SMILES IDX 88 14 12 15 14 16 5 17 6 18 10 19 7 20 9 21 11 22 8 23 89 24
REMARK SMILES IDX 21 27 22 28 23 29 24 31 25 32 26 33 87 34 27 35 86 36 28 37
REMARK SMILES IDX 29 38 30 39 80 40 31 41 85 42 79 43 81 44 32 45 84 46 78 47
REMARK SMILES IDX 77 48 33 50 65 51 45 52 64 53 46 54 49 55 63 56 82 57 47 58
REMARK SMILES IDX 48 59 62 61 83 62 50 63 34 64 35 65 43 66 36 67 37 68 41 69
REMARK SMILES IDX 44 70 38 71 39 72 42 73 40 74 66 75 67 76 75 77 68 78 69 79
REMARK SMILES IDX 73 80 76 81 70 82 71 83 74 84 72 85 51 86 52 87 60 88 53 89
REMARK SMILES IDX 54 90 58 91 61 92 55 93 56 94 59 95 57 96
REMARK H PARENT 18 6 89 25 89 26 22 30 81 49 49 60
REMARK Flexibility Score: inf
ROOT
ATOM      1  C   UNL A   1      38.686  21.447  25.744  1.00  0.00     0.042 C 
ENDROOT
BRANCH   1   2
ATOM      2  C   UNL A   1      37.377  22.162  25.365  1.00  0.00     0.118 C 
BRANCH   2   3
ATOM      3  N   UNL A   1      36.241  21.251  25.221  1.00  0.00    -0.351 N 
ATOM      4  C   UNL A   1      34.919  21.481  24.874  1.00  0.00     0.263 C 
ATOM      5  O   UNL A   1      34.252  20.471  24.627  1.00  0.00    -0.268 OA
ATOM      6  H   UNL A   1      36.454  20.307  25.404  1.00  0.00     0.163 HD
BRANCH   4   7
ATOM      7  C   UNL A   1      34.367  22.825  24.752  1.00  0.00     0.118 A 
ATOM      8  C   UNL A   1      32.988  26.062  21.662  1.00  0.00     0.067 C 
ATOM      9  C   UNL A   1      33.343  26.059  23.116  1.00  0.00     0.052 A 
ATOM     10  N   UNL A   1      33.273  27.272  23.755  1.00  0.00    -0.233 NA
ATOM     11  C   UNL A   1      33.685  24.917  23.872  1.00  0.00     0.056 A 
ATOM     12  C   UNL A   1      33.476  27.331  25.083  1.00  0.00     0.162 A 
ATOM     13  C   UNL A   1      33.778  25.141  25.232  1.00  0.00     0.130 A 
ATOM     14  C   UNL A   1      33.988  23.524  23.606  1.00  0.00     0.067 A 
ATOM     15  N   UNL A   1      33.701  26.298  25.885  1.00  0.00    -0.217 NA
ATOM     16  S   UNL A   1      33.928  23.734  26.123  1.00  0.00    -0.108 S 
BRANCH  12  17
ATOM     17  C   UNL A   1      33.473  28.615  25.769  1.00  0.00     0.038 A 
ATOM     18  C   UNL A   1      34.514  28.911  26.677  1.00  0.00     0.013 A 
ATOM     19  C   UNL A   1      32.390  29.502  25.691  1.00  0.00     0.052 A 
ATOM     20  C   UNL A   1      34.472  30.052  27.480  1.00  0.00     0.001 A 
ATOM     21  C   UNL A   1      32.350  30.645  26.497  1.00  0.00     0.021 A 
ATOM     22  Cl  UNL A   1      31.027  29.194  24.670  1.00  0.00    -0.084 Cl
ATOM     23  C   UNL A   1      33.386  30.917  27.391  1.00  0.00     0.002 A 
ENDBRANCH  12  17
BRANCH  14  24
ATOM     24  N   UNL A   1      33.996  22.953  22.381  1.00  0.00    -0.397 N 
ATOM     25  H   UNL A   1      34.842  22.857  21.887  1.00  0.00     0.156 HD
ATOM     26  H   UNL A   1      33.154  22.632  21.982  1.00  0.00     0.156 HD
ENDBRANCH  14  24
ENDBRANCH   4   7
ENDBRANCH   2   3
ENDBRANCH   1   2
BRANCH   1  27
ATOM     27  C   UNL A   1      39.631  22.346  26.505  1.00  0.00     0.118 C 
BRANCH  27  28
ATOM     28  N   UNL A   1      40.984  22.366  25.939  1.00  0.00    -0.352 N 
ATOM     29  C   UNL A   1      41.851  23.437  25.862  1.00  0.00     0.251 C 
ATOM     30  H   UNL A   1      41.311  21.515  25.568  1.00  0.00     0.163 HD
ATOM     31  O   UNL A   1      42.804  23.430  25.081  1.00  0.00    -0.269 OA
BRANCH  29  32
ATOM     32  C   UNL A   1      41.613  24.596  26.734  1.00  0.00     0.039 A 
ATOM     33  C   UNL A   1      42.206  24.724  27.991  1.00  0.00     0.014 A 
ATOM     34  C   UNL A   1      40.810  25.609  26.222  1.00  0.00     0.014 A 
ATOM     35  C   UNL A   1      42.031  25.918  28.686  1.00  0.00     0.010 A 
ATOM     36  C   UNL A   1      40.857  26.851  26.779  1.00  0.00     0.010 A 
ATOM     37  C   UNL A   1      41.367  26.986  28.057  1.00  0.00    -0.014 A 
BRANCH  37  38
ATOM     38  C   UNL A   1      41.253  28.298  28.675  1.00  0.00     0.031 A 
ATOM     39  C   UNL A   1      42.329  29.240  28.282  1.00  0.00     0.074 A 
ATOM     40  C   UNL A   1      40.159  28.680  29.372  1.00  0.00     0.049 A 
ATOM     41  N   UNL A   1      43.272  29.699  29.032  1.00  0.00    -0.248 NA
ATOM     42  C   UNL A   1      42.474  29.590  26.858  1.00  0.00     0.031 C 
ATOM     43  C   UNL A   1      38.893  27.961  29.577  1.00  0.00     0.029 A 
ATOM     44  N   UNL A   1      39.917  29.865  29.992  1.00  0.00    -0.354 N 
ATOM     45  C   UNL A   1      44.017  30.557  28.231  1.00  0.00     0.074 A 
ATOM     46  C   UNL A   1      43.599  30.310  26.876  1.00  0.00     0.031 C 
ATOM     47  C   UNL A   1      37.955  28.805  30.060  1.00  0.00     0.029 A 
ATOM     48  C   UNL A   1      38.594  30.066  30.375  1.00  0.00     0.049 A 
ATOM     49  H   UNL A   1      40.624  30.531  30.158  1.00  0.00     0.167 HD
ATOM     50  C   UNL A   1      44.734  31.572  28.787  1.00  0.00     0.037 A 
ATOM     51  C   UNL A   1      38.073  31.202  30.904  1.00  0.00     0.037 A 
ATOM     52  C   UNL A   1      44.902  31.362  30.205  1.00  0.00     0.049 A 
ATOM     53  C   UNL A   1      39.213  31.982  31.447  1.00  0.00     0.074 A 
ATOM     54  C   UNL A   1      45.510  30.389  30.973  1.00  0.00     0.029 A 
ATOM     55  N   UNL A   1      44.044  32.024  31.049  1.00  0.00    -0.354 N 
ATOM     56  N   UNL A   1      39.934  31.595  32.463  1.00  0.00    -0.248 NA
ATOM     57  C   UNL A   1      39.846  32.941  30.555  1.00  0.00     0.031 C 
ATOM     58  C   UNL A   1      44.640  30.204  32.089  1.00  0.00     0.029 A 
ATOM     59  C   UNL A   1      43.599  31.127  31.985  1.00  0.00     0.049 A 
ATOM     60  H   UNL A   1      43.794  32.974  30.991  1.00  0.00     0.167 HD
ATOM     61  C   UNL A   1      41.237  31.910  32.109  1.00  0.00     0.074 A 
ATOM     62  C   UNL A   1      41.113  32.801  30.955  1.00  0.00     0.031 C 
ATOM     63  C   UNL A   1      42.289  31.186  32.592  1.00  0.00     0.037 A 
BRANCH  50  64
ATOM     64  C   UNL A   1      44.941  32.922  28.150  1.00  0.00     0.064 A 
ATOM     65  C   UNL A   1      46.252  33.335  27.839  1.00  0.00     0.173 A 
ATOM     66  C   UNL A   1      43.960  33.936  28.114  1.00  0.00     0.173 A 
ATOM     67  F   UNL A   1      47.269  32.460  27.863  1.00  0.00    -0.203 F 
ATOM     68  C   UNL A   1      46.565  34.673  27.588  1.00  0.00     0.198 A 
ATOM     69  C   UNL A   1      44.268  35.261  27.811  1.00  0.00     0.198 A 
ATOM     70  F   UNL A   1      42.693  33.717  28.483  1.00  0.00    -0.203 F 
ATOM     71  F   UNL A   1      47.844  35.038  27.425  1.00  0.00    -0.200 F 
ATOM     72  C   UNL A   1      45.573  35.636  27.580  1.00  0.00     0.200 A 
ATOM     73  F   UNL A   1      43.294  36.182  27.832  1.00  0.00    -0.200 F 
ATOM     74  F   UNL A   1      45.877  36.928  27.402  1.00  0.00    -0.200 F 
ENDBRANCH  50  64
BRANCH  51  75
ATOM     75  C   UNL A   1      36.745  31.818  30.654  1.00  0.00     0.064 A 
ATOM     76  C   UNL A   1      35.865  32.088  31.717  1.00  0.00     0.173 A 
ATOM     77  C   UNL A   1      36.446  32.436  29.424  1.00  0.00     0.173 A 
ATOM     78  F   UNL A   1      36.099  31.572  32.932  1.00  0.00    -0.203 F 
ATOM     79  C   UNL A   1      34.777  32.956  31.569  1.00  0.00     0.198 A 
ATOM     80  C   UNL A   1      35.359  33.301  29.278  1.00  0.00     0.198 A 
ATOM     81  F   UNL A   1      37.261  32.295  28.368  1.00  0.00    -0.203 F 
ATOM     82  F   UNL A   1      34.003  33.245  32.625  1.00  0.00    -0.200 F 
ATOM     83  C   UNL A   1      34.534  33.574  30.354  1.00  0.00     0.200 A 
ATOM     84  F   UNL A   1      35.156  33.923  28.107  1.00  0.00    -0.200 F 
ATOM     85  F   UNL A   1      33.537  34.462  30.231  1.00  0.00    -0.200 F 
ENDBRANCH  51  75
BRANCH  63  86
ATOM     86  C   UNL A   1      42.024  30.211  33.708  1.00  0.00     0.064 A 
ATOM     87  C   UNL A   1      41.651  28.869  33.519  1.00  0.00     0.173 A 
ATOM     88  C   UNL A   1      42.333  30.613  35.014  1.00  0.00     0.173 A 
ATOM     89  F   UNL A   1      41.420  28.382  32.294  1.00  0.00    -0.203 F 
ATOM     90  C   UNL A   1      41.573  27.980  34.591  1.00  0.00     0.198 A 
ATOM     91  C   UNL A   1      42.289  29.716  36.078  1.00  0.00     0.198 A 
ATOM     92  F   UNL A   1      42.740  31.870  35.250  1.00  0.00    -0.203 F 
ATOM     93  F   UNL A   1      41.217  26.703  34.383  1.00  0.00    -0.200 F 
ATOM     94  C   UNL A   1      41.905  28.402  35.868  1.00  0.00     0.200 A 
ATOM     95  F   UNL A   1      42.657  30.118  37.302  1.00  0.00    -0.200 F 
ATOM     96  F   UNL A   1      41.882  27.537  36.891  1.00  0.00    -0.200 F 
ENDBRANCH  63  86
ENDBRANCH  37  38
ENDBRANCH  29  32
ENDBRANCH  27  28
ENDBRANCH   1  27
TORSDOF 12
ENDMDL
MODEL 2
REMARK VINA RESULT:     -13.5      3.581      8.944
REMARK SMILES Cc1nc(-c2ccccc2Cl)nc2sc(C(=O)NCCCNC(=O)c3ccc(-c4c5nc(c(-c6c(F)c(F)c(F)c(F)c6F)c6ccc([nH]6)c(-c6c(F)c(F)c(F)c(F)c6F)c6nc(c(-c7c(F)c(F)c(F)c(F)c7F)c7ccc4[nH]7)C=C6)C=C5)cc3)c(N)c12
REMARK SMILES IDX 20 1 19 2 18 3 16 4 17 5 15 7 1 8 2 9 3 10 90 11 4 12 13 13
REMARK SMILES IDX 88 14 12 15 14 16 5 17 6 18 10 19 7 20 9 21 11 22 8 23 89 24
REMARK SMILES IDX 21 27 22 28 23 29 24 31 25 32 26 33 87 34 27 35 86 36 28 37
REMARK SMILES IDX 29 38 30 39 80 40 31 41 85 42 79 43 81 44 32 45 84 46 78 47
REMARK SMILES IDX 77 48 33 50 65 51 45 52 64 53 46 54 49 55 63 56 82 57 47 58
REMARK SMILES IDX 48 59 62 61 83 62 50 63 34 64 35 65 43 66 36 67 37 68 41 69
REMARK SMILES IDX 44 70 38 71 39 72 42 73 40 74 66 75 67 76 75 77 68 78 69 79
REMARK SMILES IDX 73 80 76 81 70 82 71 83 74 84 72 85 51 86 52 87 60 88 53 89
REMARK SMILES IDX 54 90 58 91 61 92 55 93 56 94 59 95 57 96
REMARK H PARENT 18 6 89 25 89 26 22 30 81 49 49 60
REMARK Flexibility Score: inf
ROOT
ATOM      1  C   UNL A   1      33.213  31.092  27.282  1.00  0.00     0.042 C 
ENDROOT
BRANCH   1   2
ATOM      2  C   UNL A   1      33.437  29.965  26.259  1.00  0.00     0.118 C 
BRANCH   2   3
ATOM      3  N   UNL A   1      32.338  29.825  25.303  1.00  0.00    -0.351 N 
ATOM      4  C   UNL A   1      31.734  28.703  24.758  1.00  0.00     0.263 C 
ATOM      5  O   UNL A   1      30.683  28.913  24.143  1.00  0.00    -0.268 OA
ATOM      6  H   UNL A   1      31.961  30.680  24.991  1.00  0.00     0.163 HD
BRANCH   4   7
ATOM      7  C   UNL A   1      32.270  27.360  24.945  1.00  0.00     0.118 A 
ATOM      8  C   UNL A   1      31.479  23.252  27.048  1.00  0.00     0.067 C 
ATOM      9  C   UNL A   1      32.663  23.917  26.419  1.00  0.00     0.052 A 
ATOM     10  N   UNL A   1      33.835  23.203  26.438  1.00  0.00    -0.233 NA
ATOM     11  C   UNL A   1      32.650  25.174  25.777  1.00  0.00     0.056 A 
ATOM     12  C   UNL A   1      34.915  23.689  25.802  1.00  0.00     0.162 A 
ATOM     13  C   UNL A   1      33.817  25.483  25.106  1.00  0.00     0.130 A 
ATOM     14  C   UNL A   1      31.720  26.277  25.630  1.00  0.00     0.067 A 
ATOM     15  N   UNL A   1      34.964  24.808  25.091  1.00  0.00    -0.217 NA
ATOM     16  S   UNL A   1      33.684  26.847  24.149  1.00  0.00    -0.108 S 
BRANCH  12  17
ATOM     17  C   UNL A   1      36.186  22.981  25.867  1.00  0.00     0.038 A 
ATOM     18  C   UNL A   1      37.340  23.678  26.287  1.00  0.00     0.013 A 
ATOM     19  C   UNL A   1      36.342  21.680  25.369  1.00  0.00     0.052 A 
ATOM     20  C   UNL A   1      38.606  23.095  26.210  1.00  0.00     0.001 A 
ATOM     21  C   UNL A   1      37.612  21.097  25.292  1.00  0.00     0.021 A 
ATOM     22  Cl  UNL A   1      35.005  20.768  24.756  1.00  0.00    -0.084 Cl
ATOM     23  C   UNL A   1      38.741  21.804  25.709  1.00  0.00     0.002 A 
ENDBRANCH  12  17
BRANCH  14  24
ATOM     24  N   UNL A   1      30.477  26.319  26.162  1.00  0.00    -0.397 N 
ATOM     25  H   UNL A   1      30.108  27.172  26.485  1.00  0.00     0.156 HD
ATOM     26  H   UNL A   1      29.941  25.495  26.225  1.00  0.00     0.156 HD
ENDBRANCH  14  24
ENDBRANCH   4   7
ENDBRANCH   2   3
ENDBRANCH   1   2
BRANCH   1  27
ATOM     27  C   UNL A   1      34.512  31.692  27.768  1.00  0.00     0.118 C 
BRANCH  27  28
ATOM     28  N   UNL A   1      34.426  32.211  29.137  1.00  0.00    -0.352 N 
ATOM     29  C   UNL A   1      35.214  31.874  30.219  1.00  0.00     0.251 C 
ATOM     30  H   UNL A   1      33.723  32.879  29.304  1.00  0.00     0.163 HD
ATOM     31  O   UNL A   1      34.847  32.110  31.372  1.00  0.00    -0.269 OA
BRANCH  29  32
ATOM     32  C   UNL A   1      36.507  31.221  29.969  1.00  0.00     0.039 A 
ATOM     33  C   UNL A   1      37.682  31.941  29.753  1.00  0.00     0.014 A 
ATOM     34  C   UNL A   1      36.525  29.832  30.020  1.00  0.00     0.014 A 
ATOM     35  C   UNL A   1      38.881  31.238  29.662  1.00  0.00     0.010 A 
ATOM     36  C   UNL A   1      37.709  29.180  30.190  1.00  0.00     0.010 A 
ATOM     37  C   UNL A   1      38.883  29.853  29.903  1.00  0.00    -0.014 A 
BRANCH  37  38
ATOM     38  C   UNL A   1      40.111  29.075  29.943  1.00  0.00     0.031 A 
ATOM     39  C   UNL A   1      40.660  28.894  31.309  1.00  0.00     0.074 A 
ATOM     40  C   UNL A   1      40.587  28.412  28.865  1.00  0.00     0.049 A 
ATOM     41  N   UNL A   1      41.745  29.403  31.784  1.00  0.00    -0.248 NA
ATOM     42  C   UNL A   1      39.835  28.202  32.314  1.00  0.00     0.031 C 
ATOM     43  C   UNL A   1      39.982  28.253  27.534  1.00  0.00     0.029 A 
ATOM     44  N   UNL A   1      41.709  27.651  28.762  1.00  0.00    -0.354 N 
ATOM     45  C   UNL A   1      41.851  28.933  33.089  1.00  0.00     0.074 A 
ATOM     46  C   UNL A   1      40.572  28.360  33.416  1.00  0.00     0.031 C 
ATOM     47  C   UNL A   1      40.616  27.273  26.853  1.00  0.00     0.029 A 
ATOM     48  C   UNL A   1      41.779  26.866  27.614  1.00  0.00     0.049 A 
ATOM     49  H   UNL A   1      42.417  27.656  29.446  1.00  0.00     0.167 HD
ATOM     50  C   UNL A   1      43.067  28.838  33.692  1.00  0.00     0.037 A 
ATOM     51  C   UNL A   1      42.730  25.941  27.330  1.00  0.00     0.037 A 
ATOM     52  C   UNL A   1      44.053  29.613  32.979  1.00  0.00     0.049 A 
ATOM     53  C   UNL A   1      43.904  26.259  28.181  1.00  0.00     0.074 A 
ATOM     54  C   UNL A   1      44.202  30.954  32.684  1.00  0.00     0.029 A 
ATOM     55  N   UNL A   1      44.870  28.944  32.100  1.00  0.00    -0.354 N 
ATOM     56  N   UNL A   1      44.622  27.340  28.045  1.00  0.00    -0.248 NA
ATOM     57  C   UNL A   1      43.973  25.618  29.485  1.00  0.00     0.031 C 
ATOM     58  C   UNL A   1      44.709  30.984  31.351  1.00  0.00     0.029 A 
ATOM     59  C   UNL A   1      44.920  29.668  30.938  1.00  0.00     0.049 A 
ATOM     60  H   UNL A   1      45.336  28.095  32.275  1.00  0.00     0.167 HD
ATOM     61  C   UNL A   1      44.880  27.755  29.343  1.00  0.00     0.074 A 
ATOM     62  C   UNL A   1      44.516  26.617  30.186  1.00  0.00     0.031 C 
ATOM     63  C   UNL A   1      45.078  29.075  29.629  1.00  0.00     0.037 A 
BRANCH  50  64
ATOM     64  C   UNL A   1      43.455  27.760  34.671  1.00  0.00     0.064 A 
ATOM     65  C   UNL A   1      43.834  28.127  35.977  1.00  0.00     0.173 A 
ATOM     66  C   UNL A   1      43.762  26.432  34.300  1.00  0.00     0.173 A 
ATOM     67  F   UNL A   1      43.611  29.371  36.429  1.00  0.00    -0.203 F 
ATOM     68  C   UNL A   1      44.534  27.257  36.816  1.00  0.00     0.198 A 
ATOM     69  C   UNL A   1      44.413  25.550  35.160  1.00  0.00     0.198 A 
ATOM     70  F   UNL A   1      43.555  25.970  33.062  1.00  0.00    -0.203 F 
ATOM     71  F   UNL A   1      44.986  27.694  38.000  1.00  0.00    -0.200 F 
ATOM     72  C   UNL A   1      44.828  25.971  36.405  1.00  0.00     0.200 A 
ATOM     73  F   UNL A   1      44.709  24.314  34.732  1.00  0.00    -0.200 F 
ATOM     74  F   UNL A   1      45.552  25.155  37.180  1.00  0.00    -0.200 F 
ENDBRANCH  50  64
BRANCH  51  75
ATOM     75  C   UNL A   1      42.572  24.620  26.669  1.00  0.00     0.064 A 
ATOM     76  C   UNL A   1      43.203  24.350  25.441  1.00  0.00     0.173 A 
ATOM     77  C   UNL A   1      42.069  23.507  27.369  1.00  0.00     0.173 A 
ATOM     78  F   UNL A   1      43.746  25.348  24.729  1.00  0.00    -0.203 F 
ATOM     79  C   UNL A   1      43.357  23.043  24.964  1.00  0.00     0.198 A 
ATOM     80  C   UNL A   1      42.221  22.204  26.891  1.00  0.00     0.198 A 
ATOM     81  F   UNL A   1      41.510  23.653  28.579  1.00  0.00    -0.203 F 
ATOM     82  F   UNL A   1      44.028  22.821  23.825  1.00  0.00    -0.200 F 
ATOM     83  C   UNL A   1      42.880  21.970  25.698  1.00  0.00     0.200 A 
ATOM     84  F   UNL A   1      41.788  21.170  27.628  1.00  0.00    -0.200 F 
ATOM     85  F   UNL A   1      43.092  20.714  25.279  1.00  0.00    -0.200 F 
ENDBRANCH  51  75
BRANCH  63  86
ATOM     86  C   UNL A   1      45.263  30.029  28.479  1.00  0.00     0.064 A 
ATOM     87  C   UNL A   1      44.221  30.743  27.864  1.00  0.00     0.173 A 
ATOM     88  C   UNL A   1      46.573  30.360  28.109  1.00  0.00     0.173 A 
ATOM     89  F   UNL A   1      42.945  30.550  28.220  1.00  0.00    -0.203 F 
ATOM     90  C   UNL A   1      44.481  31.727  26.909  1.00  0.00     0.198 A 
ATOM     91  C   UNL A   1      46.832  31.365  27.182  1.00  0.00     0.198 A 
ATOM     92  F   UNL A   1      47.611  29.743  28.696  1.00  0.00    -0.203 F 
ATOM     93  F   UNL A   1      43.468  32.397  26.338  1.00  0.00    -0.200 F 
ATOM     94  C   UNL A   1      45.787  32.045  26.579  1.00  0.00     0.200 A 
ATOM     95  F   UNL A   1      48.099  31.700  26.902  1.00  0.00    -0.200 F 
ATOM     96  F   UNL A   1      46.041  33.025  25.701  1.00  0.00    -0.200 F 
ENDBRANCH  63  86
ENDBRANCH  37  38
ENDBRANCH  29  32
ENDBRANCH  27  28
ENDBRANCH   1  27
TORSDOF 12
ENDMDL
MODEL 3
REMARK VINA RESULT:     -13.0      2.902      7.475
REMARK SMILES Cc1nc(-c2ccccc2Cl)nc2sc(C(=O)NCCCNC(=O)c3ccc(-c4c5nc(c(-c6c(F)c(F)c(F)c(F)c6F)c6ccc([nH]6)c(-c6c(F)c(F)c(F)c(F)c6F)c6nc(c(-c7c(F)c(F)c(F)c(F)c7F)c7ccc4[nH]7)C=C6)C=C5)cc3)c(N)c12
REMARK SMILES IDX 20 1 19 2 18 3 16 4 17 5 15 7 1 8 2 9 3 10 90 11 4 12 13 13
REMARK SMILES IDX 88 14 12 15 14 16 5 17 6 18 10 19 7 20 9 21 11 22 8 23 89 24
REMARK SMILES IDX 21 27 22 28 23 29 24 31 25 32 26 33 87 34 27 35 86 36 28 37
REMARK SMILES IDX 29 38 30 39 80 40 31 41 85 42 79 43 81 44 32 45 84 46 78 47
REMARK SMILES IDX 77 48 33 50 65 51 45 52 64 53 46 54 49 55 63 56 82 57 47 58
REMARK SMILES IDX 48 59 62 61 83 62 50 63 34 64 35 65 43 66 36 67 37 68 41 69
REMARK SMILES IDX 44 70 38 71 39 72 42 73 40 74 66 75 67 76 75 77 68 78 69 79
REMARK SMILES IDX 73 80 76 81 70 82 71 83 74 84 72 85 51 86 52 87 60 88 53 89
REMARK SMILES IDX 54 90 58 91 61 92 55 93 56 94 59 95 57 96
REMARK H PARENT 18 6 89 25 89 26 22 30 81 49 49 60
REMARK Flexibility Score: inf
ROOT
ATOM      1  C   UNL A   1      36.962  20.353  24.990  1.00  0.00     0.042 C 
ENDROOT
BRANCH   1   2
ATOM      2  C   UNL A   1      35.885  21.223  25.661  1.00  0.00     0.118 C 
BRANCH   2   3
ATOM      3  N   UNL A   1      34.567  20.589  25.694  1.00  0.00    -0.351 N 
ATOM      4  C   UNL A   1      33.307  21.076  25.381  1.00  0.00     0.263 C 
ATOM      5  O   UNL A   1      32.414  20.225  25.303  1.00  0.00    -0.268 OA
ATOM      6  H   UNL A   1      34.576  19.650  25.991  1.00  0.00     0.163 HD
BRANCH   4   7
ATOM      7  C   UNL A   1      33.061  22.486  25.107  1.00  0.00     0.118 A 
ATOM      8  C   UNL A   1      32.990  25.703  21.704  1.00  0.00     0.067 C 
ATOM      9  C   UNL A   1      33.035  25.734  23.200  1.00  0.00     0.052 A 
ATOM     10  N   UNL A   1      33.073  26.980  23.775  1.00  0.00    -0.233 NA
ATOM     11  C   UNL A   1      32.989  24.603  24.043  1.00  0.00     0.056 A 
ATOM     12  C   UNL A   1      33.011  27.091  25.113  1.00  0.00     0.162 A 
ATOM     13  C   UNL A   1      32.847  24.899  25.385  1.00  0.00     0.130 A 
ATOM     14  C   UNL A   1      33.065  23.163  23.887  1.00  0.00     0.067 A 
ATOM     15  N   UNL A   1      32.865  26.092  25.974  1.00  0.00    -0.217 NA
ATOM     16  S   UNL A   1      32.539  23.552  26.327  1.00  0.00    -0.108 S 
BRANCH  12  17
ATOM     17  C   UNL A   1      33.118  28.398  25.746  1.00  0.00     0.038 A 
ATOM     18  C   UNL A   1      34.138  28.619  26.697  1.00  0.00     0.013 A 
ATOM     19  C   UNL A   1      32.146  29.394  25.573  1.00  0.00     0.052 A 
ATOM     20  C   UNL A   1      34.184  29.793  27.451  1.00  0.00     0.001 A 
ATOM     21  C   UNL A   1      32.194  30.571  26.330  1.00  0.00     0.021 A 
ATOM     22  Cl  UNL A   1      30.810  29.191  24.492  1.00  0.00    -0.084 Cl
ATOM     23  C   UNL A   1      33.208  30.768  27.268  1.00  0.00     0.002 A 
ENDBRANCH  12  17
BRANCH  14  24
ATOM     24  N   UNL A   1      33.211  22.518  22.708  1.00  0.00    -0.397 N 
ATOM     25  H   UNL A   1      33.417  23.026  21.891  1.00  0.00     0.156 HD
ATOM     26  H   UNL A   1      33.111  21.539  22.667  1.00  0.00     0.156 HD
ENDBRANCH  14  24
ENDBRANCH   4   7
ENDBRANCH   2   3
ENDBRANCH   1   2
BRANCH   1  27
ATOM     27  C   UNL A   1      38.359  20.745  25.408  1.00  0.00     0.118 C 
BRANCH  27  28
ATOM     28  N   UNL A   1      39.264  19.597  25.531  1.00  0.00    -0.352 N 
ATOM     29  C   UNL A   1      40.611  19.611  25.834  1.00  0.00     0.251 C 
ATOM     30  H   UNL A   1      38.863  18.711  25.380  1.00  0.00     0.163 HD
ATOM     31  O   UNL A   1      41.330  18.643  25.583  1.00  0.00    -0.269 OA
BRANCH  29  32
ATOM     32  C   UNL A   1      41.175  20.813  26.462  1.00  0.00     0.039 A 
ATOM     33  C   UNL A   1      41.780  21.833  25.726  1.00  0.00     0.014 A 
ATOM     34  C   UNL A   1      41.023  20.928  27.840  1.00  0.00     0.014 A 
ATOM     35  C   UNL A   1      42.162  22.994  26.394  1.00  0.00     0.010 A 
ATOM     36  C   UNL A   1      41.156  22.147  28.433  1.00  0.00     0.010 A 
ATOM     37  C   UNL A   1      41.824  23.147  27.750  1.00  0.00    -0.014 A 
BRANCH  37  38
ATOM     38  C   UNL A   1      42.084  24.378  28.479  1.00  0.00     0.031 A 
ATOM     39  C   UNL A   1      41.015  25.397  28.332  1.00  0.00     0.074 A 
ATOM     40  C   UNL A   1      43.098  24.498  29.365  1.00  0.00     0.049 A 
ATOM     41  N   UNL A   1      41.096  26.524  27.711  1.00  0.00    -0.248 NA
ATOM     42  C   UNL A   1      39.655  25.061  28.786  1.00  0.00     0.031 C 
ATOM     43  C   UNL A   1      44.043  23.475  29.837  1.00  0.00     0.029 A 
ATOM     44  N   UNL A   1      43.451  25.578  30.112  1.00  0.00    -0.354 N 
ATOM     45  C   UNL A   1      39.858  27.137  27.865  1.00  0.00     0.074 A 
ATOM     46  C   UNL A   1      38.966  26.125  28.367  1.00  0.00     0.031 C 
ATOM     47  C   UNL A   1      44.690  23.916  30.937  1.00  0.00     0.029 A 
ATOM     48  C   UNL A   1      44.351  25.309  31.140  1.00  0.00     0.049 A 
ATOM     49  H   UNL A   1      43.097  26.481  29.940  1.00  0.00     0.167 HD
ATOM     50  C   UNL A   1      39.746  28.492  27.800  1.00  0.00     0.037 A 
ATOM     51  C   UNL A   1      44.769  26.181  32.091  1.00  0.00     0.037 A 
ATOM     52  C   UNL A   1      40.920  29.073  27.196  1.00  0.00     0.049 A 
ATOM     53  C   UNL A   1      44.504  27.544  31.568  1.00  0.00     0.074 A 
ATOM     54  C   UNL A   1      41.521  28.972  25.957  1.00  0.00     0.029 A 
ATOM     55  N   UNL A   1      41.879  29.582  28.037  1.00  0.00    -0.354 N 
ATOM     56  N   UNL A   1      45.120  28.054  30.536  1.00  0.00    -0.248 NA
ATOM     57  C   UNL A   1      43.217  28.141  31.890  1.00  0.00     0.031 C 
ATOM     58  C   UNL A   1      42.922  28.960  26.227  1.00  0.00     0.029 A 
ATOM     59  C   UNL A   1      43.100  29.138  27.599  1.00  0.00     0.049 A 
ATOM     60  H   UNL A   1      41.718  30.161  28.816  1.00  0.00     0.167 HD
ATOM     61  C   UNL A   1      44.129  28.719  29.829  1.00  0.00     0.074 A 
ATOM     62  C   UNL A   1      42.993  28.797  30.748  1.00  0.00     0.031 C 
ATOM     63  C   UNL A   1      44.218  28.874  28.476  1.00  0.00     0.037 A 
BRANCH  50  64
ATOM     64  C   UNL A   1      38.781  29.311  28.618  1.00  0.00     0.064 A 
ATOM     65  C   UNL A   1      37.875  30.162  27.954  1.00  0.00     0.173 A 
ATOM     66  C   UNL A   1      38.909  29.525  30.007  1.00  0.00     0.173 A 
ATOM     67  F   UNL A   1      37.689  30.063  26.629  1.00  0.00    -0.203 F 
ATOM     68  C   UNL A   1      37.211  31.196  28.619  1.00  0.00     0.198 A 
ATOM     69  C   UNL A   1      38.204  30.524  30.676  1.00  0.00     0.198 A 
ATOM     70  F   UNL A   1      39.802  28.865  30.753  1.00  0.00    -0.203 F 
ATOM     71  F   UNL A   1      36.460  32.060  27.922  1.00  0.00    -0.200 F 
ATOM     72  C   UNL A   1      37.380  31.380  29.978  1.00  0.00     0.200 A 
ATOM     73  F   UNL A   1      38.401  30.699  31.991  1.00  0.00    -0.200 F 
ATOM     74  F   UNL A   1      36.794  32.407  30.606  1.00  0.00    -0.200 F 
ENDBRANCH  50  64
BRANCH  51  75
ATOM     75  C   UNL A   1      45.033  25.929  33.531  1.00  0.00     0.064 A 
ATOM     76  C   UNL A   1      43.979  25.644  34.417  1.00  0.00     0.173 A 
ATOM     77  C   UNL A   1      46.333  25.653  33.998  1.00  0.00     0.173 A 
ATOM     78  F   UNL A   1      42.709  25.839  34.037  1.00  0.00    -0.203 F 
ATOM     79  C   UNL A   1      44.209  25.078  35.677  1.00  0.00     0.198 A 
ATOM     80  C   UNL A   1      46.561  25.091  35.256  1.00  0.00     0.198 A 
ATOM     81  F   UNL A   1      47.399  25.827  33.204  1.00  0.00    -0.203 F 
ATOM     82  F   UNL A   1      43.174  24.754  36.464  1.00  0.00    -0.200 F 
ATOM     83  C   UNL A   1      45.499  24.788  36.089  1.00  0.00     0.200 A 
ATOM     84  F   UNL A   1      47.811  24.779  35.629  1.00  0.00    -0.200 F 
ATOM     85  F   UNL A   1      45.715  24.179  37.264  1.00  0.00    -0.200 F 
ENDBRANCH  51  75
BRANCH  63  86
ATOM     86  C   UNL A   1      45.526  28.538  27.810  1.00  0.00     0.064 A 
ATOM     87  C   UNL A   1      45.820  27.297  27.217  1.00  0.00     0.173 A 
ATOM     88  C   UNL A   1      46.446  29.576  27.614  1.00  0.00     0.173 A 
ATOM     89  F   UNL A   1      44.956  26.277  27.284  1.00  0.00    -0.203 F 
ATOM     90  C   UNL A   1      46.990  27.104  26.482  1.00  0.00     0.198 A 
ATOM     91  C   UNL A   1      47.596  29.391  26.851  1.00  0.00     0.198 A 
ATOM     92  F   UNL A   1      46.197  30.795  28.118  1.00  0.00    -0.203 F 
ATOM     93  F   UNL A   1      47.246  25.911  25.923  1.00  0.00    -0.200 F 
ATOM     94  C   UNL A   1      47.870  28.156  26.289  1.00  0.00     0.200 A 
ATOM     95  F   UNL A   1      48.419  30.425  26.629  1.00  0.00    -0.200 F 
ATOM     96  F   UNL A   1      48.967  27.987  25.539  1.00  0.00    -0.200 F 
ENDBRANCH  63  86
ENDBRANCH  37  38
ENDBRANCH  29  32
ENDBRANCH  27  28
ENDBRANCH   1  27
TORSDOF 12
ENDMDL
