MODEL 1
REMARK VINA RESULT:     -13.4      0.000      0.000
REMARK SMILES Cc1cccc(OCC(=O)Nc2cc(C(=O)NCCCNC(=O)c3ccc(-c4c5nc(c(-c6c(F)c(F)c(F)c(F)c6F)c6ccc([nH]6)c(-c6c(F)c(F)c(F)c(F)c6F)c6nc(c(-c7c(F)c(F)c(F)c(F)c7F)c7ccc4[nH]7)C=C6)C=C5)cc3)c(Cl)cc2Cl)c1
REMARK SMILES IDX 18 1 17 2 15 3 16 4 14 6 12 7 13 8 90 9 89 10 91 11 87 12
REMARK SMILES IDX 88 13 11 14 9 15 10 16 8 18 7 19 6 20 1 21 2 22 3 23 92 24
REMARK SMILES IDX 4 25 5 26 19 27 20 28 21 29 22 30 23 32 24 33 25 34 86 35
REMARK SMILES IDX 26 36 85 37 27 38 28 39 29 40 79 41 30 42 84 43 78 44 80 45
REMARK SMILES IDX 31 46 83 47 77 48 76 49 32 51 64 52 44 53 63 54 45 55 48 56
REMARK SMILES IDX 62 57 81 58 46 59 47 60 61 62 82 63 49 64 33 65 34 66 42 67
REMARK SMILES IDX 35 68 36 69 40 70 43 71 37 72 38 73 41 74 39 75 65 76 66 77
REMARK SMILES IDX 74 78 67 79 68 80 72 81 75 82 69 83 70 84 73 85 71 86 50 87
REMARK SMILES IDX 51 88 59 89 52 90 53 91 57 92 60 93 54 94 55 95 58 96 56 97
REMARK H PARENT 17 5 11 17 21 31 80 50 48 61
REMARK Flexibility Score: inf
ROOT
ATOM      1  C   UNL A   1      34.052  30.253  27.230  1.00  0.00     0.118 C 
ENDROOT
BRANCH   1   2
ATOM      2  N   UNL A   1      32.895  29.594  27.798  1.00  0.00    -0.352 N 
ATOM      3  C   UNL A   1      32.237  28.458  27.393  1.00  0.00     0.252 C 
ATOM      4  O   UNL A   1      31.381  27.998  28.152  1.00  0.00    -0.269 OA
ATOM      5  H   UNL A   1      32.523  30.027  28.600  1.00  0.00     0.163 HD
BRANCH   3   6
ATOM      6  C   UNL A   1      32.510  27.805  26.078  1.00  0.00     0.060 A 
ATOM      7  C   UNL A   1      33.679  26.100  24.768  1.00  0.00     0.061 A 
ATOM      8  C   UNL A   1      33.266  26.607  26.001  1.00  0.00     0.043 A 
ATOM      9  C   UNL A   1      33.185  26.717  23.599  1.00  0.00     0.066 A 
ATOM     10  C   UNL A   1      32.343  27.825  23.659  1.00  0.00     0.044 A 
ATOM     11  Cl  UNL A   1      33.613  26.125  22.027  1.00  0.00    -0.082 Cl
ATOM     12  C   UNL A   1      32.029  28.391  24.894  1.00  0.00     0.055 A 
ATOM     13  Cl  UNL A   1      31.097  29.848  24.838  1.00  0.00    -0.083 Cl
BRANCH   7  14
ATOM     14  N   UNL A   1      34.638  25.081  24.586  1.00  0.00    -0.322 N 
ATOM     15  C   UNL A   1      34.747  23.748  24.825  1.00  0.00     0.262 C 
ATOM     16  O   UNL A   1      35.869  23.254  24.650  1.00  0.00    -0.271 OA
ATOM     17  H   UNL A   1      35.456  25.435  24.167  1.00  0.00     0.170 HD
BRANCH  15  18
ATOM     18  C   UNL A   1      33.572  22.843  25.182  1.00  0.00     0.329 C 
BRANCH  18  19
ATOM     19  O   UNL A   1      33.824  21.507  25.546  1.00  0.00    -0.484 OA
BRANCH  19  20
ATOM     20  C   UNL A   1      33.522  20.491  24.690  1.00  0.00     0.120 A 
ATOM     21  C   UNL A   1      33.897  16.848  23.647  1.00  0.00     0.044 C 
ATOM     22  C   UNL A   1      33.411  18.259  23.749  1.00  0.00    -0.047 A 
ATOM     23  C   UNL A   1      32.424  18.667  22.847  1.00  0.00     0.003 A 
ATOM     24  C   UNL A   1      33.943  19.170  24.691  1.00  0.00     0.049 A 
ATOM     25  C   UNL A   1      32.053  19.990  22.810  1.00  0.00     0.004 A 
ATOM     26  C   UNL A   1      32.650  20.886  23.688  1.00  0.00     0.046 A 
ENDBRANCH  19  20
ENDBRANCH  18  19
ENDBRANCH  15  18
ENDBRANCH   7  14
ENDBRANCH   3   6
ENDBRANCH   1   2
BRANCH   1  27
ATOM     27  C   UNL A   1      34.218  31.703  27.644  1.00  0.00     0.042 C 
BRANCH  27  28
ATOM     28  C   UNL A   1      34.729  31.926  29.067  1.00  0.00     0.118 C 
BRANCH  28  29
ATOM     29  N   UNL A   1      36.196  32.011  29.188  1.00  0.00    -0.352 N 
ATOM     30  C   UNL A   1      37.287  31.173  29.012  1.00  0.00     0.251 C 
ATOM     31  H   UNL A   1      36.478  32.910  29.472  1.00  0.00     0.163 HD
ATOM     32  O   UNL A   1      38.397  31.602  29.327  1.00  0.00    -0.269 OA
BRANCH  30  33
ATOM     33  C   UNL A   1      37.225  29.845  28.321  1.00  0.00     0.039 A 
ATOM     34  C   UNL A   1      37.115  28.828  29.284  1.00  0.00     0.014 A 
ATOM     35  C   UNL A   1      38.093  29.674  27.266  1.00  0.00     0.014 A 
ATOM     36  C   UNL A   1      38.264  28.130  29.604  1.00  0.00     0.010 A 
ATOM     37  C   UNL A   1      39.266  29.044  27.602  1.00  0.00     0.010 A 
ATOM     38  C   UNL A   1      39.386  28.411  28.851  1.00  0.00    -0.014 A 
BRANCH  38  39
ATOM     39  C   UNL A   1      40.750  28.141  29.253  1.00  0.00     0.031 A 
ATOM     40  C   UNL A   1      41.341  26.911  28.711  1.00  0.00     0.074 A 
ATOM     41  C   UNL A   1      41.484  29.110  29.852  1.00  0.00     0.049 A 
ATOM     42  N   UNL A   1      42.492  26.459  29.035  1.00  0.00    -0.248 NA
ATOM     43  C   UNL A   1      40.648  26.061  27.746  1.00  0.00     0.031 C 
ATOM     44  C   UNL A   1      42.941  29.206  29.925  1.00  0.00     0.029 A 
ATOM     45  N   UNL A   1      41.039  30.153  30.686  1.00  0.00    -0.354 N 
ATOM     46  C   UNL A   1      42.820  25.462  28.147  1.00  0.00     0.074 A 
ATOM     47  C   UNL A   1      41.614  25.210  27.404  1.00  0.00     0.031 C 
ATOM     48  C   UNL A   1      43.283  30.002  30.952  1.00  0.00     0.029 A 
ATOM     49  C   UNL A   1      42.059  30.320  31.661  1.00  0.00     0.049 A 
ATOM     50  H   UNL A   1      40.199  30.661  30.610  1.00  0.00     0.167 HD
ATOM     51  C   UNL A   1      44.125  25.079  28.105  1.00  0.00     0.037 A 
ATOM     52  C   UNL A   1      41.829  30.021  32.975  1.00  0.00     0.037 A 
ATOM     53  C   UNL A   1      44.841  25.680  29.233  1.00  0.00     0.049 A 
ATOM     54  C   UNL A   1      42.681  28.875  33.477  1.00  0.00     0.074 A 
ATOM     55  C   UNL A   1      45.658  26.791  29.359  1.00  0.00     0.029 A 
ATOM     56  N   UNL A   1      44.438  25.340  30.520  1.00  0.00    -0.354 N 
ATOM     57  N   UNL A   1      43.224  27.980  32.695  1.00  0.00    -0.248 NA
ATOM     58  C   UNL A   1      43.015  28.658  34.881  1.00  0.00     0.031 C 
ATOM     59  C   UNL A   1      45.698  27.148  30.735  1.00  0.00     0.029 A 
ATOM     60  C   UNL A   1      44.929  26.239  31.443  1.00  0.00     0.049 A 
ATOM     61  H   UNL A   1      43.876  24.562  30.743  1.00  0.00     0.167 HD
ATOM     62  C   UNL A   1      43.965  27.099  33.441  1.00  0.00     0.074 A 
ATOM     63  C   UNL A   1      43.800  27.567  34.804  1.00  0.00     0.031 C 
ATOM     64  C   UNL A   1      44.653  26.066  32.864  1.00  0.00     0.037 A 
BRANCH  51  65
ATOM     65  C   UNL A   1      44.813  24.351  26.972  1.00  0.00     0.064 A 
ATOM     66  C   UNL A   1      44.517  22.990  26.737  1.00  0.00     0.173 A 
ATOM     67  C   UNL A   1      45.811  24.879  26.130  1.00  0.00     0.173 A 
ATOM     68  F   UNL A   1      43.566  22.350  27.430  1.00  0.00    -0.203 F 
ATOM     69  C   UNL A   1      45.193  22.222  25.785  1.00  0.00     0.198 A 
ATOM     70  C   UNL A   1      46.498  24.109  25.188  1.00  0.00     0.198 A 
ATOM     71  F   UNL A   1      46.159  26.166  26.147  1.00  0.00    -0.203 F 
ATOM     72  F   UNL A   1      44.873  20.930  25.626  1.00  0.00    -0.200 F 
ATOM     73  C   UNL A   1      46.194  22.777  25.018  1.00  0.00     0.200 A 
ATOM     74  F   UNL A   1      47.462  24.676  24.447  1.00  0.00    -0.200 F 
ATOM     75  F   UNL A   1      46.853  22.042  24.114  1.00  0.00    -0.200 F 
ENDBRANCH  51  65
BRANCH  52  76
ATOM     76  C   UNL A   1      40.426  30.335  33.366  1.00  0.00     0.064 A 
ATOM     77  C   UNL A   1      40.082  31.701  33.451  1.00  0.00     0.173 A 
ATOM     78  C   UNL A   1      39.388  29.421  33.143  1.00  0.00     0.173 A 
ATOM     79  F   UNL A   1      41.037  32.616  33.682  1.00  0.00    -0.203 F 
ATOM     80  C   UNL A   1      38.799  32.145  33.140  1.00  0.00     0.198 A 
ATOM     81  C   UNL A   1      38.095  29.872  32.861  1.00  0.00     0.198 A 
ATOM     82  F   UNL A   1      39.649  28.109  33.050  1.00  0.00    -0.203 F 
ATOM     83  F   UNL A   1      38.548  33.461  33.070  1.00  0.00    -0.200 F 
ATOM     84  C   UNL A   1      37.815  31.230  32.809  1.00  0.00     0.200 A 
ATOM     85  F   UNL A   1      37.139  28.990  32.533  1.00  0.00    -0.200 F 
ATOM     86  F   UNL A   1      36.609  31.655  32.405  1.00  0.00    -0.200 F 
ENDBRANCH  52  76
BRANCH  64  87
ATOM     87  C   UNL A   1      45.211  24.833  33.556  1.00  0.00     0.064 A 
ATOM     88  C   UNL A   1      44.478  23.661  33.803  1.00  0.00     0.173 A 
ATOM     89  C   UNL A   1      46.598  24.739  33.858  1.00  0.00     0.173 A 
ATOM     90  F   UNL A   1      43.191  23.549  33.455  1.00  0.00    -0.203 F 
ATOM     91  C   UNL A   1      45.065  22.520  34.363  1.00  0.00     0.198 A 
ATOM     92  C   UNL A   1      47.192  23.574  34.337  1.00  0.00     0.198 A 
ATOM     93  F   UNL A   1      47.440  25.765  33.665  1.00  0.00    -0.203 F 
ATOM     94  F   UNL A   1      44.303  21.449  34.628  1.00  0.00    -0.200 F 
ATOM     95  C   UNL A   1      46.422  22.469  34.614  1.00  0.00     0.200 A 
ATOM     96  F   UNL A   1      48.523  23.527  34.506  1.00  0.00    -0.200 F 
ATOM     97  F   UNL A   1      46.986  21.356  35.097  1.00  0.00    -0.200 F 
ENDBRANCH  64  87
ENDBRANCH  38  39
ENDBRANCH  30  33
ENDBRANCH  28  29
ENDBRANCH  27  28
ENDBRANCH   1  27
TORSDOF 14
ENDMDL
MODEL 2
REMARK VINA RESULT:     -13.1      1.862      2.944
REMARK SMILES Cc1cccc(OCC(=O)Nc2cc(C(=O)NCCCNC(=O)c3ccc(-c4c5nc(c(-c6c(F)c(F)c(F)c(F)c6F)c6ccc([nH]6)c(-c6c(F)c(F)c(F)c(F)c6F)c6nc(c(-c7c(F)c(F)c(F)c(F)c7F)c7ccc4[nH]7)C=C6)C=C5)cc3)c(Cl)cc2Cl)c1
REMARK SMILES IDX 18 1 17 2 15 3 16 4 14 6 12 7 13 8 90 9 89 10 91 11 87 12
REMARK SMILES IDX 88 13 11 14 9 15 10 16 8 18 7 19 6 20 1 21 2 22 3 23 92 24
REMARK SMILES IDX 4 25 5 26 19 27 20 28 21 29 22 30 23 32 24 33 25 34 86 35
REMARK SMILES IDX 26 36 85 37 27 38 28 39 29 40 79 41 30 42 84 43 78 44 80 45
REMARK SMILES IDX 31 46 83 47 77 48 76 49 32 51 64 52 44 53 63 54 45 55 48 56
REMARK SMILES IDX 62 57 81 58 46 59 47 60 61 62 82 63 49 64 33 65 34 66 42 67
REMARK SMILES IDX 35 68 36 69 40 70 43 71 37 72 38 73 41 74 39 75 65 76 66 77
REMARK SMILES IDX 74 78 67 79 68 80 72 81 75 82 69 83 70 84 73 85 71 86 50 87
REMARK SMILES IDX 51 88 59 89 52 90 53 91 57 92 60 93 54 94 55 95 58 96 56 97
REMARK H PARENT 17 5 11 17 21 31 80 50 48 61
REMARK Flexibility Score: inf
ROOT
ATOM      1  C   UNL A   1      34.035  30.369  27.351  1.00  0.00     0.118 C 
ENDROOT
BRANCH   1   2
ATOM      2  N   UNL A   1      33.393  30.432  26.055  1.00  0.00    -0.352 N 
ATOM      3  C   UNL A   1      32.831  29.434  25.297  1.00  0.00     0.252 C 
ATOM      4  O   UNL A   1      32.186  29.772  24.302  1.00  0.00    -0.269 OA
ATOM      5  H   UNL A   1      33.353  31.331  25.655  1.00  0.00     0.163 HD
BRANCH   3   6
ATOM      6  C   UNL A   1      33.004  27.988  25.629  1.00  0.00     0.060 A 
ATOM      7  C   UNL A   1      33.942  25.792  25.090  1.00  0.00     0.061 A 
ATOM      8  C   UNL A   1      33.916  27.176  24.908  1.00  0.00     0.043 A 
ATOM      9  C   UNL A   1      33.156  25.247  26.128  1.00  0.00     0.066 A 
ATOM     10  C   UNL A   1      32.343  26.049  26.927  1.00  0.00     0.044 A 
ATOM     11  Cl  UNL A   1      33.163  23.544  26.453  1.00  0.00    -0.082 Cl
ATOM     12  C   UNL A   1      32.239  27.413  26.660  1.00  0.00     0.055 A 
ATOM     13  Cl  UNL A   1      31.090  28.280  27.620  1.00  0.00    -0.083 Cl
BRANCH   7  14
ATOM     14  N   UNL A   1      34.610  24.873  24.256  1.00  0.00    -0.322 N 
ATOM     15  C   UNL A   1      34.363  24.196  23.103  1.00  0.00     0.262 C 
ATOM     16  O   UNL A   1      35.193  23.332  22.790  1.00  0.00    -0.271 OA
ATOM     17  H   UNL A   1      35.506  24.661  24.606  1.00  0.00     0.170 HD
BRANCH  15  18
ATOM     18  C   UNL A   1      33.210  24.514  22.155  1.00  0.00     0.329 C 
BRANCH  18  19
ATOM     19  O   UNL A   1      31.889  24.418  22.629  1.00  0.00    -0.484 OA
BRANCH  19  20
ATOM     20  C   UNL A   1      31.165  25.543  22.888  1.00  0.00     0.120 A 
ATOM     21  C   UNL A   1      30.223  29.124  22.002  1.00  0.00     0.044 C 
ATOM     22  C   UNL A   1      30.226  27.762  22.620  1.00  0.00    -0.047 A 
ATOM     23  C   UNL A   1      29.302  27.516  23.640  1.00  0.00     0.003 A 
ATOM     24  C   UNL A   1      31.145  26.760  22.227  1.00  0.00     0.049 A 
ATOM     25  C   UNL A   1      29.366  26.330  24.333  1.00  0.00     0.004 A 
ATOM     26  C   UNL A   1      30.332  25.394  23.986  1.00  0.00     0.046 A 
ENDBRANCH  19  20
ENDBRANCH  18  19
ENDBRANCH  15  18
ENDBRANCH   7  14
ENDBRANCH   3   6
ENDBRANCH   1   2
BRANCH   1  27
ATOM     27  C   UNL A   1      34.408  31.718  27.936  1.00  0.00     0.042 C 
BRANCH  27  28
ATOM     28  C   UNL A   1      34.966  31.686  29.358  1.00  0.00     0.118 C 
BRANCH  28  29
ATOM     29  N   UNL A   1      36.430  31.826  29.450  1.00  0.00    -0.352 N 
ATOM     30  C   UNL A   1      37.551  31.055  29.174  1.00  0.00     0.251 C 
ATOM     31  H   UNL A   1      36.682  32.709  29.803  1.00  0.00     0.163 HD
ATOM     32  O   UNL A   1      38.650  31.505  29.497  1.00  0.00    -0.269 OA
BRANCH  30  33
ATOM     33  C   UNL A   1      37.525  29.791  28.372  1.00  0.00     0.039 A 
ATOM     34  C   UNL A   1      37.351  28.698  29.239  1.00  0.00     0.014 A 
ATOM     35  C   UNL A   1      38.456  29.698  27.362  1.00  0.00     0.014 A 
ATOM     36  C   UNL A   1      38.474  27.965  29.570  1.00  0.00     0.010 A 
ATOM     37  C   UNL A   1      39.602  29.032  27.716  1.00  0.00     0.010 A 
ATOM     38  C   UNL A   1      39.642  28.296  28.913  1.00  0.00    -0.014 A 
BRANCH  38  39
ATOM     39  C   UNL A   1      40.977  27.980  29.373  1.00  0.00     0.031 A 
ATOM     40  C   UNL A   1      41.575  26.765  28.805  1.00  0.00     0.074 A 
ATOM     41  C   UNL A   1      41.694  28.905  30.057  1.00  0.00     0.049 A 
ATOM     42  N   UNL A   1      42.699  26.276  29.168  1.00  0.00    -0.248 NA
ATOM     43  C   UNL A   1      40.921  25.976  27.764  1.00  0.00     0.031 C 
ATOM     44  C   UNL A   1      43.147  28.968  30.212  1.00  0.00     0.029 A 
ATOM     45  N   UNL A   1      41.222  29.916  30.915  1.00  0.00    -0.354 N 
ATOM     46  C   UNL A   1      43.057  25.316  28.252  1.00  0.00     0.074 A 
ATOM     47  C   UNL A   1      41.890  25.123  27.435  1.00  0.00     0.031 C 
ATOM     48  C   UNL A   1      43.446  29.708  31.294  1.00  0.00     0.029 A 
ATOM     49  C   UNL A   1      42.191  30.016  31.950  1.00  0.00     0.049 A 
ATOM     50  H   UNL A   1      40.397  30.443  30.819  1.00  0.00     0.167 HD
ATOM     51  C   UNL A   1      44.356  24.909  28.261  1.00  0.00     0.037 A 
ATOM     52  C   UNL A   1      41.885  29.660  33.234  1.00  0.00     0.037 A 
ATOM     53  C   UNL A   1      45.020  25.442  29.453  1.00  0.00     0.049 A 
ATOM     54  C   UNL A   1      42.689  28.475  33.725  1.00  0.00     0.074 A 
ATOM     55  C   UNL A   1      45.848  26.529  29.677  1.00  0.00     0.029 A 
ATOM     56  N   UNL A   1      44.542  25.049  30.700  1.00  0.00    -0.354 N 
ATOM     57  N   UNL A   1      43.257  27.608  32.931  1.00  0.00    -0.248 NA
ATOM     58  C   UNL A   1      42.941  28.185  35.133  1.00  0.00     0.031 C 
ATOM     59  C   UNL A   1      45.819  26.819  31.068  1.00  0.00     0.029 A 
ATOM     60  C   UNL A   1      44.997  25.894  31.690  1.00  0.00     0.049 A 
ATOM     61  H   UNL A   1      43.955  24.273  30.854  1.00  0.00     0.167 HD
ATOM     62  C   UNL A   1      43.941  26.678  33.672  1.00  0.00     0.074 A 
ATOM     63  C   UNL A   1      43.711  27.084  35.046  1.00  0.00     0.031 C 
ATOM     64  C   UNL A   1      44.642  25.659  33.084  1.00  0.00     0.037 A 
BRANCH  51  65
ATOM     65  C   UNL A   1      45.092  24.222  27.133  1.00  0.00     0.064 A 
ATOM     66  C   UNL A   1      46.044  24.945  26.380  1.00  0.00     0.173 A 
ATOM     67  C   UNL A   1      44.877  22.905  26.681  1.00  0.00     0.173 A 
ATOM     68  F   UNL A   1      46.387  26.199  26.703  1.00  0.00    -0.203 F 
ATOM     69  C   UNL A   1      46.679  24.415  25.253  1.00  0.00     0.198 A 
ATOM     70  C   UNL A   1      45.501  22.379  25.546  1.00  0.00     0.198 A 
ATOM     71  F   UNL A   1      44.082  22.048  27.319  1.00  0.00    -0.203 F 
ATOM     72  F   UNL A   1      47.559  25.163  24.575  1.00  0.00    -0.200 F 
ATOM     73  C   UNL A   1      46.399  23.135  24.828  1.00  0.00     0.200 A 
ATOM     74  F   UNL A   1      45.218  21.127  25.158  1.00  0.00    -0.200 F 
ATOM     75  F   UNL A   1      46.996  22.628  23.742  1.00  0.00    -0.200 F 
ENDBRANCH  51  65
BRANCH  52  76
ATOM     76  C   UNL A   1      40.468  29.983  33.565  1.00  0.00     0.064 A 
ATOM     77  C   UNL A   1      40.164  31.342  33.789  1.00  0.00     0.173 A 
ATOM     78  C   UNL A   1      39.420  29.144  33.164  1.00  0.00     0.173 A 
ATOM     79  F   UNL A   1      41.129  32.185  34.191  1.00  0.00    -0.203 F 
ATOM     80  C   UNL A   1      38.921  31.872  33.447  1.00  0.00     0.198 A 
ATOM     81  C   UNL A   1      38.166  29.678  32.852  1.00  0.00     0.198 A 
ATOM     82  F   UNL A   1      39.644  27.843  32.933  1.00  0.00    -0.203 F 
ATOM     83  F   UNL A   1      38.719  33.197  33.517  1.00  0.00    -0.200 F 
ATOM     84  C   UNL A   1      37.934  31.043  32.944  1.00  0.00     0.200 A 
ATOM     85  F   UNL A   1      37.208  28.879  32.357  1.00  0.00    -0.200 F 
ATOM     86  F   UNL A   1      36.775  31.560  32.512  1.00  0.00    -0.200 F 
ENDBRANCH  52  76
BRANCH  64  87
ATOM     87  C   UNL A   1      45.139  24.384  33.745  1.00  0.00     0.064 A 
ATOM     88  C   UNL A   1      44.393  23.199  33.847  1.00  0.00     0.173 A 
ATOM     89  C   UNL A   1      46.493  24.270  34.166  1.00  0.00     0.173 A 
ATOM     90  F   UNL A   1      43.144  23.110  33.375  1.00  0.00    -0.203 F 
ATOM     91  C   UNL A   1      44.931  22.024  34.385  1.00  0.00     0.198 A 
ATOM     92  C   UNL A   1      47.047  23.076  34.623  1.00  0.00     0.198 A 
ATOM     93  F   UNL A   1      47.344  25.306  34.118  1.00  0.00    -0.203 F 
ATOM     94  F   UNL A   1      44.154  20.939  34.509  1.00  0.00    -0.200 F 
ATOM     95  C   UNL A   1      46.260  21.957  34.756  1.00  0.00     0.200 A 
ATOM     96  F   UNL A   1      48.356  23.018  34.911  1.00  0.00    -0.200 F 
ATOM     97  F   UNL A   1      46.782  20.814  35.218  1.00  0.00    -0.200 F 
ENDBRANCH  64  87
ENDBRANCH  38  39
ENDBRANCH  30  33
ENDBRANCH  28  29
ENDBRANCH  27  28
ENDBRANCH   1  27
TORSDOF 14
ENDMDL
MODEL 3
REMARK VINA RESULT:     -13.0      2.238      2.660
REMARK SMILES Cc1cccc(OCC(=O)Nc2cc(C(=O)NCCCNC(=O)c3ccc(-c4c5nc(c(-c6c(F)c(F)c(F)c(F)c6F)c6ccc([nH]6)c(-c6c(F)c(F)c(F)c(F)c6F)c6nc(c(-c7c(F)c(F)c(F)c(F)c7F)c7ccc4[nH]7)C=C6)C=C5)cc3)c(Cl)cc2Cl)c1
REMARK SMILES IDX 18 1 17 2 15 3 16 4 14 6 12 7 13 8 90 9 89 10 91 11 87 12
REMARK SMILES IDX 88 13 11 14 9 15 10 16 8 18 7 19 6 20 1 21 2 22 3 23 92 24
REMARK SMILES IDX 4 25 5 26 19 27 20 28 21 29 22 30 23 32 24 33 25 34 86 35
REMARK SMILES IDX 26 36 85 37 27 38 28 39 29 40 79 41 30 42 84 43 78 44 80 45
REMARK SMILES IDX 31 46 83 47 77 48 76 49 32 51 64 52 44 53 63 54 45 55 48 56
REMARK SMILES IDX 62 57 81 58 46 59 47 60 61 62 82 63 49 64 33 65 34 66 42 67
REMARK SMILES IDX 35 68 36 69 40 70 43 71 37 72 38 73 41 74 39 75 65 76 66 77
REMARK SMILES IDX 74 78 67 79 68 80 72 81 75 82 69 83 70 84 73 85 71 86 50 87
REMARK SMILES IDX 51 88 59 89 52 90 53 91 57 92 60 93 54 94 55 95 58 96 56 97
REMARK H PARENT 17 5 11 17 21 31 80 50 48 61
REMARK Flexibility Score: inf
ROOT
ATOM      1  C   UNL A   1      32.821  30.680  26.453  1.00  0.00     0.118 C 
ENDROOT
BRANCH   1   2
ATOM      2  N   UNL A   1      33.712  29.889  25.631  1.00  0.00    -0.352 N 
ATOM      3  C   UNL A   1      33.435  28.857  24.767  1.00  0.00     0.252 C 
ATOM      4  O   UNL A   1      34.352  28.461  24.045  1.00  0.00    -0.269 OA
ATOM      5  H   UNL A   1      34.664  30.129  25.702  1.00  0.00     0.163 HD
BRANCH   3   6
ATOM      6  C   UNL A   1      32.092  28.207  24.707  1.00  0.00     0.060 A 
ATOM      7  C   UNL A   1      30.505  26.550  25.559  1.00  0.00     0.061 A 
ATOM      8  C   UNL A   1      31.675  27.296  25.710  1.00  0.00     0.043 A 
ATOM      9  C   UNL A   1      29.667  26.849  24.463  1.00  0.00     0.066 A 
ATOM     10  C   UNL A   1      30.005  27.827  23.531  1.00  0.00     0.044 A 
ATOM     11  Cl  UNL A   1      28.174  26.001  24.223  1.00  0.00    -0.082 Cl
ATOM     12  C   UNL A   1      31.230  28.486  23.631  1.00  0.00     0.055 A 
ATOM     13  Cl  UNL A   1      31.606  29.572  22.337  1.00  0.00    -0.083 Cl
BRANCH   7  14
ATOM     14  N   UNL A   1      30.135  25.444  26.352  1.00  0.00    -0.322 N 
ATOM     15  C   UNL A   1      30.530  24.156  26.530  1.00  0.00     0.262 C 
ATOM     16  O   UNL A   1      29.798  23.456  27.242  1.00  0.00    -0.271 OA
ATOM     17  H   UNL A   1      29.379  25.668  26.942  1.00  0.00     0.170 HD
BRANCH  15  18
ATOM     18  C   UNL A   1      31.842  23.583  26.002  1.00  0.00     0.329 C 
BRANCH  18  19
ATOM     19  O   UNL A   1      33.057  24.140  26.443  1.00  0.00    -0.484 OA
BRANCH  19  20
ATOM     20  C   UNL A   1      34.213  23.899  25.763  1.00  0.00     0.120 A 
ATOM     21  C   UNL A   1      37.896  22.931  25.774  1.00  0.00     0.044 C 
ATOM     22  C   UNL A   1      36.503  23.238  25.321  1.00  0.00    -0.047 A 
ATOM     23  C   UNL A   1      36.264  23.256  23.944  1.00  0.00     0.003 A 
ATOM     24  C   UNL A   1      35.465  23.537  26.234  1.00  0.00     0.049 A 
ATOM     25  C   UNL A   1      35.038  23.674  23.480  1.00  0.00     0.004 A 
ATOM     26  C   UNL A   1      34.059  24.045  24.393  1.00  0.00     0.046 A 
ENDBRANCH  19  20
ENDBRANCH  18  19
ENDBRANCH  15  18
ENDBRANCH   7  14
ENDBRANCH   3   6
ENDBRANCH   1   2
BRANCH   1  27
ATOM     27  C   UNL A   1      33.415  31.126  27.777  1.00  0.00     0.042 C 
BRANCH  27  28
ATOM     28  C   UNL A   1      34.117  32.482  27.758  1.00  0.00     0.118 C 
BRANCH  28  29
ATOM     29  N   UNL A   1      35.497  32.470  28.275  1.00  0.00    -0.352 N 
ATOM     30  C   UNL A   1      36.363  31.555  28.856  1.00  0.00     0.251 C 
ATOM     31  H   UNL A   1      35.921  33.353  28.183  1.00  0.00     0.163 HD
ATOM     32  O   UNL A   1      37.448  31.970  29.265  1.00  0.00    -0.269 OA
BRANCH  30  33
ATOM     33  C   UNL A   1      36.133  30.075  28.877  1.00  0.00     0.039 A 
ATOM     34  C   UNL A   1      36.406  29.583  30.165  1.00  0.00     0.014 A 
ATOM     35  C   UNL A   1      36.597  29.377  27.784  1.00  0.00     0.014 A 
ATOM     36  C   UNL A   1      37.627  28.968  30.364  1.00  0.00     0.010 A 
ATOM     37  C   UNL A   1      37.843  28.827  27.959  1.00  0.00     0.010 A 
ATOM     38  C   UNL A   1      38.411  28.778  29.244  1.00  0.00    -0.014 A 
BRANCH  38  39
ATOM     39  C   UNL A   1      39.841  28.558  29.253  1.00  0.00     0.031 A 
ATOM     40  C   UNL A   1      40.277  27.189  28.947  1.00  0.00     0.074 A 
ATOM     41  C   UNL A   1      40.689  29.615  29.269  1.00  0.00     0.049 A 
ATOM     42  N   UNL A   1      41.488  26.786  29.010  1.00  0.00    -0.248 NA
ATOM     43  C   UNL A   1      39.346  26.135  28.554  1.00  0.00     0.031 C 
ATOM     44  C   UNL A   1      42.088  29.641  28.844  1.00  0.00     0.029 A 
ATOM     45  N   UNL A   1      40.493  30.883  29.848  1.00  0.00    -0.354 N 
ATOM     46  C   UNL A   1      41.555  25.552  28.405  1.00  0.00     0.074 A 
ATOM     47  C   UNL A   1      40.186  25.164  28.195  1.00  0.00     0.031 C 
ATOM     48  C   UNL A   1      42.709  30.684  29.421  1.00  0.00     0.029 A 
ATOM     49  C   UNL A   1      41.764  31.270  30.351  1.00  0.00     0.049 A 
ATOM     50  H   UNL A   1      39.653  31.394  29.894  1.00  0.00     0.167 HD
ATOM     51  C   UNL A   1      42.792  25.097  28.068  1.00  0.00     0.037 A 
ATOM     52  C   UNL A   1      41.979  31.388  31.697  1.00  0.00     0.037 A 
ATOM     53  C   UNL A   1      43.806  25.961  28.676  1.00  0.00     0.049 A 
ATOM     54  C   UNL A   1      42.993  30.394  32.222  1.00  0.00     0.074 A 
ATOM     55  C   UNL A   1      44.576  27.009  28.198  1.00  0.00     0.029 A 
ATOM     56  N   UNL A   1      43.851  26.043  30.065  1.00  0.00    -0.354 N 
ATOM     57  N   UNL A   1      43.292  29.278  31.615  1.00  0.00    -0.248 NA
ATOM     58  C   UNL A   1      43.766  30.584  33.445  1.00  0.00     0.031 C 
ATOM     59  C   UNL A   1      45.040  27.754  29.316  1.00  0.00     0.029 A 
ATOM     60  C   UNL A   1      44.575  27.144  30.470  1.00  0.00     0.049 A 
ATOM     61  H   UNL A   1      43.422  25.402  30.676  1.00  0.00     0.167 HD
ATOM     62  C   UNL A   1      44.268  28.615  32.315  1.00  0.00     0.074 A 
ATOM     63  C   UNL A   1      44.529  29.475  33.453  1.00  0.00     0.031 C 
ATOM     64  C   UNL A   1      44.776  27.417  31.888  1.00  0.00     0.037 A 
BRANCH  51  65
ATOM     65  C   UNL A   1      43.110  24.026  27.049  1.00  0.00     0.064 A 
ATOM     66  C   UNL A   1      42.787  22.679  27.330  1.00  0.00     0.173 A 
ATOM     67  C   UNL A   1      43.784  24.216  25.827  1.00  0.00     0.173 A 
ATOM     68  F   UNL A   1      42.115  22.336  28.436  1.00  0.00    -0.203 F 
ATOM     69  C   UNL A   1      43.152  21.623  26.490  1.00  0.00     0.198 A 
ATOM     70  C   UNL A   1      44.160  23.160  24.993  1.00  0.00     0.198 A 
ATOM     71  F   UNL A   1      44.089  25.425  25.356  1.00  0.00    -0.203 F 
ATOM     72  F   UNL A   1      42.828  20.367  26.826  1.00  0.00    -0.200 F 
ATOM     73  C   UNL A   1      43.850  21.861  25.327  1.00  0.00     0.200 A 
ATOM     74  F   UNL A   1      44.832  23.419  23.862  1.00  0.00    -0.200 F 
ATOM     75  F   UNL A   1      44.211  20.851  24.526  1.00  0.00    -0.200 F 
ENDBRANCH  51  65
BRANCH  52  76
ATOM     76  C   UNL A   1      40.764  31.888  32.400  1.00  0.00     0.064 A 
ATOM     77  C   UNL A   1      40.383  33.221  32.138  1.00  0.00     0.173 A 
ATOM     78  C   UNL A   1      39.768  31.007  32.843  1.00  0.00     0.173 A 
ATOM     79  F   UNL A   1      41.302  34.110  31.728  1.00  0.00    -0.203 F 
ATOM     80  C   UNL A   1      39.043  33.604  32.137  1.00  0.00     0.198 A 
ATOM     81  C   UNL A   1      38.429  31.408  32.868  1.00  0.00     0.198 A 
ATOM     82  F   UNL A   1      40.065  29.727  33.106  1.00  0.00    -0.203 F 
ATOM     83  F   UNL A   1      38.702  34.835  31.723  1.00  0.00    -0.200 F 
ATOM     84  C   UNL A   1      38.064  32.685  32.467  1.00  0.00     0.200 A 
ATOM     85  F   UNL A   1      37.474  30.518  33.181  1.00  0.00    -0.200 F 
ATOM     86  F   UNL A   1      36.769  33.014  32.364  1.00  0.00    -0.200 F 
ENDBRANCH  52  76
BRANCH  64  87
ATOM     87  C   UNL A   1      45.575  26.414  32.703  1.00  0.00     0.064 A 
ATOM     88  C   UNL A   1      45.008  25.391  33.481  1.00  0.00     0.173 A 
ATOM     89  C   UNL A   1      46.992  26.357  32.591  1.00  0.00     0.173 A 
ATOM     90  F   UNL A   1      43.683  25.234  33.579  1.00  0.00    -0.203 F 
ATOM     91  C   UNL A   1      45.791  24.437  34.141  1.00  0.00     0.198 A 
ATOM     92  C   UNL A   1      47.759  25.356  33.182  1.00  0.00     0.198 A 
ATOM     93  F   UNL A   1      47.686  27.251  31.871  1.00  0.00    -0.203 F 
ATOM     94  F   UNL A   1      45.197  23.518  34.915  1.00  0.00    -0.200 F 
ATOM     95  C   UNL A   1      47.162  24.408  33.979  1.00  0.00     0.200 A 
ATOM     96  F   UNL A   1      49.080  25.308  32.952  1.00  0.00    -0.200 F 
ATOM     97  F   UNL A   1      47.899  23.459  34.568  1.00  0.00    -0.200 F 
ENDBRANCH  64  87
ENDBRANCH  38  39
ENDBRANCH  30  33
ENDBRANCH  28  29
ENDBRANCH  27  28
ENDBRANCH   1  27
TORSDOF 14
ENDMDL
