MODEL 1
REMARK VINA RESULT:     -11.9      0.000      0.000
REMARK SMILES CC(C)[C@@H]([NH2+][C@@H]1CSCC(C)(C)C1)C(=O)NCCCNC(=O)c1ccc(-c2c3nc(c(-c4c(F)c(F)c(F)c(F)c4F)c4ccc([nH]4)c(-c4c(F)c(F)c(F)c(F)c4F)c4nc(c(-c5c(F)c(F)c(F)c(F)c5F)c5ccc2[nH]5)C=C4)C=C3)cc1
REMARK SMILES IDX 18 1 17 2 16 3 14 4 15 5 4 7 2 8 1 9 3 10 5 11 6 14 7 15
REMARK SMILES IDX 13 16 8 17 10 18 9 19 11 20 12 21 19 22 20 23 21 24 22 26
REMARK SMILES IDX 23 27 24 28 85 29 25 30 84 31 26 32 27 33 28 34 78 35 29 36
REMARK SMILES IDX 83 37 77 38 79 39 30 40 82 41 76 42 75 43 31 45 63 46 43 47
REMARK SMILES IDX 62 48 44 49 47 50 61 51 80 52 45 53 46 54 60 56 81 57 48 58
REMARK SMILES IDX 32 59 33 60 41 61 34 62 35 63 39 64 42 65 36 66 37 67 40 68
REMARK SMILES IDX 38 69 64 70 65 71 73 72 66 73 67 74 71 75 74 76 68 77 69 78
REMARK SMILES IDX 72 79 70 80 49 81 50 82 58 83 51 84 52 85 56 86 59 87 53 88
REMARK SMILES IDX 54 89 57 90 55 91
REMARK H PARENT 16 6 5 12 5 13 20 25 79 44 47 55
REMARK Flexibility Score: inf
ROOT
ATOM      1  C   UNL A   1      31.757  31.761  26.716  1.00  0.00     0.042 C 
ENDROOT
BRANCH   1   2
ATOM      2  C   UNL A   1      32.122  30.305  26.519  1.00  0.00     0.118 C 
BRANCH   2   3
ATOM      3  N   UNL A   1      32.909  30.072  25.327  1.00  0.00    -0.351 N 
ATOM      4  C   UNL A   1      32.641  29.207  24.300  1.00  0.00     0.278 C 
ATOM      5  O   UNL A   1      33.344  29.266  23.288  1.00  0.00    -0.268 OA
ATOM      6  H   UNL A   1      33.739  30.596  25.246  1.00  0.00     0.163 HD
BRANCH   4   7
ATOM      7  C   UNL A   1      31.551  28.117  24.442  1.00  0.00     0.275 C 
BRANCH   7   8
ATOM      8  C   UNL A   1      30.426  28.401  23.387  1.00  0.00     0.051 C 
ATOM      9  C   UNL A   1      29.294  27.372  23.438  1.00  0.00     0.014 C 
ATOM     10  C   UNL A   1      29.817  29.805  23.551  1.00  0.00     0.014 C 
ENDBRANCH   7   8
BRANCH   7  11
ATOM     11  N   UNL A   1      32.133  26.748  24.325  1.00  0.00    -0.333 N 
ATOM     12  H   UNL A   1      32.946  26.813  23.712  1.00  0.00     0.347 HD
ATOM     13  H   UNL A   1      31.371  26.169  23.975  1.00  0.00     0.347 HD
BRANCH  11  14
ATOM     14  C   UNL A   1      32.570  26.087  25.575  1.00  0.00     0.193 C 
ATOM     15  C   UNL A   1      34.010  25.559  25.679  1.00  0.00     0.134 C 
ATOM     16  C   UNL A   1      31.601  24.928  25.950  1.00  0.00     0.073 C 
ATOM     17  S   UNL A   1      34.406  24.259  24.476  1.00  0.00    -0.155 SA
ATOM     18  C   UNL A   1      31.616  23.653  25.061  1.00  0.00    -0.021 C 
ATOM     19  C   UNL A   1      33.035  23.113  24.751  1.00  0.00     0.076 C 
ATOM     20  C   UNL A   1      30.784  23.873  23.781  1.00  0.00     0.012 C 
ATOM     21  C   UNL A   1      30.888  22.512  25.819  1.00  0.00     0.012 C 
ENDBRANCH  11  14
ENDBRANCH   7  11
ENDBRANCH   4   7
ENDBRANCH   2   3
ENDBRANCH   1   2
BRANCH   1  22
ATOM     22  C   UNL A   1      32.877  32.553  27.367  1.00  0.00     0.118 C 
BRANCH  22  23
ATOM     23  N   UNL A   1      32.511  33.942  27.631  1.00  0.00    -0.352 N 
ATOM     24  C   UNL A   1      33.010  34.828  28.559  1.00  0.00     0.251 C 
ATOM     25  H   UNL A   1      31.796  34.301  27.057  1.00  0.00     0.163 HD
ATOM     26  O   UNL A   1      32.467  35.907  28.741  1.00  0.00    -0.269 OA
BRANCH  24  27
ATOM     27  C   UNL A   1      34.193  34.447  29.364  1.00  0.00     0.039 A 
ATOM     28  C   UNL A   1      34.004  33.910  30.640  1.00  0.00     0.014 A 
ATOM     29  C   UNL A   1      35.479  34.583  28.843  1.00  0.00     0.014 A 
ATOM     30  C   UNL A   1      35.103  33.416  31.348  1.00  0.00     0.010 A 
ATOM     31  C   UNL A   1      36.552  33.993  29.499  1.00  0.00     0.010 A 
ATOM     32  C   UNL A   1      36.376  33.402  30.758  1.00  0.00    -0.014 A 
BRANCH  32  33
ATOM     33  C   UNL A   1      37.545  32.776  31.427  1.00  0.00     0.031 A 
ATOM     34  C   UNL A   1      38.251  31.620  30.773  1.00  0.00     0.074 A 
ATOM     35  C   UNL A   1      37.899  33.174  32.666  1.00  0.00     0.049 A 
ATOM     36  N   UNL A   1      39.193  30.847  31.251  1.00  0.00    -0.248 NA
ATOM     37  C   UNL A   1      37.808  31.255  29.417  1.00  0.00     0.031 C 
ATOM     38  C   UNL A   1      37.246  34.234  33.438  1.00  0.00     0.029 A 
ATOM     39  N   UNL A   1      38.884  32.716  33.506  1.00  0.00    -0.354 N 
ATOM     40  C   UNL A   1      39.424  29.888  30.273  1.00  0.00     0.074 A 
ATOM     41  C   UNL A   1      38.497  30.145  29.194  1.00  0.00     0.031 C 
ATOM     42  C   UNL A   1      37.857  34.356  34.627  1.00  0.00     0.029 A 
ATOM     43  C   UNL A   1      38.918  33.359  34.720  1.00  0.00     0.049 A 
ATOM     44  H   UNL A   1      39.508  31.995  33.261  1.00  0.00     0.167 HD
ATOM     45  C   UNL A   1      40.346  28.897  30.267  1.00  0.00     0.037 A 
ATOM     46  C   UNL A   1      39.708  33.157  35.792  1.00  0.00     0.037 A 
ATOM     47  C   UNL A   1      41.311  28.686  31.311  1.00  0.00     0.049 A 
ATOM     48  C   UNL A   1      40.761  32.083  35.732  1.00  0.00     0.074 A 
ATOM     49  C   UNL A   1      42.352  27.776  31.351  1.00  0.00     0.029 A 
ATOM     50  N   UNL A   1      41.357  29.402  32.497  1.00  0.00    -0.354 N 
ATOM     51  N   UNL A   1      41.027  31.238  34.766  1.00  0.00    -0.248 NA
ATOM     52  C   UNL A   1      41.629  31.938  36.909  1.00  0.00     0.031 C 
ATOM     53  C   UNL A   1      43.008  27.918  32.578  1.00  0.00     0.029 A 
ATOM     54  C   UNL A   1      42.400  28.944  33.284  1.00  0.00     0.049 A 
ATOM     55  H   UNL A   1      40.740  30.129  32.744  1.00  0.00     0.167 HD
ATOM     56  C   UNL A   1      42.104  30.482  35.205  1.00  0.00     0.074 A 
ATOM     57  C   UNL A   1      42.456  30.979  36.519  1.00  0.00     0.031 C 
ATOM     58  C   UNL A   1      42.744  29.464  34.581  1.00  0.00     0.037 A 
BRANCH  45  59
ATOM     59  C   UNL A   1      40.373  27.971  29.086  1.00  0.00     0.064 A 
ATOM     60  C   UNL A   1      39.609  26.795  29.057  1.00  0.00     0.173 A 
ATOM     61  C   UNL A   1      41.123  28.297  27.946  1.00  0.00     0.173 A 
ATOM     62  F   UNL A   1      38.884  26.434  30.127  1.00  0.00    -0.203 F 
ATOM     63  C   UNL A   1      39.609  25.969  27.937  1.00  0.00     0.198 A 
ATOM     64  C   UNL A   1      41.099  27.482  26.817  1.00  0.00     0.198 A 
ATOM     65  F   UNL A   1      41.866  29.413  27.921  1.00  0.00    -0.203 F 
ATOM     66  F   UNL A   1      38.901  24.832  27.945  1.00  0.00    -0.200 F 
ATOM     67  C   UNL A   1      40.346  26.318  26.814  1.00  0.00     0.200 A 
ATOM     68  F   UNL A   1      41.801  27.827  25.729  1.00  0.00    -0.200 F 
ATOM     69  F   UNL A   1      40.333  25.529  25.731  1.00  0.00    -0.200 F 
ENDBRANCH  45  59
BRANCH  46  70
ATOM     70  C   UNL A   1      39.551  33.996  37.009  1.00  0.00     0.064 A 
ATOM     71  C   UNL A   1      38.800  33.545  38.102  1.00  0.00     0.173 A 
ATOM     72  C   UNL A   1      40.126  35.273  37.094  1.00  0.00     0.173 A 
ATOM     73  F   UNL A   1      38.214  32.339  38.060  1.00  0.00    -0.203 F 
ATOM     74  C   UNL A   1      38.603  34.348  39.223  1.00  0.00     0.198 A 
ATOM     75  C   UNL A   1      39.952  36.065  38.228  1.00  0.00     0.198 A 
ATOM     76  F   UNL A   1      40.859  35.749  36.078  1.00  0.00    -0.203 F 
ATOM     77  F   UNL A   1      37.834  33.913  40.231  1.00  0.00    -0.200 F 
ATOM     78  C   UNL A   1      39.182  35.607  39.286  1.00  0.00     0.200 A 
ATOM     79  F   UNL A   1      40.524  37.275  38.291  1.00  0.00    -0.200 F 
ATOM     80  F   UNL A   1      38.989  36.382  40.363  1.00  0.00    -0.200 F 
ENDBRANCH  46  70
BRANCH  58  81
ATOM     81  C   UNL A   1      43.909  28.845  35.291  1.00  0.00     0.064 A 
ATOM     82  C   UNL A   1      45.219  29.296  35.085  1.00  0.00     0.173 A 
ATOM     83  C   UNL A   1      43.704  27.818  36.226  1.00  0.00     0.173 A 
ATOM     84  F   UNL A   1      45.466  30.266  34.190  1.00  0.00    -0.203 F 
ATOM     85  C   UNL A   1      46.287  28.728  35.774  1.00  0.00     0.198 A 
ATOM     86  C   UNL A   1      44.770  27.272  36.933  1.00  0.00     0.198 A 
ATOM     87  F   UNL A   1      42.466  27.356  36.463  1.00  0.00    -0.203 F 
ATOM     88  F   UNL A   1      47.537  29.147  35.530  1.00  0.00    -0.200 F 
ATOM     89  C   UNL A   1      46.061  27.723  36.702  1.00  0.00     0.200 A 
ATOM     90  F   UNL A   1      44.549  26.309  37.840  1.00  0.00    -0.200 F 
ATOM     91  F   UNL A   1      47.089  27.183  37.371  1.00  0.00    -0.200 F 
ENDBRANCH  58  81
ENDBRANCH  32  33
ENDBRANCH  24  27
ENDBRANCH  22  23
ENDBRANCH   1  22
TORSDOF 13
ENDMDL
MODEL 2
REMARK VINA RESULT:     -11.9      0.072      1.154
REMARK SMILES CC(C)[C@@H]([NH2+][C@@H]1CSCC(C)(C)C1)C(=O)NCCCNC(=O)c1ccc(-c2c3nc(c(-c4c(F)c(F)c(F)c(F)c4F)c4ccc([nH]4)c(-c4c(F)c(F)c(F)c(F)c4F)c4nc(c(-c5c(F)c(F)c(F)c(F)c5F)c5ccc2[nH]5)C=C4)C=C3)cc1
REMARK SMILES IDX 18 1 17 2 16 3 14 4 15 5 4 7 2 8 1 9 3 10 5 11 6 14 7 15
REMARK SMILES IDX 13 16 8 17 10 18 9 19 11 20 12 21 19 22 20 23 21 24 22 26
REMARK SMILES IDX 23 27 24 28 85 29 25 30 84 31 26 32 27 33 28 34 78 35 29 36
REMARK SMILES IDX 83 37 77 38 79 39 30 40 82 41 76 42 75 43 31 45 63 46 43 47
REMARK SMILES IDX 62 48 44 49 47 50 61 51 80 52 45 53 46 54 60 56 81 57 48 58
REMARK SMILES IDX 32 59 33 60 41 61 34 62 35 63 39 64 42 65 36 66 37 67 40 68
REMARK SMILES IDX 38 69 64 70 65 71 73 72 66 73 67 74 71 75 74 76 68 77 69 78
REMARK SMILES IDX 72 79 70 80 49 81 50 82 58 83 51 84 52 85 56 86 59 87 53 88
REMARK SMILES IDX 54 89 57 90 55 91
REMARK H PARENT 16 6 5 12 5 13 20 25 79 44 47 55
REMARK Flexibility Score: inf
ROOT
ATOM      1  C   UNL A   1      31.768  31.764  26.690  1.00  0.00     0.042 C 
ENDROOT
BRANCH   1   2
ATOM      2  C   UNL A   1      32.130  30.308  26.488  1.00  0.00     0.118 C 
BRANCH   2   3
ATOM      3  N   UNL A   1      32.919  30.078  25.297  1.00  0.00    -0.351 N 
ATOM      4  C   UNL A   1      32.665  29.198  24.280  1.00  0.00     0.278 C 
ATOM      5  O   UNL A   1      33.364  29.260  23.265  1.00  0.00    -0.268 OA
ATOM      6  H   UNL A   1      33.738  30.618  25.207  1.00  0.00     0.163 HD
BRANCH   4   7
ATOM      7  C   UNL A   1      31.598  28.087  24.437  1.00  0.00     0.275 C 
BRANCH   7   8
ATOM      8  C   UNL A   1      30.455  28.348  23.394  1.00  0.00     0.051 C 
ATOM      9  C   UNL A   1      29.323  27.323  23.489  1.00  0.00     0.014 C 
ATOM     10  C   UNL A   1      29.852  29.757  23.533  1.00  0.00     0.014 C 
ENDBRANCH   7   8
BRANCH   7  11
ATOM     11  N   UNL A   1      32.204  26.730  24.316  1.00  0.00    -0.333 N 
ATOM     12  H   UNL A   1      33.026  26.814  23.718  1.00  0.00     0.347 HD
ATOM     13  H   UNL A   1      31.457  26.142  23.946  1.00  0.00     0.347 HD
BRANCH  11  14
ATOM     14  C   UNL A   1      32.630  26.062  25.567  1.00  0.00     0.193 C 
ATOM     15  C   UNL A   1      34.055  25.493  25.663  1.00  0.00     0.134 C 
ATOM     16  C   UNL A   1      31.630  24.934  25.954  1.00  0.00     0.073 C 
ATOM     17  S   UNL A   1      34.405  24.177  24.465  1.00  0.00    -0.155 SA
ATOM     18  C   UNL A   1      31.603  23.654  25.072  1.00  0.00    -0.021 C 
ATOM     19  C   UNL A   1      33.003  23.072  24.754  1.00  0.00     0.076 C 
ATOM     20  C   UNL A   1      30.769  23.891  23.796  1.00  0.00     0.012 C 
ATOM     21  C   UNL A   1      30.847  22.539  25.840  1.00  0.00     0.012 C 
ENDBRANCH  11  14
ENDBRANCH   7  11
ENDBRANCH   4   7
ENDBRANCH   2   3
ENDBRANCH   1   2
BRANCH   1  22
ATOM     22  C   UNL A   1      32.876  32.545  27.374  1.00  0.00     0.118 C 
BRANCH  22  23
ATOM     23  N   UNL A   1      32.514  33.935  27.635  1.00  0.00    -0.352 N 
ATOM     24  C   UNL A   1      33.015  34.822  28.561  1.00  0.00     0.251 C 
ATOM     25  H   UNL A   1      31.800  34.295  27.060  1.00  0.00     0.163 HD
ATOM     26  O   UNL A   1      32.475  35.903  28.741  1.00  0.00    -0.269 OA
BRANCH  24  27
ATOM     27  C   UNL A   1      34.196  34.440  29.367  1.00  0.00     0.039 A 
ATOM     28  C   UNL A   1      34.006  33.881  30.633  1.00  0.00     0.014 A 
ATOM     29  C   UNL A   1      35.484  34.597  28.857  1.00  0.00     0.014 A 
ATOM     30  C   UNL A   1      35.104  33.385  31.340  1.00  0.00     0.010 A 
ATOM     31  C   UNL A   1      36.559  34.006  29.509  1.00  0.00     0.010 A 
ATOM     32  C   UNL A   1      36.382  33.393  30.758  1.00  0.00    -0.014 A 
BRANCH  32  33
ATOM     33  C   UNL A   1      37.552  32.768  31.424  1.00  0.00     0.031 A 
ATOM     34  C   UNL A   1      38.256  31.611  30.769  1.00  0.00     0.074 A 
ATOM     35  C   UNL A   1      37.910  33.168  32.661  1.00  0.00     0.049 A 
ATOM     36  N   UNL A   1      39.199  30.838  31.245  1.00  0.00    -0.248 NA
ATOM     37  C   UNL A   1      37.809  31.244  29.415  1.00  0.00     0.031 C 
ATOM     38  C   UNL A   1      37.260  34.229  33.434  1.00  0.00     0.029 A 
ATOM     39  N   UNL A   1      38.898  32.711  33.499  1.00  0.00    -0.354 N 
ATOM     40  C   UNL A   1      39.427  29.878  30.268  1.00  0.00     0.074 A 
ATOM     41  C   UNL A   1      38.497  30.134  29.192  1.00  0.00     0.031 C 
ATOM     42  C   UNL A   1      37.875  34.352  34.621  1.00  0.00     0.029 A 
ATOM     43  C   UNL A   1      38.936  33.355  34.712  1.00  0.00     0.049 A 
ATOM     44  H   UNL A   1      39.521  31.989  33.252  1.00  0.00     0.167 HD
ATOM     45  C   UNL A   1      40.349  28.886  30.260  1.00  0.00     0.037 A 
ATOM     46  C   UNL A   1      39.730  33.154  35.781  1.00  0.00     0.037 A 
ATOM     47  C   UNL A   1      41.317  28.677  31.302  1.00  0.00     0.049 A 
ATOM     48  C   UNL A   1      40.782  32.080  35.720  1.00  0.00     0.074 A 
ATOM     49  C   UNL A   1      42.358  27.767  31.340  1.00  0.00     0.029 A 
ATOM     50  N   UNL A   1      41.367  29.395  32.486  1.00  0.00    -0.354 N 
ATOM     51  N   UNL A   1      41.044  31.233  34.754  1.00  0.00    -0.248 NA
ATOM     52  C   UNL A   1      41.654  31.937  36.894  1.00  0.00     0.031 C 
ATOM     53  C   UNL A   1      43.018  27.910  32.564  1.00  0.00     0.029 A 
ATOM     54  C   UNL A   1      42.412  28.937  33.270  1.00  0.00     0.049 A 
ATOM     55  H   UNL A   1      40.751  30.122  32.734  1.00  0.00     0.167 HD
ATOM     56  C   UNL A   1      42.123  30.478  35.191  1.00  0.00     0.074 A 
ATOM     57  C   UNL A   1      42.479  30.977  36.502  1.00  0.00     0.031 C 
ATOM     58  C   UNL A   1      42.760  29.459  34.565  1.00  0.00     0.037 A 
BRANCH  45  59
ATOM     59  C   UNL A   1      40.371  27.959  29.081  1.00  0.00     0.064 A 
ATOM     60  C   UNL A   1      39.610  26.781  29.058  1.00  0.00     0.173 A 
ATOM     61  C   UNL A   1      41.114  28.285  27.936  1.00  0.00     0.173 A 
ATOM     62  F   UNL A   1      38.893  26.419  30.132  1.00  0.00    -0.203 F 
ATOM     63  C   UNL A   1      39.606  25.953  27.938  1.00  0.00     0.198 A 
ATOM     64  C   UNL A   1      41.085  27.469  26.808  1.00  0.00     0.198 A 
ATOM     65  F   UNL A   1      41.854  29.403  27.905  1.00  0.00    -0.203 F 
ATOM     66  F   UNL A   1      38.902  24.814  27.953  1.00  0.00    -0.200 F 
ATOM     67  C   UNL A   1      40.336  26.303  26.812  1.00  0.00     0.200 A 
ATOM     68  F   UNL A   1      41.781  27.814  25.715  1.00  0.00    -0.200 F 
ATOM     69  F   UNL A   1      40.319  25.512  25.730  1.00  0.00    -0.200 F 
ENDBRANCH  45  59
BRANCH  46  70
ATOM     70  C   UNL A   1      39.576  33.996  36.997  1.00  0.00     0.064 A 
ATOM     71  C   UNL A   1      38.809  33.556  38.085  1.00  0.00     0.173 A 
ATOM     72  C   UNL A   1      40.172  35.262  37.089  1.00  0.00     0.173 A 
ATOM     73  F   UNL A   1      38.204  32.360  38.036  1.00  0.00    -0.203 F 
ATOM     74  C   UNL A   1      38.617  34.362  39.204  1.00  0.00     0.198 A 
ATOM     75  C   UNL A   1      40.002  36.057  38.221  1.00  0.00     0.198 A 
ATOM     76  F   UNL A   1      40.921  35.727  36.078  1.00  0.00    -0.203 F 
ATOM     77  F   UNL A   1      37.833  33.939  40.205  1.00  0.00    -0.200 F 
ATOM     78  C   UNL A   1      39.216  35.611  39.273  1.00  0.00     0.200 A 
ATOM     79  F   UNL A   1      40.594  37.256  38.290  1.00  0.00    -0.200 F 
ATOM     80  F   UNL A   1      39.028  36.388  40.349  1.00  0.00    -0.200 F 
ENDBRANCH  46  70
BRANCH  58  81
ATOM     81  C   UNL A   1      43.927  28.840  35.273  1.00  0.00     0.064 A 
ATOM     82  C   UNL A   1      43.767  27.748  36.136  1.00  0.00     0.173 A 
ATOM     83  C   UNL A   1      45.228  29.317  35.047  1.00  0.00     0.173 A 
ATOM     84  F   UNL A   1      42.541  27.266  36.396  1.00  0.00    -0.203 F 
ATOM     85  C   UNL A   1      44.865  27.168  36.765  1.00  0.00     0.198 A 
ATOM     86  C   UNL A   1      46.325  28.717  35.654  1.00  0.00     0.198 A 
ATOM     87  F   UNL A   1      45.432  30.357  34.223  1.00  0.00    -0.203 F 
ATOM     88  F   UNL A   1      44.685  26.151  37.619  1.00  0.00    -0.200 F 
ATOM     89  C   UNL A   1      46.143  27.647  36.518  1.00  0.00     0.200 A 
ATOM     90  F   UNL A   1      47.561  29.173  35.405  1.00  0.00    -0.200 F 
ATOM     91  F   UNL A   1      47.200  27.081  37.117  1.00  0.00    -0.200 F 
ENDBRANCH  58  81
ENDBRANCH  32  33
ENDBRANCH  24  27
ENDBRANCH  22  23
ENDBRANCH   1  22
TORSDOF 13
ENDMDL
MODEL 3
REMARK VINA RESULT:     -11.9      6.094     11.378
REMARK SMILES CC(C)[C@@H]([NH2+][C@@H]1CSCC(C)(C)C1)C(=O)NCCCNC(=O)c1ccc(-c2c3nc(c(-c4c(F)c(F)c(F)c(F)c4F)c4ccc([nH]4)c(-c4c(F)c(F)c(F)c(F)c4F)c4nc(c(-c5c(F)c(F)c(F)c(F)c5F)c5ccc2[nH]5)C=C4)C=C3)cc1
REMARK SMILES IDX 18 1 17 2 16 3 14 4 15 5 4 7 2 8 1 9 3 10 5 11 6 14 7 15
REMARK SMILES IDX 13 16 8 17 10 18 9 19 11 20 12 21 19 22 20 23 21 24 22 26
REMARK SMILES IDX 23 27 24 28 85 29 25 30 84 31 26 32 27 33 28 34 78 35 29 36
REMARK SMILES IDX 83 37 77 38 79 39 30 40 82 41 76 42 75 43 31 45 63 46 43 47
REMARK SMILES IDX 62 48 44 49 47 50 61 51 80 52 45 53 46 54 60 56 81 57 48 58
REMARK SMILES IDX 32 59 33 60 41 61 34 62 35 63 39 64 42 65 36 66 37 67 40 68
REMARK SMILES IDX 38 69 64 70 65 71 73 72 66 73 67 74 71 75 74 76 68 77 69 78
REMARK SMILES IDX 72 79 70 80 49 81 50 82 58 83 51 84 52 85 56 86 59 87 53 88
REMARK SMILES IDX 54 89 57 90 55 91
REMARK H PARENT 16 6 5 12 5 13 20 25 79 44 47 55
REMARK Flexibility Score: inf
ROOT
ATOM      1  C   UNL A   1      38.150  20.178  24.979  1.00  0.00     0.042 C 
ENDROOT
BRANCH   1   2
ATOM      2  C   UNL A   1      37.280  21.413  24.896  1.00  0.00     0.118 C 
BRANCH   2   3
ATOM      3  N   UNL A   1      36.405  21.571  26.039  1.00  0.00    -0.351 N 
ATOM      4  C   UNL A   1      35.039  21.488  26.067  1.00  0.00     0.278 C 
ATOM      5  O   UNL A   1      34.476  21.486  27.165  1.00  0.00    -0.268 OA
ATOM      6  H   UNL A   1      36.845  21.761  26.899  1.00  0.00     0.163 HD
BRANCH   4   7
ATOM      7  C   UNL A   1      34.214  21.500  24.757  1.00  0.00     0.275 C 
BRANCH   7   8
ATOM      8  C   UNL A   1      33.334  20.202  24.714  1.00  0.00     0.051 C 
ATOM      9  C   UNL A   1      32.333  20.204  23.557  1.00  0.00     0.014 C 
ATOM     10  C   UNL A   1      34.188  18.925  24.618  1.00  0.00     0.014 C 
ENDBRANCH   7   8
BRANCH   7  11
ATOM     11  N   UNL A   1      33.416  22.754  24.628  1.00  0.00    -0.333 N 
ATOM     12  H   UNL A   1      33.034  22.969  25.549  1.00  0.00     0.347 HD
ATOM     13  H   UNL A   1      32.724  22.550  23.907  1.00  0.00     0.347 HD
BRANCH  11  14
ATOM     14  C   UNL A   1      34.123  23.962  24.146  1.00  0.00     0.193 C 
ATOM     15  C   UNL A   1      34.437  25.092  25.141  1.00  0.00     0.134 C 
ATOM     16  C   UNL A   1      33.381  24.582  22.927  1.00  0.00     0.073 C 
ATOM     17  S   UNL A   1      32.964  25.856  25.875  1.00  0.00    -0.155 SA
ATOM     18  C   UNL A   1      32.011  25.270  23.184  1.00  0.00    -0.021 C 
ATOM     19  C   UNL A   1      32.005  26.241  24.391  1.00  0.00     0.076 C 
ATOM     20  C   UNL A   1      30.884  24.220  23.277  1.00  0.00     0.012 C 
ATOM     21  C   UNL A   1      31.649  26.133  21.947  1.00  0.00     0.012 C 
ENDBRANCH  11  14
ENDBRANCH   7  11
ENDBRANCH   4   7
ENDBRANCH   2   3
ENDBRANCH   1   2
BRANCH   1  22
ATOM     22  C   UNL A   1      39.254  20.318  26.011  1.00  0.00     0.118 C 
BRANCH  22  23
ATOM     23  N   UNL A   1      40.203  19.208  25.982  1.00  0.00    -0.352 N 
ATOM     24  C   UNL A   1      41.576  19.214  26.085  1.00  0.00     0.251 C 
ATOM     25  H   UNL A   1      39.799  18.317  25.871  1.00  0.00     0.163 HD
ATOM     26  O   UNL A   1      42.218  18.194  25.878  1.00  0.00    -0.269 OA
BRANCH  24  27
ATOM     27  C   UNL A   1      42.275  20.476  26.414  1.00  0.00     0.039 A 
ATOM     28  C   UNL A   1      42.777  21.267  25.378  1.00  0.00     0.014 A 
ATOM     29  C   UNL A   1      42.397  20.895  27.739  1.00  0.00     0.014 A 
ATOM     30  C   UNL A   1      43.309  22.526  25.668  1.00  0.00     0.010 A 
ATOM     31  C   UNL A   1      42.822  22.189  28.013  1.00  0.00     0.010 A 
ATOM     32  C   UNL A   1      43.282  23.019  26.982  1.00  0.00    -0.014 A 
BRANCH  32  33
ATOM     33  C   UNL A   1      43.725  24.398  27.313  1.00  0.00     0.031 A 
ATOM     34  C   UNL A   1      42.724  25.407  27.806  1.00  0.00     0.074 A 
ATOM     35  C   UNL A   1      44.998  24.769  27.065  1.00  0.00     0.049 A 
ATOM     36  N   UNL A   1      42.875  26.690  28.012  1.00  0.00    -0.248 NA
ATOM     37  C   UNL A   1      41.359  24.917  28.058  1.00  0.00     0.031 C 
ATOM     38  C   UNL A   1      46.045  23.903  26.517  1.00  0.00     0.029 A 
ATOM     39  N   UNL A   1      45.623  25.982  27.221  1.00  0.00    -0.354 N 
ATOM     40  C   UNL A   1      41.621  27.162  28.378  1.00  0.00     0.074 A 
ATOM     41  C   UNL A   1      40.710  26.041  28.324  1.00  0.00     0.031 C 
ATOM     42  C   UNL A   1      47.183  24.606  26.399  1.00  0.00     0.029 A 
ATOM     43  C   UNL A   1      46.938  25.981  26.825  1.00  0.00     0.049 A 
ATOM     44  H   UNL A   1      45.170  26.778  27.585  1.00  0.00     0.167 HD
ATOM     45  C   UNL A   1      41.268  28.415  28.751  1.00  0.00     0.037 A 
ATOM     46  C   UNL A   1      47.841  26.980  26.795  1.00  0.00     0.037 A 
ATOM     47  C   UNL A   1      42.190  29.511  28.868  1.00  0.00     0.049 A 
ATOM     48  C   UNL A   1      47.432  28.349  27.269  1.00  0.00     0.074 A 
ATOM     49  C   UNL A   1      41.952  30.791  29.336  1.00  0.00     0.029 A 
ATOM     50  N   UNL A   1      43.531  29.453  28.521  1.00  0.00    -0.354 N 
ATOM     51  N   UNL A   1      46.263  28.762  27.695  1.00  0.00    -0.248 NA
ATOM     52  C   UNL A   1      48.469  29.390  27.264  1.00  0.00     0.031 C 
ATOM     53  C   UNL A   1      43.142  31.519  29.240  1.00  0.00     0.029 A 
ATOM     54  C   UNL A   1      44.130  30.681  28.750  1.00  0.00     0.049 A 
ATOM     55  H   UNL A   1      43.990  28.658  28.165  1.00  0.00     0.167 HD
ATOM     56  C   UNL A   1      46.430  30.097  28.033  1.00  0.00     0.074 A 
ATOM     57  C   UNL A   1      47.818  30.423  27.779  1.00  0.00     0.031 C 
ATOM     58  C   UNL A   1      45.517  30.978  28.506  1.00  0.00     0.037 A 
BRANCH  45  59
ATOM     59  C   UNL A   1      39.826  28.669  29.078  1.00  0.00     0.064 A 
ATOM     60  C   UNL A   1      39.320  28.469  30.372  1.00  0.00     0.173 A 
ATOM     61  C   UNL A   1      38.956  29.179  28.103  1.00  0.00     0.173 A 
ATOM     62  F   UNL A   1      40.109  27.973  31.336  1.00  0.00    -0.203 F 
ATOM     63  C   UNL A   1      37.990  28.752  30.671  1.00  0.00     0.198 A 
ATOM     64  C   UNL A   1      37.634  29.486  28.414  1.00  0.00     0.198 A 
ATOM     65  F   UNL A   1      39.392  29.392  26.853  1.00  0.00    -0.203 F 
ATOM     66  F   UNL A   1      37.519  28.518  31.903  1.00  0.00    -0.200 F 
ATOM     67  C   UNL A   1      37.152  29.269  29.695  1.00  0.00     0.200 A 
ATOM     68  F   UNL A   1      36.828  29.998  27.473  1.00  0.00    -0.200 F 
ATOM     69  F   UNL A   1      35.876  29.555  29.990  1.00  0.00    -0.200 F 
ENDBRANCH  45  59
BRANCH  46  70
ATOM     70  C   UNL A   1      49.225  26.726  26.318  1.00  0.00     0.064 A 
ATOM     71  C   UNL A   1      49.579  26.956  24.981  1.00  0.00     0.173 A 
ATOM     72  C   UNL A   1      50.214  26.226  27.178  1.00  0.00     0.173 A 
ATOM     73  F   UNL A   1      48.663  27.415  24.116  1.00  0.00    -0.203 F 
ATOM     74  C   UNL A   1      50.860  26.669  24.515  1.00  0.00     0.198 A 
ATOM     75  C   UNL A   1      51.504  25.965  26.717  1.00  0.00     0.198 A 
ATOM     76  F   UNL A   1      49.929  25.994  28.467  1.00  0.00    -0.203 F 
ATOM     77  F   UNL A   1      51.155  26.846  23.220  1.00  0.00    -0.200 F 
ATOM     78  C   UNL A   1      51.822  26.176  25.384  1.00  0.00     0.200 A 
ATOM     79  F   UNL A   1      52.434  25.503  27.562  1.00  0.00    -0.200 F 
ATOM     80  F   UNL A   1      53.053  25.896  24.934  1.00  0.00    -0.200 F 
ENDBRANCH  46  70
BRANCH  58  81
ATOM     81  C   UNL A   1      45.994  32.365  28.814  1.00  0.00     0.064 A 
ATOM     82  C   UNL A   1      46.539  32.694  30.063  1.00  0.00     0.173 A 
ATOM     83  C   UNL A   1      45.948  33.365  27.831  1.00  0.00     0.173 A 
ATOM     84  F   UNL A   1      46.590  31.775  31.040  1.00  0.00    -0.203 F 
ATOM     85  C   UNL A   1      47.003  33.980  30.323  1.00  0.00     0.198 A 
ATOM     86  C   UNL A   1      46.438  34.641  28.085  1.00  0.00     0.198 A 
ATOM     87  F   UNL A   1      45.441  33.097  26.617  1.00  0.00    -0.203 F 
ATOM     88  F   UNL A   1      47.482  34.283  31.538  1.00  0.00    -0.200 F 
ATOM     89  C   UNL A   1      46.960  34.950  29.333  1.00  0.00     0.200 A 
ATOM     90  F   UNL A   1      46.408  35.575  27.123  1.00  0.00    -0.200 F 
ATOM     91  F   UNL A   1      47.414  36.185  29.583  1.00  0.00    -0.200 F 
ENDBRANCH  58  81
ENDBRANCH  32  33
ENDBRANCH  24  27
ENDBRANCH  22  23
ENDBRANCH   1  22
TORSDOF 13
ENDMDL
