MODEL 1
REMARK VINA RESULT:     -11.5      0.000      0.000
REMARK SMILES CO[C@@H]1C[C@@H](C(=O)NCCCNC(=O)c2ccc(-c3c4nc(c(-c5c(F)c(F)c(F)c(F)c5F)c5ccc([nH]5)c(-c5c(F)c(F)c(F)c(F)c5F)c5nc(c(-c6c(F)c(F)c(F)c(F)c6F)c6ccc3[nH]6)C=C5)C=C4)cc2)N(C(=O)CSc2cccs2)C1
REMARK SMILES IDX 9 1 8 2 6 3 7 4 5 6 3 7 4 8 88 9 78 10 2 11 1 12 79 13 80 14
REMARK SMILES IDX 81 15 82 16 83 17 84 18 87 19 85 20 86 21 10 22 11 23 12 24
REMARK SMILES IDX 13 25 14 27 15 28 16 29 77 30 17 31 76 32 18 33 19 34 20 35
REMARK SMILES IDX 70 36 21 37 75 38 69 39 71 40 22 41 74 42 68 43 67 44 23 46
REMARK SMILES IDX 55 47 35 48 54 49 36 50 39 51 53 52 72 53 37 54 38 55 52 57
REMARK SMILES IDX 73 58 40 59 24 60 25 61 33 62 26 63 27 64 31 65 34 66 28 67
REMARK SMILES IDX 29 68 32 69 30 70 56 71 57 72 65 73 58 74 59 75 63 76 66 77
REMARK SMILES IDX 60 78 61 79 64 80 62 81 41 82 42 83 50 84 43 85 44 86 48 87
REMARK SMILES IDX 51 88 45 89 46 90 49 91 47 92
REMARK H PARENT 8 5 12 26 71 45 39 56
REMARK Flexibility Score: inf
ROOT
ATOM      1  C   UNL A   1      31.354  30.322  26.249  1.00  0.00     0.117 C 
ENDROOT
BRANCH   1   2
ATOM      2  N   UNL A   1      32.360  29.946  25.271  1.00  0.00    -0.354 N 
ATOM      3  C   UNL A   1      32.904  28.699  25.095  1.00  0.00     0.242 C 
ATOM      4  O   UNL A   1      34.114  28.631  24.892  1.00  0.00    -0.273 OA
ATOM      5  H   UNL A   1      32.683  30.658  24.675  1.00  0.00     0.163 HD
BRANCH   3   6
ATOM      6  C   UNL A   1      31.970  27.473  25.137  1.00  0.00     0.177 C 
ATOM      7  C   UNL A   1      31.854  25.114  25.698  1.00  0.00     0.139 C 
ATOM      8  C   UNL A   1      32.576  26.401  26.062  1.00  0.00     0.069 C 
ATOM      9  C   UNL A   1      31.547  25.279  24.214  1.00  0.00     0.152 C 
ATOM     10  N   UNL A   1      31.717  26.699  23.902  1.00  0.00    -0.327 N 
BRANCH   7  11
ATOM     11  O   UNL A   1      30.734  24.815  26.533  1.00  0.00    -0.380 OA
ATOM     12  C   UNL A   1      30.428  23.455  26.791  1.00  0.00     0.195 C 
ENDBRANCH   7  11
BRANCH  10  13
ATOM     13  C   UNL A   1      31.347  27.099  22.632  1.00  0.00     0.233 C 
ATOM     14  O   UNL A   1      31.523  26.336  21.671  1.00  0.00    -0.274 OA
BRANCH  13  15
ATOM     15  C   UNL A   1      30.781  28.479  22.359  1.00  0.00     0.175 C 
BRANCH  15  16
ATOM     16  S   UNL A   1      29.082  28.643  22.957  1.00  0.00    -0.105 SA
BRANCH  16  17
ATOM     17  C   UNL A   1      28.783  30.358  22.718  1.00  0.00     0.060 A 
ATOM     18  C   UNL A   1      28.891  31.374  23.645  1.00  0.00     0.027 A 
ATOM     19  S   UNL A   1      28.276  30.948  21.193  1.00  0.00    -0.137 S 
ATOM     20  C   UNL A   1      28.585  32.651  23.087  1.00  0.00     0.013 A 
ATOM     21  C   UNL A   1      28.232  32.561  21.760  1.00  0.00     0.066 A 
ENDBRANCH  16  17
ENDBRANCH  15  16
ENDBRANCH  13  15
ENDBRANCH  10  13
ENDBRANCH   3   6
ENDBRANCH   1   2
BRANCH   1  22
ATOM     22  C   UNL A   1      31.335  31.847  26.419  1.00  0.00     0.042 C 
BRANCH  22  23
ATOM     23  C   UNL A   1      32.671  32.414  26.899  1.00  0.00     0.118 C 
BRANCH  23  24
ATOM     24  N   UNL A   1      32.522  33.756  27.435  1.00  0.00    -0.352 N 
ATOM     25  C   UNL A   1      33.183  34.356  28.470  1.00  0.00     0.251 C 
ATOM     26  H   UNL A   1      31.847  34.315  26.986  1.00  0.00     0.163 HD
ATOM     27  O   UNL A   1      32.750  35.414  28.930  1.00  0.00    -0.269 OA
BRANCH  25  28
ATOM     28  C   UNL A   1      34.401  33.751  29.045  1.00  0.00     0.039 A 
ATOM     29  C   UNL A   1      34.256  32.667  29.914  1.00  0.00     0.014 A 
ATOM     30  C   UNL A   1      35.672  34.279  28.789  1.00  0.00     0.014 A 
ATOM     31  C   UNL A   1      35.382  32.100  30.509  1.00  0.00     0.010 A 
ATOM     32  C   UNL A   1      36.802  33.669  29.334  1.00  0.00     0.010 A 
ATOM     33  C   UNL A   1      36.667  32.585  30.212  1.00  0.00    -0.014 A 
BRANCH  33  34
ATOM     34  C   UNL A   1      37.862  31.959  30.830  1.00  0.00     0.031 A 
ATOM     35  C   UNL A   1      38.304  32.355  32.212  1.00  0.00     0.074 A 
ATOM     36  C   UNL A   1      38.553  31.035  30.134  1.00  0.00     0.049 A 
ATOM     37  N   UNL A   1      39.306  31.897  32.922  1.00  0.00    -0.248 NA
ATOM     38  C   UNL A   1      37.536  33.417  32.878  1.00  0.00     0.031 C 
ATOM     39  C   UNL A   1      38.254  30.613  28.764  1.00  0.00     0.029 A 
ATOM     40  N   UNL A   1      39.644  30.281  30.483  1.00  0.00    -0.354 N 
ATOM     41  C   UNL A   1      39.283  32.611  34.113  1.00  0.00     0.074 A 
ATOM     42  C   UNL A   1      38.210  33.574  34.008  1.00  0.00     0.031 C 
ATOM     43  C   UNL A   1      39.121  29.655  28.400  1.00  0.00     0.029 A 
ATOM     44  C   UNL A   1      40.050  29.412  29.499  1.00  0.00     0.049 A 
ATOM     45  H   UNL A   1      40.094  30.354  31.356  1.00  0.00     0.167 HD
ATOM     46  C   UNL A   1      40.066  32.454  35.207  1.00  0.00     0.037 A 
ATOM     47  C   UNL A   1      41.055  28.519  29.489  1.00  0.00     0.037 A 
ATOM     48  C   UNL A   1      41.126  31.485  35.313  1.00  0.00     0.049 A 
ATOM     49  C   UNL A   1      41.897  28.356  30.726  1.00  0.00     0.074 A 
ATOM     50  C   UNL A   1      41.965  31.232  36.384  1.00  0.00     0.029 A 
ATOM     51  N   UNL A   1      41.490  30.603  34.305  1.00  0.00    -0.354 N 
ATOM     52  N   UNL A   1      41.824  28.993  31.869  1.00  0.00    -0.248 NA
ATOM     53  C   UNL A   1      42.950  27.332  30.677  1.00  0.00     0.031 C 
ATOM     54  C   UNL A   1      42.856  30.218  36.015  1.00  0.00     0.029 A 
ATOM     55  C   UNL A   1      42.542  29.808  34.730  1.00  0.00     0.049 A 
ATOM     56  H   UNL A   1      41.062  30.549  33.420  1.00  0.00     0.167 HD
ATOM     57  C   UNL A   1      42.800  28.434  32.681  1.00  0.00     0.074 A 
ATOM     58  C   UNL A   1      43.431  27.383  31.910  1.00  0.00     0.031 C 
ATOM     59  C   UNL A   1      43.151  28.763  33.948  1.00  0.00     0.037 A 
BRANCH  46  60
ATOM     60  C   UNL A   1      39.794  33.336  36.391  1.00  0.00     0.064 A 
ATOM     61  C   UNL A   1      40.415  34.589  36.525  1.00  0.00     0.173 A 
ATOM     62  C   UNL A   1      38.865  32.958  37.372  1.00  0.00     0.173 A 
ATOM     63  F   UNL A   1      41.321  34.993  35.621  1.00  0.00    -0.203 F 
ATOM     64  C   UNL A   1      40.129  35.421  37.604  1.00  0.00     0.198 A 
ATOM     65  C   UNL A   1      38.561  33.805  38.435  1.00  0.00     0.198 A 
ATOM     66  F   UNL A   1      38.241  31.775  37.292  1.00  0.00    -0.203 F 
ATOM     67  F   UNL A   1      40.763  36.595  37.728  1.00  0.00    -0.200 F 
ATOM     68  C   UNL A   1      39.196  35.032  38.553  1.00  0.00     0.200 A 
ATOM     69  F   UNL A   1      37.649  33.435  39.346  1.00  0.00    -0.200 F 
ATOM     70  F   UNL A   1      38.912  35.840  39.583  1.00  0.00    -0.200 F 
ENDBRANCH  46  60
BRANCH  47  71
ATOM     71  C   UNL A   1      41.307  27.686  28.284  1.00  0.00     0.064 A 
ATOM     72  C   UNL A   1      40.680  26.443  28.119  1.00  0.00     0.173 A 
ATOM     73  C   UNL A   1      42.203  28.101  27.287  1.00  0.00     0.173 A 
ATOM     74  F   UNL A   1      39.828  25.993  29.053  1.00  0.00    -0.203 F 
ATOM     75  C   UNL A   1      40.968  25.629  27.026  1.00  0.00     0.198 A 
ATOM     76  C   UNL A   1      42.465  27.301  26.177  1.00  0.00     0.198 A 
ATOM     77  F   UNL A   1      42.822  29.286  27.391  1.00  0.00    -0.203 F 
ATOM     78  F   UNL A   1      40.403  24.419  26.926  1.00  0.00    -0.200 F 
ATOM     79  C   UNL A   1      41.858  26.061  26.053  1.00  0.00     0.200 A 
ATOM     80  F   UNL A   1      43.313  27.729  25.232  1.00  0.00    -0.200 F 
ATOM     81  F   UNL A   1      42.139  25.277  25.004  1.00  0.00    -0.200 F 
ENDBRANCH  47  71
BRANCH  59  82
ATOM     82  C   UNL A   1      44.245  27.951  34.581  1.00  0.00     0.064 A 
ATOM     83  C   UNL A   1      43.970  26.772  35.292  1.00  0.00     0.173 A 
ATOM     84  C   UNL A   1      45.583  28.359  34.477  1.00  0.00     0.173 A 
ATOM     85  F   UNL A   1      42.705  26.348  35.431  1.00  0.00    -0.203 F 
ATOM     86  C   UNL A   1      44.990  26.058  35.914  1.00  0.00     0.198 A 
ATOM     87  C   UNL A   1      46.604  27.624  35.073  1.00  0.00     0.198 A 
ATOM     88  F   UNL A   1      45.900  29.474  33.800  1.00  0.00    -0.203 F 
ATOM     89  F   UNL A   1      44.696  24.975  36.645  1.00  0.00    -0.200 F 
ATOM     90  C   UNL A   1      46.306  26.483  35.801  1.00  0.00     0.200 A 
ATOM     91  F   UNL A   1      47.876  28.028  34.951  1.00  0.00    -0.200 F 
ATOM     92  F   UNL A   1      47.286  25.798  36.406  1.00  0.00    -0.200 F 
ENDBRANCH  59  82
ENDBRANCH  33  34
ENDBRANCH  25  28
ENDBRANCH  23  24
ENDBRANCH  22  23
ENDBRANCH   1  22
TORSDOF 15
ENDMDL
MODEL 2
REMARK VINA RESULT:     -11.3      0.349      1.638
REMARK SMILES CO[C@@H]1C[C@@H](C(=O)NCCCNC(=O)c2ccc(-c3c4nc(c(-c5c(F)c(F)c(F)c(F)c5F)c5ccc([nH]5)c(-c5c(F)c(F)c(F)c(F)c5F)c5nc(c(-c6c(F)c(F)c(F)c(F)c6F)c6ccc3[nH]6)C=C5)C=C4)cc2)N(C(=O)CSc2cccs2)C1
REMARK SMILES IDX 9 1 8 2 6 3 7 4 5 6 3 7 4 8 88 9 78 10 2 11 1 12 79 13 80 14
REMARK SMILES IDX 81 15 82 16 83 17 84 18 87 19 85 20 86 21 10 22 11 23 12 24
REMARK SMILES IDX 13 25 14 27 15 28 16 29 77 30 17 31 76 32 18 33 19 34 20 35
REMARK SMILES IDX 70 36 21 37 75 38 69 39 71 40 22 41 74 42 68 43 67 44 23 46
REMARK SMILES IDX 55 47 35 48 54 49 36 50 39 51 53 52 72 53 37 54 38 55 52 57
REMARK SMILES IDX 73 58 40 59 24 60 25 61 33 62 26 63 27 64 31 65 34 66 28 67
REMARK SMILES IDX 29 68 32 69 30 70 56 71 57 72 65 73 58 74 59 75 63 76 66 77
REMARK SMILES IDX 60 78 61 79 64 80 62 81 41 82 42 83 50 84 43 85 44 86 48 87
REMARK SMILES IDX 51 88 45 89 46 90 49 91 47 92
REMARK H PARENT 8 5 12 26 71 45 39 56
REMARK Flexibility Score: inf
ROOT
ATOM      1  C   UNL A   1      31.397  30.458  26.375  1.00  0.00     0.117 C 
ENDROOT
BRANCH   1   2
ATOM      2  N   UNL A   1      32.638  30.026  25.755  1.00  0.00    -0.354 N 
ATOM      3  C   UNL A   1      33.158  28.757  25.763  1.00  0.00     0.242 C 
ATOM      4  O   UNL A   1      34.369  28.641  25.942  1.00  0.00    -0.273 OA
ATOM      5  H   UNL A   1      33.157  30.715  25.282  1.00  0.00     0.163 HD
BRANCH   3   6
ATOM      6  C   UNL A   1      32.207  27.568  25.525  1.00  0.00     0.177 C 
ATOM      7  C   UNL A   1      31.942  25.176  25.838  1.00  0.00     0.139 C 
ATOM      8  C   UNL A   1      32.613  26.398  26.442  1.00  0.00     0.069 C 
ATOM      9  C   UNL A   1      31.913  25.479  24.344  1.00  0.00     0.152 C 
ATOM     10  N   UNL A   1      32.166  26.914  24.199  1.00  0.00    -0.327 N 
BRANCH   7  11
ATOM     11  O   UNL A   1      30.684  24.847  26.428  1.00  0.00    -0.380 OA
ATOM     12  C   UNL A   1      30.411  23.487  26.725  1.00  0.00     0.195 C 
ENDBRANCH   7  11
BRANCH  10  13
ATOM     13  C   UNL A   1      32.041  27.435  22.925  1.00  0.00     0.233 C 
ATOM     14  O   UNL A   1      32.576  26.857  21.968  1.00  0.00    -0.274 OA
BRANCH  13  15
ATOM     15  C   UNL A   1      31.313  28.739  22.661  1.00  0.00     0.175 C 
BRANCH  15  16
ATOM     16  S   UNL A   1      29.544  28.610  23.014  1.00  0.00    -0.105 SA
BRANCH  16  17
ATOM     17  C   UNL A   1      29.008  30.264  22.764  1.00  0.00     0.060 A 
ATOM     18  C   UNL A   1      28.973  31.292  23.685  1.00  0.00     0.027 A 
ATOM     19  S   UNL A   1      28.422  30.768  21.237  1.00  0.00    -0.137 S 
ATOM     20  C   UNL A   1      28.492  32.510  23.120  1.00  0.00     0.013 A 
ATOM     21  C   UNL A   1      28.154  32.362  21.794  1.00  0.00     0.066 A 
ENDBRANCH  16  17
ENDBRANCH  15  16
ENDBRANCH  13  15
ENDBRANCH  10  13
ENDBRANCH   3   6
ENDBRANCH   1   2
BRANCH   1  22
ATOM     22  C   UNL A   1      31.390  31.986  26.522  1.00  0.00     0.042 C 
BRANCH  22  23
ATOM     23  C   UNL A   1      32.732  32.550  26.986  1.00  0.00     0.118 C 
BRANCH  23  24
ATOM     24  N   UNL A   1      32.583  33.866  27.584  1.00  0.00    -0.352 N 
ATOM     25  C   UNL A   1      33.237  34.414  28.652  1.00  0.00     0.251 C 
ATOM     26  H   UNL A   1      31.913  34.447  27.157  1.00  0.00     0.163 HD
ATOM     27  O   UNL A   1      32.803  35.450  29.158  1.00  0.00    -0.269 OA
BRANCH  25  28
ATOM     28  C   UNL A   1      34.449  33.778  29.207  1.00  0.00     0.039 A 
ATOM     29  C   UNL A   1      34.290  32.742  30.130  1.00  0.00     0.014 A 
ATOM     30  C   UNL A   1      35.730  34.235  28.880  1.00  0.00     0.014 A 
ATOM     31  C   UNL A   1      35.412  32.150  30.708  1.00  0.00     0.010 A 
ATOM     32  C   UNL A   1      36.853  33.598  29.408  1.00  0.00     0.010 A 
ATOM     33  C   UNL A   1      36.704  32.560  30.339  1.00  0.00    -0.014 A 
BRANCH  33  34
ATOM     34  C   UNL A   1      37.894  31.907  30.940  1.00  0.00     0.031 A 
ATOM     35  C   UNL A   1      38.338  32.259  32.333  1.00  0.00     0.074 A 
ATOM     36  C   UNL A   1      38.578  30.999  30.218  1.00  0.00     0.049 A 
ATOM     37  N   UNL A   1      39.336  31.774  33.030  1.00  0.00    -0.248 NA
ATOM     38  C   UNL A   1      37.578  33.308  33.029  1.00  0.00     0.031 C 
ATOM     39  C   UNL A   1      38.276  30.618  28.837  1.00  0.00     0.029 A 
ATOM     40  N   UNL A   1      39.663  30.226  30.545  1.00  0.00    -0.354 N 
ATOM     41  C   UNL A   1      39.318  32.453  34.241  1.00  0.00     0.074 A 
ATOM     42  C   UNL A   1      38.253  33.428  34.163  1.00  0.00     0.031 C 
ATOM     43  C   UNL A   1      39.136  29.665  28.445  1.00  0.00     0.029 A 
ATOM     44  C   UNL A   1      40.062  29.382  29.537  1.00  0.00     0.049 A 
ATOM     45  H   UNL A   1      40.112  30.270  31.420  1.00  0.00     0.167 HD
ATOM     46  C   UNL A   1      40.099  32.258  35.331  1.00  0.00     0.037 A 
ATOM     47  C   UNL A   1      41.060  28.481  29.502  1.00  0.00     0.037 A 
ATOM     48  C   UNL A   1      41.151  31.277  35.409  1.00  0.00     0.049 A 
ATOM     49  C   UNL A   1      41.900  28.276  30.734  1.00  0.00     0.074 A 
ATOM     50  C   UNL A   1      41.987  30.987  36.473  1.00  0.00     0.029 A 
ATOM     51  N   UNL A   1      41.508  30.422  34.376  1.00  0.00    -0.354 N 
ATOM     52  N   UNL A   1      41.831  28.881  31.895  1.00  0.00    -0.248 NA
ATOM     53  C   UNL A   1      42.944  27.246  30.656  1.00  0.00     0.031 C 
ATOM     54  C   UNL A   1      42.870  29.977  36.075  1.00  0.00     0.029 A 
ATOM     55  C   UNL A   1      42.554  29.607  34.779  1.00  0.00     0.049 A 
ATOM     56  H   UNL A   1      41.081  30.397  33.490  1.00  0.00     0.167 HD
ATOM     57  C   UNL A   1      42.802  28.290  32.691  1.00  0.00     0.074 A 
ATOM     58  C   UNL A   1      43.425  27.257  31.890  1.00  0.00     0.031 C 
ATOM     59  C   UNL A   1      43.155  28.579  33.967  1.00  0.00     0.037 A 
BRANCH  46  60
ATOM     60  C   UNL A   1      39.833  33.108  36.540  1.00  0.00     0.064 A 
ATOM     61  C   UNL A   1      38.881  32.730  37.500  1.00  0.00     0.173 A 
ATOM     62  C   UNL A   1      40.571  34.277  36.774  1.00  0.00     0.173 A 
ATOM     63  F   UNL A   1      38.140  31.627  37.318  1.00  0.00    -0.203 F 
ATOM     64  C   UNL A   1      38.667  33.500  38.641  1.00  0.00     0.198 A 
ATOM     65  C   UNL A   1      40.374  35.030  37.929  1.00  0.00     0.198 A 
ATOM     66  F   UNL A   1      41.496  34.682  35.892  1.00  0.00    -0.203 F 
ATOM     67  F   UNL A   1      37.726  33.138  39.524  1.00  0.00    -0.200 F 
ATOM     68  C   UNL A   1      39.419  34.644  38.858  1.00  0.00     0.200 A 
ATOM     69  F   UNL A   1      41.110  36.129  38.146  1.00  0.00    -0.200 F 
ATOM     70  F   UNL A   1      39.221  35.376  39.963  1.00  0.00    -0.200 F 
ENDBRANCH  46  60
BRANCH  47  71
ATOM     71  C   UNL A   1      41.307  27.682  28.273  1.00  0.00     0.064 A 
ATOM     72  C   UNL A   1      40.686  26.439  28.083  1.00  0.00     0.173 A 
ATOM     73  C   UNL A   1      42.190  28.128  27.279  1.00  0.00     0.173 A 
ATOM     74  F   UNL A   1      39.846  25.959  29.013  1.00  0.00    -0.203 F 
ATOM     75  C   UNL A   1      40.969  25.655  26.966  1.00  0.00     0.198 A 
ATOM     76  C   UNL A   1      42.446  27.360  26.146  1.00  0.00     0.198 A 
ATOM     77  F   UNL A   1      42.801  29.315  27.408  1.00  0.00    -0.203 F 
ATOM     78  F   UNL A   1      40.412  24.444  26.841  1.00  0.00    -0.200 F 
ATOM     79  C   UNL A   1      41.847  26.119  25.996  1.00  0.00     0.200 A 
ATOM     80  F   UNL A   1      43.282  27.818  25.204  1.00  0.00    -0.200 F 
ATOM     81  F   UNL A   1      42.123  25.364  24.925  1.00  0.00    -0.200 F 
ENDBRANCH  47  71
BRANCH  59  82
ATOM     82  C   UNL A   1      44.241  27.741  34.577  1.00  0.00     0.064 A 
ATOM     83  C   UNL A   1      45.591  28.123  34.511  1.00  0.00     0.173 A 
ATOM     84  C   UNL A   1      43.930  26.541  35.232  1.00  0.00     0.173 A 
ATOM     85  F   UNL A   1      45.941  29.256  33.884  1.00  0.00    -0.203 F 
ATOM     86  C   UNL A   1      46.590  27.311  35.038  1.00  0.00     0.198 A 
ATOM     87  C   UNL A   1      44.930  25.747  35.787  1.00  0.00     0.198 A 
ATOM     88  F   UNL A   1      42.655  26.135  35.330  1.00  0.00    -0.203 F 
ATOM     89  F   UNL A   1      47.876  27.662  34.902  1.00  0.00    -0.200 F 
ATOM     90  C   UNL A   1      46.259  26.126  35.678  1.00  0.00     0.200 A 
ATOM     91  F   UNL A   1      44.607  24.609  36.417  1.00  0.00    -0.200 F 
ATOM     92  F   UNL A   1      47.223  25.342  36.179  1.00  0.00    -0.200 F 
ENDBRANCH  59  82
ENDBRANCH  33  34
ENDBRANCH  25  28
ENDBRANCH  23  24
ENDBRANCH  22  23
ENDBRANCH   1  22
TORSDOF 15
ENDMDL
MODEL 3
REMARK VINA RESULT:     -11.3      1.738      2.999
REMARK SMILES CO[C@@H]1C[C@@H](C(=O)NCCCNC(=O)c2ccc(-c3c4nc(c(-c5c(F)c(F)c(F)c(F)c5F)c5ccc([nH]5)c(-c5c(F)c(F)c(F)c(F)c5F)c5nc(c(-c6c(F)c(F)c(F)c(F)c6F)c6ccc3[nH]6)C=C5)C=C4)cc2)N(C(=O)CSc2cccs2)C1
REMARK SMILES IDX 9 1 8 2 6 3 7 4 5 6 3 7 4 8 88 9 78 10 2 11 1 12 79 13 80 14
REMARK SMILES IDX 81 15 82 16 83 17 84 18 87 19 85 20 86 21 10 22 11 23 12 24
REMARK SMILES IDX 13 25 14 27 15 28 16 29 77 30 17 31 76 32 18 33 19 34 20 35
REMARK SMILES IDX 70 36 21 37 75 38 69 39 71 40 22 41 74 42 68 43 67 44 23 46
REMARK SMILES IDX 55 47 35 48 54 49 36 50 39 51 53 52 72 53 37 54 38 55 52 57
REMARK SMILES IDX 73 58 40 59 24 60 25 61 33 62 26 63 27 64 31 65 34 66 28 67
REMARK SMILES IDX 29 68 32 69 30 70 56 71 57 72 65 73 58 74 59 75 63 76 66 77
REMARK SMILES IDX 60 78 61 79 64 80 62 81 41 82 42 83 50 84 43 85 44 86 48 87
REMARK SMILES IDX 51 88 45 89 46 90 49 91 47 92
REMARK H PARENT 8 5 12 26 71 45 39 56
REMARK Flexibility Score: inf
ROOT
ATOM      1  C   UNL A   1      34.024  28.089  23.286  1.00  0.00     0.117 C 
ENDROOT
BRANCH   1   2
ATOM      2  N   UNL A   1      33.357  27.605  22.089  1.00  0.00    -0.354 N 
ATOM      3  C   UNL A   1      33.099  26.296  21.769  1.00  0.00     0.242 C 
ATOM      4  O   UNL A   1      33.280  25.951  20.603  1.00  0.00    -0.273 OA
ATOM      5  H   UNL A   1      33.061  28.286  21.444  1.00  0.00     0.163 HD
BRANCH   3   6
ATOM      6  C   UNL A   1      32.580  25.355  22.872  1.00  0.00     0.177 C 
ATOM      7  C   UNL A   1      31.709  23.130  23.303  1.00  0.00     0.139 C 
ATOM      8  C   UNL A   1      32.623  23.901  22.365  1.00  0.00     0.069 C 
ATOM      9  C   UNL A   1      30.651  24.155  23.701  1.00  0.00     0.152 C 
ATOM     10  N   UNL A   1      31.181  25.471  23.341  1.00  0.00    -0.327 N 
BRANCH   7  11
ATOM     11  O   UNL A   1      32.386  22.488  24.384  1.00  0.00    -0.380 OA
ATOM     12  C   UNL A   1      31.747  22.441  25.650  1.00  0.00     0.195 C 
ENDBRANCH   7  11
BRANCH  10  13
ATOM     13  C   UNL A   1      30.441  26.564  23.746  1.00  0.00     0.233 C 
ATOM     14  O   UNL A   1      30.166  26.712  24.946  1.00  0.00    -0.274 OA
BRANCH  13  15
ATOM     15  C   UNL A   1      29.894  27.574  22.754  1.00  0.00     0.175 C 
BRANCH  15  16
ATOM     16  S   UNL A   1      28.203  28.072  23.158  1.00  0.00    -0.105 SA
BRANCH  16  17
ATOM     17  C   UNL A   1      28.264  29.805  22.876  1.00  0.00     0.060 A 
ATOM     18  C   UNL A   1      27.586  30.798  23.554  1.00  0.00     0.027 A 
ATOM     19  S   UNL A   1      29.237  30.449  21.624  1.00  0.00    -0.137 S 
ATOM     20  C   UNL A   1      27.896  32.100  23.058  1.00  0.00     0.013 A 
ATOM     21  C   UNL A   1      28.781  32.052  22.005  1.00  0.00     0.066 A 
ENDBRANCH  16  17
ENDBRANCH  15  16
ENDBRANCH  13  15
ENDBRANCH  10  13
ENDBRANCH   3   6
ENDBRANCH   1   2
BRANCH   1  22
ATOM     22  C   UNL A   1      33.043  28.906  24.138  1.00  0.00     0.042 C 
BRANCH  22  23
ATOM     23  C   UNL A   1      33.591  29.244  25.524  1.00  0.00     0.118 C 
BRANCH  23  24
ATOM     24  N   UNL A   1      33.117  30.537  25.987  1.00  0.00    -0.352 N 
ATOM     25  C   UNL A   1      33.527  31.280  27.057  1.00  0.00     0.251 C 
ATOM     26  H   UNL A   1      32.394  30.936  25.449  1.00  0.00     0.163 HD
ATOM     27  O   UNL A   1      32.842  32.236  27.427  1.00  0.00    -0.269 OA
BRANCH  25  28
ATOM     28  C   UNL A   1      34.774  30.950  27.777  1.00  0.00     0.039 A 
ATOM     29  C   UNL A   1      34.918  29.661  28.296  1.00  0.00     0.014 A 
ATOM     30  C   UNL A   1      35.767  31.910  28.001  1.00  0.00     0.014 A 
ATOM     31  C   UNL A   1      36.063  29.329  29.019  1.00  0.00     0.010 A 
ATOM     32  C   UNL A   1      36.940  31.558  28.667  1.00  0.00     0.010 A 
ATOM     33  C   UNL A   1      37.092  30.268  29.197  1.00  0.00    -0.014 A 
BRANCH  33  34
ATOM     34  C   UNL A   1      38.319  29.899  29.946  1.00  0.00     0.031 A 
ATOM     35  C   UNL A   1      38.560  30.435  31.330  1.00  0.00     0.074 A 
ATOM     36  C   UNL A   1      39.220  29.082  29.367  1.00  0.00     0.049 A 
ATOM     37  N   UNL A   1      39.559  30.200  32.145  1.00  0.00    -0.248 NA
ATOM     38  C   UNL A   1      37.561  31.373  31.865  1.00  0.00     0.031 C 
ATOM     39  C   UNL A   1      39.122  28.547  28.008  1.00  0.00     0.029 A 
ATOM     40  N   UNL A   1      40.391  28.555  29.848  1.00  0.00    -0.354 N 
ATOM     41  C   UNL A   1      39.306  30.955  33.282  1.00  0.00     0.074 A 
ATOM     42  C   UNL A   1      38.094  31.704  33.032  1.00  0.00     0.031 C 
ATOM     43  C   UNL A   1      40.173  27.744  27.775  1.00  0.00     0.029 A 
ATOM     44  C   UNL A   1      41.028  27.726  28.957  1.00  0.00     0.049 A 
ATOM     45  H   UNL A   1      40.741  28.750  30.747  1.00  0.00     0.167 HD
ATOM     46  C   UNL A   1      40.004  30.996  34.443  1.00  0.00     0.037 A 
ATOM     47  C   UNL A   1      42.172  27.028  29.083  1.00  0.00     0.037 A 
ATOM     48  C   UNL A   1      41.204  30.239  34.693  1.00  0.00     0.049 A 
ATOM     49  C   UNL A   1      42.916  27.080  30.390  1.00  0.00     0.074 A 
ATOM     50  C   UNL A   1      41.975  30.194  35.842  1.00  0.00     0.029 A 
ATOM     51  N   UNL A   1      41.805  29.389  33.776  1.00  0.00    -0.354 N 
ATOM     52  N   UNL A   1      42.631  27.749  31.481  1.00  0.00    -0.248 NA
ATOM     53  C   UNL A   1      44.132  26.261  30.490  1.00  0.00     0.031 C 
ATOM     54  C   UNL A   1      43.059  29.340  35.609  1.00  0.00     0.029 A 
ATOM     55  C   UNL A   1      42.938  28.818  34.332  1.00  0.00     0.049 A 
ATOM     56  H   UNL A   1      41.474  29.216  32.865  1.00  0.00     0.167 HD
ATOM     57  C   UNL A   1      43.614  27.415  32.401  1.00  0.00     0.074 A 
ATOM     58  C   UNL A   1      44.485  26.458  31.751  1.00  0.00     0.031 C 
ATOM     59  C   UNL A   1      43.788  27.863  33.669  1.00  0.00     0.037 A 
BRANCH  46  60
ATOM     60  C   UNL A   1      39.478  31.871  35.543  1.00  0.00     0.064 A 
ATOM     61  C   UNL A   1      38.572  31.377  36.497  1.00  0.00     0.173 A 
ATOM     62  C   UNL A   1      39.920  33.194  35.685  1.00  0.00     0.173 A 
ATOM     63  F   UNL A   1      38.108  30.122  36.400  1.00  0.00    -0.203 F 
ATOM     64  C   UNL A   1      38.118  32.180  37.539  1.00  0.00     0.198 A 
ATOM     65  C   UNL A   1      39.485  33.986  36.745  1.00  0.00     0.198 A 
ATOM     66  F   UNL A   1      40.787  33.715  34.805  1.00  0.00    -0.203 F 
ATOM     67  F   UNL A   1      37.225  31.697  38.415  1.00  0.00    -0.200 F 
ATOM     68  C   UNL A   1      38.581  33.481  37.667  1.00  0.00     0.200 A 
ATOM     69  F   UNL A   1      39.943  35.240  36.876  1.00  0.00    -0.200 F 
ATOM     70  F   UNL A   1      38.153  34.248  38.679  1.00  0.00    -0.200 F 
ENDBRANCH  46  60
BRANCH  47  71
ATOM     71  C   UNL A   1      42.672  26.197  27.957  1.00  0.00     0.064 A 
ATOM     72  C   UNL A   1      43.553  26.726  27.003  1.00  0.00     0.173 A 
ATOM     73  C   UNL A   1      42.256  24.868  27.793  1.00  0.00     0.173 A 
ATOM     74  F   UNL A   1      43.967  27.999  27.105  1.00  0.00    -0.203 F 
ATOM     75  C   UNL A   1      43.968  25.972  25.908  1.00  0.00     0.198 A 
ATOM     76  C   UNL A   1      42.698  24.103  26.716  1.00  0.00     0.198 A 
ATOM     77  F   UNL A   1      41.423  24.310  28.684  1.00  0.00    -0.203 F 
ATOM     78  F   UNL A   1      44.758  26.523  24.978  1.00  0.00    -0.200 F 
ATOM     79  C   UNL A   1      43.543  24.658  25.767  1.00  0.00     0.200 A 
ATOM     80  F   UNL A   1      42.298  22.830  26.593  1.00  0.00    -0.200 F 
ATOM     81  F   UNL A   1      43.937  23.934  24.712  1.00  0.00    -0.200 F 
ENDBRANCH  47  71
BRANCH  59  82
ATOM     82  C   UNL A   1      44.946  27.293  34.436  1.00  0.00     0.064 A 
ATOM     83  C   UNL A   1      46.211  27.900  34.418  1.00  0.00     0.173 A 
ATOM     84  C   UNL A   1      44.789  26.125  35.197  1.00  0.00     0.173 A 
ATOM     85  F   UNL A   1      46.415  29.012  33.695  1.00  0.00    -0.203 F 
ATOM     86  C   UNL A   1      47.287  27.333  35.095  1.00  0.00     0.198 A 
ATOM     87  C   UNL A   1      45.859  25.578  35.899  1.00  0.00     0.198 A 
ATOM     88  F   UNL A   1      43.597  25.511  35.255  1.00  0.00    -0.203 F 
ATOM     89  F   UNL A   1      48.501  27.892  35.006  1.00  0.00    -0.200 F 
ATOM     90  C   UNL A   1      47.109  26.174  35.837  1.00  0.00     0.200 A 
ATOM     91  F   UNL A   1      45.682  24.467  36.627  1.00  0.00    -0.200 F 
ATOM     92  F   UNL A   1      48.147  25.626  36.483  1.00  0.00    -0.200 F 
ENDBRANCH  59  82
ENDBRANCH  33  34
ENDBRANCH  25  28
ENDBRANCH  23  24
ENDBRANCH  22  23
ENDBRANCH   1  22
TORSDOF 15
ENDMDL
