MODEL 1
REMARK VINA RESULT:     -11.3      0.000      0.000
REMARK SMILES C[C@@](O)(CSc1ccc(N)c(F)c1)C(=O)NCCCNC(=O)c1ccc(-c2c3nc(c(-c4c(F)c(F)c(F)c(F)c4F)c4ccc([nH]4)c(-c4c(F)c(F)c(F)c(F)c4F)c4nc(c(-c5c(F)c(F)c(F)c(F)c5F)c5ccc2[nH]5)C=C4)C=C3)cc1
REMARK SMILES IDX 17 1 16 2 14 3 15 4 2 6 1 7 3 8 4 10 5 11 6 12 7 13 13 14
REMARK SMILES IDX 8 15 11 16 9 17 12 18 10 19 18 22 19 23 20 24 21 25 22 27
REMARK SMILES IDX 23 28 24 29 85 30 25 31 84 32 26 33 27 34 28 35 78 36 29 37
REMARK SMILES IDX 83 38 77 39 79 40 30 41 82 42 76 43 75 44 31 46 63 47 43 48
REMARK SMILES IDX 62 49 44 50 47 51 61 52 80 53 45 54 46 55 60 57 81 58 48 59
REMARK SMILES IDX 32 60 33 61 41 62 34 63 35 64 39 65 42 66 36 67 37 68 40 69
REMARK SMILES IDX 38 70 64 71 65 72 73 73 66 74 67 75 71 76 74 77 68 78 69 79
REMARK SMILES IDX 72 80 70 81 49 82 50 83 58 84 51 85 52 86 56 87 59 88 53 89
REMARK SMILES IDX 54 90 57 91 55 92
REMARK H PARENT 16 5 3 9 10 20 10 21 20 26 79 45 47 56
REMARK Flexibility Score: inf
ROOT
ATOM      1  C   UNL A   1      36.446  20.483  25.096  1.00  0.00     0.117 C 
ENDROOT
BRANCH   1   2
ATOM      2  N   UNL A   1      36.141  21.469  24.074  1.00  0.00    -0.354 N 
ATOM      3  C   UNL A   1      35.569  22.703  24.163  1.00  0.00     0.252 C 
ATOM      4  O   UNL A   1      35.481  23.346  23.113  1.00  0.00    -0.272 OA
ATOM      5  H   UNL A   1      36.392  21.200  23.161  1.00  0.00     0.163 HD
BRANCH   3   6
ATOM      6  C   UNL A   1      35.077  23.278  25.520  1.00  0.00     0.149 C 
ATOM      7  C   UNL A   1      34.775  24.775  25.371  1.00  0.00     0.054 C 
BRANCH   6   8
ATOM      8  O   UNL A   1      36.131  23.200  26.500  1.00  0.00    -0.379 OA
ATOM      9  H   UNL A   1      36.115  23.995  27.057  1.00  0.00     0.212 HD
ENDBRANCH   6   8
BRANCH   6  10
ATOM     10  C   UNL A   1      33.869  22.495  26.083  1.00  0.00     0.120 C 
BRANCH  10  11
ATOM     11  S   UNL A   1      32.464  22.139  24.954  1.00  0.00    -0.122 SA
BRANCH  11  12
ATOM     12  C   UNL A   1      32.651  20.388  24.682  1.00  0.00     0.010 A 
ATOM     13  C   UNL A   1      32.905  19.498  25.730  1.00  0.00     0.017 A 
ATOM     14  C   UNL A   1      32.529  19.894  23.383  1.00  0.00     0.056 A 
ATOM     15  C   UNL A   1      32.982  18.121  25.491  1.00  0.00     0.030 A 
ATOM     16  C   UNL A   1      32.610  18.522  23.158  1.00  0.00     0.147 A 
ATOM     17  C   UNL A   1      32.847  17.615  24.198  1.00  0.00     0.068 A 
ATOM     18  F   UNL A   1      32.449  18.063  21.906  1.00  0.00    -0.205 F 
BRANCH  17  19
ATOM     19  N   UNL A   1      32.825  16.244  23.975  1.00  0.00    -0.396 N 
ATOM     20  H   UNL A   1      33.367  15.646  24.539  1.00  0.00     0.156 HD
ATOM     21  H   UNL A   1      32.270  15.872  23.254  1.00  0.00     0.156 HD
ENDBRANCH  17  19
ENDBRANCH  11  12
ENDBRANCH  10  11
ENDBRANCH   6  10
ENDBRANCH   3   6
ENDBRANCH   1   2
BRANCH   1  22
ATOM     22  C   UNL A   1      37.782  19.788  24.849  1.00  0.00     0.042 C 
BRANCH  22  23
ATOM     23  C   UNL A   1      38.909  20.236  25.774  1.00  0.00     0.118 C 
BRANCH  23  24
ATOM     24  N   UNL A   1      39.973  19.248  25.892  1.00  0.00    -0.352 N 
ATOM     25  C   UNL A   1      41.318  19.410  26.103  1.00  0.00     0.251 C 
ATOM     26  H   UNL A   1      39.678  18.313  25.806  1.00  0.00     0.163 HD
ATOM     27  O   UNL A   1      42.065  18.436  26.005  1.00  0.00    -0.269 OA
BRANCH  25  28
ATOM     28  C   UNL A   1      41.890  20.735  26.427  1.00  0.00     0.039 A 
ATOM     29  C   UNL A   1      42.169  21.617  25.377  1.00  0.00     0.014 A 
ATOM     30  C   UNL A   1      42.195  21.101  27.740  1.00  0.00     0.014 A 
ATOM     31  C   UNL A   1      42.688  22.885  25.648  1.00  0.00     0.010 A 
ATOM     32  C   UNL A   1      42.647  22.390  28.017  1.00  0.00     0.010 A 
ATOM     33  C   UNL A   1      42.900  23.295  26.975  1.00  0.00    -0.014 A 
BRANCH  33  34
ATOM     34  C   UNL A   1      43.371  24.667  27.289  1.00  0.00     0.031 A 
ATOM     35  C   UNL A   1      42.413  25.704  27.804  1.00  0.00     0.074 A 
ATOM     36  C   UNL A   1      44.651  25.003  27.034  1.00  0.00     0.049 A 
ATOM     37  N   UNL A   1      42.623  26.970  28.062  1.00  0.00    -0.248 NA
ATOM     38  C   UNL A   1      41.028  25.265  28.032  1.00  0.00     0.031 C 
ATOM     39  C   UNL A   1      45.663  24.105  26.476  1.00  0.00     0.029 A 
ATOM     40  N   UNL A   1      45.313  26.194  27.192  1.00  0.00    -0.354 N 
ATOM     41  C   UNL A   1      41.395  27.484  28.458  1.00  0.00     0.074 A 
ATOM     42  C   UNL A   1      40.437  26.403  28.369  1.00  0.00     0.031 C 
ATOM     43  C   UNL A   1      46.819  24.775  26.345  1.00  0.00     0.029 A 
ATOM     44  C   UNL A   1      46.623  26.154  26.781  1.00  0.00     0.049 A 
ATOM     45  H   UNL A   1      44.890  27.001  27.565  1.00  0.00     0.167 HD
ATOM     46  C   UNL A   1      41.099  28.738  28.873  1.00  0.00     0.037 A 
ATOM     47  C   UNL A   1      47.557  27.123  26.749  1.00  0.00     0.037 A 
ATOM     48  C   UNL A   1      42.062  29.802  28.996  1.00  0.00     0.049 A 
ATOM     49  C   UNL A   1      47.213  28.499  27.247  1.00  0.00     0.074 A 
ATOM     50  C   UNL A   1      41.877  31.079  29.497  1.00  0.00     0.029 A 
ATOM     51  N   UNL A   1      43.390  29.713  28.609  1.00  0.00    -0.354 N 
ATOM     52  N   UNL A   1      46.069  28.950  27.700  1.00  0.00    -0.248 NA
ATOM     53  C   UNL A   1      48.291  29.497  27.237  1.00  0.00     0.031 C 
ATOM     54  C   UNL A   1      43.085  31.776  29.374  1.00  0.00     0.029 A 
ATOM     55  C   UNL A   1      44.031  30.920  28.836  1.00  0.00     0.049 A 
ATOM     56  H   UNL A   1      43.815  28.910  28.228  1.00  0.00     0.167 HD
ATOM     57  C   UNL A   1      46.292  30.276  28.045  1.00  0.00     0.074 A 
ATOM     58  C   UNL A   1      47.686  30.551  27.765  1.00  0.00     0.031 C 
ATOM     59  C   UNL A   1      45.419  31.182  28.549  1.00  0.00     0.037 A 
BRANCH  46  60
ATOM     60  C   UNL A   1      39.670  29.033  29.227  1.00  0.00     0.064 A 
ATOM     61  C   UNL A   1      39.184  28.865  30.532  1.00  0.00     0.173 A 
ATOM     62  C   UNL A   1      38.783  29.517  28.254  1.00  0.00     0.173 A 
ATOM     63  F   UNL A   1      39.989  28.396  31.497  1.00  0.00    -0.203 F 
ATOM     64  C   UNL A   1      37.856  29.143  30.844  1.00  0.00     0.198 A 
ATOM     65  C   UNL A   1      37.463  29.821  28.575  1.00  0.00     0.198 A 
ATOM     66  F   UNL A   1      39.198  29.702  26.992  1.00  0.00    -0.203 F 
ATOM     67  F   UNL A   1      37.402  28.930  32.086  1.00  0.00    -0.200 F 
ATOM     68  C   UNL A   1      36.998  29.626  29.867  1.00  0.00     0.200 A 
ATOM     69  F   UNL A   1      36.638  30.298  27.633  1.00  0.00    -0.200 F 
ATOM     70  F   UNL A   1      35.721  29.897  30.170  1.00  0.00    -0.200 F 
ENDBRANCH  46  60
BRANCH  47  71
ATOM     71  C   UNL A   1      48.918  26.811  26.243  1.00  0.00     0.064 A 
ATOM     72  C   UNL A   1      49.909  26.318  27.102  1.00  0.00     0.173 A 
ATOM     73  C   UNL A   1      49.247  26.978  24.890  1.00  0.00     0.173 A 
ATOM     74  F   UNL A   1      49.646  26.161  28.407  1.00  0.00    -0.203 F 
ATOM     75  C   UNL A   1      51.185  26.016  26.629  1.00  0.00     0.198 A 
ATOM     76  C   UNL A   1      50.515  26.653  24.414  1.00  0.00     0.198 A 
ATOM     77  F   UNL A   1      48.330  27.441  24.028  1.00  0.00    -0.203 F 
ATOM     78  F   UNL A   1      52.124  25.578  27.477  1.00  0.00    -0.200 F 
ATOM     79  C   UNL A   1      51.484  26.177  25.285  1.00  0.00     0.200 A 
ATOM     80  F   UNL A   1      50.797  26.795  23.112  1.00  0.00    -0.200 F 
ATOM     81  F   UNL A   1      52.708  25.877  24.828  1.00  0.00    -0.200 F 
ENDBRANCH  47  71
BRANCH  59  82
ATOM     82  C   UNL A   1      45.949  32.553  28.846  1.00  0.00     0.064 A 
ATOM     83  C   UNL A   1      45.892  33.583  27.896  1.00  0.00     0.173 A 
ATOM     84  C   UNL A   1      46.486  32.851  30.108  1.00  0.00     0.173 A 
ATOM     85  F   UNL A   1      45.403  33.343  26.670  1.00  0.00    -0.203 F 
ATOM     86  C   UNL A   1      46.372  34.856  28.192  1.00  0.00     0.198 A 
ATOM     87  C   UNL A   1      46.941  34.131  30.409  1.00  0.00     0.198 A 
ATOM     88  F   UNL A   1      46.558  31.901  31.053  1.00  0.00    -0.203 F 
ATOM     89  F   UNL A   1      46.347  35.813  27.254  1.00  0.00    -0.200 F 
ATOM     90  C   UNL A   1      46.889  35.130  29.449  1.00  0.00     0.200 A 
ATOM     91  F   UNL A   1      47.431  34.398  31.628  1.00  0.00    -0.200 F 
ATOM     92  F   UNL A   1      47.346  36.358  29.733  1.00  0.00    -0.200 F 
ENDBRANCH  59  82
ENDBRANCH  33  34
ENDBRANCH  25  28
ENDBRANCH  23  24
ENDBRANCH  22  23
ENDBRANCH   1  22
TORSDOF 15
ENDMDL
MODEL 2
REMARK VINA RESULT:     -11.2      0.548      1.779
REMARK SMILES C[C@@](O)(CSc1ccc(N)c(F)c1)C(=O)NCCCNC(=O)c1ccc(-c2c3nc(c(-c4c(F)c(F)c(F)c(F)c4F)c4ccc([nH]4)c(-c4c(F)c(F)c(F)c(F)c4F)c4nc(c(-c5c(F)c(F)c(F)c(F)c5F)c5ccc2[nH]5)C=C4)C=C3)cc1
REMARK SMILES IDX 17 1 16 2 14 3 15 4 2 6 1 7 3 8 4 10 5 11 6 12 7 13 13 14
REMARK SMILES IDX 8 15 11 16 9 17 12 18 10 19 18 22 19 23 20 24 21 25 22 27
REMARK SMILES IDX 23 28 24 29 85 30 25 31 84 32 26 33 27 34 28 35 78 36 29 37
REMARK SMILES IDX 83 38 77 39 79 40 30 41 82 42 76 43 75 44 31 46 63 47 43 48
REMARK SMILES IDX 62 49 44 50 47 51 61 52 80 53 45 54 46 55 60 57 81 58 48 59
REMARK SMILES IDX 32 60 33 61 41 62 34 63 35 64 39 65 42 66 36 67 37 68 40 69
REMARK SMILES IDX 38 70 64 71 65 72 73 73 66 74 67 75 71 76 74 77 68 78 69 79
REMARK SMILES IDX 72 80 70 81 49 82 50 83 58 84 51 85 52 86 56 87 59 88 53 89
REMARK SMILES IDX 54 90 57 91 55 92
REMARK H PARENT 16 5 3 9 10 20 10 21 20 26 79 45 47 56
REMARK Flexibility Score: inf
ROOT
ATOM      1  C   UNL A   1      37.058  20.723  24.714  1.00  0.00     0.117 C 
ENDROOT
BRANCH   1   2
ATOM      2  N   UNL A   1      37.466  21.965  25.346  1.00  0.00    -0.354 N 
ATOM      3  C   UNL A   1      36.816  23.156  25.486  1.00  0.00     0.252 C 
ATOM      4  O   UNL A   1      37.404  24.032  26.126  1.00  0.00    -0.272 OA
ATOM      5  H   UNL A   1      38.367  21.943  25.743  1.00  0.00     0.163 HD
BRANCH   3   6
ATOM      6  C   UNL A   1      35.399  23.385  24.891  1.00  0.00     0.149 C 
ATOM      7  C   UNL A   1      35.405  23.056  23.392  1.00  0.00     0.054 C 
BRANCH   6   8
ATOM      8  O   UNL A   1      35.050  24.782  24.971  1.00  0.00    -0.379 OA
ATOM      9  H   UNL A   1      35.838  25.322  24.800  1.00  0.00     0.212 HD
ENDBRANCH   6   8
BRANCH   6  10
ATOM     10  C   UNL A   1      34.310  22.598  25.654  1.00  0.00     0.120 C 
BRANCH  10  11
ATOM     11  S   UNL A   1      32.717  22.270  24.799  1.00  0.00    -0.122 SA
BRANCH  11  12
ATOM     12  C   UNL A   1      32.741  20.494  24.653  1.00  0.00     0.010 A 
ATOM     13  C   UNL A   1      32.955  19.663  25.757  1.00  0.00     0.017 A 
ATOM     14  C   UNL A   1      32.528  19.922  23.399  1.00  0.00     0.056 A 
ATOM     15  C   UNL A   1      32.904  18.270  25.619  1.00  0.00     0.030 A 
ATOM     16  C   UNL A   1      32.481  18.535  23.275  1.00  0.00     0.147 A 
ATOM     17  C   UNL A   1      32.677  17.687  24.372  1.00  0.00     0.068 A 
ATOM     18  F   UNL A   1      32.235  18.004  22.066  1.00  0.00    -0.205 F 
BRANCH  17  19
ATOM     19  N   UNL A   1      32.528  16.312  24.253  1.00  0.00    -0.396 N 
ATOM     20  H   UNL A   1      32.406  15.905  23.365  1.00  0.00     0.156 HD
ATOM     21  H   UNL A   1      32.544  15.744  25.057  1.00  0.00     0.156 HD
ENDBRANCH  17  19
ENDBRANCH  11  12
ENDBRANCH  10  11
ENDBRANCH   6  10
ENDBRANCH   3   6
ENDBRANCH   1   2
BRANCH   1  22
ATOM     22  C   UNL A   1      38.028  19.582  25.001  1.00  0.00     0.042 C 
BRANCH  22  23
ATOM     23  C   UNL A   1      39.155  19.935  25.966  1.00  0.00     0.118 C 
BRANCH  23  24
ATOM     24  N   UNL A   1      40.262  18.992  25.917  1.00  0.00    -0.352 N 
ATOM     25  C   UNL A   1      41.615  19.203  25.986  1.00  0.00     0.251 C 
ATOM     26  H   UNL A   1      39.996  18.049  25.817  1.00  0.00     0.163 HD
ATOM     27  O   UNL A   1      42.384  18.269  25.757  1.00  0.00    -0.269 OA
BRANCH  25  28
ATOM     28  C   UNL A   1      42.169  20.536  26.310  1.00  0.00     0.039 A 
ATOM     29  C   UNL A   1      42.594  21.357  25.259  1.00  0.00     0.014 A 
ATOM     30  C   UNL A   1      42.312  20.968  27.630  1.00  0.00     0.014 A 
ATOM     31  C   UNL A   1      43.100  22.630  25.528  1.00  0.00     0.010 A 
ATOM     32  C   UNL A   1      42.751  22.265  27.895  1.00  0.00     0.010 A 
ATOM     33  C   UNL A   1      43.151  23.108  26.847  1.00  0.00    -0.014 A 
BRANCH  33  34
ATOM     34  C   UNL A   1      43.606  24.490  27.146  1.00  0.00     0.031 A 
ATOM     35  C   UNL A   1      42.638  25.518  27.656  1.00  0.00     0.074 A 
ATOM     36  C   UNL A   1      44.881  24.839  26.883  1.00  0.00     0.049 A 
ATOM     37  N   UNL A   1      42.832  26.789  27.902  1.00  0.00    -0.248 NA
ATOM     38  C   UNL A   1      41.259  25.064  27.895  1.00  0.00     0.031 C 
ATOM     39  C   UNL A   1      45.902  23.950  26.328  1.00  0.00     0.029 A 
ATOM     40  N   UNL A   1      45.528  26.041  27.027  1.00  0.00    -0.354 N 
ATOM     41  C   UNL A   1      41.599  27.291  28.299  1.00  0.00     0.074 A 
ATOM     42  C   UNL A   1      40.655  26.197  28.224  1.00  0.00     0.031 C 
ATOM     43  C   UNL A   1      47.049  24.633  26.186  1.00  0.00     0.029 A 
ATOM     44  C   UNL A   1      46.836  26.014  26.610  1.00  0.00     0.049 A 
ATOM     45  H   UNL A   1      45.096  26.845  27.394  1.00  0.00     0.167 HD
ATOM     46  C   UNL A   1      41.289  28.546  28.704  1.00  0.00     0.037 A 
ATOM     47  C   UNL A   1      47.758  26.994  26.564  1.00  0.00     0.037 A 
ATOM     48  C   UNL A   1      42.238  29.623  28.813  1.00  0.00     0.049 A 
ATOM     49  C   UNL A   1      47.398  28.370  27.051  1.00  0.00     0.074 A 
ATOM     50  C   UNL A   1      42.040  30.902  29.303  1.00  0.00     0.029 A 
ATOM     51  N   UNL A   1      43.566  29.547  28.420  1.00  0.00    -0.354 N 
ATOM     52  N   UNL A   1      46.251  28.811  27.505  1.00  0.00    -0.248 NA
ATOM     53  C   UNL A   1      48.463  29.381  27.027  1.00  0.00     0.031 C 
ATOM     54  C   UNL A   1      43.238  31.614  29.168  1.00  0.00     0.029 A 
ATOM     55  C   UNL A   1      44.193  30.765  28.633  1.00  0.00     0.049 A 
ATOM     56  H   UNL A   1      43.999  28.746  28.045  1.00  0.00     0.167 HD
ATOM     57  C   UNL A   1      46.458  30.142  27.838  1.00  0.00     0.074 A 
ATOM     58  C   UNL A   1      47.847  30.433  27.549  1.00  0.00     0.031 C 
ATOM     59  C   UNL A   1      45.576  31.042  28.338  1.00  0.00     0.037 A 
BRANCH  46  60
ATOM     60  C   UNL A   1      39.858  28.825  29.062  1.00  0.00     0.064 A 
ATOM     61  C   UNL A   1      39.380  28.663  30.371  1.00  0.00     0.173 A 
ATOM     62  C   UNL A   1      38.961  29.290  28.089  1.00  0.00     0.173 A 
ATOM     63  F   UNL A   1      40.196  28.212  31.336  1.00  0.00    -0.203 F 
ATOM     64  C   UNL A   1      38.050  28.927  30.686  1.00  0.00     0.198 A 
ATOM     65  C   UNL A   1      37.638  29.579  28.413  1.00  0.00     0.198 A 
ATOM     66  F   UNL A   1      39.368  29.468  26.823  1.00  0.00    -0.203 F 
ATOM     67  F   UNL A   1      37.605  28.718  31.932  1.00  0.00    -0.200 F 
ATOM     68  C   UNL A   1      37.182  29.390  29.710  1.00  0.00     0.200 A 
ATOM     69  F   UNL A   1      36.803  30.038  27.471  1.00  0.00    -0.200 F 
ATOM     70  F   UNL A   1      35.903  29.647  30.016  1.00  0.00    -0.200 F 
ENDBRANCH  46  60
BRANCH  47  71
ATOM     71  C   UNL A   1      49.120  26.695  26.055  1.00  0.00     0.064 A 
ATOM     72  C   UNL A   1      49.470  26.975  24.728  1.00  0.00     0.173 A 
ATOM     73  C   UNL A   1      50.103  26.142  26.890  1.00  0.00     0.173 A 
ATOM     74  F   UNL A   1      48.558  27.485  23.889  1.00  0.00    -0.203 F 
ATOM     75  C   UNL A   1      50.751  26.703  24.250  1.00  0.00     0.198 A 
ATOM     76  C   UNL A   1      51.389  25.893  26.416  1.00  0.00     0.198 A 
ATOM     77  F   UNL A   1      49.817  25.862  28.169  1.00  0.00    -0.203 F 
ATOM     78  F   UNL A   1      51.050  26.950  22.968  1.00  0.00    -0.200 F 
ATOM     79  C   UNL A   1      51.710  26.169  25.096  1.00  0.00     0.200 A 
ATOM     80  F   UNL A   1      52.319  25.391  27.241  1.00  0.00    -0.200 F 
ATOM     81  F   UNL A   1      52.944  25.917  24.639  1.00  0.00    -0.200 F 
ENDBRANCH  47  71
BRANCH  59  82
ATOM     82  C   UNL A   1      46.089  32.422  28.620  1.00  0.00     0.064 A 
ATOM     83  C   UNL A   1      46.662  32.753  29.857  1.00  0.00     0.173 A 
ATOM     84  C   UNL A   1      46.043  33.415  27.629  1.00  0.00     0.173 A 
ATOM     85  F   UNL A   1      46.714  31.843  30.841  1.00  0.00    -0.203 F 
ATOM     86  C   UNL A   1      47.151  34.033  30.098  1.00  0.00     0.198 A 
ATOM     87  C   UNL A   1      46.557  34.686  27.865  1.00  0.00     0.198 A 
ATOM     88  F   UNL A   1      45.510  33.146  26.427  1.00  0.00    -0.203 F 
ATOM     89  F   UNL A   1      47.656  34.339  31.301  1.00  0.00    -0.200 F 
ATOM     90  C   UNL A   1      47.105  34.996  29.101  1.00  0.00     0.200 A 
ATOM     91  F   UNL A   1      46.521  35.613  26.897  1.00  0.00    -0.200 F 
ATOM     92  F   UNL A   1      47.582  36.227  29.334  1.00  0.00    -0.200 F 
ENDBRANCH  59  82
ENDBRANCH  33  34
ENDBRANCH  25  28
ENDBRANCH  23  24
ENDBRANCH  22  23
ENDBRANCH   1  22
TORSDOF 15
ENDMDL
MODEL 3
REMARK VINA RESULT:     -11.2      6.595     11.664
REMARK SMILES C[C@@](O)(CSc1ccc(N)c(F)c1)C(=O)NCCCNC(=O)c1ccc(-c2c3nc(c(-c4c(F)c(F)c(F)c(F)c4F)c4ccc([nH]4)c(-c4c(F)c(F)c(F)c(F)c4F)c4nc(c(-c5c(F)c(F)c(F)c(F)c5F)c5ccc2[nH]5)C=C4)C=C3)cc1
REMARK SMILES IDX 17 1 16 2 14 3 15 4 2 6 1 7 3 8 4 10 5 11 6 12 7 13 13 14
REMARK SMILES IDX 8 15 11 16 9 17 12 18 10 19 18 22 19 23 20 24 21 25 22 27
REMARK SMILES IDX 23 28 24 29 85 30 25 31 84 32 26 33 27 34 28 35 78 36 29 37
REMARK SMILES IDX 83 38 77 39 79 40 30 41 82 42 76 43 75 44 31 46 63 47 43 48
REMARK SMILES IDX 62 49 44 50 47 51 61 52 80 53 45 54 46 55 60 57 81 58 48 59
REMARK SMILES IDX 32 60 33 61 41 62 34 63 35 64 39 65 42 66 36 67 37 68 40 69
REMARK SMILES IDX 38 70 64 71 65 72 73 73 66 74 67 75 71 76 74 77 68 78 69 79
REMARK SMILES IDX 72 80 70 81 49 82 50 83 58 84 51 85 52 86 56 87 59 88 53 89
REMARK SMILES IDX 54 90 57 91 55 92
REMARK H PARENT 16 5 3 9 10 20 10 21 20 26 79 45 47 56
REMARK Flexibility Score: inf
ROOT
ATOM      1  C   UNL A   1      31.540  30.783  26.422  1.00  0.00     0.117 C 
ENDROOT
BRANCH   1   2
ATOM      2  N   UNL A   1      32.684  30.236  27.129  1.00  0.00    -0.354 N 
ATOM      3  C   UNL A   1      33.423  29.113  26.904  1.00  0.00     0.252 C 
ATOM      4  O   UNL A   1      34.385  28.927  27.655  1.00  0.00    -0.272 OA
ATOM      5  H   UNL A   1      32.975  30.767  27.905  1.00  0.00     0.163 HD
BRANCH   3   6
ATOM      6  C   UNL A   1      33.087  28.134  25.745  1.00  0.00     0.149 C 
ATOM      7  C   UNL A   1      34.002  26.905  25.821  1.00  0.00     0.054 C 
BRANCH   6   8
ATOM      8  O   UNL A   1      33.384  28.750  24.476  1.00  0.00    -0.379 OA
ATOM      9  H   UNL A   1      34.269  28.478  24.184  1.00  0.00     0.212 HD
ENDBRANCH   6   8
BRANCH   6  10
ATOM     10  C   UNL A   1      31.591  27.745  25.725  1.00  0.00     0.120 C 
BRANCH  10  11
ATOM     11  S   UNL A   1      30.970  26.757  24.305  1.00  0.00    -0.122 SA
BRANCH  11  12
ATOM     12  C   UNL A   1      30.034  27.972  23.399  1.00  0.00     0.010 A 
ATOM     13  C   UNL A   1      30.650  28.927  22.585  1.00  0.00     0.017 A 
ATOM     14  C   UNL A   1      28.643  27.958  23.501  1.00  0.00     0.056 A 
ATOM     15  C   UNL A   1      29.881  29.826  21.836  1.00  0.00     0.030 A 
ATOM     16  C   UNL A   1      27.889  28.859  22.752  1.00  0.00     0.147 A 
ATOM     17  C   UNL A   1      28.489  29.811  21.919  1.00  0.00     0.068 A 
ATOM     18  F   UNL A   1      26.549  28.803  22.833  1.00  0.00    -0.205 F 
BRANCH  17  19
ATOM     19  N   UNL A   1      27.725  30.635  21.103  1.00  0.00    -0.396 N 
ATOM     20  H   UNL A   1      27.403  30.305  20.234  1.00  0.00     0.156 HD
ATOM     21  H   UNL A   1      27.507  31.550  21.393  1.00  0.00     0.156 HD
ENDBRANCH  17  19
ENDBRANCH  11  12
ENDBRANCH  10  11
ENDBRANCH   6  10
ENDBRANCH   3   6
ENDBRANCH   1   2
BRANCH   1  22
ATOM     22  C   UNL A   1      31.421  32.294  26.595  1.00  0.00     0.042 C 
BRANCH  22  23
ATOM     23  C   UNL A   1      32.681  32.972  27.126  1.00  0.00     0.118 C 
BRANCH  23  24
ATOM     24  N   UNL A   1      32.431  34.310  27.642  1.00  0.00    -0.352 N 
ATOM     25  C   UNL A   1      33.014  34.986  28.683  1.00  0.00     0.251 C 
ATOM     26  H   UNL A   1      31.730  34.811  27.165  1.00  0.00     0.163 HD
ATOM     27  O   UNL A   1      32.531  36.057  29.052  1.00  0.00    -0.269 OA
BRANCH  25  28
ATOM     28  C   UNL A   1      34.197  34.442  29.384  1.00  0.00     0.039 A 
ATOM     29  C   UNL A   1      34.006  33.772  30.598  1.00  0.00     0.014 A 
ATOM     30  C   UNL A   1      35.490  34.620  28.885  1.00  0.00     0.014 A 
ATOM     31  C   UNL A   1      35.099  33.226  31.274  1.00  0.00     0.010 A 
ATOM     32  C   UNL A   1      36.572  34.016  29.524  1.00  0.00     0.010 A 
ATOM     33  C   UNL A   1      36.388  33.314  30.725  1.00  0.00    -0.014 A 
BRANCH  33  34
ATOM     34  C   UNL A   1      37.551  32.669  31.386  1.00  0.00     0.031 A 
ATOM     35  C   UNL A   1      38.255  31.513  30.733  1.00  0.00     0.074 A 
ATOM     36  C   UNL A   1      37.924  33.074  32.616  1.00  0.00     0.049 A 
ATOM     37  N   UNL A   1      39.236  30.777  31.188  1.00  0.00    -0.248 NA
ATOM     38  C   UNL A   1      37.772  31.115  29.402  1.00  0.00     0.031 C 
ATOM     39  C   UNL A   1      37.282  34.143  33.382  1.00  0.00     0.029 A 
ATOM     40  N   UNL A   1      38.919  32.622  33.445  1.00  0.00    -0.354 N 
ATOM     41  C   UNL A   1      39.471  29.815  30.214  1.00  0.00     0.074 A 
ATOM     42  C   UNL A   1      38.505  30.037  29.160  1.00  0.00     0.031 C 
ATOM     43  C   UNL A   1      37.904  34.269  34.565  1.00  0.00     0.029 A 
ATOM     44  C   UNL A   1      38.967  33.272  34.653  1.00  0.00     0.049 A 
ATOM     45  H   UNL A   1      39.540  31.899  33.197  1.00  0.00     0.167 HD
ATOM     46  C   UNL A   1      40.418  28.847  30.195  1.00  0.00     0.037 A 
ATOM     47  C   UNL A   1      39.770  33.080  35.717  1.00  0.00     0.037 A 
ATOM     48  C   UNL A   1      41.403  28.651  31.227  1.00  0.00     0.049 A 
ATOM     49  C   UNL A   1      40.835  32.021  35.657  1.00  0.00     0.074 A 
ATOM     50  C   UNL A   1      42.461  27.760  31.254  1.00  0.00     0.029 A 
ATOM     51  N   UNL A   1      41.446  29.358  32.420  1.00  0.00    -0.354 N 
ATOM     52  N   UNL A   1      41.102  31.173  34.694  1.00  0.00    -0.248 NA
ATOM     53  C   UNL A   1      41.713  31.897  36.828  1.00  0.00     0.031 C 
ATOM     54  C   UNL A   1      43.119  27.897  32.481  1.00  0.00     0.029 A 
ATOM     55  C   UNL A   1      42.497  28.904  33.201  1.00  0.00     0.049 A 
ATOM     56  H   UNL A   1      40.821  30.075  32.675  1.00  0.00     0.167 HD
ATOM     57  C   UNL A   1      42.189  30.429  35.132  1.00  0.00     0.074 A 
ATOM     58  C   UNL A   1      42.542  30.937  36.442  1.00  0.00     0.031 C 
ATOM     59  C   UNL A   1      42.835  29.416  34.504  1.00  0.00     0.037 A 
BRANCH  46  60
ATOM     60  C   UNL A   1      40.436  27.919  29.015  1.00  0.00     0.064 A 
ATOM     61  C   UNL A   1      41.217  28.185  27.880  1.00  0.00     0.173 A 
ATOM     62  C   UNL A   1      39.688  26.732  29.033  1.00  0.00     0.173 A 
ATOM     63  F   UNL A   1      41.943  29.310  27.809  1.00  0.00    -0.203 F 
ATOM     64  C   UNL A   1      41.223  27.313  26.794  1.00  0.00     0.198 A 
ATOM     65  C   UNL A   1      39.718  25.849  27.957  1.00  0.00     0.198 A 
ATOM     66  F   UNL A   1      38.930  26.427  30.097  1.00  0.00    -0.203 F 
ATOM     67  F   UNL A   1      41.937  27.612  25.701  1.00  0.00    -0.200 F 
ATOM     68  C   UNL A   1      40.479  26.144  26.836  1.00  0.00     0.200 A 
ATOM     69  F   UNL A   1      39.007  24.714  28.003  1.00  0.00    -0.200 F 
ATOM     70  F   UNL A   1      40.489  25.304  25.791  1.00  0.00    -0.200 F 
ENDBRANCH  46  60
BRANCH  47  71
ATOM     71  C   UNL A   1      39.604  33.931  36.922  1.00  0.00     0.064 A 
ATOM     72  C   UNL A   1      40.207  35.194  36.999  1.00  0.00     0.173 A 
ATOM     73  C   UNL A   1      38.824  33.510  38.009  1.00  0.00     0.173 A 
ATOM     74  F   UNL A   1      40.978  35.630  35.992  1.00  0.00    -0.203 F 
ATOM     75  C   UNL A   1      40.047  35.999  38.125  1.00  0.00     0.198 A 
ATOM     76  C   UNL A   1      38.646  34.327  39.123  1.00  0.00     0.198 A 
ATOM     77  F   UNL A   1      38.223  32.312  37.980  1.00  0.00    -0.203 F 
ATOM     78  F   UNL A   1      40.661  37.188  38.187  1.00  0.00    -0.200 F 
ATOM     79  C   UNL A   1      39.261  35.568  39.182  1.00  0.00     0.200 A 
ATOM     80  F   UNL A   1      37.874  33.913  40.138  1.00  0.00    -0.200 F 
ATOM     81  F   UNL A   1      39.099  36.347  40.261  1.00  0.00    -0.200 F 
ENDBRANCH  47  71
BRANCH  59  82
ATOM     82  C   UNL A   1      44.001  28.800  35.219  1.00  0.00     0.064 A 
ATOM     83  C   UNL A   1      45.307  29.276  35.036  1.00  0.00     0.173 A 
ATOM     84  C   UNL A   1      43.804  27.746  36.124  1.00  0.00     0.173 A 
ATOM     85  F   UNL A   1      45.548  30.270  34.169  1.00  0.00    -0.203 F 
ATOM     86  C   UNL A   1      46.378  28.706  35.720  1.00  0.00     0.198 A 
ATOM     87  C   UNL A   1      44.872  27.196  36.826  1.00  0.00     0.198 A 
ATOM     88  F   UNL A   1      42.572  27.259  36.337  1.00  0.00    -0.203 F 
ATOM     89  F   UNL A   1      47.623  29.148  35.499  1.00  0.00    -0.200 F 
ATOM     90  C   UNL A   1      46.159  27.672  36.619  1.00  0.00     0.200 A 
ATOM     91  F   UNL A   1      44.659  26.204  37.701  1.00  0.00    -0.200 F 
ATOM     92  F   UNL A   1      47.190  27.128  37.279  1.00  0.00    -0.200 F 
ENDBRANCH  59  82
ENDBRANCH  33  34
ENDBRANCH  25  28
ENDBRANCH  23  24
ENDBRANCH  22  23
ENDBRANCH   1  22
TORSDOF 15
ENDMDL
