MODEL 1
REMARK VINA RESULT:     -12.7      0.000      0.000
REMARK SMILES COc1ccccc1[C@@H]1CN(C(=O)Cc2csc(C)n2)C[C@H]1C(=O)NCCCNC(=O)c1ccc(-c2c3nc(c(-c4c(F)c(F)c(F)c(F)c4F)c4ccc([nH]4)c(-c4c(F)c(F)c(F)c(F)c4F)c4nc(c(-c5c(F)c(F)c(F)c(F)c5F)c5ccc2[nH]5)C=C4)C=C3)cc1
REMARK SMILES IDX 26 1 25 2 23 3 24 4 22 6 9 7 10 8 11 9 21 10 8 11 3 12 4 13
REMARK SMILES IDX 5 14 7 15 6 16 2 17 1 18 12 19 13 20 14 21 15 22 16 23 20 24
REMARK SMILES IDX 17 25 18 26 19 27 27 28 28 29 29 30 30 31 31 33 32 34 33 35
REMARK SMILES IDX 94 36 34 37 93 38 35 39 36 40 37 41 87 42 38 43 92 44 86 45
REMARK SMILES IDX 88 46 39 47 91 48 85 49 84 50 40 52 72 53 52 54 71 55 53 56
REMARK SMILES IDX 56 57 70 58 89 59 54 60 55 61 69 63 90 64 57 65 41 66 42 67
REMARK SMILES IDX 50 68 43 69 44 70 48 71 51 72 45 73 46 74 49 75 47 76 73 77
REMARK SMILES IDX 74 78 82 79 75 80 76 81 80 82 83 83 77 84 78 85 81 86 79 87
REMARK SMILES IDX 58 88 59 89 67 90 60 91 61 92 65 93 68 94 62 95 63 96 66 97
REMARK SMILES IDX 64 98
REMARK H PARENT 25 5 29 32 88 51 56 62
REMARK Flexibility Score: inf
ROOT
ATOM      1  C   UNL A   1      37.887  21.762  25.481  1.00  0.00     0.117 C 
ENDROOT
BRANCH   1   2
ATOM      2  N   UNL A   1      37.581  22.395  24.210  1.00  0.00    -0.356 N 
ATOM      3  C   UNL A   1      36.431  22.919  23.717  1.00  0.00     0.225 C 
ATOM      4  O   UNL A   1      36.468  23.359  22.564  1.00  0.00    -0.275 OA
ATOM      5  H   UNL A   1      38.347  22.455  23.595  1.00  0.00     0.163 HD
BRANCH   3   6
ATOM      6  C   UNL A   1      35.144  22.977  24.515  1.00  0.00     0.107 C 
ATOM      7  C   UNL A   1      33.984  23.690  23.794  1.00  0.00     0.057 C 
ATOM      8  C   UNL A   1      32.745  22.865  24.132  1.00  0.00     0.128 C 
ATOM      9  N   UNL A   1      33.251  21.536  24.432  1.00  0.00    -0.341 N 
ATOM     10  C   UNL A   1      34.627  21.590  24.893  1.00  0.00     0.133 C 
BRANCH   7  11
ATOM     11  C   UNL A   1      33.869  25.180  24.062  1.00  0.00    -0.000 A 
ATOM     12  C   UNL A   1      33.706  26.169  23.075  1.00  0.00     0.122 A 
ATOM     13  C   UNL A   1      33.629  27.523  23.420  1.00  0.00     0.047 A 
ATOM     14  C   UNL A   1      33.719  27.918  24.754  1.00  0.00     0.004 A 
ATOM     15  C   UNL A   1      33.957  25.606  25.403  1.00  0.00     0.008 A 
ATOM     16  C   UNL A   1      33.895  26.959  25.745  1.00  0.00     0.001 A 
BRANCH  12  17
ATOM     17  O   UNL A   1      33.810  25.893  21.738  1.00  0.00    -0.496 OA
ATOM     18  C   UNL A   1      32.556  25.722  21.086  1.00  0.00     0.278 C 
ENDBRANCH  12  17
ENDBRANCH   7  11
BRANCH   9  19
ATOM     19  C   UNL A   1      32.524  20.364  24.503  1.00  0.00     0.228 C 
ATOM     20  O   UNL A   1      31.661  20.202  25.371  1.00  0.00    -0.274 OA
BRANCH  19  21
ATOM     21  C   UNL A   1      32.878  19.234  23.551  1.00  0.00     0.157 C 
BRANCH  21  22
ATOM     22  C   UNL A   1      33.395  18.001  24.221  1.00  0.00     0.061 A 
ATOM     23  C   UNL A   1      34.725  17.633  24.327  1.00  0.00     0.091 A 
ATOM     24  N   UNL A   1      32.515  17.076  24.754  1.00  0.00    -0.246 NA
ATOM     25  S   UNL A   1      34.861  16.087  25.055  1.00  0.00    -0.127 S 
ATOM     26  C   UNL A   1      33.153  16.007  25.175  1.00  0.00     0.090 A 
ATOM     27  C   UNL A   1      32.479  14.791  25.701  1.00  0.00     0.079 C 
ENDBRANCH  21  22
ENDBRANCH  19  21
ENDBRANCH   9  19
ENDBRANCH   3   6
ENDBRANCH   1   2
BRANCH   1  28
ATOM     28  C   UNL A   1      38.633  20.449  25.291  1.00  0.00     0.042 C 
BRANCH  28  29
ATOM     29  C   UNL A   1      39.520  20.083  26.471  1.00  0.00     0.118 C 
BRANCH  29  30
ATOM     30  N   UNL A   1      40.656  19.263  26.078  1.00  0.00    -0.352 N 
ATOM     31  C   UNL A   1      41.975  19.606  25.917  1.00  0.00     0.251 C 
ATOM     32  H   UNL A   1      40.446  18.317  25.900  1.00  0.00     0.163 HD
ATOM     33  O   UNL A   1      42.749  18.833  25.365  1.00  0.00    -0.269 OA
BRANCH  31  34
ATOM     34  C   UNL A   1      42.455  20.917  26.397  1.00  0.00     0.039 A 
ATOM     35  C   UNL A   1      42.764  21.909  25.463  1.00  0.00     0.014 A 
ATOM     36  C   UNL A   1      42.613  21.162  27.763  1.00  0.00     0.014 A 
ATOM     37  C   UNL A   1      43.172  23.168  25.905  1.00  0.00     0.010 A 
ATOM     38  C   UNL A   1      42.924  22.442  28.204  1.00  0.00     0.010 A 
ATOM     39  C   UNL A   1      43.221  23.454  27.279  1.00  0.00    -0.014 A 
BRANCH  39  40
ATOM     40  C   UNL A   1      43.607  24.796  27.776  1.00  0.00     0.031 A 
ATOM     41  C   UNL A   1      42.543  25.806  28.107  1.00  0.00     0.074 A 
ATOM     42  C   UNL A   1      44.909  25.128  27.861  1.00  0.00     0.049 A 
ATOM     43  N   UNL A   1      42.671  27.057  28.472  1.00  0.00    -0.248 NA
ATOM     44  C   UNL A   1      41.145  25.361  27.974  1.00  0.00     0.031 C 
ATOM     45  C   UNL A   1      46.030  24.252  27.515  1.00  0.00     0.029 A 
ATOM     46  N   UNL A   1      45.510  26.297  28.253  1.00  0.00    -0.354 N 
ATOM     47  C   UNL A   1      41.377  27.548  28.592  1.00  0.00     0.074 A 
ATOM     48  C   UNL A   1      40.480  26.482  28.203  1.00  0.00     0.031 C 
ATOM     49  C   UNL A   1      47.182  24.905  27.733  1.00  0.00     0.029 A 
ATOM     50  C   UNL A   1      46.882  26.256  28.198  1.00  0.00     0.049 A 
ATOM     51  H   UNL A   1      45.007  27.089  28.547  1.00  0.00     0.167 HD
ATOM     52  C   UNL A   1      40.975  28.769  29.015  1.00  0.00     0.037 A 
ATOM     53  C   UNL A   1      47.792  27.205  28.486  1.00  0.00     0.037 A 
ATOM     54  C   UNL A   1      41.871  29.812  29.435  1.00  0.00     0.049 A 
ATOM     55  C   UNL A   1      47.318  28.549  28.967  1.00  0.00     0.074 A 
ATOM     56  C   UNL A   1      41.566  31.062  29.943  1.00  0.00     0.029 A 
ATOM     57  N   UNL A   1      43.256  29.721  29.396  1.00  0.00    -0.354 N 
ATOM     58  N   UNL A   1      46.093  28.981  29.144  1.00  0.00    -0.248 NA
ATOM     59  C   UNL A   1      48.355  29.536  29.299  1.00  0.00     0.031 C 
ATOM     60  C   UNL A   1      42.765  31.744  30.172  1.00  0.00     0.029 A 
ATOM     61  C   UNL A   1      43.818  30.902  29.854  1.00  0.00     0.049 A 
ATOM     62  H   UNL A   1      43.763  28.936  29.089  1.00  0.00     0.167 HD
ATOM     63  C   UNL A   1      46.210  30.275  29.631  1.00  0.00     0.074 A 
ATOM     64  C   UNL A   1      47.627  30.553  29.738  1.00  0.00     0.031 C 
ATOM     65  C   UNL A   1      45.232  31.155  29.960  1.00  0.00     0.037 A 
BRANCH  52  66
ATOM     66  C   UNL A   1      39.498  29.037  29.054  1.00  0.00     0.064 A 
ATOM     67  C   UNL A   1      38.767  28.963  30.250  1.00  0.00     0.173 A 
ATOM     68  C   UNL A   1      38.808  29.398  27.887  1.00  0.00     0.173 A 
ATOM     69  F   UNL A   1      39.375  28.608  31.392  1.00  0.00    -0.203 F 
ATOM     70  C   UNL A   1      37.397  29.209  30.270  1.00  0.00     0.198 A 
ATOM     71  C   UNL A   1      37.443  29.675  27.916  1.00  0.00     0.198 A 
ATOM     72  F   UNL A   1      39.458  29.488  26.717  1.00  0.00    -0.203 F 
ATOM     73  F   UNL A   1      36.711  29.078  31.415  1.00  0.00    -0.200 F 
ATOM     74  C   UNL A   1      36.738  29.571  29.105  1.00  0.00     0.200 A 
ATOM     75  F   UNL A   1      36.810  30.037  26.792  1.00  0.00    -0.200 F 
ATOM     76  F   UNL A   1      35.419  29.813  29.128  1.00  0.00    -0.200 F 
ENDBRANCH  52  66
BRANCH  53  77
ATOM     77  C   UNL A   1      49.242  26.906  28.355  1.00  0.00     0.064 A 
ATOM     78  C   UNL A   1      49.980  26.436  29.451  1.00  0.00     0.173 A 
ATOM     79  C   UNL A   1      49.918  27.080  27.139  1.00  0.00     0.173 A 
ATOM     80  F   UNL A   1      49.381  26.271  30.639  1.00  0.00    -0.203 F 
ATOM     81  C   UNL A   1      51.344  26.172  29.341  1.00  0.00     0.198 A 
ATOM     82  C   UNL A   1      51.275  26.789  27.023  1.00  0.00     0.198 A 
ATOM     83  F   UNL A   1      49.256  27.518  26.059  1.00  0.00    -0.203 F 
ATOM     84  F   UNL A   1      52.034  25.767  30.416  1.00  0.00    -0.200 F 
ATOM     85  C   UNL A   1      51.989  26.343  28.126  1.00  0.00     0.200 A 
ATOM     86  F   UNL A   1      51.892  26.940  25.843  1.00  0.00    -0.200 F 
ATOM     87  F   UNL A   1      53.300  26.084  28.019  1.00  0.00    -0.200 F 
ENDBRANCH  53  77
BRANCH  65  88
ATOM     88  C   UNL A   1      45.663  32.488  30.498  1.00  0.00     0.064 A 
ATOM     89  C   UNL A   1      45.863  33.592  29.658  1.00  0.00     0.173 A 
ATOM     90  C   UNL A   1      45.836  32.671  31.879  1.00  0.00     0.173 A 
ATOM     91  F   UNL A   1      45.724  33.462  28.330  1.00  0.00    -0.203 F 
ATOM     92  C   UNL A   1      46.247  34.824  30.176  1.00  0.00     0.198 A 
ATOM     93  C   UNL A   1      46.191  33.913  32.397  1.00  0.00     0.198 A 
ATOM     94  F   UNL A   1      45.649  31.648  32.726  1.00  0.00    -0.203 F 
ATOM     95  F   UNL A   1      46.480  35.854  29.350  1.00  0.00    -0.200 F 
ATOM     96  C   UNL A   1      46.403  34.986  31.545  1.00  0.00     0.200 A 
ATOM     97  F   UNL A   1      46.327  34.071  33.721  1.00  0.00    -0.200 F 
ATOM     98  F   UNL A   1      46.766  36.176  32.043  1.00  0.00    -0.200 F 
ENDBRANCH  65  88
ENDBRANCH  39  40
ENDBRANCH  31  34
ENDBRANCH  29  30
ENDBRANCH  28  29
ENDBRANCH   1  28
TORSDOF 15
ENDMDL
MODEL 2
REMARK VINA RESULT:     -12.7      1.169      2.313
REMARK SMILES COc1ccccc1[C@@H]1CN(C(=O)Cc2csc(C)n2)C[C@H]1C(=O)NCCCNC(=O)c1ccc(-c2c3nc(c(-c4c(F)c(F)c(F)c(F)c4F)c4ccc([nH]4)c(-c4c(F)c(F)c(F)c(F)c4F)c4nc(c(-c5c(F)c(F)c(F)c(F)c5F)c5ccc2[nH]5)C=C4)C=C3)cc1
REMARK SMILES IDX 26 1 25 2 23 3 24 4 22 6 9 7 10 8 11 9 21 10 8 11 3 12 4 13
REMARK SMILES IDX 5 14 7 15 6 16 2 17 1 18 12 19 13 20 14 21 15 22 16 23 20 24
REMARK SMILES IDX 17 25 18 26 19 27 27 28 28 29 29 30 30 31 31 33 32 34 33 35
REMARK SMILES IDX 94 36 34 37 93 38 35 39 36 40 37 41 87 42 38 43 92 44 86 45
REMARK SMILES IDX 88 46 39 47 91 48 85 49 84 50 40 52 72 53 52 54 71 55 53 56
REMARK SMILES IDX 56 57 70 58 89 59 54 60 55 61 69 63 90 64 57 65 41 66 42 67
REMARK SMILES IDX 50 68 43 69 44 70 48 71 51 72 45 73 46 74 49 75 47 76 73 77
REMARK SMILES IDX 74 78 82 79 75 80 76 81 80 82 83 83 77 84 78 85 81 86 79 87
REMARK SMILES IDX 58 88 59 89 67 90 60 91 61 92 65 93 68 94 62 95 63 96 66 97
REMARK SMILES IDX 64 98
REMARK H PARENT 25 5 29 32 88 51 56 62
REMARK Flexibility Score: inf
ROOT
ATOM      1  C   UNL A   1      37.935  22.306  26.060  1.00  0.00     0.117 C 
ENDROOT
BRANCH   1   2
ATOM      2  N   UNL A   1      37.695  22.635  24.667  1.00  0.00    -0.356 N 
ATOM      3  C   UNL A   1      36.552  22.906  23.987  1.00  0.00     0.225 C 
ATOM      4  O   UNL A   1      36.660  23.113  22.775  1.00  0.00    -0.275 OA
ATOM      5  H   UNL A   1      38.509  22.669  24.115  1.00  0.00     0.163 HD
BRANCH   3   6
ATOM      6  C   UNL A   1      35.191  22.957  24.651  1.00  0.00     0.107 C 
ATOM      7  C   UNL A   1      34.098  23.634  23.803  1.00  0.00     0.057 C 
ATOM      8  C   UNL A   1      32.844  22.794  24.035  1.00  0.00     0.128 C 
ATOM      9  N   UNL A   1      33.339  21.481  24.415  1.00  0.00    -0.341 N 
ATOM     10  C   UNL A   1      34.661  21.570  25.009  1.00  0.00     0.133 C 
BRANCH   7  11
ATOM     11  C   UNL A   1      33.933  25.127  24.024  1.00  0.00    -0.000 A 
ATOM     12  C   UNL A   1      33.714  26.075  23.008  1.00  0.00     0.122 A 
ATOM     13  C   UNL A   1      33.594  27.436  23.310  1.00  0.00     0.047 A 
ATOM     14  C   UNL A   1      33.695  27.879  24.628  1.00  0.00     0.004 A 
ATOM     15  C   UNL A   1      34.031  25.601  25.349  1.00  0.00     0.008 A 
ATOM     16  C   UNL A   1      33.926  26.961  25.646  1.00  0.00     0.001 A 
BRANCH  12  17
ATOM     17  O   UNL A   1      33.803  25.759  21.680  1.00  0.00    -0.496 OA
ATOM     18  C   UNL A   1      32.547  25.726  21.011  1.00  0.00     0.278 C 
ENDBRANCH  12  17
ENDBRANCH   7  11
BRANCH   9  19
ATOM     19  C   UNL A   1      32.628  20.298  24.440  1.00  0.00     0.228 C 
ATOM     20  O   UNL A   1      31.716  20.122  25.253  1.00  0.00    -0.274 OA
BRANCH  19  21
ATOM     21  C   UNL A   1      33.057  19.174  23.512  1.00  0.00     0.157 C 
BRANCH  21  22
ATOM     22  C   UNL A   1      33.527  17.939  24.212  1.00  0.00     0.061 A 
ATOM     23  C   UNL A   1      34.845  17.558  24.388  1.00  0.00     0.091 A 
ATOM     24  N   UNL A   1      32.611  17.026  24.703  1.00  0.00    -0.246 NA
ATOM     25  S   UNL A   1      34.928  16.014  25.128  1.00  0.00    -0.127 S 
ATOM     26  C   UNL A   1      33.215  15.952  25.160  1.00  0.00     0.090 A 
ATOM     27  C   UNL A   1      32.503  14.745  25.656  1.00  0.00     0.079 C 
ENDBRANCH  21  22
ENDBRANCH  19  21
ENDBRANCH   9  19
ENDBRANCH   3   6
ENDBRANCH   1   2
BRANCH   1  28
ATOM     28  C   UNL A   1      39.171  21.435  26.228  1.00  0.00     0.042 C 
BRANCH  28  29
ATOM     29  C   UNL A   1      39.216  20.259  25.266  1.00  0.00     0.118 C 
BRANCH  29  30
ATOM     30  N   UNL A   1      40.135  19.218  25.704  1.00  0.00    -0.352 N 
ATOM     31  C   UNL A   1      41.437  19.315  26.127  1.00  0.00     0.251 C 
ATOM     32  H   UNL A   1      39.766  18.305  25.696  1.00  0.00     0.163 HD
ATOM     33  O   UNL A   1      42.123  18.307  26.244  1.00  0.00    -0.269 OA
BRANCH  31  34
ATOM     34  C   UNL A   1      42.014  20.641  26.426  1.00  0.00     0.039 A 
ATOM     35  C   UNL A   1      42.406  21.464  25.367  1.00  0.00     0.014 A 
ATOM     36  C   UNL A   1      42.180  21.065  27.746  1.00  0.00     0.014 A 
ATOM     37  C   UNL A   1      42.907  22.738  25.635  1.00  0.00     0.010 A 
ATOM     38  C   UNL A   1      42.585  22.368  28.008  1.00  0.00     0.010 A 
ATOM     39  C   UNL A   1      42.967  23.213  26.955  1.00  0.00    -0.014 A 
BRANCH  39  40
ATOM     40  C   UNL A   1      43.453  24.579  27.265  1.00  0.00     0.031 A 
ATOM     41  C   UNL A   1      42.501  25.602  27.822  1.00  0.00     0.074 A 
ATOM     42  C   UNL A   1      44.724  24.916  26.978  1.00  0.00     0.049 A 
ATOM     43  N   UNL A   1      42.704  26.869  28.079  1.00  0.00    -0.248 NA
ATOM     44  C   UNL A   1      41.127  25.148  28.094  1.00  0.00     0.031 C 
ATOM     45  C   UNL A   1      45.723  24.027  26.384  1.00  0.00     0.029 A 
ATOM     46  N   UNL A   1      45.390  26.105  27.137  1.00  0.00    -0.354 N 
ATOM     47  C   UNL A   1      41.484  27.363  28.521  1.00  0.00     0.074 A 
ATOM     48  C   UNL A   1      40.531  26.278  28.440  1.00  0.00     0.031 C 
ATOM     49  C   UNL A   1      46.880  24.692  26.251  1.00  0.00     0.029 A 
ATOM     50  C   UNL A   1      46.697  26.064  26.715  1.00  0.00     0.049 A 
ATOM     51  H   UNL A   1      44.972  26.910  27.518  1.00  0.00     0.167 HD
ATOM     52  C   UNL A   1      41.192  28.603  28.979  1.00  0.00     0.037 A 
ATOM     53  C   UNL A   1      47.636  27.028  26.700  1.00  0.00     0.037 A 
ATOM     54  C   UNL A   1      42.152  29.667  29.090  1.00  0.00     0.049 A 
ATOM     55  C   UNL A   1      47.289  28.393  27.227  1.00  0.00     0.074 A 
ATOM     56  C   UNL A   1      41.976  30.941  29.602  1.00  0.00     0.029 A 
ATOM     57  N   UNL A   1      43.476  29.578  28.683  1.00  0.00    -0.354 N 
ATOM     58  N   UNL A   1      46.151  28.831  27.708  1.00  0.00    -0.248 NA
ATOM     59  C   UNL A   1      48.362  29.398  27.219  1.00  0.00     0.031 C 
ATOM     60  C   UNL A   1      43.182  31.636  29.466  1.00  0.00     0.029 A 
ATOM     61  C   UNL A   1      44.123  30.781  28.914  1.00  0.00     0.049 A 
ATOM     62  H   UNL A   1      43.893  28.779  28.287  1.00  0.00     0.167 HD
ATOM     63  C   UNL A   1      46.375  30.148  28.083  1.00  0.00     0.074 A 
ATOM     64  C   UNL A   1      47.764  30.434  27.789  1.00  0.00     0.031 C 
ATOM     65  C   UNL A   1      45.509  31.041  28.622  1.00  0.00     0.037 A 
BRANCH  52  66
ATOM     66  C   UNL A   1      39.776  28.870  29.403  1.00  0.00     0.064 A 
ATOM     67  C   UNL A   1      38.818  29.364  28.503  1.00  0.00     0.173 A 
ATOM     68  C   UNL A   1      39.363  28.602  30.716  1.00  0.00     0.173 A 
ATOM     69  F   UNL A   1      39.164  29.650  27.239  1.00  0.00    -0.203 F 
ATOM     70  C   UNL A   1      37.510  29.612  28.912  1.00  0.00     0.198 A 
ATOM     71  C   UNL A   1      38.046  28.821  31.114  1.00  0.00     0.198 A 
ATOM     72  F   UNL A   1      40.237  28.124  31.616  1.00  0.00    -0.203 F 
ATOM     73  F   UNL A   1      36.628  30.136  28.050  1.00  0.00    -0.200 F 
ATOM     74  C   UNL A   1      37.124  29.333  30.215  1.00  0.00     0.200 A 
ATOM     75  F   UNL A   1      37.671  28.539  32.370  1.00  0.00    -0.200 F 
ATOM     76  F   UNL A   1      35.863  29.567  30.605  1.00  0.00    -0.200 F 
ENDBRANCH  52  66
BRANCH  53  77
ATOM     77  C   UNL A   1      49.001  26.725  26.197  1.00  0.00     0.064 A 
ATOM     78  C   UNL A   1      49.350  26.990  24.865  1.00  0.00     0.173 A 
ATOM     79  C   UNL A   1      49.982  26.169  27.030  1.00  0.00     0.173 A 
ATOM     80  F   UNL A   1      48.441  27.506  24.025  1.00  0.00    -0.203 F 
ATOM     81  C   UNL A   1      50.622  26.691  24.380  1.00  0.00     0.198 A 
ATOM     82  C   UNL A   1      51.261  25.896  26.552  1.00  0.00     0.198 A 
ATOM     83  F   UNL A   1      49.701  25.905  28.314  1.00  0.00    -0.203 F 
ATOM     84  F   UNL A   1      50.915  26.913  23.091  1.00  0.00    -0.200 F 
ATOM     85  C   UNL A   1      51.578  26.149  25.225  1.00  0.00     0.200 A 
ATOM     86  F   UNL A   1      52.188  25.388  27.376  1.00  0.00    -0.200 F 
ATOM     87  F   UNL A   1      52.803  25.866  24.761  1.00  0.00    -0.200 F 
ENDBRANCH  53  77
BRANCH  65  88
ATOM     88  C   UNL A   1      46.049  32.401  28.960  1.00  0.00     0.064 A 
ATOM     89  C   UNL A   1      46.643  32.670  30.200  1.00  0.00     0.173 A 
ATOM     90  C   UNL A   1      46.007  33.434  28.011  1.00  0.00     0.173 A 
ATOM     91  F   UNL A   1      46.694  31.718  31.144  1.00  0.00    -0.203 F 
ATOM     92  C   UNL A   1      47.153  33.931  30.490  1.00  0.00     0.198 A 
ATOM     93  C   UNL A   1      46.544  34.687  28.294  1.00  0.00     0.198 A 
ATOM     94  F   UNL A   1      45.455  33.226  26.806  1.00  0.00    -0.203 F 
ATOM     95  F   UNL A   1      47.674  34.180  31.699  1.00  0.00    -0.200 F 
ATOM     96  C   UNL A   1      47.110  34.936  29.534  1.00  0.00     0.200 A 
ATOM     97  F   UNL A   1      46.515  35.652  27.363  1.00  0.00    -0.200 F 
ATOM     98  F   UNL A   1      47.608  36.149  29.813  1.00  0.00    -0.200 F 
ENDBRANCH  65  88
ENDBRANCH  39  40
ENDBRANCH  31  34
ENDBRANCH  29  30
ENDBRANCH  28  29
ENDBRANCH   1  28
TORSDOF 15
ENDMDL
MODEL 3
REMARK VINA RESULT:     -12.7      5.554      9.662
REMARK SMILES COc1ccccc1[C@@H]1CN(C(=O)Cc2csc(C)n2)C[C@H]1C(=O)NCCCNC(=O)c1ccc(-c2c3nc(c(-c4c(F)c(F)c(F)c(F)c4F)c4ccc([nH]4)c(-c4c(F)c(F)c(F)c(F)c4F)c4nc(c(-c5c(F)c(F)c(F)c(F)c5F)c5ccc2[nH]5)C=C4)C=C3)cc1
REMARK SMILES IDX 26 1 25 2 23 3 24 4 22 6 9 7 10 8 11 9 21 10 8 11 3 12 4 13
REMARK SMILES IDX 5 14 7 15 6 16 2 17 1 18 12 19 13 20 14 21 15 22 16 23 20 24
REMARK SMILES IDX 17 25 18 26 19 27 27 28 28 29 29 30 30 31 31 33 32 34 33 35
REMARK SMILES IDX 94 36 34 37 93 38 35 39 36 40 37 41 87 42 38 43 92 44 86 45
REMARK SMILES IDX 88 46 39 47 91 48 85 49 84 50 40 52 72 53 52 54 71 55 53 56
REMARK SMILES IDX 56 57 70 58 89 59 54 60 55 61 69 63 90 64 57 65 41 66 42 67
REMARK SMILES IDX 50 68 43 69 44 70 48 71 51 72 45 73 46 74 49 75 47 76 73 77
REMARK SMILES IDX 74 78 82 79 75 80 76 81 80 82 83 83 77 84 78 85 81 86 79 87
REMARK SMILES IDX 58 88 59 89 67 90 60 91 61 92 65 93 68 94 62 95 63 96 66 97
REMARK SMILES IDX 64 98
REMARK H PARENT 25 5 29 32 88 51 56 62
REMARK Flexibility Score: inf
ROOT
ATOM      1  C   UNL A   1      34.052  29.721  27.111  1.00  0.00     0.117 C 
ENDROOT
BRANCH   1   2
ATOM      2  N   UNL A   1      32.991  29.001  27.792  1.00  0.00    -0.356 N 
ATOM      3  C   UNL A   1      32.156  28.016  27.375  1.00  0.00     0.225 C 
ATOM      4  O   UNL A   1      31.310  27.623  28.184  1.00  0.00    -0.275 OA
ATOM      5  H   UNL A   1      32.852  29.278  28.727  1.00  0.00     0.163 HD
BRANCH   3   6
ATOM      6  C   UNL A   1      32.229  27.406  25.990  1.00  0.00     0.107 C 
ATOM      7  C   UNL A   1      31.710  25.958  25.908  1.00  0.00     0.057 C 
ATOM      8  C   UNL A   1      30.948  25.888  24.587  1.00  0.00     0.128 C 
ATOM      9  N   UNL A   1      30.546  27.258  24.315  1.00  0.00    -0.341 N 
ATOM     10  C   UNL A   1      31.440  28.205  24.956  1.00  0.00     0.133 C 
BRANCH   7  11
ATOM     11  C   UNL A   1      32.756  24.878  26.116  1.00  0.00    -0.000 A 
ATOM     12  C   UNL A   1      32.550  23.676  26.818  1.00  0.00     0.122 A 
ATOM     13  C   UNL A   1      33.586  22.748  26.973  1.00  0.00     0.047 A 
ATOM     14  C   UNL A   1      34.847  23.001  26.437  1.00  0.00     0.004 A 
ATOM     15  C   UNL A   1      34.042  25.110  25.584  1.00  0.00     0.008 A 
ATOM     16  C   UNL A   1      35.078  24.189  25.753  1.00  0.00     0.001 A 
BRANCH  12  17
ATOM     17  O   UNL A   1      31.414  23.438  27.543  1.00  0.00    -0.496 OA
ATOM     18  C   UNL A   1      30.349  22.883  26.779  1.00  0.00     0.278 C 
ENDBRANCH  12  17
ENDBRANCH   7  11
BRANCH   9  19
ATOM     19  C   UNL A   1      29.592  27.682  23.410  1.00  0.00     0.228 C 
ATOM     20  O   UNL A   1      28.429  27.270  23.472  1.00  0.00    -0.274 OA
BRANCH  19  21
ATOM     21  C   UNL A   1      30.026  28.588  22.271  1.00  0.00     0.157 C 
BRANCH  21  22
ATOM     22  C   UNL A   1      29.433  29.960  22.312  1.00  0.00     0.061 A 
ATOM     23  C   UNL A   1      29.197  30.708  23.452  1.00  0.00     0.091 A 
ATOM     24  N   UNL A   1      29.009  30.571  21.145  1.00  0.00    -0.246 NA
ATOM     25  S   UNL A   1      28.386  32.166  23.054  1.00  0.00    -0.127 S 
ATOM     26  C   UNL A   1      28.399  31.706  21.402  1.00  0.00     0.090 A 
ATOM     27  C   UNL A   1      27.736  32.546  20.370  1.00  0.00     0.079 C 
ENDBRANCH  21  22
ENDBRANCH  19  21
ENDBRANCH   9  19
ENDBRANCH   3   6
ENDBRANCH   1   2
BRANCH   1  28
ATOM     28  C   UNL A   1      33.553  31.026  26.510  1.00  0.00     0.042 C 
BRANCH  28  29
ATOM     29  C   UNL A   1      32.499  31.718  27.361  1.00  0.00     0.118 C 
BRANCH  29  30
ATOM     30  N   UNL A   1      32.653  33.165  27.367  1.00  0.00    -0.352 N 
ATOM     31  C   UNL A   1      33.530  33.953  28.070  1.00  0.00     0.251 C 
ATOM     32  H   UNL A   1      32.034  33.653  26.777  1.00  0.00     0.163 HD
ATOM     33  O   UNL A   1      33.365  35.166  28.117  1.00  0.00    -0.269 OA
BRANCH  31  34
ATOM     34  C   UNL A   1      34.665  33.333  28.783  1.00  0.00     0.039 A 
ATOM     35  C   UNL A   1      34.403  32.461  29.843  1.00  0.00     0.014 A 
ATOM     36  C   UNL A   1      35.981  33.620  28.415  1.00  0.00     0.014 A 
ATOM     37  C   UNL A   1      35.465  31.830  30.493  1.00  0.00     0.010 A 
ATOM     38  C   UNL A   1      37.030  32.919  28.996  1.00  0.00     0.010 A 
ATOM     39  C   UNL A   1      36.783  32.028  30.051  1.00  0.00    -0.014 A 
BRANCH  39  40
ATOM     40  C   UNL A   1      37.926  31.336  30.694  1.00  0.00     0.031 A 
ATOM     41  C   UNL A   1      38.318  31.688  32.103  1.00  0.00     0.074 A 
ATOM     42  C   UNL A   1      38.650  30.447  29.988  1.00  0.00     0.049 A 
ATOM     43  N   UNL A   1      39.332  31.263  32.812  1.00  0.00    -0.248 NA
ATOM     44  C   UNL A   1      37.476  32.679  32.795  1.00  0.00     0.031 C 
ATOM     45  C   UNL A   1      38.401  30.066  28.598  1.00  0.00     0.029 A 
ATOM     46  N   UNL A   1      39.754  29.712  30.342  1.00  0.00    -0.354 N 
ATOM     47  C   UNL A   1      39.259  31.947  34.019  1.00  0.00     0.074 A 
ATOM     48  C   UNL A   1      38.141  32.858  33.925  1.00  0.00     0.031 C 
ATOM     49  C   UNL A   1      39.308  29.150  28.224  1.00  0.00     0.029 A 
ATOM     50  C   UNL A   1      40.225  28.907  29.333  1.00  0.00     0.049 A 
ATOM     51  H   UNL A   1      40.167  29.756  31.234  1.00  0.00     0.167 HD
ATOM     52  C   UNL A   1      40.040  31.807  35.116  1.00  0.00     0.037 A 
ATOM     53  C   UNL A   1      41.280  28.073  29.309  1.00  0.00     0.037 A 
ATOM     54  C   UNL A   1      41.129  30.872  35.216  1.00  0.00     0.049 A 
ATOM     55  C   UNL A   1      42.123  27.925  30.546  1.00  0.00     0.074 A 
ATOM     56  C   UNL A   1      41.941  30.604  36.303  1.00  0.00     0.029 A 
ATOM     57  N   UNL A   1      41.556  30.050  34.183  1.00  0.00    -0.354 N 
ATOM     58  N   UNL A   1      42.005  28.525  31.705  1.00  0.00    -0.248 NA
ATOM     59  C   UNL A   1      43.243  26.976  30.474  1.00  0.00     0.031 C 
ATOM     60  C   UNL A   1      42.887  29.649  35.917  1.00  0.00     0.029 A 
ATOM     61  C   UNL A   1      42.633  29.287  34.603  1.00  0.00     0.049 A 
ATOM     62  H   UNL A   1      41.154  30.014  33.285  1.00  0.00     0.167 HD
ATOM     63  C   UNL A   1      43.013  28.009  32.509  1.00  0.00     0.074 A 
ATOM     64  C   UNL A   1      43.724  27.035  31.707  1.00  0.00     0.031 C 
ATOM     65  C   UNL A   1      43.322  28.315  33.792  1.00  0.00     0.037 A 
BRANCH  52  66
ATOM     66  C   UNL A   1      39.735  32.678  36.300  1.00  0.00     0.064 A 
ATOM     67  C   UNL A   1      40.426  33.878  36.529  1.00  0.00     0.173 A 
ATOM     68  C   UNL A   1      38.721  32.325  37.202  1.00  0.00     0.173 A 
ATOM     69  F   UNL A   1      41.415  34.256  35.705  1.00  0.00    -0.203 F 
ATOM     70  C   UNL A   1      40.136  34.674  37.634  1.00  0.00     0.198 A 
ATOM     71  C   UNL A   1      38.411  33.139  38.290  1.00  0.00     0.198 A 
ATOM     72  F   UNL A   1      38.025  31.191  37.029  1.00  0.00    -0.203 F 
ATOM     73  F   UNL A   1      40.848  35.787  37.862  1.00  0.00    -0.200 F 
ATOM     74  C   UNL A   1      39.124  34.308  38.509  1.00  0.00     0.200 A 
ATOM     75  F   UNL A   1      37.424  32.790  39.127  1.00  0.00    -0.200 F 
ATOM     76  F   UNL A   1      38.842  35.078  39.569  1.00  0.00    -0.200 F 
ENDBRANCH  52  66
BRANCH  53  77
ATOM     77  C   UNL A   1      41.579  27.292  28.081  1.00  0.00     0.064 A 
ATOM     78  C   UNL A   1      41.039  26.012  27.894  1.00  0.00     0.173 A 
ATOM     79  C   UNL A   1      42.407  27.804  27.071  1.00  0.00     0.173 A 
ATOM     80  F   UNL A   1      40.256  25.472  28.840  1.00  0.00    -0.203 F 
ATOM     81  C   UNL A   1      41.330  25.265  26.754  1.00  0.00     0.198 A 
ATOM     82  C   UNL A   1      42.675  27.068  25.919  1.00  0.00     0.198 A 
ATOM     83  F   UNL A   1      42.942  29.026  27.197  1.00  0.00    -0.203 F 
ATOM     84  F   UNL A   1      40.835  24.027  26.622  1.00  0.00    -0.200 F 
ATOM     85  C   UNL A   1      42.143  25.796  25.765  1.00  0.00     0.200 A 
ATOM     86  F   UNL A   1      43.449  27.591  24.958  1.00  0.00    -0.200 F 
ATOM     87  F   UNL A   1      42.420  25.081  24.666  1.00  0.00    -0.200 F 
ENDBRANCH  53  77
BRANCH  65  88
ATOM     88  C   UNL A   1      44.459  27.563  34.421  1.00  0.00     0.064 A 
ATOM     89  C   UNL A   1      45.763  28.076  34.434  1.00  0.00     0.173 A 
ATOM     90  C   UNL A   1      44.228  26.332  35.054  1.00  0.00     0.173 A 
ATOM     91  F   UNL A   1      46.036  29.242  33.829  1.00  0.00    -0.203 F 
ATOM     92  C   UNL A   1      46.802  27.372  35.036  1.00  0.00     0.198 A 
ATOM     93  C   UNL A   1      45.263  25.645  35.681  1.00  0.00     0.198 A 
ATOM     94  F   UNL A   1      42.996  25.802  35.076  1.00  0.00    -0.203 F 
ATOM     95  F   UNL A   1      48.050  27.858  34.995  1.00  0.00    -0.200 F 
ATOM     96  C   UNL A   1      46.549  26.162  35.665  1.00  0.00     0.200 A 
ATOM     97  F   UNL A   1      45.015  24.483  36.302  1.00  0.00    -0.200 F 
ATOM     98  F   UNL A   1      47.550  25.489  36.251  1.00  0.00    -0.200 F 
ENDBRANCH  65  88
ENDBRANCH  39  40
ENDBRANCH  31  34
ENDBRANCH  29  30
ENDBRANCH  28  29
ENDBRANCH   1  28
TORSDOF 15
ENDMDL
