MODEL 1
REMARK VINA RESULT:     -12.8      0.000      0.000
REMARK SMILES C[C@]1(C(=O)Nc2ccc(C(=O)NCCCNC(=O)c3ccc(-c4c5nc(c(-c6c(F)c(F)c(F)c(F)c6F)c6ccc([nH]6)c(-c6c(F)c(F)c(F)c(F)c6F)c6nc(c(-c7c(F)c(F)c(F)c(F)c7F)c7ccc4[nH]7)C=C6)C=C5)cc3)c(O)c2)CCCO1
REMARK SMILES IDX 14 1 13 2 12 3 10 4 11 5 9 7 6 8 7 9 84 10 8 11 82 12 5 13
REMARK SMILES IDX 3 14 4 15 2 17 1 18 85 19 88 20 86 21 87 22 83 23 15 25
REMARK SMILES IDX 16 26 17 27 18 29 19 30 20 31 81 32 21 33 80 34 22 35 23 36
REMARK SMILES IDX 24 37 74 38 25 39 79 40 73 41 75 42 26 43 78 44 72 45 71 46
REMARK SMILES IDX 27 48 59 49 39 50 58 51 40 52 43 53 57 54 76 55 41 56 42 57
REMARK SMILES IDX 56 59 77 60 44 61 28 62 29 63 37 64 30 65 31 66 35 67 38 68
REMARK SMILES IDX 32 69 33 70 36 71 34 72 60 73 61 74 69 75 62 76 63 77 67 78
REMARK SMILES IDX 70 79 64 80 65 81 68 82 66 83 45 84 46 85 54 86 47 87 48 88
REMARK SMILES IDX 52 89 55 90 49 91 50 92 53 93 51 94
REMARK H PARENT 12 6 5 16 83 24 16 28 75 47 43 58
REMARK Flexibility Score: inf
ROOT
ATOM      1  C   UNL A   1      31.477  32.337  26.704  1.00  0.00     0.042 C 
ENDROOT
BRANCH   1   2
ATOM      2  C   UNL A   1      31.661  30.849  26.454  1.00  0.00     0.118 C 
BRANCH   2   3
ATOM      3  N   UNL A   1      31.200  30.388  25.154  1.00  0.00    -0.352 N 
ATOM      4  C   UNL A   1      31.303  29.170  24.530  1.00  0.00     0.255 C 
ATOM      5  O   UNL A   1      30.799  29.054  23.414  1.00  0.00    -0.269 OA
ATOM      6  H   UNL A   1      30.730  31.073  24.626  1.00  0.00     0.163 HD
BRANCH   4   7
ATOM      7  C   UNL A   1      32.062  28.031  25.107  1.00  0.00     0.081 A 
ATOM      8  C   UNL A   1      33.139  25.577  25.951  1.00  0.00     0.045 A 
ATOM      9  C   UNL A   1      31.891  25.984  26.404  1.00  0.00     0.027 A 
ATOM     10  C   UNL A   1      33.932  26.494  25.259  1.00  0.00     0.073 A 
ATOM     11  C   UNL A   1      31.338  27.184  25.957  1.00  0.00     0.020 A 
ATOM     12  C   UNL A   1      33.405  27.730  24.874  1.00  0.00     0.130 A 
BRANCH   8  13
ATOM     13  N   UNL A   1      33.657  24.294  26.161  1.00  0.00    -0.323 N 
ATOM     14  C   UNL A   1      33.421  23.095  25.538  1.00  0.00     0.256 C 
ATOM     15  O   UNL A   1      34.014  22.120  26.021  1.00  0.00    -0.271 OA
ATOM     16  H   UNL A   1      34.313  24.242  26.895  1.00  0.00     0.170 HD
BRANCH  14  17
ATOM     17  C   UNL A   1      32.564  22.953  24.233  1.00  0.00     0.144 C 
ATOM     18  C   UNL A   1      32.655  21.537  23.632  1.00  0.00     0.053 C 
ATOM     19  C   UNL A   1      31.083  23.269  24.531  1.00  0.00     0.048 C 
ATOM     20  O   UNL A   1      32.941  23.909  23.223  1.00  0.00    -0.365 OA
ATOM     21  C   UNL A   1      30.589  23.845  23.226  1.00  0.00     0.032 C 
ATOM     22  C   UNL A   1      31.791  24.641  22.787  1.00  0.00     0.162 C 
ENDBRANCH  14  17
ENDBRANCH   8  13
BRANCH  12  23
ATOM     23  O   UNL A   1      34.290  28.594  24.295  1.00  0.00    -0.507 OA
ATOM     24  H   UNL A   1      35.100  28.274  23.950  1.00  0.00     0.293 HD
ENDBRANCH  12  23
ENDBRANCH   4   7
ENDBRANCH   2   3
ENDBRANCH   1   2
BRANCH   1  25
ATOM     25  C   UNL A   1      32.699  33.067  27.243  1.00  0.00     0.118 C 
BRANCH  25  26
ATOM     26  N   UNL A   1      32.426  34.417  27.721  1.00  0.00    -0.352 N 
ATOM     27  C   UNL A   1      33.004  35.162  28.723  1.00  0.00     0.251 C 
ATOM     28  H   UNL A   1      31.699  34.877  27.243  1.00  0.00     0.163 HD
ATOM     29  O   UNL A   1      32.522  36.254  29.017  1.00  0.00    -0.269 OA
BRANCH  27  30
ATOM     30  C   UNL A   1      34.170  34.655  29.480  1.00  0.00     0.039 A 
ATOM     31  C   UNL A   1      33.974  34.124  30.759  1.00  0.00     0.014 A 
ATOM     32  C   UNL A   1      35.458  34.699  28.948  1.00  0.00     0.014 A 
ATOM     33  C   UNL A   1      35.048  33.558  31.455  1.00  0.00     0.010 A 
ATOM     34  C   UNL A   1      36.494  34.021  29.578  1.00  0.00     0.010 A 
ATOM     35  C   UNL A   1      36.309  33.454  30.846  1.00  0.00    -0.014 A 
BRANCH  35  36
ATOM     36  C   UNL A   1      37.459  32.795  31.522  1.00  0.00     0.031 A 
ATOM     37  C   UNL A   1      38.158  31.638  30.854  1.00  0.00     0.074 A 
ATOM     38  C   UNL A   1      37.826  33.176  32.762  1.00  0.00     0.049 A 
ATOM     39  N   UNL A   1      39.099  30.854  31.319  1.00  0.00    -0.248 NA
ATOM     40  C   UNL A   1      37.709  31.289  29.496  1.00  0.00     0.031 C 
ATOM     41  C   UNL A   1      37.199  34.246  33.541  1.00  0.00     0.029 A 
ATOM     42  N   UNL A   1      38.809  32.698  33.592  1.00  0.00    -0.354 N 
ATOM     43  C   UNL A   1      39.330  29.912  30.324  1.00  0.00     0.074 A 
ATOM     44  C   UNL A   1      38.384  30.175  29.262  1.00  0.00     0.031 C 
ATOM     45  C   UNL A   1      37.834  34.364  34.718  1.00  0.00     0.029 A 
ATOM     46  C   UNL A   1      38.880  33.349  34.799  1.00  0.00     0.049 A 
ATOM     47  H   UNL A   1      39.408  31.956  33.344  1.00  0.00     0.167 HD
ATOM     48  C   UNL A   1      40.271  28.940  30.279  1.00  0.00     0.037 A 
ATOM     49  C   UNL A   1      39.693  33.147  35.854  1.00  0.00     0.037 A 
ATOM     50  C   UNL A   1      41.237  28.705  31.318  1.00  0.00     0.049 A 
ATOM     51  C   UNL A   1      40.729  32.055  35.782  1.00  0.00     0.074 A 
ATOM     52  C   UNL A   1      42.268  27.783  31.348  1.00  0.00     0.029 A 
ATOM     53  N   UNL A   1      41.294  29.407  32.513  1.00  0.00    -0.354 N 
ATOM     54  N   UNL A   1      40.979  31.213  34.809  1.00  0.00    -0.248 NA
ATOM     55  C   UNL A   1      41.599  31.891  36.955  1.00  0.00     0.031 C 
ATOM     56  C   UNL A   1      42.917  27.894  32.581  1.00  0.00     0.029 A 
ATOM     57  C   UNL A   1      42.331  28.925  33.296  1.00  0.00     0.049 A 
ATOM     58  H   UNL A   1      40.687  30.139  32.769  1.00  0.00     0.167 HD
ATOM     59  C   UNL A   1      42.058  30.448  35.234  1.00  0.00     0.074 A 
ATOM     60  C   UNL A   1      42.420  30.934  36.549  1.00  0.00     0.031 C 
ATOM     61  C   UNL A   1      42.691  29.435  34.594  1.00  0.00     0.037 A 
BRANCH  48  62
ATOM     62  C   UNL A   1      40.306  28.063  29.059  1.00  0.00     0.064 A 
ATOM     63  C   UNL A   1      41.065  28.404  27.928  1.00  0.00     0.173 A 
ATOM     64  C   UNL A   1      39.596  26.853  29.028  1.00  0.00     0.173 A 
ATOM     65  F   UNL A   1      41.753  29.556  27.899  1.00  0.00    -0.203 F 
ATOM     66  C   UNL A   1      41.081  27.589  26.799  1.00  0.00     0.198 A 
ATOM     67  C   UNL A   1      39.644  26.021  27.912  1.00  0.00     0.198 A 
ATOM     68  F   UNL A   1      38.859  26.473  30.082  1.00  0.00    -0.203 F 
ATOM     69  F   UNL A   1      41.764  27.968  25.711  1.00  0.00    -0.200 F 
ATOM     70  C   UNL A   1      40.378  26.394  26.795  1.00  0.00     0.200 A 
ATOM     71  F   UNL A   1      38.975  24.860  27.914  1.00  0.00    -0.200 F 
ATOM     72  F   UNL A   1      40.400  25.606  25.711  1.00  0.00    -0.200 F 
ENDBRANCH  48  62
BRANCH  49  73
ATOM     73  C   UNL A   1      39.586  34.013  37.059  1.00  0.00     0.064 A 
ATOM     74  C   UNL A   1      38.834  33.608  38.171  1.00  0.00     0.173 A 
ATOM     75  C   UNL A   1      40.214  35.266  37.120  1.00  0.00     0.173 A 
ATOM     76  F   UNL A   1      38.197  32.428  38.153  1.00  0.00    -0.203 F 
ATOM     77  C   UNL A   1      38.689  34.434  39.284  1.00  0.00     0.198 A 
ATOM     78  C   UNL A   1      40.095  36.076  38.248  1.00  0.00     0.198 A 
ATOM     79  F   UNL A   1      40.952  35.700  36.088  1.00  0.00    -0.203 F 
ATOM     80  F   UNL A   1      37.918  34.043  40.308  1.00  0.00    -0.200 F 
ATOM     81  C   UNL A   1      39.324  35.665  39.324  1.00  0.00     0.200 A 
ATOM     82  F   UNL A   1      40.724  37.259  38.289  1.00  0.00    -0.200 F 
ATOM     83  F   UNL A   1      39.185  36.458  40.395  1.00  0.00    -0.200 F 
ENDBRANCH  49  73
BRANCH  61  84
ATOM     84  C   UNL A   1      43.877  28.818  35.278  1.00  0.00     0.064 A 
ATOM     85  C   UNL A   1      45.181  29.287  35.065  1.00  0.00     0.173 A 
ATOM     86  C   UNL A   1      43.697  27.772  36.196  1.00  0.00     0.173 A 
ATOM     87  F   UNL A   1      45.409  30.276  34.188  1.00  0.00    -0.203 F 
ATOM     88  C   UNL A   1      46.265  28.710  35.723  1.00  0.00     0.198 A 
ATOM     89  C   UNL A   1      44.778  27.221  36.878  1.00  0.00     0.198 A 
ATOM     90  F   UNL A   1      42.468  27.293  36.444  1.00  0.00    -0.203 F 
ATOM     91  F   UNL A   1      47.508  29.139  35.464  1.00  0.00    -0.200 F 
ATOM     92  C   UNL A   1      46.061  27.685  36.634  1.00  0.00     0.200 A 
ATOM     93  F   UNL A   1      44.577  26.242  37.770  1.00  0.00    -0.200 F 
ATOM     94  F   UNL A   1      47.105  27.138  37.273  1.00  0.00    -0.200 F 
ENDBRANCH  61  84
ENDBRANCH  35  36
ENDBRANCH  27  30
ENDBRANCH  25  26
ENDBRANCH   1  25
TORSDOF 13
ENDMDL
MODEL 2
REMARK VINA RESULT:     -12.8      0.090      1.604
REMARK SMILES C[C@]1(C(=O)Nc2ccc(C(=O)NCCCNC(=O)c3ccc(-c4c5nc(c(-c6c(F)c(F)c(F)c(F)c6F)c6ccc([nH]6)c(-c6c(F)c(F)c(F)c(F)c6F)c6nc(c(-c7c(F)c(F)c(F)c(F)c7F)c7ccc4[nH]7)C=C6)C=C5)cc3)c(O)c2)CCCO1
REMARK SMILES IDX 14 1 13 2 12 3 10 4 11 5 9 7 6 8 7 9 84 10 8 11 82 12 5 13
REMARK SMILES IDX 3 14 4 15 2 17 1 18 85 19 88 20 86 21 87 22 83 23 15 25
REMARK SMILES IDX 16 26 17 27 18 29 19 30 20 31 81 32 21 33 80 34 22 35 23 36
REMARK SMILES IDX 24 37 74 38 25 39 79 40 73 41 75 42 26 43 78 44 72 45 71 46
REMARK SMILES IDX 27 48 59 49 39 50 58 51 40 52 43 53 57 54 76 55 41 56 42 57
REMARK SMILES IDX 56 59 77 60 44 61 28 62 29 63 37 64 30 65 31 66 35 67 38 68
REMARK SMILES IDX 32 69 33 70 36 71 34 72 60 73 61 74 69 75 62 76 63 77 67 78
REMARK SMILES IDX 70 79 64 80 65 81 68 82 66 83 45 84 46 85 54 86 47 87 48 88
REMARK SMILES IDX 52 89 55 90 49 91 50 92 53 93 51 94
REMARK H PARENT 12 6 5 16 83 24 16 28 75 47 43 58
REMARK Flexibility Score: inf
ROOT
ATOM      1  C   UNL A   1      31.418  32.332  26.535  1.00  0.00     0.042 C 
ENDROOT
BRANCH   1   2
ATOM      2  C   UNL A   1      31.496  30.825  26.347  1.00  0.00     0.118 C 
BRANCH   2   3
ATOM      3  N   UNL A   1      31.144  30.358  25.016  1.00  0.00    -0.352 N 
ATOM      4  C   UNL A   1      31.331  29.148  24.396  1.00  0.00     0.255 C 
ATOM      5  O   UNL A   1      30.910  29.023  23.247  1.00  0.00    -0.269 OA
ATOM      6  H   UNL A   1      30.689  31.031  24.459  1.00  0.00     0.163 HD
BRANCH   4   7
ATOM      7  C   UNL A   1      32.085  28.031  25.020  1.00  0.00     0.081 A 
ATOM      8  C   UNL A   1      33.158  25.610  25.958  1.00  0.00     0.045 A 
ATOM      9  C   UNL A   1      31.902  26.026  26.379  1.00  0.00     0.027 A 
ATOM     10  C   UNL A   1      33.958  26.508  25.248  1.00  0.00     0.073 A 
ATOM     11  C   UNL A   1      31.351  27.209  25.886  1.00  0.00     0.020 A 
ATOM     12  C   UNL A   1      33.432  27.728  24.816  1.00  0.00     0.130 A 
BRANCH   8  13
ATOM     13  N   UNL A   1      33.677  24.336  26.217  1.00  0.00    -0.323 N 
ATOM     14  C   UNL A   1      33.455  23.117  25.629  1.00  0.00     0.256 C 
ATOM     15  O   UNL A   1      34.044  22.161  26.152  1.00  0.00    -0.271 OA
ATOM     16  H   UNL A   1      34.322  24.311  26.961  1.00  0.00     0.170 HD
BRANCH  14  17
ATOM     17  C   UNL A   1      32.617  22.930  24.318  1.00  0.00     0.144 C 
ATOM     18  C   UNL A   1      32.719  21.495  23.765  1.00  0.00     0.053 C 
ATOM     19  C   UNL A   1      31.131  23.252  24.583  1.00  0.00     0.048 C 
ATOM     20  O   UNL A   1      33.007  23.852  23.281  1.00  0.00    -0.365 OA
ATOM     21  C   UNL A   1      30.655  23.784  23.252  1.00  0.00     0.032 C 
ATOM     22  C   UNL A   1      31.862  24.567  22.805  1.00  0.00     0.162 C 
ENDBRANCH  14  17
ENDBRANCH   8  13
BRANCH  12  23
ATOM     23  O   UNL A   1      34.323  28.577  24.223  1.00  0.00    -0.507 OA
ATOM     24  H   UNL A   1      34.427  29.450  24.549  1.00  0.00     0.293 HD
ENDBRANCH  12  23
ENDBRANCH   4   7
ENDBRANCH   2   3
ENDBRANCH   1   2
BRANCH   1  25
ATOM     25  C   UNL A   1      32.579  32.961  27.291  1.00  0.00     0.118 C 
BRANCH  25  26
ATOM     26  N   UNL A   1      32.344  34.336  27.712  1.00  0.00    -0.352 N 
ATOM     27  C   UNL A   1      32.959  35.114  28.667  1.00  0.00     0.251 C 
ATOM     28  H   UNL A   1      31.618  34.790  27.227  1.00  0.00     0.163 HD
ATOM     29  O   UNL A   1      32.505  36.229  28.919  1.00  0.00    -0.269 OA
BRANCH  27  30
ATOM     30  C   UNL A   1      34.129  34.616  29.424  1.00  0.00     0.039 A 
ATOM     31  C   UNL A   1      33.944  34.130  30.722  1.00  0.00     0.014 A 
ATOM     32  C   UNL A   1      35.409  34.627  28.874  1.00  0.00     0.014 A 
ATOM     33  C   UNL A   1      35.020  33.573  31.421  1.00  0.00     0.010 A 
ATOM     34  C   UNL A   1      36.445  33.957  29.511  1.00  0.00     0.010 A 
ATOM     35  C   UNL A   1      36.271  33.433  30.799  1.00  0.00    -0.014 A 
BRANCH  35  36
ATOM     36  C   UNL A   1      37.422  32.782  31.481  1.00  0.00     0.031 A 
ATOM     37  C   UNL A   1      38.126  31.624  30.820  1.00  0.00     0.074 A 
ATOM     38  C   UNL A   1      37.785  33.170  32.719  1.00  0.00     0.049 A 
ATOM     39  N   UNL A   1      39.069  30.845  31.290  1.00  0.00    -0.248 NA
ATOM     40  C   UNL A   1      37.682  31.267  29.463  1.00  0.00     0.031 C 
ATOM     41  C   UNL A   1      37.153  34.241  33.492  1.00  0.00     0.029 A 
ATOM     42  N   UNL A   1      38.768  32.699  33.554  1.00  0.00    -0.354 N 
ATOM     43  C   UNL A   1      39.306  29.900  30.300  1.00  0.00     0.074 A 
ATOM     44  C   UNL A   1      38.362  30.154  29.236  1.00  0.00     0.031 C 
ATOM     45  C   UNL A   1      37.785  34.367  34.670  1.00  0.00     0.029 A 
ATOM     46  C   UNL A   1      38.835  33.357  34.758  1.00  0.00     0.049 A 
ATOM     47  H   UNL A   1      39.371  31.959  33.311  1.00  0.00     0.167 HD
ATOM     48  C   UNL A   1      40.251  28.931  30.262  1.00  0.00     0.037 A 
ATOM     49  C   UNL A   1      39.646  33.163  35.816  1.00  0.00     0.037 A 
ATOM     50  C   UNL A   1      41.215  28.705  31.304  1.00  0.00     0.049 A 
ATOM     51  C   UNL A   1      40.686  32.074  35.751  1.00  0.00     0.074 A 
ATOM     52  C   UNL A   1      42.250  27.786  31.340  1.00  0.00     0.029 A 
ATOM     53  N   UNL A   1      41.267  29.413  32.496  1.00  0.00    -0.354 N 
ATOM     54  N   UNL A   1      40.942  31.229  34.782  1.00  0.00    -0.248 NA
ATOM     55  C   UNL A   1      41.555  31.919  36.926  1.00  0.00     0.031 C 
ATOM     56  C   UNL A   1      42.896  27.905  32.574  1.00  0.00     0.029 A 
ATOM     57  C   UNL A   1      42.304  28.938  33.283  1.00  0.00     0.049 A 
ATOM     58  H   UNL A   1      40.657  30.144  32.747  1.00  0.00     0.167 HD
ATOM     59  C   UNL A   1      42.022  30.469  35.213  1.00  0.00     0.074 A 
ATOM     60  C   UNL A   1      42.380  30.963  36.527  1.00  0.00     0.031 C 
ATOM     61  C   UNL A   1      42.660  29.456  34.579  1.00  0.00     0.037 A 
BRANCH  48  62
ATOM     62  C   UNL A   1      40.292  28.048  29.046  1.00  0.00     0.064 A 
ATOM     63  C   UNL A   1      41.044  28.391  27.912  1.00  0.00     0.173 A 
ATOM     64  C   UNL A   1      39.593  26.831  29.023  1.00  0.00     0.173 A 
ATOM     65  F   UNL A   1      41.721  29.550  27.875  1.00  0.00    -0.203 F 
ATOM     66  C   UNL A   1      41.065  27.570  26.787  1.00  0.00     0.198 A 
ATOM     67  C   UNL A   1      39.646  25.994  27.911  1.00  0.00     0.198 A 
ATOM     68  F   UNL A   1      38.863  26.449  30.080  1.00  0.00    -0.203 F 
ATOM     69  F   UNL A   1      41.742  27.951  25.695  1.00  0.00    -0.200 F 
ATOM     70  C   UNL A   1      40.374  26.369  26.791  1.00  0.00     0.200 A 
ATOM     71  F   UNL A   1      38.989  24.827  27.921  1.00  0.00    -0.200 F 
ATOM     72  F   UNL A   1      40.401  25.576  25.711  1.00  0.00    -0.200 F 
ENDBRANCH  48  62
BRANCH  49  73
ATOM     73  C   UNL A   1      39.534  34.034  37.015  1.00  0.00     0.064 A 
ATOM     74  C   UNL A   1      40.172  35.283  37.059  1.00  0.00     0.173 A 
ATOM     75  C   UNL A   1      38.808  33.637  38.148  1.00  0.00     0.173 A 
ATOM     76  F   UNL A   1      40.897  35.701  36.010  1.00  0.00    -0.203 F 
ATOM     77  C   UNL A   1      40.113  36.085  38.197  1.00  0.00     0.198 A 
ATOM     78  C   UNL A   1      38.723  34.455  39.273  1.00  0.00     0.198 A 
ATOM     79  F   UNL A   1      38.172  32.456  38.158  1.00  0.00    -0.203 F 
ATOM     80  F   UNL A   1      40.780  37.247  38.229  1.00  0.00    -0.200 F 
ATOM     81  C   UNL A   1      39.384  35.672  39.301  1.00  0.00     0.200 A 
ATOM     82  F   UNL A   1      38.003  34.059  40.332  1.00  0.00    -0.200 F 
ATOM     83  F   UNL A   1      39.327  36.445  40.395  1.00  0.00    -0.200 F 
ENDBRANCH  49  73
BRANCH  61  84
ATOM     84  C   UNL A   1      43.847  28.847  35.269  1.00  0.00     0.064 A 
ATOM     85  C   UNL A   1      43.712  27.789  36.179  1.00  0.00     0.173 A 
ATOM     86  C   UNL A   1      45.142  29.302  34.977  1.00  0.00     0.173 A 
ATOM     87  F   UNL A   1      42.496  27.325  36.502  1.00  0.00    -0.203 F 
ATOM     88  C   UNL A   1      44.829  27.229  36.795  1.00  0.00     0.198 A 
ATOM     89  C   UNL A   1      46.258  28.717  35.569  1.00  0.00     0.198 A 
ATOM     90  F   UNL A   1      45.327  30.306  34.106  1.00  0.00    -0.203 F 
ATOM     91  F   UNL A   1      44.673  26.253  37.701  1.00  0.00    -0.200 F 
ATOM     92  C   UNL A   1      46.100  27.687  36.482  1.00  0.00     0.200 A 
ATOM     93  F   UNL A   1      47.486  29.150  35.253  1.00  0.00    -0.200 F 
ATOM     94  F   UNL A   1      47.174  27.140  37.069  1.00  0.00    -0.200 F 
ENDBRANCH  61  84
ENDBRANCH  35  36
ENDBRANCH  27  30
ENDBRANCH  25  26
ENDBRANCH   1  25
TORSDOF 13
ENDMDL
MODEL 3
REMARK VINA RESULT:     -12.7      0.861      1.238
REMARK SMILES C[C@]1(C(=O)Nc2ccc(C(=O)NCCCNC(=O)c3ccc(-c4c5nc(c(-c6c(F)c(F)c(F)c(F)c6F)c6ccc([nH]6)c(-c6c(F)c(F)c(F)c(F)c6F)c6nc(c(-c7c(F)c(F)c(F)c(F)c7F)c7ccc4[nH]7)C=C6)C=C5)cc3)c(O)c2)CCCO1
REMARK SMILES IDX 14 1 13 2 12 3 10 4 11 5 9 7 6 8 7 9 84 10 8 11 82 12 5 13
REMARK SMILES IDX 3 14 4 15 2 17 1 18 85 19 88 20 86 21 87 22 83 23 15 25
REMARK SMILES IDX 16 26 17 27 18 29 19 30 20 31 81 32 21 33 80 34 22 35 23 36
REMARK SMILES IDX 24 37 74 38 25 39 79 40 73 41 75 42 26 43 78 44 72 45 71 46
REMARK SMILES IDX 27 48 59 49 39 50 58 51 40 52 43 53 57 54 76 55 41 56 42 57
REMARK SMILES IDX 56 59 77 60 44 61 28 62 29 63 37 64 30 65 31 66 35 67 38 68
REMARK SMILES IDX 32 69 33 70 36 71 34 72 60 73 61 74 69 75 62 76 63 77 67 78
REMARK SMILES IDX 70 79 64 80 65 81 68 82 66 83 45 84 46 85 54 86 47 87 48 88
REMARK SMILES IDX 52 89 55 90 49 91 50 92 53 93 51 94
REMARK H PARENT 12 6 5 16 83 24 16 28 75 47 43 58
REMARK Flexibility Score: inf
ROOT
ATOM      1  C   UNL A   1      31.328  32.112  26.523  1.00  0.00     0.042 C 
ENDROOT
BRANCH   1   2
ATOM      2  C   UNL A   1      31.548  30.696  26.014  1.00  0.00     0.118 C 
BRANCH   2   3
ATOM      3  N   UNL A   1      31.065  30.452  24.665  1.00  0.00    -0.352 N 
ATOM      4  C   UNL A   1      30.778  29.288  23.996  1.00  0.00     0.255 C 
ATOM      5  O   UNL A   1      30.362  29.378  22.842  1.00  0.00    -0.269 OA
ATOM      6  H   UNL A   1      30.917  31.268  24.134  1.00  0.00     0.163 HD
BRANCH   4   7
ATOM      7  C   UNL A   1      31.029  27.943  24.576  1.00  0.00     0.081 A 
ATOM      8  C   UNL A   1      31.577  25.665  26.126  1.00  0.00     0.045 A 
ATOM      9  C   UNL A   1      32.573  26.601  25.885  1.00  0.00     0.027 A 
ATOM     10  C   UNL A   1      30.382  25.760  25.411  1.00  0.00     0.073 A 
ATOM     11  C   UNL A   1      32.293  27.753  25.148  1.00  0.00     0.020 A 
ATOM     12  C   UNL A   1      30.128  26.877  24.611  1.00  0.00     0.130 A 
BRANCH   8  13
ATOM     13  N   UNL A   1      31.708  24.614  27.041  1.00  0.00    -0.323 N 
ATOM     14  C   UNL A   1      32.258  23.364  26.931  1.00  0.00     0.256 C 
ATOM     15  O   UNL A   1      32.152  22.646  27.935  1.00  0.00    -0.271 OA
ATOM     16  H   UNL A   1      31.334  24.811  27.931  1.00  0.00     0.170 HD
BRANCH  14  17
ATOM     17  C   UNL A   1      33.075  22.886  25.681  1.00  0.00     0.144 C 
ATOM     18  C   UNL A   1      34.468  23.542  25.613  1.00  0.00     0.053 C 
ATOM     19  C   UNL A   1      33.253  21.353  25.713  1.00  0.00     0.048 C 
ATOM     20  O   UNL A   1      32.383  23.143  24.443  1.00  0.00    -0.365 OA
ATOM     21  C   UNL A   1      33.301  20.985  24.250  1.00  0.00     0.032 C 
ATOM     22  C   UNL A   1      32.283  21.937  23.678  1.00  0.00     0.162 C 
ENDBRANCH  14  17
ENDBRANCH   8  13
BRANCH  12  23
ATOM     23  O   UNL A   1      28.979  26.826  23.873  1.00  0.00    -0.507 OA
ATOM     24  H   UNL A   1      28.325  26.184  24.069  1.00  0.00     0.293 HD
ENDBRANCH  12  23
ENDBRANCH   4   7
ENDBRANCH   2   3
ENDBRANCH   1   2
BRANCH   1  25
ATOM     25  C   UNL A   1      32.508  32.738  27.251  1.00  0.00     0.118 C 
BRANCH  25  26
ATOM     26  N   UNL A   1      32.311  34.135  27.619  1.00  0.00    -0.352 N 
ATOM     27  C   UNL A   1      32.951  34.933  28.540  1.00  0.00     0.251 C 
ATOM     28  H   UNL A   1      31.593  34.587  27.121  1.00  0.00     0.163 HD
ATOM     29  O   UNL A   1      32.527  36.068  28.751  1.00  0.00    -0.269 OA
BRANCH  27  30
ATOM     30  C   UNL A   1      34.113  34.435  29.309  1.00  0.00     0.039 A 
ATOM     31  C   UNL A   1      33.898  33.814  30.543  1.00  0.00     0.014 A 
ATOM     32  C   UNL A   1      35.415  34.578  28.833  1.00  0.00     0.014 A 
ATOM     33  C   UNL A   1      34.973  33.258  31.244  1.00  0.00     0.010 A 
ATOM     34  C   UNL A   1      36.461  33.912  29.460  1.00  0.00     0.010 A 
ATOM     35  C   UNL A   1      36.259  33.255  30.681  1.00  0.00    -0.014 A 
BRANCH  35  36
ATOM     36  C   UNL A   1      37.416  32.611  31.360  1.00  0.00     0.031 A 
ATOM     37  C   UNL A   1      38.138  31.470  30.689  1.00  0.00     0.074 A 
ATOM     38  C   UNL A   1      37.770  32.991  32.604  1.00  0.00     0.049 A 
ATOM     39  N   UNL A   1      39.089  30.698  31.154  1.00  0.00    -0.248 NA
ATOM     40  C   UNL A   1      37.702  31.122  29.327  1.00  0.00     0.031 C 
ATOM     41  C   UNL A   1      37.122  34.045  33.386  1.00  0.00     0.029 A 
ATOM     42  N   UNL A   1      38.756  32.524  33.436  1.00  0.00    -0.354 N 
ATOM     43  C   UNL A   1      39.341  29.767  30.155  1.00  0.00     0.074 A 
ATOM     44  C   UNL A   1      38.397  30.020  29.090  1.00  0.00     0.031 C 
ATOM     45  C   UNL A   1      37.747  34.167  34.567  1.00  0.00     0.029 A 
ATOM     46  C   UNL A   1      38.810  33.169  34.647  1.00  0.00     0.049 A 
ATOM     47  H   UNL A   1      39.369  31.793  33.188  1.00  0.00     0.167 HD
ATOM     48  C   UNL A   1      40.298  28.810  30.110  1.00  0.00     0.037 A 
ATOM     49  C   UNL A   1      39.620  32.974  35.707  1.00  0.00     0.037 A 
ATOM     50  C   UNL A   1      41.262  28.585  31.153  1.00  0.00     0.049 A 
ATOM     51  C   UNL A   1      40.674  31.900  35.634  1.00  0.00     0.074 A 
ATOM     52  C   UNL A   1      42.307  27.680  31.183  1.00  0.00     0.029 A 
ATOM     53  N   UNL A   1      41.300  29.281  32.353  1.00  0.00    -0.354 N 
ATOM     54  N   UNL A   1      40.944  31.068  34.656  1.00  0.00    -0.248 NA
ATOM     55  C   UNL A   1      41.541  31.743  36.810  1.00  0.00     0.031 C 
ATOM     56  C   UNL A   1      42.948  27.794  32.420  1.00  0.00     0.029 A 
ATOM     57  C   UNL A   1      42.341  28.811  33.138  1.00  0.00     0.049 A 
ATOM     58  H   UNL A   1      40.680  30.001  32.609  1.00  0.00     0.167 HD
ATOM     59  C   UNL A   1      42.032  30.318  35.084  1.00  0.00     0.074 A 
ATOM     60  C   UNL A   1      42.380  30.802  36.404  1.00  0.00     0.031 C 
ATOM     61  C   UNL A   1      42.685  29.319  34.441  1.00  0.00     0.037 A 
BRANCH  48  62
ATOM     62  C   UNL A   1      40.354  27.941  28.885  1.00  0.00     0.064 A 
ATOM     63  C   UNL A   1      41.123  28.295  27.765  1.00  0.00     0.173 A 
ATOM     64  C   UNL A   1      39.654  26.726  28.838  1.00  0.00     0.173 A 
ATOM     65  F   UNL A   1      41.803  29.453  27.751  1.00  0.00    -0.203 F 
ATOM     66  C   UNL A   1      41.159  27.487  26.632  1.00  0.00     0.198 A 
ATOM     67  C   UNL A   1      39.721  25.901  27.717  1.00  0.00     0.198 A 
ATOM     68  F   UNL A   1      38.907  26.334  29.881  1.00  0.00    -0.203 F 
ATOM     69  F   UNL A   1      41.851  27.879  25.553  1.00  0.00    -0.200 F 
ATOM     70  C   UNL A   1      40.465  26.287  26.612  1.00  0.00     0.200 A 
ATOM     71  F   UNL A   1      39.061  24.736  27.705  1.00  0.00    -0.200 F 
ATOM     72  F   UNL A   1      40.506  25.506  25.524  1.00  0.00    -0.200 F 
ENDBRANCH  48  62
BRANCH  49  73
ATOM     73  C   UNL A   1      39.493  33.831  36.915  1.00  0.00     0.064 A 
ATOM     74  C   UNL A   1      38.728  33.415  38.014  1.00  0.00     0.173 A 
ATOM     75  C   UNL A   1      40.113  35.087  36.994  1.00  0.00     0.173 A 
ATOM     76  F   UNL A   1      38.097  32.231  37.980  1.00  0.00    -0.203 F 
ATOM     77  C   UNL A   1      38.563  34.231  39.131  1.00  0.00     0.198 A 
ATOM     78  C   UNL A   1      39.974  35.889  38.126  1.00  0.00     0.198 A 
ATOM     79  F   UNL A   1      40.862  35.532  35.975  1.00  0.00    -0.203 F 
ATOM     80  F   UNL A   1      37.781  33.830  40.142  1.00  0.00    -0.200 F 
ATOM     81  C   UNL A   1      39.191  35.466  39.188  1.00  0.00     0.200 A 
ATOM     82  F   UNL A   1      40.596  37.075  38.183  1.00  0.00    -0.200 F 
ATOM     83  F   UNL A   1      39.033  36.251  40.263  1.00  0.00    -0.200 F 
ENDBRANCH  49  73
BRANCH  61  84
ATOM     84  C   UNL A   1      43.877  28.718  35.128  1.00  0.00     0.064 A 
ATOM     85  C   UNL A   1      45.169  29.235  34.957  1.00  0.00     0.173 A 
ATOM     86  C   UNL A   1      43.714  27.635  36.007  1.00  0.00     0.173 A 
ATOM     87  F   UNL A   1      45.382  30.261  34.119  1.00  0.00    -0.203 F 
ATOM     88  C   UNL A   1      46.259  28.671  35.618  1.00  0.00     0.198 A 
ATOM     89  C   UNL A   1      44.800  27.097  36.691  1.00  0.00     0.198 A 
ATOM     90  F   UNL A   1      42.497  27.109  36.213  1.00  0.00    -0.203 F 
ATOM     91  F   UNL A   1      47.492  29.149  35.399  1.00  0.00    -0.200 F 
ATOM     92  C   UNL A   1      46.072  27.610  36.490  1.00  0.00     0.200 A 
ATOM     93  F   UNL A   1      44.614  26.082  37.546  1.00  0.00    -0.200 F 
ATOM     94  F   UNL A   1      47.120  27.075  37.131  1.00  0.00    -0.200 F 
ENDBRANCH  61  84
ENDBRANCH  35  36
ENDBRANCH  27  30
ENDBRANCH  25  26
ENDBRANCH   1  25
TORSDOF 13
ENDMDL
