MODEL 1
REMARK VINA RESULT:     -12.7      0.000      0.000
REMARK SMILES CCCc1c(C(=O)NCCCNC(=O)c2ccc(-c3c4nc(c(-c5c(F)c(F)c(F)c(F)c5F)c5ccc([nH]5)c(-c5c(F)c(F)c(F)c(F)c5F)c5nc(c(-c6c(F)c(F)c(F)c(F)c6F)c6ccc3[nH]6)C=C5)C=C4)cc2)nnn1-c1ccccc1[N+](=O)[O-]
REMARK SMILES IDX 10 1 9 2 8 3 6 4 7 5 5 7 4 8 80 9 78 10 79 11 3 12 2 13 1 14
REMARK SMILES IDX 81 15 82 16 86 17 83 18 85 19 84 20 87 21 88 22 89 23 11 24
REMARK SMILES IDX 12 25 13 26 14 28 15 29 16 30 77 31 17 32 76 33 18 34 19 35
REMARK SMILES IDX 20 36 70 37 21 38 75 39 69 40 71 41 22 42 74 43 68 44 67 45
REMARK SMILES IDX 23 47 55 48 35 49 54 50 36 51 39 52 53 53 72 54 37 55 38 56
REMARK SMILES IDX 52 58 73 59 40 60 24 61 25 62 33 63 26 64 27 65 31 66 34 67
REMARK SMILES IDX 28 68 29 69 32 70 30 71 56 72 57 73 65 74 58 75 59 76 63 77
REMARK SMILES IDX 66 78 60 79 61 80 64 81 62 82 41 83 42 84 50 85 43 86 44 87
REMARK SMILES IDX 48 88 51 89 45 90 46 91 49 92 47 93
REMARK H PARENT 8 6 12 27 71 46 39 57
REMARK Flexibility Score: inf
ROOT
ATOM      1  C   UNL A   1      37.398  22.094  24.843  1.00  0.00     0.042 C 
ENDROOT
BRANCH   1   2
ATOM      2  C   UNL A   1      36.172  21.199  25.093  1.00  0.00     0.118 C 
BRANCH   2   3
ATOM      3  N   UNL A   1      35.524  21.444  26.374  1.00  0.00    -0.351 N 
ATOM      4  C   UNL A   1      34.523  22.292  26.786  1.00  0.00     0.273 C 
ATOM      5  O   UNL A   1      34.075  22.064  27.913  1.00  0.00    -0.267 OA
ATOM      6  H   UNL A   1      35.878  20.880  27.101  1.00  0.00     0.163 HD
BRANCH   4   7
ATOM      7  C   UNL A   1      33.993  23.383  25.968  1.00  0.00     0.174 A 
ATOM      8  C   UNL A   1      32.928  23.481  25.075  1.00  0.00     0.078 A 
ATOM      9  N   UNL A   1      32.926  24.826  24.749  1.00  0.00    -0.210 N 
ATOM     10  N   UNL A   1      34.729  24.552  25.860  1.00  0.00    -0.124 NA
ATOM     11  N   UNL A   1      34.111  25.379  25.033  1.00  0.00    -0.061 NA
BRANCH   8  12
ATOM     12  C   UNL A   1      31.971  22.531  24.454  1.00  0.00     0.059 C 
BRANCH  12  13
ATOM     13  C   UNL A   1      32.610  21.383  23.655  1.00  0.00     0.003 C 
ATOM     14  C   UNL A   1      32.003  21.019  22.306  1.00  0.00     0.004 C 
ENDBRANCH  12  13
ENDBRANCH   8  12
BRANCH   9  15
ATOM     15  C   UNL A   1      31.897  25.559  24.137  1.00  0.00     0.144 A 
ATOM     16  C   UNL A   1      30.803  25.944  24.922  1.00  0.00     0.036 A 
ATOM     17  C   UNL A   1      32.004  26.004  22.809  1.00  0.00     0.294 A 
ATOM     18  C   UNL A   1      29.851  26.816  24.387  1.00  0.00     0.003 A 
ATOM     19  C   UNL A   1      31.034  26.859  22.272  1.00  0.00     0.088 A 
ATOM     20  C   UNL A   1      29.967  27.273  23.071  1.00  0.00     0.007 A 
BRANCH  17  21
ATOM     21  N   UNL A   1      33.086  25.565  21.928  1.00  0.00     0.065 N 
ATOM     22  O   UNL A   1      33.026  24.405  21.497  1.00  0.00    -0.258 OA
ATOM     23  O   UNL A   1      33.984  26.370  21.661  1.00  0.00    -0.258 OA
ENDBRANCH  17  21
ENDBRANCH   9  15
ENDBRANCH   4   7
ENDBRANCH   2   3
ENDBRANCH   1   2
BRANCH   1  24
ATOM     24  C   UNL A   1      38.181  22.416  26.092  1.00  0.00     0.118 C 
BRANCH  24  25
ATOM     25  N   UNL A   1      39.539  21.903  26.091  1.00  0.00    -0.352 N 
ATOM     26  C   UNL A   1      40.712  22.614  26.281  1.00  0.00     0.251 C 
ATOM     27  H   UNL A   1      39.637  20.936  25.938  1.00  0.00     0.163 HD
ATOM     28  O   UNL A   1      41.783  22.136  25.944  1.00  0.00    -0.269 OA
BRANCH  26  29
ATOM     29  C   UNL A   1      40.659  23.957  26.907  1.00  0.00     0.039 A 
ATOM     30  C   UNL A   1      39.777  24.941  26.450  1.00  0.00     0.014 A 
ATOM     31  C   UNL A   1      41.548  24.259  27.934  1.00  0.00     0.014 A 
ATOM     32  C   UNL A   1      39.833  26.210  27.022  1.00  0.00     0.010 A 
ATOM     33  C   UNL A   1      41.435  25.408  28.655  1.00  0.00     0.010 A 
ATOM     34  C   UNL A   1      40.693  26.431  28.108  1.00  0.00    -0.014 A 
BRANCH  34  35
ATOM     35  C   UNL A   1      40.842  27.723  28.745  1.00  0.00     0.031 A 
ATOM     36  C   UNL A   1      41.937  28.537  28.183  1.00  0.00     0.074 A 
ATOM     37  C   UNL A   1      39.911  28.222  29.589  1.00  0.00     0.049 A 
ATOM     38  N   UNL A   1      43.040  28.863  28.765  1.00  0.00    -0.248 NA
ATOM     39  C   UNL A   1      41.879  28.894  26.757  1.00  0.00     0.031 C 
ATOM     40  C   UNL A   1      38.607  27.659  29.965  1.00  0.00     0.029 A 
ATOM     41  N   UNL A   1      39.899  29.426  30.217  1.00  0.00    -0.354 N 
ATOM     42  C   UNL A   1      43.730  29.646  27.850  1.00  0.00     0.074 A 
ATOM     43  C   UNL A   1      43.076  29.456  26.582  1.00  0.00     0.031 C 
ATOM     44  C   UNL A   1      37.852  28.612  30.558  1.00  0.00     0.029 A 
ATOM     45  C   UNL A   1      38.671  29.792  30.754  1.00  0.00     0.049 A 
ATOM     46  H   UNL A   1      40.700  29.995  30.288  1.00  0.00     0.167 HD
ATOM     47  C   UNL A   1      44.612  30.588  28.282  1.00  0.00     0.037 A 
ATOM     48  C   UNL A   1      38.357  31.001  31.286  1.00  0.00     0.037 A 
ATOM     49  C   UNL A   1      44.968  30.363  29.665  1.00  0.00     0.049 A 
ATOM     50  C   UNL A   1      39.642  31.673  31.620  1.00  0.00     0.074 A 
ATOM     51  C   UNL A   1      45.535  29.308  30.355  1.00  0.00     0.029 A 
ATOM     52  N   UNL A   1      44.365  31.147  30.621  1.00  0.00    -0.354 N 
ATOM     53  N   UNL A   1      40.447  31.262  32.561  1.00  0.00    -0.248 NA
ATOM     54  C   UNL A   1      40.256  32.496  30.588  1.00  0.00     0.031 C 
ATOM     55  C   UNL A   1      44.824  29.249  31.590  1.00  0.00     0.029 A 
ATOM     56  C   UNL A   1      43.923  30.315  31.619  1.00  0.00     0.049 A 
ATOM     57  H   UNL A   1      44.266  32.126  30.594  1.00  0.00     0.167 HD
ATOM     58  C   UNL A   1      41.718  31.393  32.019  1.00  0.00     0.074 A 
ATOM     59  C   UNL A   1      41.543  32.234  30.836  1.00  0.00     0.031 C 
ATOM     60  C   UNL A   1      42.735  30.565  32.401  1.00  0.00     0.037 A 
BRANCH  47  61
ATOM     61  C   UNL A   1      44.845  31.911  27.597  1.00  0.00     0.064 A 
ATOM     62  C   UNL A   1      46.055  32.107  26.901  1.00  0.00     0.173 A 
ATOM     63  C   UNL A   1      44.089  33.079  27.840  1.00  0.00     0.173 A 
ATOM     64  F   UNL A   1      46.857  31.069  26.621  1.00  0.00    -0.203 F 
ATOM     65  C   UNL A   1      46.515  33.382  26.567  1.00  0.00     0.198 A 
ATOM     66  C   UNL A   1      44.526  34.344  27.453  1.00  0.00     0.198 A 
ATOM     67  F   UNL A   1      42.960  33.071  28.556  1.00  0.00    -0.203 F 
ATOM     68  F   UNL A   1      47.735  33.528  26.031  1.00  0.00    -0.200 F 
ATOM     69  C   UNL A   1      45.755  34.501  26.851  1.00  0.00     0.200 A 
ATOM     70  F   UNL A   1      43.779  35.416  27.751  1.00  0.00    -0.200 F 
ATOM     71  F   UNL A   1      46.224  35.727  26.592  1.00  0.00    -0.200 F 
ENDBRANCH  47  61
BRANCH  48  72
ATOM     72  C   UNL A   1      37.063  31.723  31.248  1.00  0.00     0.064 A 
ATOM     73  C   UNL A   1      36.321  31.944  32.420  1.00  0.00     0.173 A 
ATOM     74  C   UNL A   1      36.665  32.454  30.111  1.00  0.00     0.173 A 
ATOM     75  F   UNL A   1      36.659  31.322  33.559  1.00  0.00    -0.203 F 
ATOM     76  C   UNL A   1      35.266  32.863  32.460  1.00  0.00     0.198 A 
ATOM     77  C   UNL A   1      35.608  33.365  30.151  1.00  0.00     0.198 A 
ATOM     78  F   UNL A   1      37.356  32.373  28.965  1.00  0.00    -0.203 F 
ATOM     79  F   UNL A   1      34.624  33.094  33.615  1.00  0.00    -0.200 F 
ATOM     80  C   UNL A   1      34.918  33.581  31.329  1.00  0.00     0.200 A 
ATOM     81  F   UNL A   1      35.307  34.082  29.059  1.00  0.00    -0.200 F 
ATOM     82  F   UNL A   1      33.951  34.508  31.383  1.00  0.00    -0.200 F 
ENDBRANCH  48  72
BRANCH  60  83
ATOM     83  C   UNL A   1      42.508  29.678  33.598  1.00  0.00     0.064 A 
ATOM     84  C   UNL A   1      41.941  28.392  33.534  1.00  0.00     0.173 A 
ATOM     85  C   UNL A   1      43.015  30.091  34.836  1.00  0.00     0.173 A 
ATOM     86  F   UNL A   1      41.527  27.876  32.372  1.00  0.00    -0.203 F 
ATOM     87  C   UNL A   1      41.843  27.584  34.666  1.00  0.00     0.198 A 
ATOM     88  C   UNL A   1      42.951  29.268  35.957  1.00  0.00     0.198 A 
ATOM     89  F   UNL A   1      43.620  31.284  34.949  1.00  0.00    -0.203 F 
ATOM     90  F   UNL A   1      41.283  26.368  34.577  1.00  0.00    -0.200 F 
ATOM     91  C   UNL A   1      42.355  28.021  35.875  1.00  0.00     0.200 A 
ATOM     92  F   UNL A   1      43.494  29.675  37.113  1.00  0.00    -0.200 F 
ATOM     93  F   UNL A   1      42.297  27.228  36.955  1.00  0.00    -0.200 F 
ENDBRANCH  60  83
ENDBRANCH  34  35
ENDBRANCH  26  29
ENDBRANCH  24  25
ENDBRANCH   1  24
TORSDOF 14
ENDMDL
MODEL 2
REMARK VINA RESULT:     -12.6      3.092      8.600
REMARK SMILES CCCc1c(C(=O)NCCCNC(=O)c2ccc(-c3c4nc(c(-c5c(F)c(F)c(F)c(F)c5F)c5ccc([nH]5)c(-c5c(F)c(F)c(F)c(F)c5F)c5nc(c(-c6c(F)c(F)c(F)c(F)c6F)c6ccc3[nH]6)C=C5)C=C4)cc2)nnn1-c1ccccc1[N+](=O)[O-]
REMARK SMILES IDX 10 1 9 2 8 3 6 4 7 5 5 7 4 8 80 9 78 10 79 11 3 12 2 13 1 14
REMARK SMILES IDX 81 15 82 16 86 17 83 18 85 19 84 20 87 21 88 22 89 23 11 24
REMARK SMILES IDX 12 25 13 26 14 28 15 29 16 30 77 31 17 32 76 33 18 34 19 35
REMARK SMILES IDX 20 36 70 37 21 38 75 39 69 40 71 41 22 42 74 43 68 44 67 45
REMARK SMILES IDX 23 47 55 48 35 49 54 50 36 51 39 52 53 53 72 54 37 55 38 56
REMARK SMILES IDX 52 58 73 59 40 60 24 61 25 62 33 63 26 64 27 65 31 66 34 67
REMARK SMILES IDX 28 68 29 69 32 70 30 71 56 72 57 73 65 74 58 75 59 76 63 77
REMARK SMILES IDX 66 78 60 79 61 80 64 81 62 82 41 83 42 84 50 85 43 86 44 87
REMARK SMILES IDX 48 88 51 89 45 90 46 91 49 92 47 93
REMARK H PARENT 8 6 12 27 71 46 39 57
REMARK Flexibility Score: inf
ROOT
ATOM      1  C   UNL A   1      33.146  28.630  26.339  1.00  0.00     0.042 C 
ENDROOT
BRANCH   1   2
ATOM      2  C   UNL A   1      33.781  28.489  24.945  1.00  0.00     0.118 C 
BRANCH   2   3
ATOM      3  N   UNL A   1      32.807  28.306  23.878  1.00  0.00    -0.351 N 
ATOM      4  C   UNL A   1      32.356  27.208  23.182  1.00  0.00     0.273 C 
ATOM      5  O   UNL A   1      31.352  27.404  22.492  1.00  0.00    -0.267 OA
ATOM      6  H   UNL A   1      32.381  29.147  23.594  1.00  0.00     0.163 HD
BRANCH   4   7
ATOM      7  C   UNL A   1      32.983  25.889  23.247  1.00  0.00     0.174 A 
ATOM      8  C   UNL A   1      33.205  24.982  24.281  1.00  0.00     0.078 A 
ATOM      9  N   UNL A   1      33.741  23.890  23.621  1.00  0.00    -0.210 N 
ATOM     10  N   UNL A   1      33.680  25.429  22.140  1.00  0.00    -0.124 NA
ATOM     11  N   UNL A   1      34.218  24.254  22.425  1.00  0.00    -0.061 NA
BRANCH   8  12
ATOM     12  C   UNL A   1      33.048  24.996  25.758  1.00  0.00     0.059 C 
BRANCH  12  13
ATOM     13  C   UNL A   1      31.778  24.312  26.290  1.00  0.00     0.003 C 
ATOM     14  C   UNL A   1      31.940  23.122  27.228  1.00  0.00     0.004 C 
ENDBRANCH  12  13
ENDBRANCH   8  12
BRANCH   9  15
ATOM     15  C   UNL A   1      33.870  22.577  24.099  1.00  0.00     0.144 A 
ATOM     16  C   UNL A   1      32.798  21.696  23.912  1.00  0.00     0.036 A 
ATOM     17  C   UNL A   1      35.079  22.112  24.643  1.00  0.00     0.294 A 
ATOM     18  C   UNL A   1      32.961  20.344  24.222  1.00  0.00     0.003 A 
ATOM     19  C   UNL A   1      35.228  20.759  24.973  1.00  0.00     0.088 A 
ATOM     20  C   UNL A   1      34.170  19.876  24.747  1.00  0.00     0.007 A 
BRANCH  17  21
ATOM     21  N   UNL A   1      36.198  23.008  24.930  1.00  0.00     0.065 N 
ATOM     22  O   UNL A   1      36.209  23.559  26.039  1.00  0.00    -0.258 OA
ATOM     23  O   UNL A   1      37.063  23.158  24.061  1.00  0.00    -0.258 OA
ENDBRANCH  17  21
ENDBRANCH   9  15
ENDBRANCH   4   7
ENDBRANCH   2   3
ENDBRANCH   1   2
BRANCH   1  24
ATOM     24  C   UNL A   1      34.036  29.314  27.347  1.00  0.00     0.118 C 
BRANCH  24  25
ATOM     25  N   UNL A   1      34.158  30.748  27.156  1.00  0.00    -0.352 N 
ATOM     26  C   UNL A   1      35.154  31.584  27.635  1.00  0.00     0.251 C 
ATOM     27  H   UNL A   1      33.450  31.176  26.623  1.00  0.00     0.163 HD
ATOM     28  O   UNL A   1      34.976  32.790  27.679  1.00  0.00    -0.269 OA
BRANCH  26  29
ATOM     29  C   UNL A   1      36.441  31.002  28.084  1.00  0.00     0.039 A 
ATOM     30  C   UNL A   1      37.298  31.700  28.941  1.00  0.00     0.014 A 
ATOM     31  C   UNL A   1      36.828  29.758  27.593  1.00  0.00     0.014 A 
ATOM     32  C   UNL A   1      38.532  31.137  29.260  1.00  0.00     0.010 A 
ATOM     33  C   UNL A   1      37.910  29.104  28.095  1.00  0.00     0.010 A 
ATOM     34  C   UNL A   1      38.832  29.846  28.801  1.00  0.00    -0.014 A 
BRANCH  34  35
ATOM     35  C   UNL A   1      40.100  29.194  29.054  1.00  0.00     0.031 A 
ATOM     36  C   UNL A   1      40.373  28.967  30.486  1.00  0.00     0.074 A 
ATOM     37  C   UNL A   1      40.829  28.628  28.066  1.00  0.00     0.049 A 
ATOM     38  N   UNL A   1      41.278  29.538  31.204  1.00  0.00    -0.248 NA
ATOM     39  C   UNL A   1      39.432  28.134  31.251  1.00  0.00     0.031 C 
ATOM     40  C   UNL A   1      40.502  28.483  26.641  1.00  0.00     0.029 A 
ATOM     41  N   UNL A   1      42.002  27.952  28.164  1.00  0.00    -0.354 N 
ATOM     42  C   UNL A   1      41.158  28.983  32.470  1.00  0.00     0.074 A 
ATOM     43  C   UNL A   1      39.893  28.296  32.493  1.00  0.00     0.031 C 
ATOM     44  C   UNL A   1      41.330  27.579  26.072  1.00  0.00     0.029 A 
ATOM     45  C   UNL A   1      42.344  27.209  27.040  1.00  0.00     0.049 A 
ATOM     46  H   UNL A   1      42.568  27.985  28.969  1.00  0.00     0.167 HD
ATOM     47  C   UNL A   1      42.239  28.916  33.295  1.00  0.00     0.037 A 
ATOM     48  C   UNL A   1      43.372  26.329  26.943  1.00  0.00     0.037 A 
ATOM     49  C   UNL A   1      43.290  29.794  32.835  1.00  0.00     0.049 A 
ATOM     50  C   UNL A   1      44.319  26.646  28.046  1.00  0.00     0.074 A 
ATOM     51  C   UNL A   1      43.376  31.154  32.598  1.00  0.00     0.029 A 
ATOM     52  N   UNL A   1      44.347  29.235  32.154  1.00  0.00    -0.354 N 
ATOM     53  N   UNL A   1      45.022  27.745  28.099  1.00  0.00    -0.248 NA
ATOM     54  C   UNL A   1      44.112  25.976  29.321  1.00  0.00     0.031 C 
ATOM     55  C   UNL A   1      44.152  31.273  31.406  1.00  0.00     0.029 A 
ATOM     56  C   UNL A   1      44.563  29.994  31.032  1.00  0.00     0.049 A 
ATOM     57  H   UNL A   1      44.854  28.435  32.423  1.00  0.00     0.167 HD
ATOM     58  C   UNL A   1      44.967  28.134  29.430  1.00  0.00     0.074 A 
ATOM     59  C   UNL A   1      44.464  26.965  30.148  1.00  0.00     0.031 C 
ATOM     60  C   UNL A   1      45.042  29.452  29.781  1.00  0.00     0.037 A 
BRANCH  47  61
ATOM     61  C   UNL A   1      42.498  27.791  34.266  1.00  0.00     0.064 A 
ATOM     62  C   UNL A   1      43.026  26.582  33.773  1.00  0.00     0.173 A 
ATOM     63  C   UNL A   1      41.979  27.736  35.579  1.00  0.00     0.173 A 
ATOM     64  F   UNL A   1      43.540  26.515  32.535  1.00  0.00    -0.203 F 
ATOM     65  C   UNL A   1      42.950  25.393  34.500  1.00  0.00     0.198 A 
ATOM     66  C   UNL A   1      41.957  26.558  36.323  1.00  0.00     0.198 A 
ATOM     67  F   UNL A   1      41.371  28.776  36.158  1.00  0.00    -0.203 F 
ATOM     68  F   UNL A   1      43.339  24.242  33.933  1.00  0.00    -0.200 F 
ATOM     69  C   UNL A   1      42.406  25.379  35.771  1.00  0.00     0.200 A 
ATOM     70  F   UNL A   1      41.413  26.566  37.548  1.00  0.00    -0.200 F 
ATOM     71  F   UNL A   1      42.270  24.229  36.442  1.00  0.00    -0.200 F 
ENDBRANCH  47  61
BRANCH  48  72
ATOM     72  C   UNL A   1      43.445  25.069  26.165  1.00  0.00     0.064 A 
ATOM     73  C   UNL A   1      44.458  24.860  25.215  1.00  0.00     0.173 A 
ATOM     74  C   UNL A   1      42.694  23.936  26.535  1.00  0.00     0.173 A 
ATOM     75  F   UNL A   1      45.248  25.876  24.838  1.00  0.00    -0.203 F 
ATOM     76  C   UNL A   1      44.723  23.589  24.690  1.00  0.00     0.198 A 
ATOM     77  C   UNL A   1      42.955  22.670  26.007  1.00  0.00     0.198 A 
ATOM     78  F   UNL A   1      41.756  24.014  27.491  1.00  0.00    -0.203 F 
ATOM     79  F   UNL A   1      45.741  23.418  23.834  1.00  0.00    -0.200 F 
ATOM     80  C   UNL A   1      43.979  22.494  25.096  1.00  0.00     0.200 A 
ATOM     81  F   UNL A   1      42.253  21.612  26.437  1.00  0.00    -0.200 F 
ATOM     82  F   UNL A   1      44.275  21.267  24.644  1.00  0.00    -0.200 F 
ENDBRANCH  48  72
BRANCH  60  83
ATOM     83  C   UNL A   1      45.436  30.443  28.716  1.00  0.00     0.064 A 
ATOM     84  C   UNL A   1      44.526  31.079  27.852  1.00  0.00     0.173 A 
ATOM     85  C   UNL A   1      46.769  30.869  28.666  1.00  0.00     0.173 A 
ATOM     86  F   UNL A   1      43.217  30.810  27.906  1.00  0.00    -0.203 F 
ATOM     87  C   UNL A   1      44.943  32.056  26.949  1.00  0.00     0.198 A 
ATOM     88  C   UNL A   1      47.176  31.872  27.790  1.00  0.00     0.198 A 
ATOM     89  F   UNL A   1      47.674  30.342  29.504  1.00  0.00    -0.203 F 
ATOM     90  F   UNL A   1      44.054  32.635  26.126  1.00  0.00    -0.200 F 
ATOM     91  C   UNL A   1      46.267  32.457  26.924  1.00  0.00     0.200 A 
ATOM     92  F   UNL A   1      48.449  32.291  27.806  1.00  0.00    -0.200 F 
ATOM     93  F   UNL A   1      46.662  33.424  26.084  1.00  0.00    -0.200 F 
ENDBRANCH  60  83
ENDBRANCH  34  35
ENDBRANCH  26  29
ENDBRANCH  24  25
ENDBRANCH   1  24
TORSDOF 14
ENDMDL
MODEL 3
REMARK VINA RESULT:     -12.5      3.280      8.664
REMARK SMILES CCCc1c(C(=O)NCCCNC(=O)c2ccc(-c3c4nc(c(-c5c(F)c(F)c(F)c(F)c5F)c5ccc([nH]5)c(-c5c(F)c(F)c(F)c(F)c5F)c5nc(c(-c6c(F)c(F)c(F)c(F)c6F)c6ccc3[nH]6)C=C5)C=C4)cc2)nnn1-c1ccccc1[N+](=O)[O-]
REMARK SMILES IDX 10 1 9 2 8 3 6 4 7 5 5 7 4 8 80 9 78 10 79 11 3 12 2 13 1 14
REMARK SMILES IDX 81 15 82 16 86 17 83 18 85 19 84 20 87 21 88 22 89 23 11 24
REMARK SMILES IDX 12 25 13 26 14 28 15 29 16 30 77 31 17 32 76 33 18 34 19 35
REMARK SMILES IDX 20 36 70 37 21 38 75 39 69 40 71 41 22 42 74 43 68 44 67 45
REMARK SMILES IDX 23 47 55 48 35 49 54 50 36 51 39 52 53 53 72 54 37 55 38 56
REMARK SMILES IDX 52 58 73 59 40 60 24 61 25 62 33 63 26 64 27 65 31 66 34 67
REMARK SMILES IDX 28 68 29 69 32 70 30 71 56 72 57 73 65 74 58 75 59 76 63 77
REMARK SMILES IDX 66 78 60 79 61 80 64 81 62 82 41 83 42 84 50 85 43 86 44 87
REMARK SMILES IDX 48 88 51 89 45 90 46 91 49 92 47 93
REMARK H PARENT 8 6 12 27 71 46 39 57
REMARK Flexibility Score: inf
ROOT
ATOM      1  C   UNL A   1      32.669  30.072  27.265  1.00  0.00     0.042 C 
ENDROOT
BRANCH   1   2
ATOM      2  C   UNL A   1      32.538  28.995  26.174  1.00  0.00     0.118 C 
BRANCH   2   3
ATOM      3  N   UNL A   1      31.812  29.446  24.995  1.00  0.00    -0.351 N 
ATOM      4  C   UNL A   1      30.983  28.821  24.093  1.00  0.00     0.273 C 
ATOM      5  O   UNL A   1      30.365  29.578  23.340  1.00  0.00    -0.267 OA
ATOM      6  H   UNL A   1      31.943  30.403  24.803  1.00  0.00     0.163 HD
BRANCH   4   7
ATOM      7  C   UNL A   1      30.809  27.371  24.017  1.00  0.00     0.174 A 
ATOM      8  C   UNL A   1      31.690  26.307  23.838  1.00  0.00     0.078 A 
ATOM      9  N   UNL A   1      30.869  25.202  23.984  1.00  0.00    -0.210 N 
ATOM     10  N   UNL A   1      29.523  26.859  23.928  1.00  0.00    -0.124 NA
ATOM     11  N   UNL A   1      29.587  25.543  23.808  1.00  0.00    -0.061 NA
BRANCH   8  12
ATOM     12  C   UNL A   1      33.130  26.165  23.506  1.00  0.00     0.059 C 
BRANCH  12  13
ATOM     13  C   UNL A   1      34.087  26.192  24.708  1.00  0.00     0.003 C 
ATOM     14  C   UNL A   1      34.617  24.864  25.237  1.00  0.00     0.004 C 
ENDBRANCH  12  13
ENDBRANCH   8  12
BRANCH   9  15
ATOM     15  C   UNL A   1      31.255  23.872  24.212  1.00  0.00     0.144 A 
ATOM     16  C   UNL A   1      31.688  23.112  23.118  1.00  0.00     0.036 A 
ATOM     17  C   UNL A   1      31.325  23.342  25.511  1.00  0.00     0.294 A 
ATOM     18  C   UNL A   1      32.237  21.847  23.339  1.00  0.00     0.003 A 
ATOM     19  C   UNL A   1      31.855  22.064  25.723  1.00  0.00     0.088 A 
ATOM     20  C   UNL A   1      32.324  21.326  24.634  1.00  0.00     0.007 A 
BRANCH  17  21
ATOM     21  N   UNL A   1      30.812  24.066  26.673  1.00  0.00     0.065 N 
ATOM     22  O   UNL A   1      29.785  23.623  27.205  1.00  0.00    -0.258 OA
ATOM     23  O   UNL A   1      31.430  25.064  27.058  1.00  0.00    -0.258 OA
ENDBRANCH  17  21
ENDBRANCH   9  15
ENDBRANCH   4   7
ENDBRANCH   2   3
ENDBRANCH   1   2
BRANCH   1  24
ATOM     24  C   UNL A   1      34.061  30.638  27.396  1.00  0.00     0.118 C 
BRANCH  24  25
ATOM     25  N   UNL A   1      34.160  31.769  28.301  1.00  0.00    -0.352 N 
ATOM     26  C   UNL A   1      35.077  31.959  29.322  1.00  0.00     0.251 C 
ATOM     27  H   UNL A   1      33.497  32.486  28.173  1.00  0.00     0.163 HD
ATOM     28  O   UNL A   1      34.860  32.779  30.199  1.00  0.00    -0.269 OA
BRANCH  26  29
ATOM     29  C   UNL A   1      36.328  31.164  29.336  1.00  0.00     0.039 A 
ATOM     30  C   UNL A   1      36.306  29.767  29.305  1.00  0.00     0.014 A 
ATOM     31  C   UNL A   1      37.548  31.828  29.439  1.00  0.00     0.014 A 
ATOM     32  C   UNL A   1      37.512  29.075  29.406  1.00  0.00     0.010 A 
ATOM     33  C   UNL A   1      38.728  31.168  29.289  1.00  0.00     0.010 A 
ATOM     34  C   UNL A   1      38.713  29.798  29.426  1.00  0.00    -0.014 A 
BRANCH  34  35
ATOM     35  C   UNL A   1      40.010  29.167  29.562  1.00  0.00     0.031 A 
ATOM     36  C   UNL A   1      40.449  29.012  30.962  1.00  0.00     0.074 A 
ATOM     37  C   UNL A   1      40.628  28.560  28.524  1.00  0.00     0.049 A 
ATOM     38  N   UNL A   1      41.423  29.623  31.543  1.00  0.00    -0.248 NA
ATOM     39  C   UNL A   1      39.613  28.210  31.869  1.00  0.00     0.031 C 
ATOM     40  C   UNL A   1      40.141  28.344  27.154  1.00  0.00     0.029 A 
ATOM     41  N   UNL A   1      41.813  27.898  28.517  1.00  0.00    -0.354 N 
ATOM     42  C   UNL A   1      41.457  29.129  32.839  1.00  0.00     0.074 A 
ATOM     43  C   UNL A   1      40.213  28.435  33.040  1.00  0.00     0.031 C 
ATOM     44  C   UNL A   1      40.909  27.420  26.536  1.00  0.00     0.029 A 
ATOM     45  C   UNL A   1      42.033  27.104  27.397  1.00  0.00     0.049 A 
ATOM     46  H   UNL A   1      42.467  27.974  29.249  1.00  0.00     0.167 HD
ATOM     47  C   UNL A   1      42.627  29.109  33.535  1.00  0.00     0.037 A 
ATOM     48  C   UNL A   1      43.054  26.228  27.223  1.00  0.00     0.037 A 
ATOM     49  C   UNL A   1      43.607  29.972  32.916  1.00  0.00     0.049 A 
ATOM     50  C   UNL A   1      44.117  26.604  28.193  1.00  0.00     0.074 A 
ATOM     51  C   UNL A   1      43.648  31.319  32.607  1.00  0.00     0.029 A 
ATOM     52  N   UNL A   1      44.585  29.388  32.145  1.00  0.00    -0.354 N 
ATOM     53  N   UNL A   1      44.808  27.709  28.113  1.00  0.00    -0.248 NA
ATOM     54  C   UNL A   1      44.067  25.995  29.514  1.00  0.00     0.031 C 
ATOM     55  C   UNL A   1      44.280  31.386  31.330  1.00  0.00     0.029 A 
ATOM     56  C   UNL A   1      44.661  30.093  30.970  1.00  0.00     0.049 A 
ATOM     57  H   UNL A   1      45.130  28.606  32.390  1.00  0.00     0.167 HD
ATOM     58  C   UNL A   1      44.902  28.161  29.422  1.00  0.00     0.074 A 
ATOM     59  C   UNL A   1      44.499  27.025  30.247  1.00  0.00     0.031 C 
ATOM     60  C   UNL A   1      45.000  29.496  29.700  1.00  0.00     0.037 A 
BRANCH  47  61
ATOM     61  C   UNL A   1      43.010  28.034  34.522  1.00  0.00     0.064 A 
ATOM     62  C   UNL A   1      43.338  28.413  35.839  1.00  0.00     0.173 A 
ATOM     63  C   UNL A   1      43.361  26.713  34.166  1.00  0.00     0.173 A 
ATOM     64  F   UNL A   1      43.057  29.648  36.283  1.00  0.00    -0.203 F 
ATOM     65  C   UNL A   1      44.047  27.569  36.694  1.00  0.00     0.198 A 
ATOM     66  C   UNL A   1      44.019  25.854  35.044  1.00  0.00     0.198 A 
ATOM     67  F   UNL A   1      43.190  26.230  32.931  1.00  0.00    -0.203 F 
ATOM     68  F   UNL A   1      44.457  28.025  37.886  1.00  0.00    -0.200 F 
ATOM     69  C   UNL A   1      44.396  26.293  36.293  1.00  0.00     0.200 A 
ATOM     70  F   UNL A   1      44.359  24.626  34.628  1.00  0.00    -0.200 F 
ATOM     71  F   UNL A   1      45.134  25.507  37.086  1.00  0.00    -0.200 F 
ENDBRANCH  47  61
BRANCH  48  72
ATOM     72  C   UNL A   1      43.052  24.932  26.502  1.00  0.00     0.064 A 
ATOM     73  C   UNL A   1      43.860  24.730  25.372  1.00  0.00     0.173 A 
ATOM     74  C   UNL A   1      42.473  23.779  27.070  1.00  0.00     0.173 A 
ATOM     75  F   UNL A   1      44.484  25.767  24.795  1.00  0.00    -0.203 F 
ATOM     76  C   UNL A   1      44.099  23.449  24.859  1.00  0.00     0.198 A 
ATOM     77  C   UNL A   1      42.708  22.504  26.553  1.00  0.00     0.198 A 
ATOM     78  F   UNL A   1      41.749  23.856  28.195  1.00  0.00    -0.203 F 
ATOM     79  F   UNL A   1      44.929  23.290  23.817  1.00  0.00    -0.200 F 
ATOM     80  C   UNL A   1      43.532  22.337  25.457  1.00  0.00     0.200 A 
ATOM     81  F   UNL A   1      42.184  21.432  27.165  1.00  0.00    -0.200 F 
ATOM     82  F   UNL A   1      43.813  21.106  25.007  1.00  0.00    -0.200 F 
ENDBRANCH  48  72
BRANCH  60  83
ATOM     83  C   UNL A   1      45.256  30.436  28.551  1.00  0.00     0.064 A 
ATOM     84  C   UNL A   1      44.245  31.018  27.764  1.00  0.00     0.173 A 
ATOM     85  C   UNL A   1      46.568  30.875  28.331  1.00  0.00     0.173 A 
ATOM     86  F   UNL A   1      42.955  30.737  27.978  1.00  0.00    -0.203 F 
ATOM     87  C   UNL A   1      44.542  31.954  26.775  1.00  0.00     0.198 A 
ATOM     88  C   UNL A   1      46.858  31.837  27.368  1.00  0.00     0.198 A 
ATOM     89  F   UNL A   1      47.569  30.400  29.088  1.00  0.00    -0.203 F 
ATOM     90  F   UNL A   1      43.558  32.481  26.029  1.00  0.00    -0.200 F 
ATOM     91  C   UNL A   1      45.849  32.368  26.582  1.00  0.00     0.200 A 
ATOM     92  F   UNL A   1      48.118  32.271  27.221  1.00  0.00    -0.200 F 
ATOM     93  F   UNL A   1      46.131  33.297  25.658  1.00  0.00    -0.200 F 
ENDBRANCH  60  83
ENDBRANCH  34  35
ENDBRANCH  26  29
ENDBRANCH  24  25
ENDBRANCH   1  24
TORSDOF 14
ENDMDL
