MODEL 1
REMARK VINA RESULT:     -13.1      0.000      0.000
REMARK SMILES CC(C)(CC(=O)NCCCNC(=O)c1ccc(-c2c3nc(c(-c4c(F)c(F)c(F)c(F)c4F)c4ccc([nH]4)c(-c4c(F)c(F)c(F)c(F)c4F)c4nc(c(-c5c(F)c(F)c(F)c(F)c5F)c5ccc2[nH]5)C=C4)C=C3)cc1)CC(=O)Nc1cccc(C(=O)NC2CC2)c1
REMARK SMILES IDX 5 1 6 2 7 3 4 5 2 6 1 7 3 8 77 9 78 10 79 11 80 12 81 14
REMARK SMILES IDX 82 15 92 16 83 17 85 18 84 19 86 20 87 21 88 22 89 24 90 25
REMARK SMILES IDX 91 26 8 27 9 28 10 29 11 30 12 31 13 33 14 34 15 35 76 36
REMARK SMILES IDX 16 37 75 38 17 39 18 40 19 41 69 42 20 43 74 44 68 45 70 46
REMARK SMILES IDX 21 47 73 48 67 49 66 50 22 52 54 53 34 54 53 55 35 56 38 57
REMARK SMILES IDX 52 58 71 59 36 60 37 61 51 63 72 64 39 65 23 66 24 67 32 68
REMARK SMILES IDX 25 69 26 70 30 71 33 72 27 73 28 74 31 75 29 76 55 77 56 78
REMARK SMILES IDX 64 79 57 80 58 81 62 82 65 83 59 84 60 85 63 86 61 87 40 88
REMARK SMILES IDX 41 89 49 90 42 91 43 92 47 93 50 94 44 95 45 96 48 97 46 98
REMARK H PARENT 7 4 80 13 88 23 11 32 70 51 38 62
REMARK Flexibility Score: inf
ROOT
ATOM      1  C   UNL A   1      34.772  20.938  25.105  1.00  0.00     0.220 C 
ATOM      2  O   UNL A   1      34.099  19.957  24.805  1.00  0.00    -0.275 OA
ATOM      3  N   UNL A   1      35.980  20.662  25.644  1.00  0.00    -0.356 N 
ATOM      4  H   UNL A   1      36.049  20.254  26.536  1.00  0.00     0.163 HD
ENDROOT
BRANCH   1   5
ATOM      5  C   UNL A   1      34.426  22.375  24.733  1.00  0.00     0.107 C 
BRANCH   5   6
ATOM      6  C   UNL A   1      33.728  23.384  25.660  1.00  0.00    -0.018 C 
ATOM      7  C   UNL A   1      34.058  22.981  27.114  1.00  0.00     0.012 C 
ATOM      8  C   UNL A   1      34.417  24.771  25.458  1.00  0.00     0.012 C 
BRANCH   6   9
ATOM      9  C   UNL A   1      32.223  23.645  25.432  1.00  0.00     0.107 C 
BRANCH   9  10
ATOM     10  C   UNL A   1      31.385  24.332  26.475  1.00  0.00     0.224 C 
ATOM     11  O   UNL A   1      30.666  23.638  27.208  1.00  0.00    -0.275 OA
ATOM     12  N   UNL A   1      31.393  25.670  26.723  1.00  0.00    -0.326 N 
ATOM     13  H   UNL A   1      31.188  25.870  27.666  1.00  0.00     0.169 HD
BRANCH  12  14
ATOM     14  C   UNL A   1      31.621  26.852  25.969  1.00  0.00     0.041 A 
ATOM     15  C   UNL A   1      32.235  27.872  26.722  1.00  0.00     0.026 A 
ATOM     16  C   UNL A   1      31.093  27.184  24.713  1.00  0.00     0.040 A 
ATOM     17  C   UNL A   1      32.126  29.209  26.347  1.00  0.00     0.003 A 
ATOM     18  C   UNL A   1      30.862  28.544  24.390  1.00  0.00     0.041 A 
ATOM     19  C   UNL A   1      31.396  29.546  25.212  1.00  0.00     0.014 A 
BRANCH  18  20
ATOM     20  C   UNL A   1      30.247  29.044  23.131  1.00  0.00     0.251 C 
ATOM     21  O   UNL A   1      30.290  28.280  22.162  1.00  0.00    -0.269 OA
ATOM     22  N   UNL A   1      29.875  30.360  22.888  1.00  0.00    -0.349 N 
ATOM     23  H   UNL A   1      30.195  30.699  22.021  1.00  0.00     0.164 HD
BRANCH  22  24
ATOM     24  C   UNL A   1      29.124  31.329  23.630  1.00  0.00     0.082 C 
ATOM     25  C   UNL A   1      28.362  32.507  23.087  1.00  0.00     0.027 C 
ATOM     26  C   UNL A   1      27.609  31.284  23.447  1.00  0.00     0.027 C 
ENDBRANCH  22  24
ENDBRANCH  18  20
ENDBRANCH  12  14
ENDBRANCH   9  10
ENDBRANCH   6   9
ENDBRANCH   5   6
ENDBRANCH   1   5
BRANCH   3  27
ATOM     27  C   UNL A   1      37.161  20.980  24.888  1.00  0.00     0.117 C 
BRANCH  27  28
ATOM     28  C   UNL A   1      38.150  19.858  24.957  1.00  0.00     0.042 C 
BRANCH  28  29
ATOM     29  C   UNL A   1      39.345  20.312  25.757  1.00  0.00     0.118 C 
BRANCH  29  30
ATOM     30  N   UNL A   1      40.245  19.190  26.023  1.00  0.00    -0.352 N 
ATOM     31  C   UNL A   1      41.619  19.202  26.114  1.00  0.00     0.251 C 
ATOM     32  H   UNL A   1      39.813  18.315  26.154  1.00  0.00     0.163 HD
ATOM     33  O   UNL A   1      42.270  18.177  26.011  1.00  0.00    -0.269 OA
BRANCH  31  34
ATOM     34  C   UNL A   1      42.276  20.505  26.319  1.00  0.00     0.039 A 
ATOM     35  C   UNL A   1      42.667  21.278  25.227  1.00  0.00     0.014 A 
ATOM     36  C   UNL A   1      42.411  20.988  27.620  1.00  0.00     0.014 A 
ATOM     37  C   UNL A   1      43.132  22.572  25.452  1.00  0.00     0.010 A 
ATOM     38  C   UNL A   1      42.675  22.327  27.820  1.00  0.00     0.010 A 
ATOM     39  C   UNL A   1      43.098  23.119  26.746  1.00  0.00    -0.014 A 
BRANCH  39  40
ATOM     40  C   UNL A   1      43.587  24.482  27.044  1.00  0.00     0.031 A 
ATOM     41  C   UNL A   1      42.616  25.494  27.598  1.00  0.00     0.074 A 
ATOM     42  C   UNL A   1      44.859  24.820  26.759  1.00  0.00     0.049 A 
ATOM     43  N   UNL A   1      42.789  26.770  27.828  1.00  0.00    -0.248 NA
ATOM     44  C   UNL A   1      41.247  25.022  27.881  1.00  0.00     0.031 C 
ATOM     45  C   UNL A   1      45.862  23.937  26.159  1.00  0.00     0.029 A 
ATOM     46  N   UNL A   1      45.527  26.003  26.938  1.00  0.00    -0.354 N 
ATOM     47  C   UNL A   1      41.553  27.240  28.254  1.00  0.00     0.074 A 
ATOM     48  C   UNL A   1      40.614  26.151  28.154  1.00  0.00     0.031 C 
ATOM     49  C   UNL A   1      47.029  24.595  26.066  1.00  0.00     0.029 A 
ATOM     50  C   UNL A   1      46.844  25.957  26.553  1.00  0.00     0.049 A 
ATOM     51  H   UNL A   1      45.102  26.812  27.307  1.00  0.00     0.167 HD
ATOM     52  C   UNL A   1      41.239  28.461  28.741  1.00  0.00     0.037 A 
ATOM     53  C   UNL A   1      47.788  26.915  26.592  1.00  0.00     0.037 A 
ATOM     54  C   UNL A   1      42.196  29.521  28.890  1.00  0.00     0.049 A 
ATOM     55  C   UNL A   1      47.411  28.267  27.140  1.00  0.00     0.074 A 
ATOM     56  C   UNL A   1      42.011  30.784  29.416  1.00  0.00     0.029 A 
ATOM     57  N   UNL A   1      43.530  29.425  28.520  1.00  0.00    -0.354 N 
ATOM     58  N   UNL A   1      46.256  28.682  27.604  1.00  0.00    -0.248 NA
ATOM     59  C   UNL A   1      48.470  29.283  27.178  1.00  0.00     0.031 C 
ATOM     60  C   UNL A   1      43.225  31.470  29.324  1.00  0.00     0.029 A 
ATOM     61  C   UNL A   1      44.178  30.615  28.794  1.00  0.00     0.049 A 
ATOM     62  H   UNL A   1      43.952  28.630  28.120  1.00  0.00     0.167 HD
ATOM     63  C   UNL A   1      46.459  29.990  28.023  1.00  0.00     0.074 A 
ATOM     64  C   UNL A   1      47.854  30.292  27.775  1.00  0.00     0.031 C 
ATOM     65  C   UNL A   1      45.576  30.868  28.559  1.00  0.00     0.037 A 
BRANCH  52  66
ATOM     66  C   UNL A   1      39.823  28.698  29.179  1.00  0.00     0.064 A 
ATOM     67  C   UNL A   1      39.408  28.436  30.496  1.00  0.00     0.173 A 
ATOM     68  C   UNL A   1      38.876  29.221  28.288  1.00  0.00     0.173 A 
ATOM     69  F   UNL A   1      40.268  27.914  31.385  1.00  0.00    -0.203 F 
ATOM     70  C   UNL A   1      38.094  28.666  30.894  1.00  0.00     0.198 A 
ATOM     71  C   UNL A   1      37.572  29.483  28.699  1.00  0.00     0.198 A 
ATOM     72  F   UNL A   1      39.217  29.486  27.018  1.00  0.00    -0.203 F 
ATOM     73  F   UNL A   1      37.710  28.358  32.141  1.00  0.00    -0.200 F 
ATOM     74  C   UNL A   1      37.181  29.200  29.999  1.00  0.00     0.200 A 
ATOM     75  F   UNL A   1      36.693  30.011  27.836  1.00  0.00    -0.200 F 
ATOM     76  F   UNL A   1      35.920  29.436  30.388  1.00  0.00    -0.200 F 
ENDBRANCH  52  66
BRANCH  53  77
ATOM     77  C   UNL A   1      49.176  26.634  26.134  1.00  0.00     0.064 A 
ATOM     78  C   UNL A   1      50.124  26.080  27.006  1.00  0.00     0.173 A 
ATOM     79  C   UNL A   1      49.596  26.945  24.832  1.00  0.00     0.173 A 
ATOM     80  F   UNL A   1      49.778  25.776  28.266  1.00  0.00    -0.203 F 
ATOM     81  C   UNL A   1      51.447  25.889  26.609  1.00  0.00     0.198 A 
ATOM     82  C   UNL A   1      50.910  26.719  24.425  1.00  0.00     0.198 A 
ATOM     83  F   UNL A   1      48.729  27.465  23.952  1.00  0.00    -0.203 F 
ATOM     84  F   UNL A   1      52.346  25.421  27.486  1.00  0.00    -0.200 F 
ATOM     85  C   UNL A   1      51.837  26.207  25.318  1.00  0.00     0.200 A 
ATOM     86  F   UNL A   1      51.278  27.010  23.170  1.00  0.00    -0.200 F 
ATOM     87  F   UNL A   1      53.110  26.029  24.938  1.00  0.00    -0.200 F 
ENDBRANCH  53  77
BRANCH  65  88
ATOM     88  C   UNL A   1      46.106  32.212  28.964  1.00  0.00     0.064 A 
ATOM     89  C   UNL A   1      46.087  33.305  28.088  1.00  0.00     0.173 A 
ATOM     90  C   UNL A   1      46.589  32.414  30.265  1.00  0.00     0.173 A 
ATOM     91  F   UNL A   1      45.645  33.156  26.830  1.00  0.00    -0.203 F 
ATOM     92  C   UNL A   1      46.562  34.549  28.491  1.00  0.00     0.198 A 
ATOM     93  C   UNL A   1      47.028  33.668  30.676  1.00  0.00     0.198 A 
ATOM     94  F   UNL A   1      46.616  31.401  31.144  1.00  0.00    -0.203 F 
ATOM     95  F   UNL A   1      46.587  35.568  27.621  1.00  0.00    -0.200 F 
ATOM     96  C   UNL A   1      47.024  34.731  29.787  1.00  0.00     0.200 A 
ATOM     97  F   UNL A   1      47.455  33.848  31.934  1.00  0.00    -0.200 F 
ATOM     98  F   UNL A   1      47.470  35.933  30.177  1.00  0.00    -0.200 F 
ENDBRANCH  65  88
ENDBRANCH  39  40
ENDBRANCH  31  34
ENDBRANCH  29  30
ENDBRANCH  28  29
ENDBRANCH  27  28
ENDBRANCH   3  27
TORSDOF 16
ENDMDL
MODEL 2
REMARK VINA RESULT:     -13.0      1.049      2.079
REMARK SMILES CC(C)(CC(=O)NCCCNC(=O)c1ccc(-c2c3nc(c(-c4c(F)c(F)c(F)c(F)c4F)c4ccc([nH]4)c(-c4c(F)c(F)c(F)c(F)c4F)c4nc(c(-c5c(F)c(F)c(F)c(F)c5F)c5ccc2[nH]5)C=C4)C=C3)cc1)CC(=O)Nc1cccc(C(=O)NC2CC2)c1
REMARK SMILES IDX 5 1 6 2 7 3 4 5 2 6 1 7 3 8 77 9 78 10 79 11 80 12 81 14
REMARK SMILES IDX 82 15 92 16 83 17 85 18 84 19 86 20 87 21 88 22 89 24 90 25
REMARK SMILES IDX 91 26 8 27 9 28 10 29 11 30 12 31 13 33 14 34 15 35 76 36
REMARK SMILES IDX 16 37 75 38 17 39 18 40 19 41 69 42 20 43 74 44 68 45 70 46
REMARK SMILES IDX 21 47 73 48 67 49 66 50 22 52 54 53 34 54 53 55 35 56 38 57
REMARK SMILES IDX 52 58 71 59 36 60 37 61 51 63 72 64 39 65 23 66 24 67 32 68
REMARK SMILES IDX 25 69 26 70 30 71 33 72 27 73 28 74 31 75 29 76 55 77 56 78
REMARK SMILES IDX 64 79 57 80 58 81 62 82 65 83 59 84 60 85 63 86 61 87 40 88
REMARK SMILES IDX 41 89 49 90 42 91 43 92 47 93 50 94 44 95 45 96 48 97 46 98
REMARK H PARENT 7 4 80 13 88 23 11 32 70 51 38 62
REMARK Flexibility Score: inf
ROOT
ATOM      1  C   UNL A   1      36.514  23.110  25.695  1.00  0.00     0.220 C 
ATOM      2  O   UNL A   1      37.393  23.865  26.098  1.00  0.00    -0.275 OA
ATOM      3  N   UNL A   1      36.929  22.146  24.846  1.00  0.00    -0.356 N 
ATOM      4  H   UNL A   1      37.246  22.375  23.943  1.00  0.00     0.163 HD
ENDROOT
BRANCH   1   5
ATOM      5  C   UNL A   1      35.087  23.075  26.230  1.00  0.00     0.107 C 
BRANCH   5   6
ATOM      6  C   UNL A   1      33.860  23.665  25.516  1.00  0.00    -0.018 C 
ATOM      7  C   UNL A   1      34.303  24.988  24.853  1.00  0.00     0.012 C 
ATOM      8  C   UNL A   1      33.500  22.718  24.328  1.00  0.00     0.012 C 
BRANCH   6   9
ATOM      9  C   UNL A   1      32.555  23.805  26.329  1.00  0.00     0.107 C 
BRANCH   9  10
ATOM     10  C   UNL A   1      31.228  23.399  25.748  1.00  0.00     0.224 C 
ATOM     11  O   UNL A   1      30.814  22.251  25.964  1.00  0.00    -0.275 OA
ATOM     12  N   UNL A   1      30.403  24.220  25.042  1.00  0.00    -0.326 N 
ATOM     13  H   UNL A   1      29.456  23.973  25.153  1.00  0.00     0.169 HD
BRANCH  12  14
ATOM     14  C   UNL A   1      30.561  25.341  24.183  1.00  0.00     0.041 A 
ATOM     15  C   UNL A   1      31.110  24.999  22.932  1.00  0.00     0.026 A 
ATOM     16  C   UNL A   1      30.484  26.700  24.523  1.00  0.00     0.040 A 
ATOM     17  C   UNL A   1      31.765  25.948  22.150  1.00  0.00     0.003 A 
ATOM     18  C   UNL A   1      31.257  27.644  23.804  1.00  0.00     0.041 A 
ATOM     19  C   UNL A   1      31.882  27.255  22.611  1.00  0.00     0.014 A 
BRANCH  18  20
ATOM     20  C   UNL A   1      31.332  29.102  24.091  1.00  0.00     0.251 C 
ATOM     21  O   UNL A   1      32.339  29.489  24.690  1.00  0.00    -0.269 OA
ATOM     22  N   UNL A   1      30.275  29.995  23.979  1.00  0.00    -0.349 N 
ATOM     23  H   UNL A   1      30.173  30.575  24.768  1.00  0.00     0.164 HD
BRANCH  22  24
ATOM     24  C   UNL A   1      29.301  30.254  22.960  1.00  0.00     0.082 C 
ATOM     25  C   UNL A   1      28.017  29.510  22.710  1.00  0.00     0.027 C 
ATOM     26  C   UNL A   1      27.957  30.797  23.442  1.00  0.00     0.027 C 
ENDBRANCH  22  24
ENDBRANCH  18  20
ENDBRANCH  12  14
ENDBRANCH   9  10
ENDBRANCH   6   9
ENDBRANCH   5   6
ENDBRANCH   1   5
BRANCH   3  27
ATOM     27  C   UNL A   1      36.900  20.778  25.288  1.00  0.00     0.117 C 
BRANCH  27  28
ATOM     28  C   UNL A   1      38.151  20.064  24.883  1.00  0.00     0.042 C 
BRANCH  28  29
ATOM     29  C   UNL A   1      39.254  20.435  25.842  1.00  0.00     0.118 C 
BRANCH  29  30
ATOM     30  N   UNL A   1      40.169  19.310  26.037  1.00  0.00    -0.352 N 
ATOM     31  C   UNL A   1      41.545  19.326  26.075  1.00  0.00     0.251 C 
ATOM     32  H   UNL A   1      39.746  18.428  26.157  1.00  0.00     0.163 HD
ATOM     33  O   UNL A   1      42.196  18.308  25.914  1.00  0.00    -0.269 OA
BRANCH  31  34
ATOM     34  C   UNL A   1      42.204  20.626  26.295  1.00  0.00     0.039 A 
ATOM     35  C   UNL A   1      42.584  21.416  25.212  1.00  0.00     0.014 A 
ATOM     36  C   UNL A   1      42.352  21.087  27.602  1.00  0.00     0.014 A 
ATOM     37  C   UNL A   1      43.052  22.707  25.454  1.00  0.00     0.010 A 
ATOM     38  C   UNL A   1      42.618  22.422  27.822  1.00  0.00     0.010 A 
ATOM     39  C   UNL A   1      43.031  23.232  26.758  1.00  0.00    -0.014 A 
BRANCH  39  40
ATOM     40  C   UNL A   1      43.523  24.590  27.073  1.00  0.00     0.031 A 
ATOM     41  C   UNL A   1      42.556  25.594  27.647  1.00  0.00     0.074 A 
ATOM     42  C   UNL A   1      44.793  24.931  26.786  1.00  0.00     0.049 A 
ATOM     43  N   UNL A   1      42.731  26.866  27.896  1.00  0.00    -0.248 NA
ATOM     44  C   UNL A   1      41.187  25.119  27.931  1.00  0.00     0.031 C 
ATOM     45  C   UNL A   1      45.793  24.056  26.167  1.00  0.00     0.029 A 
ATOM     46  N   UNL A   1      45.464  26.111  26.979  1.00  0.00    -0.354 N 
ATOM     47  C   UNL A   1      41.498  27.331  28.335  1.00  0.00     0.074 A 
ATOM     48  C   UNL A   1      40.558  26.244  28.224  1.00  0.00     0.031 C 
ATOM     49  C   UNL A   1      46.960  24.714  26.078  1.00  0.00     0.029 A 
ATOM     50  C   UNL A   1      46.778  26.069  26.586  1.00  0.00     0.049 A 
ATOM     51  H   UNL A   1      45.041  26.914  27.363  1.00  0.00     0.167 HD
ATOM     52  C   UNL A   1      41.188  28.545  28.843  1.00  0.00     0.037 A 
ATOM     53  C   UNL A   1      47.724  27.025  26.635  1.00  0.00     0.037 A 
ATOM     54  C   UNL A   1      42.148  29.602  29.002  1.00  0.00     0.049 A 
ATOM     55  C   UNL A   1      47.351  28.369  27.205  1.00  0.00     0.074 A 
ATOM     56  C   UNL A   1      41.967  30.857  29.548  1.00  0.00     0.029 A 
ATOM     57  N   UNL A   1      43.479  29.510  28.623  1.00  0.00    -0.354 N 
ATOM     58  N   UNL A   1      46.199  28.778  27.682  1.00  0.00    -0.248 NA
ATOM     59  C   UNL A   1      48.412  29.383  27.253  1.00  0.00     0.031 C 
ATOM     60  C   UNL A   1      43.181  31.543  29.460  1.00  0.00     0.029 A 
ATOM     61  C   UNL A   1      44.130  30.695  28.912  1.00  0.00     0.049 A 
ATOM     62  H   UNL A   1      43.898  28.720  28.210  1.00  0.00     0.167 HD
ATOM     63  C   UNL A   1      46.406  30.079  28.120  1.00  0.00     0.074 A 
ATOM     64  C   UNL A   1      47.800  30.384  27.868  1.00  0.00     0.031 C 
ATOM     65  C   UNL A   1      45.527  30.950  28.673  1.00  0.00     0.037 A 
BRANCH  52  66
ATOM     66  C   UNL A   1      39.775  28.776  29.292  1.00  0.00     0.064 A 
ATOM     67  C   UNL A   1      39.367  28.497  30.607  1.00  0.00     0.173 A 
ATOM     68  C   UNL A   1      38.824  29.314  28.413  1.00  0.00     0.173 A 
ATOM     69  F   UNL A   1      40.231  27.961  31.484  1.00  0.00    -0.203 F 
ATOM     70  C   UNL A   1      38.056  28.722  31.015  1.00  0.00     0.198 A 
ATOM     71  C   UNL A   1      37.522  29.571  28.835  1.00  0.00     0.198 A 
ATOM     72  F   UNL A   1      39.158  29.596  27.146  1.00  0.00    -0.203 F 
ATOM     73  F   UNL A   1      37.678  28.396  32.260  1.00  0.00    -0.200 F 
ATOM     74  C   UNL A   1      37.138  29.270  30.133  1.00  0.00     0.200 A 
ATOM     75  F   UNL A   1      36.638  30.111  27.985  1.00  0.00    -0.200 F 
ATOM     76  F   UNL A   1      35.880  29.501  30.533  1.00  0.00    -0.200 F 
ENDBRANCH  52  66
BRANCH  53  77
ATOM     77  C   UNL A   1      49.109  26.750  26.166  1.00  0.00     0.064 A 
ATOM     78  C   UNL A   1      49.497  27.047  24.851  1.00  0.00     0.173 A 
ATOM     79  C   UNL A   1      50.062  26.153  27.004  1.00  0.00     0.173 A 
ATOM     80  F   UNL A   1      48.621  27.607  24.005  1.00  0.00    -0.203 F 
ATOM     81  C   UNL A   1      50.768  26.719  24.381  1.00  0.00     0.198 A 
ATOM     82  C   UNL A   1      51.344  25.858  26.543  1.00  0.00     0.198 A 
ATOM     83  F   UNL A   1      49.751  25.859  28.275  1.00  0.00    -0.203 F 
ATOM     84  F   UNL A   1      51.087  26.953  23.101  1.00  0.00    -0.200 F 
ATOM     85  C   UNL A   1      51.691  26.126  25.229  1.00  0.00     0.200 A 
ATOM     86  F   UNL A   1      52.240  25.303  27.372  1.00  0.00    -0.200 F 
ATOM     87  F   UNL A   1      52.910  25.804  24.775  1.00  0.00    -0.200 F 
ENDBRANCH  53  77
BRANCH  65  88
ATOM     88  C   UNL A   1      46.060  32.287  29.095  1.00  0.00     0.064 A 
ATOM     89  C   UNL A   1      46.613  32.493  30.366  1.00  0.00     0.173 A 
ATOM     90  C   UNL A   1      46.062  33.361  28.192  1.00  0.00     0.173 A 
ATOM     91  F   UNL A   1      46.623  31.499  31.267  1.00  0.00    -0.203 F 
ATOM     92  C   UNL A   1      47.123  33.735  30.729  1.00  0.00     0.198 A 
ATOM     93  C   UNL A   1      46.606  34.590  28.545  1.00  0.00     0.198 A 
ATOM     94  F   UNL A   1      45.554  33.210  26.959  1.00  0.00    -0.203 F 
ATOM     95  F   UNL A   1      47.598  33.925  31.968  1.00  0.00    -0.200 F 
ATOM     96  C   UNL A   1      47.127  34.779  29.815  1.00  0.00     0.200 A 
ATOM     97  F   UNL A   1      46.628  35.592  27.656  1.00  0.00    -0.200 F 
ATOM     98  F   UNL A   1      47.630  35.972  30.163  1.00  0.00    -0.200 F 
ENDBRANCH  65  88
ENDBRANCH  39  40
ENDBRANCH  31  34
ENDBRANCH  29  30
ENDBRANCH  28  29
ENDBRANCH  27  28
ENDBRANCH   3  27
TORSDOF 16
ENDMDL
MODEL 3
REMARK VINA RESULT:     -12.9      1.110      2.564
REMARK SMILES CC(C)(CC(=O)NCCCNC(=O)c1ccc(-c2c3nc(c(-c4c(F)c(F)c(F)c(F)c4F)c4ccc([nH]4)c(-c4c(F)c(F)c(F)c(F)c4F)c4nc(c(-c5c(F)c(F)c(F)c(F)c5F)c5ccc2[nH]5)C=C4)C=C3)cc1)CC(=O)Nc1cccc(C(=O)NC2CC2)c1
REMARK SMILES IDX 5 1 6 2 7 3 4 5 2 6 1 7 3 8 77 9 78 10 79 11 80 12 81 14
REMARK SMILES IDX 82 15 92 16 83 17 85 18 84 19 86 20 87 21 88 22 89 24 90 25
REMARK SMILES IDX 91 26 8 27 9 28 10 29 11 30 12 31 13 33 14 34 15 35 76 36
REMARK SMILES IDX 16 37 75 38 17 39 18 40 19 41 69 42 20 43 74 44 68 45 70 46
REMARK SMILES IDX 21 47 73 48 67 49 66 50 22 52 54 53 34 54 53 55 35 56 38 57
REMARK SMILES IDX 52 58 71 59 36 60 37 61 51 63 72 64 39 65 23 66 24 67 32 68
REMARK SMILES IDX 25 69 26 70 30 71 33 72 27 73 28 74 31 75 29 76 55 77 56 78
REMARK SMILES IDX 64 79 57 80 58 81 62 82 65 83 59 84 60 85 63 86 61 87 40 88
REMARK SMILES IDX 41 89 49 90 42 91 43 92 47 93 50 94 44 95 45 96 48 97 46 98
REMARK H PARENT 7 4 80 13 88 23 11 32 70 51 38 62
REMARK Flexibility Score: inf
ROOT
ATOM      1  C   UNL A   1      34.811  21.088  24.998  1.00  0.00     0.220 C 
ATOM      2  O   UNL A   1      34.104  20.181  24.571  1.00  0.00    -0.275 OA
ATOM      3  N   UNL A   1      35.979  20.695  25.551  1.00  0.00    -0.356 N 
ATOM      4  H   UNL A   1      35.989  20.194  26.397  1.00  0.00     0.163 HD
ENDROOT
BRANCH   1   5
ATOM      5  C   UNL A   1      34.553  22.572  24.765  1.00  0.00     0.107 C 
BRANCH   5   6
ATOM      6  C   UNL A   1      33.519  23.419  25.526  1.00  0.00    -0.018 C 
ATOM      7  C   UNL A   1      33.592  23.011  27.014  1.00  0.00     0.012 C 
ATOM      8  C   UNL A   1      34.002  24.904  25.490  1.00  0.00     0.012 C 
BRANCH   6   9
ATOM      9  C   UNL A   1      32.076  23.452  24.978  1.00  0.00     0.107 C 
BRANCH   9  10
ATOM     10  C   UNL A   1      31.797  23.317  23.506  1.00  0.00     0.224 C 
ATOM     11  O   UNL A   1      31.819  22.185  23.001  1.00  0.00    -0.275 OA
ATOM     12  N   UNL A   1      31.460  24.345  22.680  1.00  0.00    -0.326 N 
ATOM     13  H   UNL A   1      30.884  24.046  21.939  1.00  0.00     0.169 HD
BRANCH  12  14
ATOM     14  C   UNL A   1      31.728  25.738  22.615  1.00  0.00     0.041 A 
ATOM     15  C   UNL A   1      33.016  26.025  22.123  1.00  0.00     0.026 A 
ATOM     16  C   UNL A   1      30.996  26.782  23.201  1.00  0.00     0.040 A 
ATOM     17  C   UNL A   1      33.641  27.238  22.407  1.00  0.00     0.003 A 
ATOM     18  C   UNL A   1      31.665  27.962  23.606  1.00  0.00     0.041 A 
ATOM     19  C   UNL A   1      32.986  28.181  23.191  1.00  0.00     0.014 A 
BRANCH  18  20
ATOM     20  C   UNL A   1      31.038  29.120  24.299  1.00  0.00     0.251 C 
ATOM     21  O   UNL A   1      30.187  29.743  23.658  1.00  0.00    -0.269 OA
ATOM     22  N   UNL A   1      31.504  29.700  25.472  1.00  0.00    -0.349 N 
ATOM     23  H   UNL A   1      31.563  30.682  25.421  1.00  0.00     0.164 HD
BRANCH  22  24
ATOM     24  C   UNL A   1      31.918  29.176  26.740  1.00  0.00     0.082 C 
ATOM     25  C   UNL A   1      32.234  27.745  27.080  1.00  0.00     0.027 C 
ATOM     26  C   UNL A   1      33.358  28.675  26.818  1.00  0.00     0.027 C 
ENDBRANCH  22  24
ENDBRANCH  18  20
ENDBRANCH  12  14
ENDBRANCH   9  10
ENDBRANCH   6   9
ENDBRANCH   5   6
ENDBRANCH   1   5
BRANCH   3  27
ATOM     27  C   UNL A   1      37.206  21.024  24.878  1.00  0.00     0.117 C 
BRANCH  27  28
ATOM     28  C   UNL A   1      38.183  19.895  24.979  1.00  0.00     0.042 C 
BRANCH  28  29
ATOM     29  C   UNL A   1      39.379  20.357  25.774  1.00  0.00     0.118 C 
BRANCH  29  30
ATOM     30  N   UNL A   1      40.281  19.238  26.047  1.00  0.00    -0.352 N 
ATOM     31  C   UNL A   1      41.655  19.252  26.138  1.00  0.00     0.251 C 
ATOM     32  H   UNL A   1      39.851  18.362  26.182  1.00  0.00     0.163 HD
ATOM     33  O   UNL A   1      42.308  18.228  26.041  1.00  0.00    -0.269 OA
BRANCH  31  34
ATOM     34  C   UNL A   1      42.310  20.558  26.336  1.00  0.00     0.039 A 
ATOM     35  C   UNL A   1      42.705  21.323  25.241  1.00  0.00     0.014 A 
ATOM     36  C   UNL A   1      42.437  21.051  27.634  1.00  0.00     0.014 A 
ATOM     37  C   UNL A   1      43.167  22.619  25.458  1.00  0.00     0.010 A 
ATOM     38  C   UNL A   1      42.699  22.391  27.825  1.00  0.00     0.010 A 
ATOM     39  C   UNL A   1      43.126  23.176  26.748  1.00  0.00    -0.014 A 
BRANCH  39  40
ATOM     40  C   UNL A   1      43.612  24.542  27.038  1.00  0.00     0.031 A 
ATOM     41  C   UNL A   1      42.640  25.553  27.591  1.00  0.00     0.074 A 
ATOM     42  C   UNL A   1      44.882  24.882  26.746  1.00  0.00     0.049 A 
ATOM     43  N   UNL A   1      42.810  26.830  27.815  1.00  0.00    -0.248 NA
ATOM     44  C   UNL A   1      41.273  25.078  27.882  1.00  0.00     0.031 C 
ATOM     45  C   UNL A   1      45.886  24.000  26.146  1.00  0.00     0.029 A 
ATOM     46  N   UNL A   1      45.547  26.069  26.917  1.00  0.00    -0.354 N 
ATOM     47  C   UNL A   1      41.574  27.299  28.243  1.00  0.00     0.074 A 
ATOM     48  C   UNL A   1      40.638  26.206  28.152  1.00  0.00     0.031 C 
ATOM     49  C   UNL A   1      47.050  24.661  26.046  1.00  0.00     0.029 A 
ATOM     50  C   UNL A   1      46.862  26.024  26.528  1.00  0.00     0.049 A 
ATOM     51  H   UNL A   1      45.120  26.877  27.285  1.00  0.00     0.167 HD
ATOM     52  C   UNL A   1      41.258  28.521  28.726  1.00  0.00     0.037 A 
ATOM     53  C   UNL A   1      47.804  26.986  26.559  1.00  0.00     0.037 A 
ATOM     54  C   UNL A   1      42.213  29.584  28.867  1.00  0.00     0.049 A 
ATOM     55  C   UNL A   1      47.425  28.339  27.103  1.00  0.00     0.074 A 
ATOM     56  C   UNL A   1      42.026  30.850  29.388  1.00  0.00     0.029 A 
ATOM     57  N   UNL A   1      43.546  29.491  28.492  1.00  0.00    -0.354 N 
ATOM     58  N   UNL A   1      46.270  28.752  27.569  1.00  0.00    -0.248 NA
ATOM     59  C   UNL A   1      48.481  29.358  27.132  1.00  0.00     0.031 C 
ATOM     60  C   UNL A   1      43.237  31.539  29.288  1.00  0.00     0.029 A 
ATOM     61  C   UNL A   1      44.191  30.684  28.759  1.00  0.00     0.049 A 
ATOM     62  H   UNL A   1      43.968  28.695  28.094  1.00  0.00     0.167 HD
ATOM     63  C   UNL A   1      46.471  30.062  27.982  1.00  0.00     0.074 A 
ATOM     64  C   UNL A   1      47.864  30.368  27.727  1.00  0.00     0.031 C 
ATOM     65  C   UNL A   1      45.587  30.940  28.517  1.00  0.00     0.037 A 
BRANCH  52  66
ATOM     66  C   UNL A   1      39.843  28.755  29.169  1.00  0.00     0.064 A 
ATOM     67  C   UNL A   1      38.867  29.240  28.283  1.00  0.00     0.173 A 
ATOM     68  C   UNL A   1      39.447  28.462  30.481  1.00  0.00     0.173 A 
ATOM     69  F   UNL A   1      39.197  29.558  27.021  1.00  0.00    -0.203 F 
ATOM     70  C   UNL A   1      37.556  29.446  28.702  1.00  0.00     0.198 A 
ATOM     71  C   UNL A   1      38.126  28.636  30.887  1.00  0.00     0.198 A 
ATOM     72  F   UNL A   1      40.338  27.999  31.370  1.00  0.00    -0.203 F 
ATOM     73  F   UNL A   1      36.655  29.960  27.851  1.00  0.00    -0.200 F 
ATOM     74  C   UNL A   1      37.184  29.133  29.999  1.00  0.00     0.200 A 
ATOM     75  F   UNL A   1      37.764  28.321  32.138  1.00  0.00    -0.200 F 
ATOM     76  F   UNL A   1      35.917  29.317  30.397  1.00  0.00    -0.200 F 
ENDBRANCH  52  66
BRANCH  53  77
ATOM     77  C   UNL A   1      49.191  26.707  26.097  1.00  0.00     0.064 A 
ATOM     78  C   UNL A   1      49.588  27.006  24.786  1.00  0.00     0.173 A 
ATOM     79  C   UNL A   1      50.137  26.104  26.940  1.00  0.00     0.173 A 
ATOM     80  F   UNL A   1      48.719  27.572  23.936  1.00  0.00    -0.203 F 
ATOM     81  C   UNL A   1      50.861  26.675  24.323  1.00  0.00     0.198 A 
ATOM     82  C   UNL A   1      51.421  25.807  26.486  1.00  0.00     0.198 A 
ATOM     83  F   UNL A   1      49.817  25.808  28.208  1.00  0.00    -0.203 F 
ATOM     84  F   UNL A   1      51.188  26.912  23.045  1.00  0.00    -0.200 F 
ATOM     85  C   UNL A   1      51.776  26.078  25.175  1.00  0.00     0.200 A 
ATOM     86  F   UNL A   1      52.309  25.247  27.318  1.00  0.00    -0.200 F 
ATOM     87  F   UNL A   1      52.997  25.753  24.727  1.00  0.00    -0.200 F 
ENDBRANCH  53  77
BRANCH  65  88
ATOM     88  C   UNL A   1      46.114  32.288  28.914  1.00  0.00     0.064 A 
ATOM     89  C   UNL A   1      46.666  32.520  30.180  1.00  0.00     0.173 A 
ATOM     90  C   UNL A   1      46.111  33.344  27.990  1.00  0.00     0.173 A 
ATOM     91  F   UNL A   1      46.681  31.543  31.100  1.00  0.00    -0.203 F 
ATOM     92  C   UNL A   1      47.170  33.771  30.520  1.00  0.00     0.198 A 
ATOM     93  C   UNL A   1      46.649  34.582  28.320  1.00  0.00     0.198 A 
ATOM     94  F   UNL A   1      45.604  33.168  26.761  1.00  0.00    -0.203 F 
ATOM     95  F   UNL A   1      47.644  33.987  31.755  1.00  0.00    -0.200 F 
ATOM     96  C   UNL A   1      47.169  34.798  29.587  1.00  0.00     0.200 A 
ATOM     97  F   UNL A   1      46.666  35.568  27.412  1.00  0.00    -0.200 F 
ATOM     98  F   UNL A   1      47.666  35.999  29.912  1.00  0.00    -0.200 F 
ENDBRANCH  65  88
ENDBRANCH  39  40
ENDBRANCH  31  34
ENDBRANCH  29  30
ENDBRANCH  28  29
ENDBRANCH  27  28
ENDBRANCH   3  27
TORSDOF 16
ENDMDL
