MODEL 1
REMARK VINA RESULT:     -12.4      0.000      0.000
REMARK SMILES C[C@@H]1CCC[C@@H](C)C1[N@H+]1CCO[C@H](CC(=O)NCCCNC(=O)c2ccc(-c3c4nc(c(-c5c(F)c(F)c(F)c(F)c5F)c5ccc([nH]5)c(-c5c(F)c(F)c(F)c(F)c5F)c5nc(c(-c6c(F)c(F)c(F)c(F)c6F)c6ccc3[nH]6)C=C5)C=C4)cc2)C1
REMARK SMILES IDX 19 1 18 2 17 3 15 4 16 5 14 7 13 8 9 9 10 10 87 11 11 13
REMARK SMILES IDX 12 14 8 15 1 16 2 17 3 18 4 19 6 20 5 21 7 22 20 23 21 24
REMARK SMILES IDX 22 25 23 27 24 28 25 29 86 30 26 31 85 32 27 33 28 34 29 35
REMARK SMILES IDX 79 36 30 37 84 38 78 39 80 40 31 41 83 42 77 43 76 44 32 46
REMARK SMILES IDX 64 47 44 48 63 49 45 50 48 51 62 52 81 53 46 54 47 55 61 57
REMARK SMILES IDX 82 58 49 59 33 60 34 61 42 62 35 63 36 64 40 65 43 66 37 67
REMARK SMILES IDX 38 68 41 69 39 70 65 71 66 72 74 73 67 74 68 75 72 76 75 77
REMARK SMILES IDX 69 78 70 79 73 80 71 81 50 82 51 83 59 84 52 85 53 86 57 87
REMARK SMILES IDX 60 88 54 89 55 90 58 91 56 92
REMARK H PARENT 17 6 9 12 21 26 80 45 48 56
REMARK Flexibility Score: inf
ROOT
ATOM      1  C   UNL A   1      31.259  32.384  26.484  1.00  0.00     0.042 C 
ENDROOT
BRANCH   1   2
ATOM      2  C   UNL A   1      31.336  30.942  25.984  1.00  0.00     0.117 C 
BRANCH   2   3
ATOM      3  N   UNL A   1      32.560  30.295  26.425  1.00  0.00    -0.356 N 
ATOM      4  C   UNL A   1      32.714  29.132  27.118  1.00  0.00     0.222 C 
ATOM      5  O   UNL A   1      33.845  28.824  27.499  1.00  0.00    -0.275 OA
ATOM      6  H   UNL A   1      33.394  30.761  26.189  1.00  0.00     0.163 HD
BRANCH   4   7
ATOM      7  C   UNL A   1      31.525  28.238  27.415  1.00  0.00     0.138 C 
BRANCH   7   8
ATOM      8  C   UNL A   1      31.621  26.921  26.647  1.00  0.00     0.182 C 
ATOM      9  N   UNL A   1      31.931  25.913  24.361  1.00  0.00    -0.328 N 
ATOM     10  C   UNL A   1      30.728  25.131  24.626  1.00  0.00     0.291 C 
ATOM     11  C   UNL A   1      31.932  27.159  25.148  1.00  0.00     0.295 C 
ATOM     12  H   UNL A   1      31.796  26.088  23.365  1.00  0.00     0.348 HD
ATOM     13  C   UNL A   1      30.397  24.972  26.109  1.00  0.00     0.222 C 
ATOM     14  O   UNL A   1      30.354  26.245  26.761  1.00  0.00    -0.366 OA
BRANCH   9  15
ATOM     15  C   UNL A   1      33.238  25.334  24.005  1.00  0.00     0.189 C 
ATOM     16  C   UNL A   1      35.402  24.350  24.974  1.00  0.00     0.014 C 
ATOM     17  C   UNL A   1      33.863  24.351  25.052  1.00  0.00     0.045 C 
ATOM     18  C   UNL A   1      33.321  22.923  24.919  1.00  0.00     0.009 C 
ATOM     19  C   UNL A   1      33.423  22.361  23.505  1.00  0.00     0.001 C 
ATOM     20  C   UNL A   1      33.411  24.728  22.575  1.00  0.00     0.045 C 
ATOM     21  C   UNL A   1      32.853  23.302  22.446  1.00  0.00     0.009 C 
ATOM     22  C   UNL A   1      32.946  25.646  21.439  1.00  0.00     0.014 C 
ENDBRANCH   9  15
ENDBRANCH   7   8
ENDBRANCH   4   7
ENDBRANCH   2   3
ENDBRANCH   1   2
BRANCH   1  23
ATOM     23  C   UNL A   1      32.513  32.853  27.208  1.00  0.00     0.118 C 
BRANCH  23  24
ATOM     24  N   UNL A   1      32.427  34.250  27.602  1.00  0.00    -0.352 N 
ATOM     25  C   UNL A   1      33.009  34.935  28.636  1.00  0.00     0.251 C 
ATOM     26  H   UNL A   1      31.849  34.800  27.024  1.00  0.00     0.163 HD
ATOM     27  O   UNL A   1      32.583  36.057  28.912  1.00  0.00    -0.269 OA
BRANCH  25  28
ATOM     28  C   UNL A   1      34.129  34.375  29.430  1.00  0.00     0.039 A 
ATOM     29  C   UNL A   1      35.427  34.489  28.917  1.00  0.00     0.014 A 
ATOM     30  C   UNL A   1      33.925  33.647  30.606  1.00  0.00     0.014 A 
ATOM     31  C   UNL A   1      36.506  33.898  29.583  1.00  0.00     0.010 A 
ATOM     32  C   UNL A   1      35.011  33.135  31.318  1.00  0.00     0.010 A 
ATOM     33  C   UNL A   1      36.310  33.226  30.798  1.00  0.00    -0.014 A 
BRANCH  33  34
ATOM     34  C   UNL A   1      37.443  32.560  31.496  1.00  0.00     0.031 A 
ATOM     35  C   UNL A   1      38.186  31.431  30.829  1.00  0.00     0.074 A 
ATOM     36  C   UNL A   1      37.791  32.949  32.737  1.00  0.00     0.049 A 
ATOM     37  N   UNL A   1      39.179  30.708  31.285  1.00  0.00    -0.248 NA
ATOM     38  C   UNL A   1      37.735  31.044  29.484  1.00  0.00     0.031 C 
ATOM     39  C   UNL A   1      37.125  33.996  33.513  1.00  0.00     0.029 A 
ATOM     40  N   UNL A   1      38.793  32.508  33.565  1.00  0.00    -0.354 N 
ATOM     41  C   UNL A   1      39.452  29.772  30.295  1.00  0.00     0.074 A 
ATOM     42  C   UNL A   1      38.489  29.983  29.236  1.00  0.00     0.031 C 
ATOM     43  C   UNL A   1      37.754  34.137  34.691  1.00  0.00     0.029 A 
ATOM     44  C   UNL A   1      38.850  33.176  34.764  1.00  0.00     0.049 A 
ATOM     45  H   UNL A   1      39.413  31.783  33.323  1.00  0.00     0.167 HD
ATOM     46  C   UNL A   1      40.431  28.836  30.258  1.00  0.00     0.037 A 
ATOM     47  C   UNL A   1      39.696  33.032  35.803  1.00  0.00     0.037 A 
ATOM     48  C   UNL A   1      41.420  28.654  31.288  1.00  0.00     0.049 A 
ATOM     49  C   UNL A   1      40.799  32.013  35.720  1.00  0.00     0.074 A 
ATOM     50  C   UNL A   1      42.490  27.776  31.314  1.00  0.00     0.029 A 
ATOM     51  N   UNL A   1      41.462  29.372  32.473  1.00  0.00    -0.354 N 
ATOM     52  N   UNL A   1      41.080  31.174  34.753  1.00  0.00    -0.248 NA
ATOM     53  C   UNL A   1      41.710  31.930  36.870  1.00  0.00     0.031 C 
ATOM     54  C   UNL A   1      43.163  27.942  32.530  1.00  0.00     0.029 A 
ATOM     55  C   UNL A   1      42.534  28.950  33.244  1.00  0.00     0.049 A 
ATOM     56  H   UNL A   1      40.825  30.076  32.731  1.00  0.00     0.167 HD
ATOM     57  C   UNL A   1      42.210  30.480  35.167  1.00  0.00     0.074 A 
ATOM     58  C   UNL A   1      42.574  31.011  36.464  1.00  0.00     0.031 C 
ATOM     59  C   UNL A   1      42.883  29.491  34.531  1.00  0.00     0.037 A 
BRANCH  46  60
ATOM     60  C   UNL A   1      40.487  27.941  29.054  1.00  0.00     0.064 A 
ATOM     61  C   UNL A   1      39.734  26.759  28.981  1.00  0.00     0.173 A 
ATOM     62  C   UNL A   1      41.280  28.283  27.948  1.00  0.00     0.173 A 
ATOM     63  F   UNL A   1      38.970  26.380  30.015  1.00  0.00    -0.203 F 
ATOM     64  C   UNL A   1      39.799  25.937  27.859  1.00  0.00     0.198 A 
ATOM     65  C   UNL A   1      41.320  27.472  26.816  1.00  0.00     0.198 A 
ATOM     66  F   UNL A   1      42.015  29.406  27.964  1.00  0.00    -0.203 F 
ATOM     67  F   UNL A   1      39.110  24.787  27.832  1.00  0.00    -0.200 F 
ATOM     68  C   UNL A   1      40.586  26.297  26.775  1.00  0.00     0.200 A 
ATOM     69  F   UNL A   1      42.073  27.826  25.766  1.00  0.00    -0.200 F 
ATOM     70  F   UNL A   1      40.644  25.505  25.695  1.00  0.00    -0.200 F 
ENDBRANCH  46  60
BRANCH  47  71
ATOM     71  C   UNL A   1      39.558  33.906  36.994  1.00  0.00     0.064 A 
ATOM     72  C   UNL A   1      40.162  35.170  37.029  1.00  0.00     0.173 A 
ATOM     73  C   UNL A   1      38.823  33.500  38.117  1.00  0.00     0.173 A 
ATOM     74  F   UNL A   1      40.893  35.592  35.986  1.00  0.00    -0.203 F 
ATOM     75  C   UNL A   1      40.052  35.989  38.151  1.00  0.00     0.198 A 
ATOM     76  C   UNL A   1      38.693  34.330  39.228  1.00  0.00     0.198 A 
ATOM     77  F   UNL A   1      38.222  32.302  38.130  1.00  0.00    -0.203 F 
ATOM     78  F   UNL A   1      40.674  37.176  38.175  1.00  0.00    -0.200 F 
ATOM     79  C   UNL A   1      39.313  35.572  39.247  1.00  0.00     0.200 A 
ATOM     80  F   UNL A   1      37.968  33.929  40.281  1.00  0.00    -0.200 F 
ATOM     81  F   UNL A   1      39.204  36.360  40.324  1.00  0.00    -0.200 F 
ENDBRANCH  47  71
BRANCH  59  82
ATOM     82  C   UNL A   1      44.095  28.937  35.220  1.00  0.00     0.064 A 
ATOM     83  C   UNL A   1      44.000  27.863  36.118  1.00  0.00     0.173 A 
ATOM     84  C   UNL A   1      45.365  29.472  34.964  1.00  0.00     0.173 A 
ATOM     85  F   UNL A   1      42.804  27.329  36.406  1.00  0.00    -0.203 F 
ATOM     86  C   UNL A   1      45.131  27.364  36.756  1.00  0.00     0.198 A 
ATOM     87  C   UNL A   1      46.499  28.952  35.584  1.00  0.00     0.198 A 
ATOM     88  F   UNL A   1      45.509  30.496  34.109  1.00  0.00    -0.203 F 
ATOM     89  F   UNL A   1      45.011  26.369  37.646  1.00  0.00    -0.200 F 
ATOM     90  C   UNL A   1      46.379  27.905  36.485  1.00  0.00     0.200 A 
ATOM     91  F   UNL A   1      47.705  29.469  35.314  1.00  0.00    -0.200 F 
ATOM     92  F   UNL A   1      47.468  27.422  37.100  1.00  0.00    -0.200 F 
ENDBRANCH  59  82
ENDBRANCH  33  34
ENDBRANCH  25  28
ENDBRANCH  23  24
ENDBRANCH   1  23
TORSDOF 12
ENDMDL
MODEL 2
REMARK VINA RESULT:     -12.4      1.052      7.478
REMARK SMILES C[C@@H]1CCC[C@@H](C)C1[N@H+]1CCO[C@H](CC(=O)NCCCNC(=O)c2ccc(-c3c4nc(c(-c5c(F)c(F)c(F)c(F)c5F)c5ccc([nH]5)c(-c5c(F)c(F)c(F)c(F)c5F)c5nc(c(-c6c(F)c(F)c(F)c(F)c6F)c6ccc3[nH]6)C=C5)C=C4)cc2)C1
REMARK SMILES IDX 19 1 18 2 17 3 15 4 16 5 14 7 13 8 9 9 10 10 87 11 11 13
REMARK SMILES IDX 12 14 8 15 1 16 2 17 3 18 4 19 6 20 5 21 7 22 20 23 21 24
REMARK SMILES IDX 22 25 23 27 24 28 25 29 86 30 26 31 85 32 27 33 28 34 29 35
REMARK SMILES IDX 79 36 30 37 84 38 78 39 80 40 31 41 83 42 77 43 76 44 32 46
REMARK SMILES IDX 64 47 44 48 63 49 45 50 48 51 62 52 81 53 46 54 47 55 61 57
REMARK SMILES IDX 82 58 49 59 33 60 34 61 42 62 35 63 36 64 40 65 43 66 37 67
REMARK SMILES IDX 38 68 41 69 39 70 65 71 66 72 74 73 67 74 68 75 72 76 75 77
REMARK SMILES IDX 69 78 70 79 73 80 71 81 50 82 51 83 59 84 52 85 53 86 57 87
REMARK SMILES IDX 60 88 54 89 55 90 58 91 56 92
REMARK H PARENT 17 6 9 12 21 26 80 45 48 56
REMARK Flexibility Score: inf
ROOT
ATOM      1  C   UNL A   1      31.456  32.079  26.936  1.00  0.00     0.042 C 
ENDROOT
BRANCH   1   2
ATOM      2  C   UNL A   1      31.740  30.578  26.870  1.00  0.00     0.117 C 
BRANCH   2   3
ATOM      3  N   UNL A   1      33.011  30.253  27.494  1.00  0.00    -0.356 N 
ATOM      4  C   UNL A   1      34.005  29.438  27.042  1.00  0.00     0.222 C 
ATOM      5  O   UNL A   1      34.955  29.203  27.793  1.00  0.00    -0.275 OA
ATOM      6  H   UNL A   1      33.178  30.682  28.365  1.00  0.00     0.163 HD
BRANCH   4   7
ATOM      7  C   UNL A   1      33.945  28.833  25.654  1.00  0.00     0.138 C 
BRANCH   7   8
ATOM      8  C   UNL A   1      33.679  27.330  25.719  1.00  0.00     0.182 C 
ATOM      9  N   UNL A   1      33.289  25.268  24.328  1.00  0.00    -0.328 N 
ATOM     10  C   UNL A   1      32.096  25.040  25.135  1.00  0.00     0.291 C 
ATOM     11  C   UNL A   1      33.644  26.698  24.304  1.00  0.00     0.295 C 
ATOM     12  H   UNL A   1      32.940  24.943  23.426  1.00  0.00     0.348 HD
ATOM     13  C   UNL A   1      32.117  25.735  26.497  1.00  0.00     0.222 C 
ATOM     14  O   UNL A   1      32.401  27.130  26.352  1.00  0.00    -0.366 OA
BRANCH   9  15
ATOM     15  C   UNL A   1      34.384  24.294  24.169  1.00  0.00     0.189 C 
ATOM     16  C   UNL A   1      36.729  23.660  24.996  1.00  0.00     0.014 C 
ATOM     17  C   UNL A   1      35.312  24.093  25.415  1.00  0.00     0.045 C 
ATOM     18  C   UNL A   1      34.730  23.103  26.431  1.00  0.00     0.009 C 
ATOM     19  C   UNL A   1      34.330  21.764  25.819  1.00  0.00     0.001 C 
ATOM     20  C   UNL A   1      34.044  22.896  23.559  1.00  0.00     0.045 C 
ATOM     21  C   UNL A   1      33.449  21.914  24.581  1.00  0.00     0.009 C 
ATOM     22  C   UNL A   1      33.235  22.953  22.259  1.00  0.00     0.014 C 
ENDBRANCH   9  15
ENDBRANCH   7   8
ENDBRANCH   4   7
ENDBRANCH   2   3
ENDBRANCH   1   2
BRANCH   1  23
ATOM     23  C   UNL A   1      32.706  32.945  26.877  1.00  0.00     0.118 C 
BRANCH  23  24
ATOM     24  N   UNL A   1      32.516  34.225  27.540  1.00  0.00    -0.352 N 
ATOM     25  C   UNL A   1      33.035  34.724  28.706  1.00  0.00     0.251 C 
ATOM     26  H   UNL A   1      31.909  34.840  27.069  1.00  0.00     0.163 HD
ATOM     27  O   UNL A   1      32.528  35.738  29.188  1.00  0.00    -0.269 OA
BRANCH  25  28
ATOM     28  C   UNL A   1      34.182  34.092  29.402  1.00  0.00     0.039 A 
ATOM     29  C   UNL A   1      35.477  34.462  29.017  1.00  0.00     0.014 A 
ATOM     30  C   UNL A   1      34.018  33.069  30.340  1.00  0.00     0.014 A 
ATOM     31  C   UNL A   1      36.590  33.829  29.579  1.00  0.00     0.010 A 
ATOM     32  C   UNL A   1      35.129  32.500  30.967  1.00  0.00     0.010 A 
ATOM     33  C   UNL A   1      36.427  32.850  30.570  1.00  0.00    -0.014 A 
BRANCH  33  34
ATOM     34  C   UNL A   1      37.601  32.142  31.147  1.00  0.00     0.031 A 
ATOM     35  C   UNL A   1      38.079  32.473  32.537  1.00  0.00     0.074 A 
ATOM     36  C   UNL A   1      38.257  31.220  30.416  1.00  0.00     0.049 A 
ATOM     37  N   UNL A   1      39.098  31.988  33.202  1.00  0.00    -0.248 NA
ATOM     38  C   UNL A   1      37.329  33.507  33.266  1.00  0.00     0.031 C 
ATOM     39  C   UNL A   1      37.928  30.840  29.042  1.00  0.00     0.029 A 
ATOM     40  N   UNL A   1      39.338  30.435  30.728  1.00  0.00    -0.354 N 
ATOM     41  C   UNL A   1      39.123  32.672  34.411  1.00  0.00     0.074 A 
ATOM     42  C   UNL A   1      38.050  33.642  34.370  1.00  0.00     0.031 C 
ATOM     43  C   UNL A   1      38.769  29.874  28.640  1.00  0.00     0.029 A 
ATOM     44  C   UNL A   1      39.711  29.584  29.716  1.00  0.00     0.049 A 
ATOM     45  H   UNL A   1      39.802  30.476  31.596  1.00  0.00     0.167 HD
ATOM     46  C   UNL A   1      39.948  32.494  35.471  1.00  0.00     0.037 A 
ATOM     47  C   UNL A   1      40.700  28.670  29.665  1.00  0.00     0.037 A 
ATOM     48  C   UNL A   1      40.985  31.498  35.535  1.00  0.00     0.049 A 
ATOM     49  C   UNL A   1      41.576  28.464  30.870  1.00  0.00     0.074 A 
ATOM     50  C   UNL A   1      41.832  31.197  36.588  1.00  0.00     0.029 A 
ATOM     51  N   UNL A   1      41.312  30.635  34.499  1.00  0.00    -0.354 N 
ATOM     52  N   UNL A   1      41.551  29.078  32.027  1.00  0.00    -0.248 NA
ATOM     53  C   UNL A   1      42.611  27.427  30.764  1.00  0.00     0.031 C 
ATOM     54  C   UNL A   1      42.691  30.171  36.178  1.00  0.00     0.029 A 
ATOM     55  C   UNL A   1      42.354  29.808  34.884  1.00  0.00     0.049 A 
ATOM     56  H   UNL A   1      40.869  30.614  33.620  1.00  0.00     0.167 HD
ATOM     57  C   UNL A   1      42.549  28.490  32.794  1.00  0.00     0.074 A 
ATOM     58  C   UNL A   1      43.147  27.456  31.976  1.00  0.00     0.031 C 
ATOM     59  C   UNL A   1      42.936  28.781  34.059  1.00  0.00     0.037 A 
BRANCH  46  60
ATOM     60  C   UNL A   1      39.752  33.391  36.658  1.00  0.00     0.064 A 
ATOM     61  C   UNL A   1      38.861  33.059  37.692  1.00  0.00     0.173 A 
ATOM     62  C   UNL A   1      40.481  34.583  36.780  1.00  0.00     0.173 A 
ATOM     63  F   UNL A   1      38.130  31.937  37.617  1.00  0.00    -0.203 F 
ATOM     64  C   UNL A   1      38.686  33.902  38.785  1.00  0.00     0.198 A 
ATOM     65  C   UNL A   1      40.324  35.410  37.890  1.00  0.00     0.198 A 
ATOM     66  F   UNL A   1      41.350  34.944  35.824  1.00  0.00    -0.203 F 
ATOM     67  F   UNL A   1      37.792  33.588  39.735  1.00  0.00    -0.200 F 
ATOM     68  C   UNL A   1      39.422  35.073  38.887  1.00  0.00     0.200 A 
ATOM     69  F   UNL A   1      41.043  36.536  37.992  1.00  0.00    -0.200 F 
ATOM     70  F   UNL A   1      39.253  35.882  39.943  1.00  0.00    -0.200 F 
ENDBRANCH  46  60
BRANCH  47  71
ATOM     71  C   UNL A   1      40.884  27.849  28.443  1.00  0.00     0.064 A 
ATOM     72  C   UNL A   1      41.745  28.270  27.420  1.00  0.00     0.173 A 
ATOM     73  C   UNL A   1      40.210  26.632  28.271  1.00  0.00     0.173 A 
ATOM     74  F   UNL A   1      42.395  29.438  27.531  1.00  0.00    -0.203 F 
ATOM     75  C   UNL A   1      41.910  27.514  26.262  1.00  0.00     0.198 A 
ATOM     76  C   UNL A   1      40.395  25.864  27.124  1.00  0.00     0.198 A 
ATOM     77  F   UNL A   1      39.379  26.184  29.224  1.00  0.00    -0.203 F 
ATOM     78  F   UNL A   1      42.707  27.959  25.281  1.00  0.00    -0.200 F 
ATOM     79  C   UNL A   1      41.240  26.308  26.117  1.00  0.00     0.200 A 
ATOM     80  F   UNL A   1      39.755  24.694  26.992  1.00  0.00    -0.200 F 
ATOM     81  F   UNL A   1      41.401  25.579  25.005  1.00  0.00    -0.200 F 
ENDBRANCH  47  71
BRANCH  59  82
ATOM     82  C   UNL A   1      44.043  27.955  34.642  1.00  0.00     0.064 A 
ATOM     83  C   UNL A   1      45.384  28.355  34.548  1.00  0.00     0.173 A 
ATOM     84  C   UNL A   1      43.758  26.762  35.321  1.00  0.00     0.173 A 
ATOM     85  F   UNL A   1      45.708  29.482  33.895  1.00  0.00    -0.203 F 
ATOM     86  C   UNL A   1      46.402  27.575  35.087  1.00  0.00     0.198 A 
ATOM     87  C   UNL A   1      44.776  25.997  35.883  1.00  0.00     0.198 A 
ATOM     88  F   UNL A   1      42.490  26.339  35.443  1.00  0.00    -0.203 F 
ATOM     89  F   UNL A   1      47.680  27.952  34.944  1.00  0.00    -0.200 F 
ATOM     90  C   UNL A   1      46.097  26.399  35.758  1.00  0.00     0.200 A 
ATOM     91  F   UNL A   1      44.480  24.866  36.539  1.00  0.00    -0.200 F 
ATOM     92  F   UNL A   1      47.079  25.649  36.278  1.00  0.00    -0.200 F 
ENDBRANCH  59  82
ENDBRANCH  33  34
ENDBRANCH  25  28
ENDBRANCH  23  24
ENDBRANCH   1  23
TORSDOF 12
ENDMDL
MODEL 3
REMARK VINA RESULT:     -12.4      5.672     10.845
REMARK SMILES C[C@@H]1CCC[C@@H](C)C1[N@H+]1CCO[C@H](CC(=O)NCCCNC(=O)c2ccc(-c3c4nc(c(-c5c(F)c(F)c(F)c(F)c5F)c5ccc([nH]5)c(-c5c(F)c(F)c(F)c(F)c5F)c5nc(c(-c6c(F)c(F)c(F)c(F)c6F)c6ccc3[nH]6)C=C5)C=C4)cc2)C1
REMARK SMILES IDX 19 1 18 2 17 3 15 4 16 5 14 7 13 8 9 9 10 10 87 11 11 13
REMARK SMILES IDX 12 14 8 15 1 16 2 17 3 18 4 19 6 20 5 21 7 22 20 23 21 24
REMARK SMILES IDX 22 25 23 27 24 28 25 29 86 30 26 31 85 32 27 33 28 34 29 35
REMARK SMILES IDX 79 36 30 37 84 38 78 39 80 40 31 41 83 42 77 43 76 44 32 46
REMARK SMILES IDX 64 47 44 48 63 49 45 50 48 51 62 52 81 53 46 54 47 55 61 57
REMARK SMILES IDX 82 58 49 59 33 60 34 61 42 62 35 63 36 64 40 65 43 66 37 67
REMARK SMILES IDX 38 68 41 69 39 70 65 71 66 72 74 73 67 74 68 75 72 76 75 77
REMARK SMILES IDX 69 78 70 79 73 80 71 81 50 82 51 83 59 84 52 85 53 86 57 87
REMARK SMILES IDX 60 88 54 89 55 90 58 91 56 92
REMARK H PARENT 17 6 9 12 21 26 80 45 48 56
REMARK Flexibility Score: inf
ROOT
ATOM      1  C   UNL A   1      38.379  19.613  24.958  1.00  0.00     0.042 C 
ENDROOT
BRANCH   1   2
ATOM      2  C   UNL A   1      37.475  20.801  24.630  1.00  0.00     0.117 C 
BRANCH   2   3
ATOM      3  N   UNL A   1      38.072  22.054  25.063  1.00  0.00    -0.356 N 
ATOM      4  C   UNL A   1      37.494  23.098  25.720  1.00  0.00     0.222 C 
ATOM      5  O   UNL A   1      38.157  24.124  25.884  1.00  0.00    -0.275 OA
ATOM      6  H   UNL A   1      39.028  22.163  24.853  1.00  0.00     0.163 HD
BRANCH   4   7
ATOM      7  C   UNL A   1      36.072  23.002  26.236  1.00  0.00     0.138 C 
BRANCH   7   8
ATOM      8  C   UNL A   1      35.158  23.996  25.521  1.00  0.00     0.182 C 
ATOM      9  N   UNL A   1      32.810  24.899  25.423  1.00  0.00    -0.328 N 
ATOM     10  C   UNL A   1      32.841  24.615  23.992  1.00  0.00     0.291 C 
ATOM     11  C   UNL A   1      33.744  24.024  26.154  1.00  0.00     0.295 C 
ATOM     12  H   UNL A   1      31.836  24.666  25.614  1.00  0.00     0.348 HD
ATOM     13  C   UNL A   1      34.247  24.516  23.402  1.00  0.00     0.222 C 
ATOM     14  O   UNL A   1      35.047  23.589  24.143  1.00  0.00    -0.366 OA
BRANCH   9  15
ATOM     15  C   UNL A   1      32.529  26.225  26.001  1.00  0.00     0.189 C 
ATOM     16  C   UNL A   1      33.614  28.309  27.033  1.00  0.00     0.014 C 
ATOM     17  C   UNL A   1      33.676  27.284  25.884  1.00  0.00     0.045 C 
ATOM     18  C   UNL A   1      33.682  28.002  24.529  1.00  0.00     0.009 C 
ATOM     19  C   UNL A   1      32.333  28.606  24.152  1.00  0.00     0.001 C 
ATOM     20  C   UNL A   1      31.169  26.909  25.647  1.00  0.00     0.045 C 
ATOM     21  C   UNL A   1      31.179  27.615  24.282  1.00  0.00     0.009 C 
ATOM     22  C   UNL A   1      29.941  26.012  25.836  1.00  0.00     0.014 C 
ENDBRANCH   9  15
ENDBRANCH   7   8
ENDBRANCH   4   7
ENDBRANCH   2   3
ENDBRANCH   1   2
BRANCH   1  23
ATOM     23  C   UNL A   1      39.316  19.858  26.132  1.00  0.00     0.118 C 
BRANCH  23  24
ATOM     24  N   UNL A   1      40.468  18.971  26.105  1.00  0.00    -0.352 N 
ATOM     25  C   UNL A   1      41.813  19.236  26.084  1.00  0.00     0.251 C 
ATOM     26  H   UNL A   1      40.243  18.013  26.102  1.00  0.00     0.163 HD
ATOM     27  O   UNL A   1      42.588  18.320  25.808  1.00  0.00    -0.269 OA
BRANCH  25  28
ATOM     28  C   UNL A   1      42.363  20.581  26.381  1.00  0.00     0.039 A 
ATOM     29  C   UNL A   1      42.368  21.015  27.713  1.00  0.00     0.014 A 
ATOM     30  C   UNL A   1      42.770  21.464  25.377  1.00  0.00     0.014 A 
ATOM     31  C   UNL A   1      42.792  22.309  28.034  1.00  0.00     0.010 A 
ATOM     32  C   UNL A   1      43.278  22.722  25.706  1.00  0.00     0.010 A 
ATOM     33  C   UNL A   1      43.264  23.171  27.034  1.00  0.00    -0.014 A 
BRANCH  33  34
ATOM     34  C   UNL A   1      43.681  24.562  27.357  1.00  0.00     0.031 A 
ATOM     35  C   UNL A   1      42.655  25.585  27.769  1.00  0.00     0.074 A 
ATOM     36  C   UNL A   1      44.976  24.917  27.258  1.00  0.00     0.049 A 
ATOM     37  N   UNL A   1      42.816  26.852  28.062  1.00  0.00    -0.248 NA
ATOM     38  C   UNL A   1      41.256  25.132  27.832  1.00  0.00     0.031 C 
ATOM     39  C   UNL A   1      46.063  24.037  26.825  1.00  0.00     0.029 A 
ATOM     40  N   UNL A   1      45.599  26.113  27.514  1.00  0.00    -0.354 N 
ATOM     41  C   UNL A   1      41.544  27.347  28.319  1.00  0.00     0.074 A 
ATOM     42  C   UNL A   1      40.615  26.261  28.099  1.00  0.00     0.031 C 
ATOM     43  C   UNL A   1      47.222  24.714  26.875  1.00  0.00     0.029 A 
ATOM     44  C   UNL A   1      46.958  26.080  27.317  1.00  0.00     0.049 A 
ATOM     45  H   UNL A   1      45.117  26.918  27.811  1.00  0.00     0.167 HD
ATOM     46  C   UNL A   1      41.182  28.588  28.726  1.00  0.00     0.037 A 
ATOM     47  C   UNL A   1      47.886  27.042  27.480  1.00  0.00     0.037 A 
ATOM     48  C   UNL A   1      42.107  29.658  28.992  1.00  0.00     0.049 A 
ATOM     49  C   UNL A   1      47.463  28.399  27.971  1.00  0.00     0.074 A 
ATOM     50  C   UNL A   1      41.844  30.931  29.469  1.00  0.00     0.029 A 
ATOM     51  N   UNL A   1      43.479  29.575  28.810  1.00  0.00    -0.354 N 
ATOM     52  N   UNL A   1      46.263  28.836  28.266  1.00  0.00    -0.248 NA
ATOM     53  C   UNL A   1      48.528  29.393  28.164  1.00  0.00     0.031 C 
ATOM     54  C   UNL A   1      43.055  31.627  29.547  1.00  0.00     0.029 A 
ATOM     55  C   UNL A   1      44.076  30.777  29.155  1.00  0.00     0.049 A 
ATOM     56  H   UNL A   1      43.959  28.779  28.483  1.00  0.00     0.167 HD
ATOM     57  C   UNL A   1      46.429  30.145  28.699  1.00  0.00     0.074 A 
ATOM     58  C   UNL A   1      47.849  30.425  28.647  1.00  0.00     0.031 C 
ATOM     59  C   UNL A   1      45.491  31.036  29.100  1.00  0.00     0.037 A 
BRANCH  46  60
ATOM     60  C   UNL A   1      39.717  28.852  28.922  1.00  0.00     0.064 A 
ATOM     61  C   UNL A   1      39.099  28.677  30.171  1.00  0.00     0.173 A 
ATOM     62  C   UNL A   1      38.927  29.310  27.858  1.00  0.00     0.173 A 
ATOM     63  F   UNL A   1      39.807  28.229  31.217  1.00  0.00    -0.203 F 
ATOM     64  C   UNL A   1      37.739  28.922  30.337  1.00  0.00     0.198 A 
ATOM     65  C   UNL A   1      37.571  29.580  28.035  1.00  0.00     0.198 A 
ATOM     66  F   UNL A   1      39.469  29.499  26.645  1.00  0.00    -0.203 F 
ATOM     67  F   UNL A   1      37.160  28.700  31.526  1.00  0.00    -0.200 F 
ATOM     68  C   UNL A   1      36.977  29.379  29.272  1.00  0.00     0.200 A 
ATOM     69  F   UNL A   1      36.839  30.032  27.008  1.00  0.00    -0.200 F 
ATOM     70  F   UNL A   1      35.669  29.617  29.435  1.00  0.00    -0.200 F 
ENDBRANCH  46  60
BRANCH  47  71
ATOM     71  C   UNL A   1      49.316  26.742  27.217  1.00  0.00     0.064 A 
ATOM     72  C   UNL A   1      49.838  26.822  25.919  1.00  0.00     0.173 A 
ATOM     73  C   UNL A   1      50.187  26.371  28.252  1.00  0.00     0.173 A 
ATOM     74  F   UNL A   1      49.037  27.152  24.895  1.00  0.00    -0.203 F 
ATOM     75  C   UNL A   1      51.174  26.525  25.661  1.00  0.00     0.198 A 
ATOM     76  C   UNL A   1      51.529  26.098  27.996  1.00  0.00     0.198 A 
ATOM     77  F   UNL A   1      49.736  26.285  29.511  1.00  0.00    -0.203 F 
ATOM     78  F   UNL A   1      51.638  26.569  24.405  1.00  0.00    -0.200 F 
ATOM     79  C   UNL A   1      52.020  26.169  26.701  1.00  0.00     0.200 A 
ATOM     80  F   UNL A   1      52.347  25.766  29.005  1.00  0.00    -0.200 F 
ATOM     81  F   UNL A   1      53.306  25.886  26.454  1.00  0.00    -0.200 F 
ENDBRANCH  47  71
BRANCH  59  82
ATOM     82  C   UNL A   1      45.974  32.387  29.536  1.00  0.00     0.064 A 
ATOM     83  C   UNL A   1      46.342  32.639  30.866  1.00  0.00     0.173 A 
ATOM     84  C   UNL A   1      46.091  33.434  28.611  1.00  0.00     0.173 A 
ATOM     85  F   UNL A   1      46.233  31.674  31.792  1.00  0.00    -0.203 F 
ATOM     86  C   UNL A   1      46.782  33.900  31.259  1.00  0.00     0.198 A 
ATOM     87  C   UNL A   1      46.557  34.686  29.001  1.00  0.00     0.198 A 
ATOM     88  F   UNL A   1      45.757  33.241  27.325  1.00  0.00    -0.203 F 
ATOM     89  F   UNL A   1      47.082  34.132  32.544  1.00  0.00    -0.200 F 
ATOM     90  C   UNL A   1      46.894  34.920  30.326  1.00  0.00     0.200 A 
ATOM     91  F   UNL A   1      46.674  35.669  28.097  1.00  0.00    -0.200 F 
ATOM     92  F   UNL A   1      47.318  36.134  30.706  1.00  0.00    -0.200 F 
ENDBRANCH  59  82
ENDBRANCH  33  34
ENDBRANCH  25  28
ENDBRANCH  23  24
ENDBRANCH   1  23
TORSDOF 12
ENDMDL
