MODEL 1
REMARK VINA RESULT:     -15.0      0.000      0.000
REMARK SMILES C[C@@H](S[C@H]1CC(=O)N(c2ccc3ccccc3c2)C1=O)C(=O)NCCCNC(=O)c1ccc(-c2c3nc(c(-c4c(F)c(F)c(F)c(F)c4F)c4ccc([nH]4)c(-c4c(F)c(F)c(F)c(F)c4F)c4nc(c(-c5c(F)c(F)c(F)c(F)c5F)c5ccc2[nH]5)C=C4)C=C3)cc1
REMARK SMILES IDX 24 1 23 2 21 3 22 4 2 6 1 7 3 8 4 9 5 10 19 11 6 12 8 13
REMARK SMILES IDX 20 14 7 15 9 16 10 17 18 18 11 19 17 20 12 21 16 22 13 23
REMARK SMILES IDX 15 24 14 25 25 26 26 27 27 28 28 29 29 31 30 32 31 33 92 34
REMARK SMILES IDX 32 35 91 36 33 37 34 38 35 39 85 40 36 41 90 42 84 43 86 44
REMARK SMILES IDX 37 45 89 46 83 47 82 48 38 50 70 51 50 52 69 53 51 54 54 55
REMARK SMILES IDX 68 56 87 57 52 58 53 59 67 61 88 62 55 63 39 64 40 65 48 66
REMARK SMILES IDX 41 67 42 68 46 69 49 70 43 71 44 72 47 73 45 74 71 75 72 76
REMARK SMILES IDX 80 77 73 78 74 79 78 80 81 81 75 82 76 83 79 84 77 85 56 86
REMARK SMILES IDX 57 87 65 88 58 89 59 90 63 91 66 92 60 93 61 94 64 95 62 96
REMARK H PARENT 23 5 27 30 86 49 54 60
REMARK Flexibility Score: inf
ROOT
ATOM      1  C   UNL A   1      31.752  30.006  25.489  1.00  0.00     0.117 C 
ENDROOT
BRANCH   1   2
ATOM      2  N   UNL A   1      30.715  30.430  24.612  1.00  0.00    -0.355 N 
ATOM      3  C   UNL A   1      30.215  29.708  23.574  1.00  0.00     0.232 C 
ATOM      4  O   UNL A   1      29.261  30.182  22.955  1.00  0.00    -0.274 OA
ATOM      5  H   UNL A   1      30.328  31.322  24.769  1.00  0.00     0.163 HD
BRANCH   3   6
ATOM      6  C   UNL A   1      30.891  28.385  23.161  1.00  0.00     0.133 C 
ATOM      7  C   UNL A   1      32.356  28.574  22.780  1.00  0.00     0.030 C 
BRANCH   6   8
ATOM      8  S   UNL A   1      30.266  26.934  24.173  1.00  0.00    -0.135 SA
BRANCH   8   9
ATOM      9  C   UNL A   1      30.849  25.271  23.574  1.00  0.00     0.147 C 
ATOM     10  C   UNL A   1      31.706  25.129  22.344  1.00  0.00     0.125 C 
ATOM     11  C   UNL A   1      31.501  24.373  24.617  1.00  0.00     0.247 C 
ATOM     12  C   UNL A   1      32.870  24.283  22.793  1.00  0.00     0.235 C 
ATOM     13  N   UNL A   1      32.677  23.865  24.089  1.00  0.00    -0.250 N 
ATOM     14  O   UNL A   1      31.063  24.228  25.751  1.00  0.00    -0.273 OA
ATOM     15  O   UNL A   1      33.814  24.050  22.050  1.00  0.00    -0.274 OA
BRANCH  13  16
ATOM     16  C   UNL A   1      33.705  23.254  24.895  1.00  0.00     0.052 A 
ATOM     17  C   UNL A   1      33.842  21.447  24.786  1.00  0.00     0.027 A 
ATOM     18  C   UNL A   1      35.155  24.245  25.402  1.00  0.00     0.035 A 
ATOM     19  C   UNL A   1      35.464  20.638  25.001  1.00  0.00     0.011 A 
ATOM     20  C   UNL A   1      36.778  23.442  25.715  1.00  0.00    -0.016 A 
ATOM     21  C   UNL A   1      36.982  21.657  25.419  1.00  0.00    -0.018 A 
ATOM     22  C   UNL A   1      37.881  24.074  26.265  1.00  0.00     0.009 A 
ATOM     23  C   UNL A   1      38.307  21.211  25.509  1.00  0.00     0.009 A 
ATOM     24  C   UNL A   1      39.057  23.351  26.527  1.00  0.00     0.001 A 
ATOM     25  C   UNL A   1      39.277  22.012  26.124  1.00  0.00     0.001 A 
ENDBRANCH  13  16
ENDBRANCH   8   9
ENDBRANCH   6   8
ENDBRANCH   3   6
ENDBRANCH   1   2
BRANCH   1  26
ATOM     26  C   UNL A   1      31.816  30.812  26.760  1.00  0.00     0.042 C 
BRANCH  26  27
ATOM     27  C   UNL A   1      31.202  32.181  26.499  1.00  0.00     0.118 C 
BRANCH  27  28
ATOM     28  N   UNL A   1      32.152  33.394  27.193  1.00  0.00    -0.352 N 
ATOM     29  C   UNL A   1      33.918  33.747  28.000  1.00  0.00     0.251 C 
ATOM     30  H   UNL A   1      31.636  34.233  27.192  1.00  0.00     0.163 HD
ATOM     31  O   UNL A   1      34.329  34.805  28.566  1.00  0.00    -0.269 OA
BRANCH  29  32
ATOM     32  C   UNL A   1      35.299  32.838  28.253  1.00  0.00     0.039 A 
ATOM     33  C   UNL A   1      36.552  33.463  28.372  1.00  0.00     0.014 A 
ATOM     34  C   UNL A   1      35.348  31.459  28.374  1.00  0.00     0.014 A 
ATOM     35  C   UNL A   1      37.664  32.736  28.843  1.00  0.00     0.010 A 
ATOM     36  C   UNL A   1      36.221  30.896  29.252  1.00  0.00     0.010 A 
ATOM     37  C   UNL A   1      37.458  31.470  29.407  1.00  0.00    -0.014 A 
BRANCH  37  38
ATOM     38  C   UNL A   1      38.395  30.663  30.212  1.00  0.00     0.031 A 
ATOM     39  C   UNL A   1      38.590  30.989  31.687  1.00  0.00     0.074 A 
ATOM     40  C   UNL A   1      39.270  29.893  29.542  1.00  0.00     0.049 A 
ATOM     41  N   UNL A   1      39.556  30.633  32.494  1.00  0.00    -0.248 NA
ATOM     42  C   UNL A   1      37.649  31.954  32.306  1.00  0.00     0.031 C 
ATOM     43  C   UNL A   1      39.288  29.694  28.088  1.00  0.00     0.029 A 
ATOM     44  N   UNL A   1      40.342  29.172  29.985  1.00  0.00    -0.354 N 
ATOM     45  C   UNL A   1      39.359  31.361  33.664  1.00  0.00     0.074 A 
ATOM     46  C   UNL A   1      38.283  32.285  33.419  1.00  0.00     0.031 C 
ATOM     47  C   UNL A   1      40.277  28.851  27.768  1.00  0.00     0.029 A 
ATOM     48  C   UNL A   1      40.992  28.495  28.983  1.00  0.00     0.049 A 
ATOM     49  H   UNL A   1      40.620  29.140  30.928  1.00  0.00     0.167 HD
ATOM     50  C   UNL A   1      39.980  31.221  34.859  1.00  0.00     0.037 A 
ATOM     51  C   UNL A   1      42.047  27.668  29.055  1.00  0.00     0.037 A 
ATOM     52  C   UNL A   1      40.998  30.231  35.074  1.00  0.00     0.049 A 
ATOM     53  C   UNL A   1      42.642  27.423  30.411  1.00  0.00     0.074 A 
ATOM     54  C   UNL A   1      41.615  29.859  36.251  1.00  0.00     0.029 A 
ATOM     55  N   UNL A   1      41.537  29.444  34.063  1.00  0.00    -0.354 N 
ATOM     56  N   UNL A   1      42.347  27.994  31.557  1.00  0.00    -0.248 NA
ATOM     57  C   UNL A   1      43.698  26.411  30.493  1.00  0.00     0.031 C 
ATOM     58  C   UNL A   1      42.571  28.887  35.941  1.00  0.00     0.029 A 
ATOM     59  C   UNL A   1      42.498  28.601  34.586  1.00  0.00     0.049 A 
ATOM     60  H   UNL A   1      41.273  29.482  33.115  1.00  0.00     0.167 HD
ATOM     61  C   UNL A   1      43.155  27.387  32.504  1.00  0.00     0.074 A 
ATOM     62  C   UNL A   1      43.941  26.394  31.796  1.00  0.00     0.031 C 
ATOM     63  C   UNL A   1      43.245  27.622  33.836  1.00  0.00     0.037 A 
BRANCH  50  64
ATOM     64  C   UNL A   1      39.539  32.089  36.011  1.00  0.00     0.064 A 
ATOM     65  C   UNL A   1      40.178  33.306  36.312  1.00  0.00     0.173 A 
ATOM     66  C   UNL A   1      38.438  31.729  36.805  1.00  0.00     0.173 A 
ATOM     67  F   UNL A   1      41.235  33.711  35.593  1.00  0.00    -0.203 F 
ATOM     68  C   UNL A   1      39.764  34.098  37.381  1.00  0.00     0.198 A 
ATOM     69  C   UNL A   1      37.999  32.546  37.846  1.00  0.00     0.198 A 
ATOM     70  F   UNL A   1      37.778  30.585  36.570  1.00  0.00    -0.203 F 
ATOM     71  F   UNL A   1      40.437  35.217  37.683  1.00  0.00    -0.200 F 
ATOM     72  C   UNL A   1      38.669  33.723  38.141  1.00  0.00     0.200 A 
ATOM     73  F   UNL A   1      36.928  32.191  38.569  1.00  0.00    -0.200 F 
ATOM     74  F   UNL A   1      38.263  34.492  39.161  1.00  0.00    -0.200 F 
ENDBRANCH  50  64
BRANCH  51  75
ATOM     75  C   UNL A   1      42.502  26.950  27.838  1.00  0.00     0.064 A 
ATOM     76  C   UNL A   1      43.426  27.545  26.968  1.00  0.00     0.173 A 
ATOM     77  C   UNL A   1      42.086  25.642  27.550  1.00  0.00     0.173 A 
ATOM     78  F   UNL A   1      43.865  28.790  27.208  1.00  0.00    -0.203 F 
ATOM     79  C   UNL A   1      43.891  26.875  25.838  1.00  0.00     0.198 A 
ATOM     80  C   UNL A   1      42.577  24.960  26.438  1.00  0.00     0.198 A 
ATOM     81  F   UNL A   1      41.232  25.011  28.370  1.00  0.00    -0.203 F 
ATOM     82  F   UNL A   1      44.740  27.486  25.003  1.00  0.00    -0.200 F 
ATOM     83  C   UNL A   1      43.469  25.581  25.576  1.00  0.00     0.200 A 
ATOM     84  F   UNL A   1      42.193  23.697  26.206  1.00  0.00    -0.200 F 
ATOM     85  F   UNL A   1      43.922  24.933  24.495  1.00  0.00    -0.200 F 
ENDBRANCH  51  75
BRANCH  63  86
ATOM     86  C   UNL A   1      44.195  26.766  34.613  1.00  0.00     0.064 A 
ATOM     87  C   UNL A   1      45.485  27.207  34.934  1.00  0.00     0.173 A 
ATOM     88  C   UNL A   1      43.776  25.520  35.103  1.00  0.00     0.173 A 
ATOM     89  F   UNL A   1      45.930  28.387  34.477  1.00  0.00    -0.203 F 
ATOM     90  C   UNL A   1      46.334  26.418  35.702  1.00  0.00     0.198 A 
ATOM     91  C   UNL A   1      44.613  24.754  35.904  1.00  0.00     0.198 A 
ATOM     92  F   UNL A   1      42.545  25.063  34.829  1.00  0.00    -0.203 F 
ATOM     93  F   UNL A   1      47.581  26.835  35.958  1.00  0.00    -0.200 F 
ATOM     94  C   UNL A   1      45.893  25.199  36.196  1.00  0.00     0.200 A 
ATOM     95  F   UNL A   1      44.177  23.587  36.400  1.00  0.00    -0.200 F 
ATOM     96  F   UNL A   1      46.705  24.451  36.954  1.00  0.00    -0.200 F 
ENDBRANCH  63  86
ENDBRANCH  37  38
ENDBRANCH  29  32
ENDBRANCH  27  28
ENDBRANCH  26  27
ENDBRANCH   1  26
TORSDOF 13
ENDMDL
MODEL 2
REMARK VINA RESULT:     -14.9      1.126      2.142
REMARK SMILES C[C@@H](S[C@H]1CC(=O)N(c2ccc3ccccc3c2)C1=O)C(=O)NCCCNC(=O)c1ccc(-c2c3nc(c(-c4c(F)c(F)c(F)c(F)c4F)c4ccc([nH]4)c(-c4c(F)c(F)c(F)c(F)c4F)c4nc(c(-c5c(F)c(F)c(F)c(F)c5F)c5ccc2[nH]5)C=C4)C=C3)cc1
REMARK SMILES IDX 24 1 23 2 21 3 22 4 2 6 1 7 3 8 4 9 5 10 19 11 6 12 8 13
REMARK SMILES IDX 20 14 7 15 9 16 10 17 18 18 11 19 17 20 12 21 16 22 13 23
REMARK SMILES IDX 15 24 14 25 25 26 26 27 27 28 28 29 29 31 30 32 31 33 92 34
REMARK SMILES IDX 32 35 91 36 33 37 34 38 35 39 85 40 36 41 90 42 84 43 86 44
REMARK SMILES IDX 37 45 89 46 83 47 82 48 38 50 70 51 50 52 69 53 51 54 54 55
REMARK SMILES IDX 68 56 87 57 52 58 53 59 67 61 88 62 55 63 39 64 40 65 48 66
REMARK SMILES IDX 41 67 42 68 46 69 49 70 43 71 44 72 47 73 45 74 71 75 72 76
REMARK SMILES IDX 80 77 73 78 74 79 78 80 81 81 75 82 76 83 79 84 77 85 56 86
REMARK SMILES IDX 57 87 65 88 58 89 59 90 63 91 66 92 60 93 61 94 64 95 62 96
REMARK H PARENT 23 5 27 30 86 49 54 60
REMARK Flexibility Score: inf
ROOT
ATOM      1  C   UNL A   1      31.203  29.309  25.126  1.00  0.00     0.117 C 
ENDROOT
BRANCH   1   2
ATOM      2  N   UNL A   1      31.197  29.358  23.704  1.00  0.00    -0.355 N 
ATOM      3  C   UNL A   1      30.156  29.000  22.906  1.00  0.00     0.232 C 
ATOM      4  O   UNL A   1      30.279  29.175  21.692  1.00  0.00    -0.274 OA
ATOM      5  H   UNL A   1      32.017  29.677  23.261  1.00  0.00     0.163 HD
BRANCH   3   6
ATOM      6  C   UNL A   1      28.913  28.326  23.521  1.00  0.00     0.133 C 
ATOM      7  C   UNL A   1      27.612  28.977  23.065  1.00  0.00     0.030 C 
BRANCH   6   8
ATOM      8  S   UNL A   1      29.135  26.471  23.693  1.00  0.00    -0.135 SA
BRANCH   8   9
ATOM      9  C   UNL A   1      30.529  25.965  24.819  1.00  0.00     0.147 C 
ATOM     10  C   UNL A   1      30.276  25.230  26.108  1.00  0.00     0.125 C 
ATOM     11  C   UNL A   1      31.688  25.227  24.163  1.00  0.00     0.247 C 
ATOM     12  C   UNL A   1      31.196  24.038  26.047  1.00  0.00     0.235 C 
ATOM     13  N   UNL A   1      31.990  24.111  24.927  1.00  0.00    -0.250 N 
ATOM     14  O   UNL A   1      32.177  25.557  23.090  1.00  0.00    -0.273 OA
ATOM     15  O   UNL A   1      31.176  23.171  26.911  1.00  0.00    -0.274 OA
BRANCH  13  16
ATOM     16  C   UNL A   1      32.797  23.018  24.443  1.00  0.00     0.052 A 
ATOM     17  C   UNL A   1      34.386  22.762  25.283  1.00  0.00     0.027 A 
ATOM     18  C   UNL A   1      31.992  21.624  23.579  1.00  0.00     0.035 A 
ATOM     19  C   UNL A   1      35.087  21.082  25.421  1.00  0.00     0.011 A 
ATOM     20  C   UNL A   1      32.728  19.940  23.625  1.00  0.00    -0.016 A 
ATOM     21  C   UNL A   1      34.215  19.624  24.626  1.00  0.00    -0.018 A 
ATOM     22  C   UNL A   1      32.293  18.866  22.866  1.00  0.00     0.009 A 
ATOM     23  C   UNL A   1      34.557  18.270  24.729  1.00  0.00     0.009 A 
ATOM     24  C   UNL A   1      32.968  17.635  22.925  1.00  0.00     0.001 A 
ATOM     25  C   UNL A   1      34.005  17.337  23.841  1.00  0.00     0.001 A 
ENDBRANCH  13  16
ENDBRANCH   8   9
ENDBRANCH   6   8
ENDBRANCH   3   6
ENDBRANCH   1   2
BRANCH   1  26
ATOM     26  C   UNL A   1      31.985  30.434  25.752  1.00  0.00     0.042 C 
BRANCH  26  27
ATOM     27  C   UNL A   1      31.026  31.572  26.073  1.00  0.00     0.118 C 
BRANCH  27  28
ATOM     28  N   UNL A   1      31.839  32.817  26.876  1.00  0.00    -0.352 N 
ATOM     29  C   UNL A   1      33.533  33.266  27.785  1.00  0.00     0.251 C 
ATOM     30  H   UNL A   1      31.254  33.609  26.898  1.00  0.00     0.163 HD
ATOM     31  O   UNL A   1      33.827  34.320  28.427  1.00  0.00    -0.269 OA
BRANCH  29  32
ATOM     32  C   UNL A   1      34.974  32.461  28.053  1.00  0.00     0.039 A 
ATOM     33  C   UNL A   1      36.166  33.179  28.251  1.00  0.00     0.014 A 
ATOM     34  C   UNL A   1      35.133  31.087  28.113  1.00  0.00     0.014 A 
ATOM     35  C   UNL A   1      37.316  32.523  28.733  1.00  0.00     0.010 A 
ATOM     36  C   UNL A   1      36.016  30.554  29.000  1.00  0.00     0.010 A 
ATOM     37  C   UNL A   1      37.195  31.219  29.230  1.00  0.00    -0.014 A 
BRANCH  37  38
ATOM     38  C   UNL A   1      38.166  30.453  30.036  1.00  0.00     0.031 A 
ATOM     39  C   UNL A   1      38.385  30.823  31.497  1.00  0.00     0.074 A 
ATOM     40  C   UNL A   1      39.042  29.683  29.367  1.00  0.00     0.049 A 
ATOM     41  N   UNL A   1      39.376  30.507  32.292  1.00  0.00    -0.248 NA
ATOM     42  C   UNL A   1      37.438  31.785  32.110  1.00  0.00     0.031 C 
ATOM     43  C   UNL A   1      39.033  29.445  27.919  1.00  0.00     0.029 A 
ATOM     44  N   UNL A   1      40.137  28.996  29.805  1.00  0.00    -0.354 N 
ATOM     45  C   UNL A   1      39.189  31.263  33.446  1.00  0.00     0.074 A 
ATOM     46  C   UNL A   1      38.089  32.158  33.200  1.00  0.00     0.031 C 
ATOM     47  C   UNL A   1      40.032  28.614  27.600  1.00  0.00     0.029 A 
ATOM     48  C   UNL A   1      40.780  28.305  28.808  1.00  0.00     0.049 A 
ATOM     49  H   UNL A   1      40.437  28.995  30.743  1.00  0.00     0.167 HD
ATOM     50  C   UNL A   1      39.838  31.167  34.630  1.00  0.00     0.037 A 
ATOM     51  C   UNL A   1      41.853  27.502  28.879  1.00  0.00     0.037 A 
ATOM     52  C   UNL A   1      40.880  30.203  34.849  1.00  0.00     0.049 A 
ATOM     53  C   UNL A   1      42.481  27.305  30.227  1.00  0.00     0.074 A 
ATOM     54  C   UNL A   1      41.530  29.876  36.021  1.00  0.00     0.029 A 
ATOM     55  N   UNL A   1      41.413  29.401  33.848  1.00  0.00    -0.354 N 
ATOM     56  N   UNL A   1      42.200  27.900  31.363  1.00  0.00    -0.248 NA
ATOM     57  C   UNL A   1      43.559  26.317  30.313  1.00  0.00     0.031 C 
ATOM     58  C   UNL A   1      42.499  28.915  35.717  1.00  0.00     0.029 A 
ATOM     59  C   UNL A   1      42.402  28.592  34.371  1.00  0.00     0.049 A 
ATOM     60  H   UNL A   1      41.129  29.408  32.905  1.00  0.00     0.167 HD
ATOM     61  C   UNL A   1      43.040  27.335  32.309  1.00  0.00     0.074 A 
ATOM     62  C   UNL A   1      43.831  26.340  31.610  1.00  0.00     0.031 C 
ATOM     63  C   UNL A   1      43.153  27.607  33.632  1.00  0.00     0.037 A 
BRANCH  50  64
ATOM     64  C   UNL A   1      39.404  32.056  35.768  1.00  0.00     0.064 A 
ATOM     65  C   UNL A   1      39.970  33.327  35.976  1.00  0.00     0.173 A 
ATOM     66  C   UNL A   1      38.380  31.660  36.644  1.00  0.00     0.173 A 
ATOM     67  F   UNL A   1      40.951  33.770  35.177  1.00  0.00    -0.203 F 
ATOM     68  C   UNL A   1      39.564  34.140  37.033  1.00  0.00     0.198 A 
ATOM     69  C   UNL A   1      37.945  32.493  37.674  1.00  0.00     0.198 A 
ATOM     70  F   UNL A   1      37.791  30.463  36.500  1.00  0.00    -0.203 F 
ATOM     71  F   UNL A   1      40.171  35.315  37.244  1.00  0.00    -0.200 F 
ATOM     72  C   UNL A   1      38.544  33.727  37.875  1.00  0.00     0.200 A 
ATOM     73  F   UNL A   1      36.946  32.099  38.477  1.00  0.00    -0.200 F 
ATOM     74  F   UNL A   1      38.145  34.514  38.884  1.00  0.00    -0.200 F 
ENDBRANCH  50  64
BRANCH  51  75
ATOM     75  C   UNL A   1      42.296  26.760  27.671  1.00  0.00     0.064 A 
ATOM     76  C   UNL A   1      43.302  27.285  26.847  1.00  0.00     0.173 A 
ATOM     77  C   UNL A   1      41.786  25.495  27.349  1.00  0.00     0.173 A 
ATOM     78  F   UNL A   1      43.832  28.486  27.121  1.00  0.00    -0.203 F 
ATOM     79  C   UNL A   1      43.755  26.590  25.728  1.00  0.00     0.198 A 
ATOM     80  C   UNL A   1      42.263  24.785  26.248  1.00  0.00     0.198 A 
ATOM     81  F   UNL A   1      40.849  24.929  28.125  1.00  0.00    -0.203 F 
ATOM     82  F   UNL A   1      44.686  27.136  24.935  1.00  0.00    -0.200 F 
ATOM     83  C   UNL A   1      43.239  25.338  25.432  1.00  0.00     0.200 A 
ATOM     84  F   UNL A   1      41.786  23.561  25.984  1.00  0.00    -0.200 F 
ATOM     85  F   UNL A   1      43.681  24.665  24.361  1.00  0.00    -0.200 F 
ENDBRANCH  51  75
BRANCH  63  86
ATOM     86  C   UNL A   1      44.137  26.791  34.409  1.00  0.00     0.064 A 
ATOM     87  C   UNL A   1      45.435  27.253  34.662  1.00  0.00     0.173 A 
ATOM     88  C   UNL A   1      43.745  25.567  34.971  1.00  0.00     0.173 A 
ATOM     89  F   UNL A   1      45.855  28.414  34.136  1.00  0.00    -0.203 F 
ATOM     90  C   UNL A   1      46.318  26.503  35.432  1.00  0.00     0.198 A 
ATOM     91  C   UNL A   1      44.616  24.841  35.773  1.00  0.00     0.198 A 
ATOM     92  F   UNL A   1      42.507  25.092  34.763  1.00  0.00    -0.203 F 
ATOM     93  F   UNL A   1      47.571  26.938  35.622  1.00  0.00    -0.200 F 
ATOM     94  C   UNL A   1      45.903  25.305  35.996  1.00  0.00     0.200 A 
ATOM     95  F   UNL A   1      44.207  23.697  36.337  1.00  0.00    -0.200 F 
ATOM     96  F   UNL A   1      46.748  24.596  36.756  1.00  0.00    -0.200 F 
ENDBRANCH  63  86
ENDBRANCH  37  38
ENDBRANCH  29  32
ENDBRANCH  27  28
ENDBRANCH  26  27
ENDBRANCH   1  26
TORSDOF 13
ENDMDL
MODEL 3
REMARK VINA RESULT:     -14.8      1.145      2.884
REMARK SMILES C[C@@H](S[C@H]1CC(=O)N(c2ccc3ccccc3c2)C1=O)C(=O)NCCCNC(=O)c1ccc(-c2c3nc(c(-c4c(F)c(F)c(F)c(F)c4F)c4ccc([nH]4)c(-c4c(F)c(F)c(F)c(F)c4F)c4nc(c(-c5c(F)c(F)c(F)c(F)c5F)c5ccc2[nH]5)C=C4)C=C3)cc1
REMARK SMILES IDX 24 1 23 2 21 3 22 4 2 6 1 7 3 8 4 9 5 10 19 11 6 12 8 13
REMARK SMILES IDX 20 14 7 15 9 16 10 17 18 18 11 19 17 20 12 21 16 22 13 23
REMARK SMILES IDX 15 24 14 25 25 26 26 27 27 28 28 29 29 31 30 32 31 33 92 34
REMARK SMILES IDX 32 35 91 36 33 37 34 38 35 39 85 40 36 41 90 42 84 43 86 44
REMARK SMILES IDX 37 45 89 46 83 47 82 48 38 50 70 51 50 52 69 53 51 54 54 55
REMARK SMILES IDX 68 56 87 57 52 58 53 59 67 61 88 62 55 63 39 64 40 65 48 66
REMARK SMILES IDX 41 67 42 68 46 69 49 70 43 71 44 72 47 73 45 74 71 75 72 76
REMARK SMILES IDX 80 77 73 78 74 79 78 80 81 81 75 82 76 83 79 84 77 85 56 86
REMARK SMILES IDX 57 87 65 88 58 89 59 90 63 91 66 92 60 93 61 94 64 95 62 96
REMARK H PARENT 23 5 27 30 86 49 54 60
REMARK Flexibility Score: inf
ROOT
ATOM      1  C   UNL A   1      31.215  29.285  25.098  1.00  0.00     0.117 C 
ENDROOT
BRANCH   1   2
ATOM      2  N   UNL A   1      31.162  29.407  23.682  1.00  0.00    -0.355 N 
ATOM      3  C   UNL A   1      30.091  29.100  22.903  1.00  0.00     0.232 C 
ATOM      4  O   UNL A   1      30.174  29.336  21.697  1.00  0.00    -0.274 OA
ATOM      5  H   UNL A   1      31.969  29.741  23.228  1.00  0.00     0.163 HD
BRANCH   3   6
ATOM      6  C   UNL A   1      28.861  28.406  23.525  1.00  0.00     0.133 C 
ATOM      7  C   UNL A   1      27.549  29.052  23.095  1.00  0.00     0.030 C 
BRANCH   6   8
ATOM      8  S   UNL A   1      29.103  26.552  23.669  1.00  0.00    -0.135 SA
BRANCH   8   9
ATOM      9  C   UNL A   1      30.476  26.041  24.819  1.00  0.00     0.147 C 
ATOM     10  C   UNL A   1      30.199  25.306  26.103  1.00  0.00     0.125 C 
ATOM     11  C   UNL A   1      31.645  25.302  24.182  1.00  0.00     0.247 C 
ATOM     12  C   UNL A   1      31.119  24.113  26.057  1.00  0.00     0.235 C 
ATOM     13  N   UNL A   1      31.932  24.185  24.951  1.00  0.00    -0.250 N 
ATOM     14  O   UNL A   1      32.153  25.632  23.118  1.00  0.00    -0.273 OA
ATOM     15  O   UNL A   1      31.082  23.245  26.919  1.00  0.00    -0.274 OA
BRANCH  13  16
ATOM     16  C   UNL A   1      32.744  23.091  24.480  1.00  0.00     0.052 A 
ATOM     17  C   UNL A   1      34.291  22.794  25.385  1.00  0.00     0.027 A 
ATOM     18  C   UNL A   1      31.961  21.726  23.551  1.00  0.00     0.035 A 
ATOM     19  C   UNL A   1      34.962  21.102  25.518  1.00  0.00     0.011 A 
ATOM     20  C   UNL A   1      32.671  20.032  23.594  1.00  0.00    -0.016 A 
ATOM     21  C   UNL A   1      34.107  19.674  24.653  1.00  0.00    -0.018 A 
ATOM     22  C   UNL A   1      32.256  18.979  22.794  1.00  0.00     0.009 A 
ATOM     23  C   UNL A   1      34.426  18.313  24.742  1.00  0.00     0.009 A 
ATOM     24  C   UNL A   1      32.912  17.739  22.857  1.00  0.00     0.001 A 
ATOM     25  C   UNL A   1      33.902  17.407  23.811  1.00  0.00     0.001 A 
ENDBRANCH  13  16
ENDBRANCH   8   9
ENDBRANCH   6   8
ENDBRANCH   3   6
ENDBRANCH   1   2
BRANCH   1  26
ATOM     26  C   UNL A   1      31.986  30.398  25.758  1.00  0.00     0.042 C 
BRANCH  26  27
ATOM     27  C   UNL A   1      31.062  31.595  25.930  1.00  0.00     0.118 C 
BRANCH  27  28
ATOM     28  N   UNL A   1      31.817  32.795  26.849  1.00  0.00    -0.352 N 
ATOM     29  C   UNL A   1      33.466  33.210  27.852  1.00  0.00     0.251 C 
ATOM     30  H   UNL A   1      31.214  33.572  26.904  1.00  0.00     0.163 HD
ATOM     31  O   UNL A   1      33.713  34.221  28.577  1.00  0.00    -0.269 OA
BRANCH  29  32
ATOM     32  C   UNL A   1      34.913  32.416  28.118  1.00  0.00     0.039 A 
ATOM     33  C   UNL A   1      36.111  33.140  28.242  1.00  0.00     0.014 A 
ATOM     34  C   UNL A   1      35.072  31.047  28.245  1.00  0.00     0.014 A 
ATOM     35  C   UNL A   1      37.275  32.506  28.723  1.00  0.00     0.010 A 
ATOM     36  C   UNL A   1      35.981  30.558  29.131  1.00  0.00     0.010 A 
ATOM     37  C   UNL A   1      37.167  31.230  29.291  1.00  0.00    -0.014 A 
BRANCH  37  38
ATOM     38  C   UNL A   1      38.160  30.505  30.106  1.00  0.00     0.031 A 
ATOM     39  C   UNL A   1      38.386  30.915  31.555  1.00  0.00     0.074 A 
ATOM     40  C   UNL A   1      39.046  29.735  29.448  1.00  0.00     0.049 A 
ATOM     41  N   UNL A   1      39.390  30.639  32.348  1.00  0.00    -0.248 NA
ATOM     42  C   UNL A   1      37.425  31.873  32.153  1.00  0.00     0.031 C 
ATOM     43  C   UNL A   1      39.028  29.462  28.006  1.00  0.00     0.029 A 
ATOM     44  N   UNL A   1      40.159  29.082  29.892  1.00  0.00    -0.354 N 
ATOM     45  C   UNL A   1      39.199  31.420  33.485  1.00  0.00     0.074 A 
ATOM     46  C   UNL A   1      38.078  32.286  33.228  1.00  0.00     0.031 C 
ATOM     47  C   UNL A   1      40.041  28.643  27.698  1.00  0.00     0.029 A 
ATOM     48  C   UNL A   1      40.806  28.379  28.906  1.00  0.00     0.049 A 
ATOM     49  H   UNL A   1      40.467  29.110  30.827  1.00  0.00     0.167 HD
ATOM     50  C   UNL A   1      39.860  31.367  34.664  1.00  0.00     0.037 A 
ATOM     51  C   UNL A   1      41.896  27.600  28.986  1.00  0.00     0.037 A 
ATOM     52  C   UNL A   1      40.924  30.430  34.897  1.00  0.00     0.049 A 
ATOM     53  C   UNL A   1      42.541  27.450  30.333  1.00  0.00     0.074 A 
ATOM     54  C   UNL A   1      41.591  30.145  36.070  1.00  0.00     0.029 A 
ATOM     55  N   UNL A   1      41.464  29.614  33.911  1.00  0.00    -0.354 N 
ATOM     56  N   UNL A   1      42.257  28.068  31.457  1.00  0.00    -0.248 NA
ATOM     57  C   UNL A   1      43.639  26.486  30.433  1.00  0.00     0.031 C 
ATOM     58  C   UNL A   1      42.577  29.197  35.781  1.00  0.00     0.029 A 
ATOM     59  C   UNL A   1      42.474  28.838  34.444  1.00  0.00     0.049 A 
ATOM     60  H   UNL A   1      41.171  29.591  32.971  1.00  0.00     0.167 HD
ATOM     61  C   UNL A   1      43.118  27.543  32.408  1.00  0.00     0.074 A 
ATOM     62  C   UNL A   1      43.923  26.547  31.726  1.00  0.00     0.031 C 
ATOM     63  C   UNL A   1      43.238  27.851  33.722  1.00  0.00     0.037 A 
BRANCH  50  64
ATOM     64  C   UNL A   1      39.419  32.276  35.784  1.00  0.00     0.064 A 
ATOM     65  C   UNL A   1      38.435  31.889  36.711  1.00  0.00     0.173 A 
ATOM     66  C   UNL A   1      40.012  33.536  35.966  1.00  0.00     0.173 A 
ATOM     67  F   UNL A   1      37.827  30.699  36.597  1.00  0.00    -0.203 F 
ATOM     68  C   UNL A   1      38.032  32.739  37.740  1.00  0.00     0.198 A 
ATOM     69  C   UNL A   1      39.639  34.365  37.023  1.00  0.00     0.198 A 
ATOM     70  F   UNL A   1      40.964  33.966  35.124  1.00  0.00    -0.203 F 
ATOM     71  F   UNL A   1      37.043  32.368  38.565  1.00  0.00    -0.200 F 
ATOM     72  C   UNL A   1      38.642  33.972  37.902  1.00  0.00     0.200 A 
ATOM     73  F   UNL A   1      40.243  35.551  37.189  1.00  0.00    -0.200 F 
ATOM     74  F   UNL A   1      38.264  34.784  38.899  1.00  0.00    -0.200 F 
ENDBRANCH  50  64
BRANCH  51  75
ATOM     75  C   UNL A   1      42.343  26.837  27.793  1.00  0.00     0.064 A 
ATOM     76  C   UNL A   1      41.799  25.576  27.515  1.00  0.00     0.173 A 
ATOM     77  C   UNL A   1      43.260  27.367  26.875  1.00  0.00     0.173 A 
ATOM     78  F   UNL A   1      40.906  25.031  28.356  1.00  0.00    -0.203 F 
ATOM     79  C   UNL A   1      42.180  24.858  26.383  1.00  0.00     0.198 A 
ATOM     80  C   UNL A   1      43.616  26.663  25.725  1.00  0.00     0.198 A 
ATOM     81  F   UNL A   1      43.782  28.587  27.073  1.00  0.00    -0.203 F 
ATOM     82  F   UNL A   1      41.675  23.636  26.167  1.00  0.00    -0.200 F 
ATOM     83  C   UNL A   1      43.085  25.404  25.487  1.00  0.00     0.200 A 
ATOM     84  F   UNL A   1      44.465  27.208  24.844  1.00  0.00    -0.200 F 
ATOM     85  F   UNL A   1      43.445  24.718  24.393  1.00  0.00    -0.200 F 
ENDBRANCH  51  75
BRANCH  63  86
ATOM     86  C   UNL A   1      44.246  27.075  34.510  1.00  0.00     0.064 A 
ATOM     87  C   UNL A   1      43.928  25.841  35.093  1.00  0.00     0.173 A 
ATOM     88  C   UNL A   1      45.565  27.540  34.614  1.00  0.00     0.173 A 
ATOM     89  F   UNL A   1      42.676  25.364  35.027  1.00  0.00    -0.203 F 
ATOM     90  C   UNL A   1      44.893  25.111  35.777  1.00  0.00     0.198 A 
ATOM     91  C   UNL A   1      46.535  26.788  35.263  1.00  0.00     0.198 A 
ATOM     92  F   UNL A   1      45.916  28.711  34.060  1.00  0.00    -0.203 F 
ATOM     93  F   UNL A   1      44.559  23.957  36.371  1.00  0.00    -0.200 F 
ATOM     94  C   UNL A   1      46.197  25.578  35.850  1.00  0.00     0.200 A 
ATOM     95  F   UNL A   1      47.800  27.229  35.311  1.00  0.00    -0.200 F 
ATOM     96  F   UNL A   1      47.130  24.861  36.490  1.00  0.00    -0.200 F 
ENDBRANCH  63  86
ENDBRANCH  37  38
ENDBRANCH  29  32
ENDBRANCH  27  28
ENDBRANCH  26  27
ENDBRANCH   1  26
TORSDOF 13
ENDMDL
