MODEL 1
REMARK VINA RESULT:     -11.1      0.000      0.000
REMARK SMILES C#CC[C@@H](C(=O)NCCCNC(=O)c1ccc(-c2c3nc(c(-c4c(F)c(F)c(F)c(F)c4F)c4ccc([nH]4)c(-c4c(F)c(F)c(F)c(F)c4F)c4nc(c(-c5c(F)c(F)c(F)c(F)c5F)c5ccc2[nH]5)C=C4)C=C3)cc1)[C@H]1CCS(=O)(=O)C1
REMARK SMILES IDX 9 1 8 2 7 3 5 4 6 5 4 7 3 8 2 9 1 10 77 11 78 12 83 13 79 14
REMARK SMILES IDX 80 15 81 16 82 17 10 18 11 19 12 20 13 22 14 23 15 24 76 25
REMARK SMILES IDX 16 26 75 27 17 28 18 29 19 30 69 31 20 32 74 33 68 34 70 35
REMARK SMILES IDX 21 36 73 37 67 38 66 39 22 41 54 42 34 43 53 44 35 45 38 46
REMARK SMILES IDX 52 47 71 48 36 49 37 50 51 52 72 53 39 54 23 55 24 56 32 57
REMARK SMILES IDX 25 58 26 59 30 60 33 61 27 62 28 63 31 64 29 65 55 66 56 67
REMARK SMILES IDX 64 68 57 69 58 70 62 71 65 72 59 73 60 74 63 75 61 76 40 77
REMARK SMILES IDX 41 78 49 79 42 80 43 81 47 82 50 83 44 84 45 85 48 86 46 87
REMARK H PARENT 7 6 11 21 70 40 38 51
REMARK Flexibility Score: inf
ROOT
ATOM      1  C   UNL A   1      31.399  32.613  26.380  1.00  0.00     0.042 C 
ENDROOT
BRANCH   1   2
ATOM      2  C   UNL A   1      31.082  31.120  26.434  1.00  0.00     0.117 C 
BRANCH   2   3
ATOM      3  N   UNL A   1      31.612  30.458  25.257  1.00  0.00    -0.356 N 
ATOM      4  C   UNL A   1      32.525  29.455  25.171  1.00  0.00     0.224 C 
ATOM      5  O   UNL A   1      33.141  29.344  24.111  1.00  0.00    -0.275 OA
ATOM      6  H   UNL A   1      31.259  30.782  24.397  1.00  0.00     0.163 HD
BRANCH   4   7
ATOM      7  C   UNL A   1      32.742  28.488  26.336  1.00  0.00     0.094 C 
BRANCH   7   8
ATOM      8  C   UNL A   1      34.216  28.544  26.796  1.00  0.00     0.103 C 
BRANCH   8   9
ATOM      9  C   UNL A   1      34.667  29.868  27.260  1.00  0.00    -0.106 C 
ATOM     10  C   UNL A   1      35.087  30.910  27.677  1.00  0.00     0.004 C 
ENDBRANCH   8   9
ENDBRANCH   7   8
BRANCH   7  11
ATOM     11  C   UNL A   1      32.428  27.029  25.883  1.00  0.00     0.018 C 
ATOM     12  C   UNL A   1      33.626  26.081  26.112  1.00  0.00     0.021 C 
ATOM     13  C   UNL A   1      31.267  26.312  26.592  1.00  0.00     0.141 C 
ATOM     14  C   UNL A   1      33.170  24.683  25.697  1.00  0.00     0.137 C 
ATOM     15  S   UNL A   1      31.432  24.602  26.090  1.00  0.00     0.150 S 
ATOM     16  O   UNL A   1      30.700  24.406  24.855  1.00  0.00    -0.229 OA
ATOM     17  O   UNL A   1      31.244  23.752  27.246  1.00  0.00    -0.229 OA
ENDBRANCH   7  11
ENDBRANCH   4   7
ENDBRANCH   2   3
ENDBRANCH   1   2
BRANCH   1  18
ATOM     18  C   UNL A   1      32.600  33.014  27.224  1.00  0.00     0.118 C 
BRANCH  18  19
ATOM     19  N   UNL A   1      32.487  34.377  27.713  1.00  0.00    -0.352 N 
ATOM     20  C   UNL A   1      33.094  34.984  28.783  1.00  0.00     0.251 C 
ATOM     21  H   UNL A   1      31.880  34.955  27.197  1.00  0.00     0.163 HD
ATOM     22  O   UNL A   1      32.661  36.060  29.185  1.00  0.00    -0.269 OA
BRANCH  20  23
ATOM     23  C   UNL A   1      34.262  34.367  29.455  1.00  0.00     0.039 A 
ATOM     24  C   UNL A   1      35.537  34.605  28.934  1.00  0.00     0.014 A 
ATOM     25  C   UNL A   1      34.112  33.497  30.538  1.00  0.00     0.014 A 
ATOM     26  C   UNL A   1      36.650  33.980  29.501  1.00  0.00     0.010 A 
ATOM     27  C   UNL A   1      35.231  32.967  31.173  1.00  0.00     0.010 A 
ATOM     28  C   UNL A   1      36.509  33.163  30.633  1.00  0.00    -0.014 A 
BRANCH  28  29
ATOM     29  C   UNL A   1      37.672  32.439  31.208  1.00  0.00     0.031 A 
ATOM     30  C   UNL A   1      38.175  32.794  32.583  1.00  0.00     0.074 A 
ATOM     31  C   UNL A   1      38.290  31.481  30.490  1.00  0.00     0.049 A 
ATOM     32  N   UNL A   1      39.189  32.302  33.251  1.00  0.00    -0.248 NA
ATOM     33  C   UNL A   1      37.465  33.873  33.291  1.00  0.00     0.031 C 
ATOM     34  C   UNL A   1      37.931  31.081  29.130  1.00  0.00     0.029 A 
ATOM     35  N   UNL A   1      39.354  30.673  30.807  1.00  0.00    -0.354 N 
ATOM     36  C   UNL A   1      39.239  33.014  34.443  1.00  0.00     0.074 A 
ATOM     37  C   UNL A   1      38.212  34.028  34.373  1.00  0.00     0.031 C 
ATOM     38  C   UNL A   1      38.739  30.082  28.739  1.00  0.00     0.029 A 
ATOM     39  C   UNL A   1      39.697  29.801  29.804  1.00  0.00     0.049 A 
ATOM     40  H   UNL A   1      39.824  30.716  31.670  1.00  0.00     0.167 HD
ATOM     41  C   UNL A   1      40.042  32.820  35.517  1.00  0.00     0.037 A 
ATOM     42  C   UNL A   1      40.678  28.879  29.750  1.00  0.00     0.037 A 
ATOM     43  C   UNL A   1      41.055  31.800  35.587  1.00  0.00     0.049 A 
ATOM     44  C   UNL A   1      41.563  28.683  30.951  1.00  0.00     0.074 A 
ATOM     45  C   UNL A   1      41.902  31.493  36.637  1.00  0.00     0.029 A 
ATOM     46  N   UNL A   1      41.359  30.919  34.558  1.00  0.00    -0.354 N 
ATOM     47  N   UNL A   1      41.562  29.322  32.097  1.00  0.00    -0.248 NA
ATOM     48  C   UNL A   1      42.574  27.622  30.859  1.00  0.00     0.031 C 
ATOM     49  C   UNL A   1      42.756  30.465  36.224  1.00  0.00     0.029 A 
ATOM     50  C   UNL A   1      42.392  30.080  34.944  1.00  0.00     0.049 A 
ATOM     51  H   UNL A   1      40.908  30.895  33.684  1.00  0.00     0.167 HD
ATOM     52  C   UNL A   1      42.543  28.719  32.873  1.00  0.00     0.074 A 
ATOM     53  C   UNL A   1      43.108  27.653  32.071  1.00  0.00     0.031 C 
ATOM     54  C   UNL A   1      42.938  29.016  34.137  1.00  0.00     0.037 A 
BRANCH  41  55
ATOM     55  C   UNL A   1      39.849  33.731  36.698  1.00  0.00     0.064 A 
ATOM     56  C   UNL A   1      40.549  34.944  36.817  1.00  0.00     0.173 A 
ATOM     57  C   UNL A   1      38.952  33.395  37.723  1.00  0.00     0.173 A 
ATOM     58  F   UNL A   1      41.429  35.312  35.874  1.00  0.00    -0.203 F 
ATOM     59  C   UNL A   1      40.391  35.760  37.935  1.00  0.00     0.198 A 
ATOM     60  C   UNL A   1      38.766  34.234  38.820  1.00  0.00     0.198 A 
ATOM     61  F   UNL A   1      38.251  32.253  37.662  1.00  0.00    -0.203 F 
ATOM     62  F   UNL A   1      41.124  36.876  38.057  1.00  0.00    -0.200 F 
ATOM     63  C   UNL A   1      39.495  35.407  38.931  1.00  0.00     0.200 A 
ATOM     64  F   UNL A   1      37.887  33.899  39.775  1.00  0.00    -0.200 F 
ATOM     65  F   UNL A   1      39.342  36.194  40.006  1.00  0.00    -0.200 F 
ENDBRANCH  41  55
BRANCH  42  66
ATOM     66  C   UNL A   1      40.850  28.054  28.525  1.00  0.00     0.064 A 
ATOM     67  C   UNL A   1      41.653  28.490  27.463  1.00  0.00     0.173 A 
ATOM     68  C   UNL A   1      40.217  26.808  28.394  1.00  0.00     0.173 A 
ATOM     69  F   UNL A   1      42.266  29.681  27.531  1.00  0.00    -0.203 F 
ATOM     70  C   UNL A   1      41.796  27.725  26.306  1.00  0.00     0.198 A 
ATOM     71  C   UNL A   1      40.389  26.029  27.252  1.00  0.00     0.198 A 
ATOM     72  F   UNL A   1      39.446  26.339  29.386  1.00  0.00    -0.203 F 
ATOM     73  F   UNL A   1      42.530  28.190  25.285  1.00  0.00    -0.200 F 
ATOM     74  C   UNL A   1      41.170  26.493  26.204  1.00  0.00     0.200 A 
ATOM     75  F   UNL A   1      39.798  24.829  27.167  1.00  0.00    -0.200 F 
ATOM     76  F   UNL A   1      41.314  25.755  25.095  1.00  0.00    -0.200 F 
ENDBRANCH  42  66
BRANCH  54  77
ATOM     77  C   UNL A   1      43.991  28.140  34.754  1.00  0.00     0.064 A 
ATOM     78  C   UNL A   1      45.356  28.456  34.694  1.00  0.00     0.173 A 
ATOM     79  C   UNL A   1      43.621  26.970  35.437  1.00  0.00     0.173 A 
ATOM     80  F   UNL A   1      45.766  29.557  34.045  1.00  0.00    -0.203 F 
ATOM     81  C   UNL A   1      46.313  27.614  35.254  1.00  0.00     0.198 A 
ATOM     82  C   UNL A   1      44.577  26.151  36.032  1.00  0.00     0.198 A 
ATOM     83  F   UNL A   1      42.328  26.624  35.536  1.00  0.00    -0.203 F 
ATOM     84  F   UNL A   1      47.615  27.901  35.123  1.00  0.00    -0.200 F 
ATOM     85  C   UNL A   1      45.922  26.466  35.928  1.00  0.00     0.200 A 
ATOM     86  F   UNL A   1      44.194  25.054  36.699  1.00  0.00    -0.200 F 
ATOM     87  F   UNL A   1      46.844  25.657  36.469  1.00  0.00    -0.200 F 
ENDBRANCH  54  77
ENDBRANCH  28  29
ENDBRANCH  20  23
ENDBRANCH  18  19
ENDBRANCH   1  18
TORSDOF 13
ENDMDL
MODEL 2
REMARK VINA RESULT:     -11.0      0.445      1.251
REMARK SMILES C#CC[C@@H](C(=O)NCCCNC(=O)c1ccc(-c2c3nc(c(-c4c(F)c(F)c(F)c(F)c4F)c4ccc([nH]4)c(-c4c(F)c(F)c(F)c(F)c4F)c4nc(c(-c5c(F)c(F)c(F)c(F)c5F)c5ccc2[nH]5)C=C4)C=C3)cc1)[C@H]1CCS(=O)(=O)C1
REMARK SMILES IDX 9 1 8 2 7 3 5 4 6 5 4 7 3 8 2 9 1 10 77 11 78 12 83 13 79 14
REMARK SMILES IDX 80 15 81 16 82 17 10 18 11 19 12 20 13 22 14 23 15 24 76 25
REMARK SMILES IDX 16 26 75 27 17 28 18 29 19 30 69 31 20 32 74 33 68 34 70 35
REMARK SMILES IDX 21 36 73 37 67 38 66 39 22 41 54 42 34 43 53 44 35 45 38 46
REMARK SMILES IDX 52 47 71 48 36 49 37 50 51 52 72 53 39 54 23 55 24 56 32 57
REMARK SMILES IDX 25 58 26 59 30 60 33 61 27 62 28 63 31 64 29 65 55 66 56 67
REMARK SMILES IDX 64 68 57 69 58 70 62 71 65 72 59 73 60 74 63 75 61 76 40 77
REMARK SMILES IDX 41 78 49 79 42 80 43 81 47 82 50 83 44 84 45 85 48 86 46 87
REMARK H PARENT 7 6 11 21 70 40 38 51
REMARK Flexibility Score: inf
ROOT
ATOM      1  C   UNL A   1      31.397  32.324  26.501  1.00  0.00     0.042 C 
ENDROOT
BRANCH   1   2
ATOM      2  C   UNL A   1      31.327  30.798  26.501  1.00  0.00     0.117 C 
BRANCH   2   3
ATOM      3  N   UNL A   1      31.753  30.283  25.213  1.00  0.00    -0.356 N 
ATOM      4  C   UNL A   1      32.513  29.193  24.930  1.00  0.00     0.224 C 
ATOM      5  O   UNL A   1      33.103  29.182  23.850  1.00  0.00    -0.275 OA
ATOM      6  H   UNL A   1      31.448  30.800  24.432  1.00  0.00     0.163 HD
BRANCH   4   7
ATOM      7  C   UNL A   1      32.592  28.017  25.905  1.00  0.00     0.094 C 
BRANCH   7   8
ATOM      8  C   UNL A   1      34.028  27.896  26.465  1.00  0.00     0.103 C 
BRANCH   8   9
ATOM      9  C   UNL A   1      34.529  29.106  27.141  1.00  0.00    -0.106 C 
ATOM     10  C   UNL A   1      34.919  30.127  27.629  1.00  0.00     0.004 C 
ENDBRANCH   8   9
ENDBRANCH   7   8
BRANCH   7  11
ATOM     11  C   UNL A   1      32.245  26.688  25.165  1.00  0.00     0.018 C 
ATOM     12  C   UNL A   1      33.328  25.608  25.375  1.00  0.00     0.021 C 
ATOM     13  C   UNL A   1      30.948  25.975  25.584  1.00  0.00     0.141 C 
ATOM     14  C   UNL A   1      32.839  24.346  24.666  1.00  0.00     0.137 C 
ATOM     15  S   UNL A   1      31.062  24.363  24.814  1.00  0.00     0.150 S 
ATOM     16  O   UNL A   1      30.500  24.443  23.481  1.00  0.00    -0.229 OA
ATOM     17  O   UNL A   1      30.653  23.356  25.768  1.00  0.00    -0.229 OA
ENDBRANCH   7  11
ENDBRANCH   4   7
ENDBRANCH   2   3
ENDBRANCH   1   2
BRANCH   1  18
ATOM     18  C   UNL A   1      32.700  32.875  27.062  1.00  0.00     0.118 C 
BRANCH  18  19
ATOM     19  N   UNL A   1      32.528  34.203  27.626  1.00  0.00    -0.352 N 
ATOM     20  C   UNL A   1      33.079  34.762  28.751  1.00  0.00     0.251 C 
ATOM     21  H   UNL A   1      31.922  34.793  27.123  1.00  0.00     0.163 HD
ATOM     22  O   UNL A   1      32.599  35.799  29.199  1.00  0.00    -0.269 OA
BRANCH  20  23
ATOM     23  C   UNL A   1      34.242  34.140  29.428  1.00  0.00     0.039 A 
ATOM     24  C   UNL A   1      35.527  34.464  28.984  1.00  0.00     0.014 A 
ATOM     25  C   UNL A   1      34.081  33.185  30.435  1.00  0.00     0.014 A 
ATOM     26  C   UNL A   1      36.640  33.840  29.553  1.00  0.00     0.010 A 
ATOM     27  C   UNL A   1      35.193  32.651  31.080  1.00  0.00     0.010 A 
ATOM     28  C   UNL A   1      36.483  32.934  30.614  1.00  0.00    -0.014 A 
BRANCH  28  29
ATOM     29  C   UNL A   1      37.649  32.213  31.185  1.00  0.00     0.031 A 
ATOM     30  C   UNL A   1      38.141  32.553  32.569  1.00  0.00     0.074 A 
ATOM     31  C   UNL A   1      38.281  31.272  30.458  1.00  0.00     0.049 A 
ATOM     32  N   UNL A   1      39.155  32.060  33.236  1.00  0.00    -0.248 NA
ATOM     33  C   UNL A   1      37.417  33.615  33.287  1.00  0.00     0.031 C 
ATOM     34  C   UNL A   1      37.934  30.888  29.091  1.00  0.00     0.029 A 
ATOM     35  N   UNL A   1      39.350  30.469  30.770  1.00  0.00    -0.354 N 
ATOM     36  C   UNL A   1      39.191  32.756  34.438  1.00  0.00     0.074 A 
ATOM     37  C   UNL A   1      38.155  33.762  34.377  1.00  0.00     0.031 C 
ATOM     38  C   UNL A   1      38.754  29.902  28.690  1.00  0.00     0.029 A 
ATOM     39  C   UNL A   1      39.707  29.614  29.757  1.00  0.00     0.049 A 
ATOM     40  H   UNL A   1      39.815  30.503  31.637  1.00  0.00     0.167 HD
ATOM     41  C   UNL A   1      39.989  32.553  35.515  1.00  0.00     0.037 A 
ATOM     42  C   UNL A   1      40.697  28.702  29.696  1.00  0.00     0.037 A 
ATOM     43  C   UNL A   1      41.011  31.542  35.577  1.00  0.00     0.049 A 
ATOM     44  C   UNL A   1      41.576  28.497  30.900  1.00  0.00     0.074 A 
ATOM     45  C   UNL A   1      41.854  31.227  36.628  1.00  0.00     0.029 A 
ATOM     46  N   UNL A   1      41.329  30.679  34.537  1.00  0.00    -0.354 N 
ATOM     47  N   UNL A   1      41.562  29.120  32.054  1.00  0.00    -0.248 NA
ATOM     48  C   UNL A   1      42.599  27.447  30.799  1.00  0.00     0.031 C 
ATOM     49  C   UNL A   1      42.720  30.214  36.205  1.00  0.00     0.029 A 
ATOM     50  C   UNL A   1      42.368  29.844  34.917  1.00  0.00     0.049 A 
ATOM     51  H   UNL A   1      40.884  30.663  33.660  1.00  0.00     0.167 HD
ATOM     52  C   UNL A   1      42.545  28.515  32.828  1.00  0.00     0.074 A 
ATOM     53  C   UNL A   1      43.124  27.465  32.014  1.00  0.00     0.031 C 
ATOM     54  C   UNL A   1      42.928  28.797  34.099  1.00  0.00     0.037 A 
BRANCH  41  55
ATOM     55  C   UNL A   1      39.781  33.446  36.708  1.00  0.00     0.064 A 
ATOM     56  C   UNL A   1      40.478  34.657  36.855  1.00  0.00     0.173 A 
ATOM     57  C   UNL A   1      38.870  33.094  37.715  1.00  0.00     0.173 A 
ATOM     58  F   UNL A   1      41.371  35.039  35.930  1.00  0.00    -0.203 F 
ATOM     59  C   UNL A   1      40.306  35.455  37.983  1.00  0.00     0.198 A 
ATOM     60  C   UNL A   1      38.669  33.915  38.823  1.00  0.00     0.198 A 
ATOM     61  F   UNL A   1      38.170  31.953  37.627  1.00  0.00    -0.203 F 
ATOM     62  F   UNL A   1      41.037  36.568  38.133  1.00  0.00    -0.200 F 
ATOM     63  C   UNL A   1      39.397  35.086  38.962  1.00  0.00     0.200 A 
ATOM     64  F   UNL A   1      37.778  33.565  39.760  1.00  0.00    -0.200 F 
ATOM     65  F   UNL A   1      39.229  35.856  40.047  1.00  0.00    -0.200 F 
ENDBRANCH  41  55
BRANCH  42  66
ATOM     66  C   UNL A   1      40.885  27.896  28.460  1.00  0.00     0.064 A 
ATOM     67  C   UNL A   1      41.706  28.346  27.418  1.00  0.00     0.173 A 
ATOM     68  C   UNL A   1      40.248  26.656  28.300  1.00  0.00     0.173 A 
ATOM     69  F   UNL A   1      42.323  29.533  27.515  1.00  0.00    -0.203 F 
ATOM     70  C   UNL A   1      41.864  27.600  26.251  1.00  0.00     0.198 A 
ATOM     71  C   UNL A   1      40.434  25.895  27.147  1.00  0.00     0.198 A 
ATOM     72  F   UNL A   1      39.460  26.174  29.272  1.00  0.00    -0.203 F 
ATOM     73  F   UNL A   1      42.615  28.078  25.249  1.00  0.00    -0.200 F 
ATOM     74  C   UNL A   1      41.233  26.373  26.120  1.00  0.00     0.200 A 
ATOM     75  F   UNL A   1      39.840  24.699  27.034  1.00  0.00    -0.200 F 
ATOM     76  F   UNL A   1      41.391  25.652  25.001  1.00  0.00    -0.200 F 
ENDBRANCH  42  66
BRANCH  54  77
ATOM     77  C   UNL A   1      43.986  27.921  34.709  1.00  0.00     0.064 A 
ATOM     78  C   UNL A   1      43.673  26.732  35.385  1.00  0.00     0.173 A 
ATOM     79  C   UNL A   1      45.341  28.272  34.596  1.00  0.00     0.173 A 
ATOM     80  F   UNL A   1      42.394  26.355  35.531  1.00  0.00    -0.203 F 
ATOM     81  C   UNL A   1      44.672  25.952  35.962  1.00  0.00     0.198 A 
ATOM     82  C   UNL A   1      46.340  27.468  35.138  1.00  0.00     0.198 A 
ATOM     83  F   UNL A   1      45.699  29.392  33.951  1.00  0.00    -0.203 F 
ATOM     84  F   UNL A   1      44.343  24.857  36.662  1.00  0.00    -0.200 F 
ATOM     85  C   UNL A   1      46.004  26.316  35.832  1.00  0.00     0.200 A 
ATOM     86  F   UNL A   1      47.626  27.812  34.995  1.00  0.00    -0.200 F 
ATOM     87  F   UNL A   1      46.964  25.562  36.386  1.00  0.00    -0.200 F 
ENDBRANCH  54  77
ENDBRANCH  28  29
ENDBRANCH  20  23
ENDBRANCH  18  19
ENDBRANCH   1  18
TORSDOF 13
ENDMDL
MODEL 3
REMARK VINA RESULT:     -10.9      0.836      7.628
REMARK SMILES C#CC[C@@H](C(=O)NCCCNC(=O)c1ccc(-c2c3nc(c(-c4c(F)c(F)c(F)c(F)c4F)c4ccc([nH]4)c(-c4c(F)c(F)c(F)c(F)c4F)c4nc(c(-c5c(F)c(F)c(F)c(F)c5F)c5ccc2[nH]5)C=C4)C=C3)cc1)[C@H]1CCS(=O)(=O)C1
REMARK SMILES IDX 9 1 8 2 7 3 5 4 6 5 4 7 3 8 2 9 1 10 77 11 78 12 83 13 79 14
REMARK SMILES IDX 80 15 81 16 82 17 10 18 11 19 12 20 13 22 14 23 15 24 76 25
REMARK SMILES IDX 16 26 75 27 17 28 18 29 19 30 69 31 20 32 74 33 68 34 70 35
REMARK SMILES IDX 21 36 73 37 67 38 66 39 22 41 54 42 34 43 53 44 35 45 38 46
REMARK SMILES IDX 52 47 71 48 36 49 37 50 51 52 72 53 39 54 23 55 24 56 32 57
REMARK SMILES IDX 25 58 26 59 30 60 33 61 27 62 28 63 31 64 29 65 55 66 56 67
REMARK SMILES IDX 64 68 57 69 58 70 62 71 65 72 59 73 60 74 63 75 61 76 40 77
REMARK SMILES IDX 41 78 49 79 42 80 43 81 47 82 50 83 44 84 45 85 48 86 46 87
REMARK H PARENT 7 6 11 21 70 40 38 51
REMARK Flexibility Score: inf
ROOT
ATOM      1  C   UNL A   1      31.369  32.269  26.546  1.00  0.00     0.042 C 
ENDROOT
BRANCH   1   2
ATOM      2  C   UNL A   1      31.347  30.744  26.460  1.00  0.00     0.117 C 
BRANCH   2   3
ATOM      3  N   UNL A   1      31.795  30.316  25.148  1.00  0.00    -0.356 N 
ATOM      4  C   UNL A   1      32.516  29.218  24.800  1.00  0.00     0.224 C 
ATOM      5  O   UNL A   1      33.144  29.267  23.742  1.00  0.00    -0.275 OA
ATOM      6  H   UNL A   1      31.541  30.907  24.403  1.00  0.00     0.163 HD
BRANCH   4   7
ATOM      7  C   UNL A   1      32.510  27.964  25.677  1.00  0.00     0.094 C 
BRANCH   7   8
ATOM      8  C   UNL A   1      33.921  27.725  26.259  1.00  0.00     0.103 C 
BRANCH   8   9
ATOM      9  C   UNL A   1      34.473  28.859  27.022  1.00  0.00    -0.106 C 
ATOM     10  C   UNL A   1      34.867  29.823  27.614  1.00  0.00     0.004 C 
ENDBRANCH   8   9
ENDBRANCH   7   8
BRANCH   7  11
ATOM     11  C   UNL A   1      32.119  26.719  24.822  1.00  0.00     0.018 C 
ATOM     12  C   UNL A   1      33.340  25.829  24.503  1.00  0.00     0.021 C 
ATOM     13  C   UNL A   1      31.114  25.733  25.443  1.00  0.00     0.141 C 
ATOM     14  C   UNL A   1      32.816  24.620  23.729  1.00  0.00     0.137 C 
ATOM     15  S   UNL A   1      31.184  24.300  24.374  1.00  0.00     0.150 S 
ATOM     16  O   UNL A   1      30.232  24.475  23.296  1.00  0.00    -0.229 OA
ATOM     17  O   UNL A   1      31.219  23.106  25.190  1.00  0.00    -0.229 OA
ENDBRANCH   7  11
ENDBRANCH   4   7
ENDBRANCH   2   3
ENDBRANCH   1   2
BRANCH   1  18
ATOM     18  C   UNL A   1      32.632  32.826  27.188  1.00  0.00     0.118 C 
BRANCH  18  19
ATOM     19  N   UNL A   1      32.476  34.218  27.570  1.00  0.00    -0.352 N 
ATOM     20  C   UNL A   1      33.013  34.909  28.626  1.00  0.00     0.251 C 
ATOM     21  H   UNL A   1      31.893  34.749  26.980  1.00  0.00     0.163 HD
ATOM     22  O   UNL A   1      32.545  36.005  28.924  1.00  0.00    -0.269 OA
BRANCH  20  23
ATOM     23  C   UNL A   1      34.147  34.360  29.407  1.00  0.00     0.039 A 
ATOM     24  C   UNL A   1      35.447  34.571  28.939  1.00  0.00     0.014 A 
ATOM     25  C   UNL A   1      33.944  33.574  30.544  1.00  0.00     0.014 A 
ATOM     26  C   UNL A   1      36.532  34.005  29.611  1.00  0.00     0.010 A 
ATOM     27  C   UNL A   1      35.030  33.109  31.279  1.00  0.00     0.010 A 
ATOM     28  C   UNL A   1      36.334  33.276  30.795  1.00  0.00    -0.014 A 
BRANCH  28  29
ATOM     29  C   UNL A   1      37.469  32.612  31.486  1.00  0.00     0.031 A 
ATOM     30  C   UNL A   1      38.198  31.476  30.815  1.00  0.00     0.074 A 
ATOM     31  C   UNL A   1      37.832  33.010  32.720  1.00  0.00     0.049 A 
ATOM     32  N   UNL A   1      39.193  30.749  31.258  1.00  0.00    -0.248 NA
ATOM     33  C   UNL A   1      37.721  31.080  29.480  1.00  0.00     0.031 C 
ATOM     34  C   UNL A   1      37.175  34.062  33.495  1.00  0.00     0.029 A 
ATOM     35  N   UNL A   1      38.842  32.572  33.540  1.00  0.00    -0.354 N 
ATOM     36  C   UNL A   1      39.450  29.813  30.265  1.00  0.00     0.074 A 
ATOM     37  C   UNL A   1      38.455  30.005  29.234  1.00  0.00     0.031 C 
ATOM     38  C   UNL A   1      37.817  34.210  34.666  1.00  0.00     0.029 A 
ATOM     39  C   UNL A   1      38.903  33.238  34.739  1.00  0.00     0.049 A 
ATOM     40  H   UNL A   1      39.463  31.850  33.292  1.00  0.00     0.167 HD
ATOM     41  C   UNL A   1      40.448  28.899  30.195  1.00  0.00     0.037 A 
ATOM     42  C   UNL A   1      39.741  33.078  35.782  1.00  0.00     0.037 A 
ATOM     43  C   UNL A   1      41.445  28.719  31.217  1.00  0.00     0.049 A 
ATOM     44  C   UNL A   1      40.838  32.053  35.687  1.00  0.00     0.074 A 
ATOM     45  C   UNL A   1      42.518  27.846  31.235  1.00  0.00     0.029 A 
ATOM     46  N   UNL A   1      41.487  29.429  32.410  1.00  0.00    -0.354 N 
ATOM     47  N   UNL A   1      41.109  31.214  34.716  1.00  0.00    -0.248 NA
ATOM     48  C   UNL A   1      41.760  31.966  36.828  1.00  0.00     0.031 C 
ATOM     49  C   UNL A   1      43.176  27.988  32.461  1.00  0.00     0.029 A 
ATOM     50  C   UNL A   1      42.559  29.001  33.177  1.00  0.00     0.049 A 
ATOM     51  H   UNL A   1      40.850  30.131  32.671  1.00  0.00     0.167 HD
ATOM     52  C   UNL A   1      42.250  30.526  35.110  1.00  0.00     0.074 A 
ATOM     53  C   UNL A   1      42.627  31.059  36.404  1.00  0.00     0.031 C 
ATOM     54  C   UNL A   1      42.927  29.547  34.459  1.00  0.00     0.037 A 
BRANCH  41  55
ATOM     55  C   UNL A   1      40.504  28.028  28.969  1.00  0.00     0.064 A 
ATOM     56  C   UNL A   1      41.289  28.371  27.855  1.00  0.00     0.173 A 
ATOM     57  C   UNL A   1      39.772  26.833  28.905  1.00  0.00     0.173 A 
ATOM     58  F   UNL A   1      42.001  29.508  27.854  1.00  0.00    -0.203 F 
ATOM     59  C   UNL A   1      41.302  27.577  26.711  1.00  0.00     0.198 A 
ATOM     60  C   UNL A   1      39.819  26.020  27.775  1.00  0.00     0.198 A 
ATOM     61  F   UNL A   1      39.010  26.450  29.940  1.00  0.00    -0.203 F 
ATOM     62  F   UNL A   1      42.002  27.964  25.636  1.00  0.00    -0.200 F 
ATOM     63  C   UNL A   1      40.573  26.399  26.675  1.00  0.00     0.200 A 
ATOM     64  F   UNL A   1      39.126  24.873  27.748  1.00  0.00    -0.200 F 
ATOM     65  F   UNL A   1      40.587  25.633  25.575  1.00  0.00    -0.200 F 
ENDBRANCH  41  55
BRANCH  42  66
ATOM     66  C   UNL A   1      39.589  33.933  36.989  1.00  0.00     0.064 A 
ATOM     67  C   UNL A   1      38.857  33.496  38.101  1.00  0.00     0.173 A 
ATOM     68  C   UNL A   1      40.179  35.205  37.057  1.00  0.00     0.173 A 
ATOM     69  F   UNL A   1      38.260  32.295  38.080  1.00  0.00    -0.203 F 
ATOM     70  C   UNL A   1      38.697  34.307  39.224  1.00  0.00     0.198 A 
ATOM     71  C   UNL A   1      40.048  36.000  38.193  1.00  0.00     0.198 A 
ATOM     72  F   UNL A   1      40.900  35.667  36.025  1.00  0.00    -0.203 F 
ATOM     73  F   UNL A   1      37.949  33.884  40.252  1.00  0.00    -0.200 F 
ATOM     74  C   UNL A   1      39.298  35.555  39.271  1.00  0.00     0.200 A 
ATOM     75  F   UNL A   1      40.648  37.198  38.243  1.00  0.00    -0.200 F 
ATOM     76  F   UNL A   1      39.151  36.331  40.354  1.00  0.00    -0.200 F 
ENDBRANCH  42  66
BRANCH  54  77
ATOM     77  C   UNL A   1      44.180  29.029  35.107  1.00  0.00     0.064 A 
ATOM     78  C   UNL A   1      45.440  29.591  34.852  1.00  0.00     0.173 A 
ATOM     79  C   UNL A   1      44.112  27.962  36.017  1.00  0.00     0.173 A 
ATOM     80  F   UNL A   1      45.564  30.606  33.984  1.00  0.00    -0.203 F 
ATOM     81  C   UNL A   1      46.589  29.075  35.449  1.00  0.00     0.198 A 
ATOM     82  C   UNL A   1      45.256  27.476  36.643  1.00  0.00     0.198 A 
ATOM     83  F   UNL A   1      42.931  27.394  36.307  1.00  0.00    -0.203 F 
ATOM     84  F   UNL A   1      47.789  29.583  35.137  1.00  0.00    -0.200 F 
ATOM     85  C   UNL A   1      46.495  28.024  36.348  1.00  0.00     0.200 A 
ATOM     86  F   UNL A   1      45.160  26.473  37.526  1.00  0.00    -0.200 F 
ATOM     87  F   UNL A   1      47.601  27.530  36.923  1.00  0.00    -0.200 F 
ENDBRANCH  54  77
ENDBRANCH  28  29
ENDBRANCH  20  23
ENDBRANCH  18  19
ENDBRANCH   1  18
TORSDOF 13
ENDMDL
