MODEL 1
REMARK VINA RESULT:     -13.1      0.000      0.000
REMARK SMILES C[C@@H](C(=O)NCCCNC(=O)c1ccc(-c2c3nc(c(-c4c(F)c(F)c(F)c(F)c4F)c4ccc([nH]4)c(-c4c(F)c(F)c(F)c(F)c4F)c4nc(c(-c5c(F)c(F)c(F)c(F)c5F)c5ccc2[nH]5)C=C4)C=C3)cc1)c1ccc(C[C@H]2CCC[C@@H]2O)cc1
REMARK SMILES IDX 6 1 5 2 3 3 4 4 2 6 1 7 75 8 76 9 87 10 77 11 86 12 78 13
REMARK SMILES IDX 79 14 80 15 81 16 84 17 82 18 83 19 85 20 7 22 8 23 9 24
REMARK SMILES IDX 10 25 11 27 12 28 13 29 74 30 14 31 73 32 15 33 16 34 17 35
REMARK SMILES IDX 67 36 18 37 72 38 66 39 68 40 19 41 71 42 65 43 64 44 20 46
REMARK SMILES IDX 52 47 32 48 51 49 33 50 36 51 50 52 69 53 34 54 35 55 49 57
REMARK SMILES IDX 70 58 37 59 21 60 22 61 30 62 23 63 24 64 28 65 31 66 25 67
REMARK SMILES IDX 26 68 29 69 27 70 53 71 54 72 62 73 55 74 56 75 60 76 63 77
REMARK SMILES IDX 57 78 58 79 61 80 59 81 38 82 39 83 47 84 40 85 41 86 45 87
REMARK SMILES IDX 48 88 42 89 43 90 46 91 44 92
REMARK H PARENT 5 5 85 21 9 26 68 45 36 56
REMARK Flexibility Score: inf
ROOT
ATOM      1  C   UNL A   1      31.778  30.655  26.007  1.00  0.00     0.117 C 
ENDROOT
BRANCH   1   2
ATOM      2  N   UNL A   1      31.772  29.697  27.097  1.00  0.00    -0.356 N 
ATOM      3  C   UNL A   1      31.686  28.336  27.078  1.00  0.00     0.227 C 
ATOM      4  O   UNL A   1      31.417  27.795  28.152  1.00  0.00    -0.274 OA
ATOM      5  H   UNL A   1      31.841  30.094  27.995  1.00  0.00     0.163 HD
BRANCH   3   6
ATOM      6  C   UNL A   1      31.963  27.557  25.776  1.00  0.00     0.105 C 
ATOM      7  C   UNL A   1      30.779  27.706  24.816  1.00  0.00     0.023 C 
BRANCH   6   8
ATOM      8  C   UNL A   1      32.361  26.097  26.031  1.00  0.00    -0.036 A 
ATOM      9  C   UNL A   1      33.669  25.673  25.748  1.00  0.00     0.005 A 
ATOM     10  C   UNL A   1      31.454  25.131  26.495  1.00  0.00     0.005 A 
ATOM     11  C   UNL A   1      34.060  24.347  25.945  1.00  0.00     0.004 A 
ATOM     12  C   UNL A   1      31.833  23.796  26.650  1.00  0.00     0.004 A 
ATOM     13  C   UNL A   1      33.135  23.384  26.352  1.00  0.00    -0.048 A 
BRANCH  13  14
ATOM     14  C   UNL A   1      33.511  21.925  26.434  1.00  0.00     0.041 C 
BRANCH  14  15
ATOM     15  C   UNL A   1      32.673  20.975  25.562  1.00  0.00     0.022 C 
ATOM     16  C   UNL A   1      32.469  21.397  24.095  1.00  0.00     0.007 C 
ATOM     17  C   UNL A   1      33.190  19.538  25.473  1.00  0.00     0.117 C 
ATOM     18  C   UNL A   1      32.481  20.100  23.278  1.00  0.00     0.003 C 
ATOM     19  C   UNL A   1      32.410  18.973  24.296  1.00  0.00     0.032 C 
BRANCH  17  20
ATOM     20  O   UNL A   1      32.934  18.828  26.669  1.00  0.00    -0.393 OA
ATOM     21  H   UNL A   1      33.732  18.826  27.221  1.00  0.00     0.210 HD
ENDBRANCH  17  20
ENDBRANCH  14  15
ENDBRANCH  13  14
ENDBRANCH   6   8
ENDBRANCH   3   6
ENDBRANCH   1   2
BRANCH   1  22
ATOM     22  C   UNL A   1      31.467  32.063  26.515  1.00  0.00     0.042 C 
BRANCH  22  23
ATOM     23  C   UNL A   1      32.604  32.708  27.305  1.00  0.00     0.118 C 
BRANCH  23  24
ATOM     24  N   UNL A   1      32.342  34.101  27.627  1.00  0.00    -0.352 N 
ATOM     25  C   UNL A   1      32.936  34.920  28.556  1.00  0.00     0.251 C 
ATOM     26  H   UNL A   1      31.628  34.523  27.097  1.00  0.00     0.163 HD
ATOM     27  O   UNL A   1      32.435  36.009  28.813  1.00  0.00    -0.269 OA
BRANCH  25  28
ATOM     28  C   UNL A   1      34.156  34.485  29.272  1.00  0.00     0.039 A 
ATOM     29  C   UNL A   1      34.020  33.949  30.556  1.00  0.00     0.014 A 
ATOM     30  C   UNL A   1      35.423  34.612  28.699  1.00  0.00     0.014 A 
ATOM     31  C   UNL A   1      35.144  33.458  31.225  1.00  0.00     0.010 A 
ATOM     32  C   UNL A   1      36.534  34.061  29.337  1.00  0.00     0.010 A 
ATOM     33  C   UNL A   1      36.401  33.461  30.599  1.00  0.00    -0.014 A 
BRANCH  33  34
ATOM     34  C   UNL A   1      37.568  32.776  31.217  1.00  0.00     0.031 A 
ATOM     35  C   UNL A   1      38.218  31.601  30.542  1.00  0.00     0.074 A 
ATOM     36  C   UNL A   1      37.988  33.173  32.435  1.00  0.00     0.049 A 
ATOM     37  N   UNL A   1      39.185  30.832  30.975  1.00  0.00    -0.248 NA
ATOM     38  C   UNL A   1      37.703  31.227  29.215  1.00  0.00     0.031 C 
ATOM     39  C   UNL A   1      37.409  34.272  33.211  1.00  0.00     0.029 A 
ATOM     40  N   UNL A   1      38.985  32.688  33.245  1.00  0.00    -0.354 N 
ATOM     41  C   UNL A   1      39.386  29.879  29.986  1.00  0.00     0.074 A 
ATOM     42  C   UNL A   1      38.419  30.143  28.942  1.00  0.00     0.031 C 
ATOM     43  C   UNL A   1      38.064  34.382  34.378  1.00  0.00     0.029 A 
ATOM     44  C   UNL A   1      39.076  33.334  34.456  1.00  0.00     0.049 A 
ATOM     45  H   UNL A   1      39.580  31.948  32.984  1.00  0.00     0.167 HD
ATOM     46  C   UNL A   1      40.304  28.885  29.950  1.00  0.00     0.037 A 
ATOM     47  C   UNL A   1      39.866  33.094  35.520  1.00  0.00     0.037 A 
ATOM     48  C   UNL A   1      41.283  28.644  30.979  1.00  0.00     0.049 A 
ATOM     49  C   UNL A   1      40.856  31.961  35.455  1.00  0.00     0.074 A 
ATOM     50  C   UNL A   1      42.315  27.719  30.985  1.00  0.00     0.029 A 
ATOM     51  N   UNL A   1      41.346  29.321  32.187  1.00  0.00    -0.354 N 
ATOM     52  N   UNL A   1      41.101  31.131  34.473  1.00  0.00    -0.248 NA
ATOM     53  C   UNL A   1      41.679  31.732  36.653  1.00  0.00     0.031 C 
ATOM     54  C   UNL A   1      42.960  27.793  32.222  1.00  0.00     0.029 A 
ATOM     55  C   UNL A   1      42.370  28.802  32.965  1.00  0.00     0.049 A 
ATOM     56  H   UNL A   1      40.752  30.059  32.453  1.00  0.00     0.167 HD
ATOM     57  C   UNL A   1      42.115  30.297  34.922  1.00  0.00     0.074 A 
ATOM     58  C   UNL A   1      42.461  30.738  36.257  1.00  0.00     0.031 C 
ATOM     59  C   UNL A   1      42.702  29.252  34.291  1.00  0.00     0.037 A 
BRANCH  46  60
ATOM     60  C   UNL A   1      40.312  27.968  28.762  1.00  0.00     0.064 A 
ATOM     61  C   UNL A   1      41.053  28.263  27.609  1.00  0.00     0.173 A 
ATOM     62  C   UNL A   1      39.657  26.728  28.822  1.00  0.00     0.173 A 
ATOM     63  F   UNL A   1      41.693  29.437  27.500  1.00  0.00    -0.203 F 
ATOM     64  C   UNL A   1      41.131  27.355  26.556  1.00  0.00     0.198 A 
ATOM     65  C   UNL A   1      39.759  25.811  27.780  1.00  0.00     0.198 A 
ATOM     66  F   UNL A   1      38.942  26.392  29.907  1.00  0.00    -0.203 F 
ATOM     67  F   UNL A   1      41.828  27.667  25.454  1.00  0.00    -0.200 F 
ATOM     68  C   UNL A   1      40.494  26.126  26.648  1.00  0.00     0.200 A 
ATOM     69  F   UNL A   1      39.156  24.618  27.876  1.00  0.00    -0.200 F 
ATOM     70  F   UNL A   1      40.593  25.242  25.644  1.00  0.00    -0.200 F 
ENDBRANCH  46  60
BRANCH  47  71
ATOM     71  C   UNL A   1      39.744  33.921  36.751  1.00  0.00     0.064 A 
ATOM     72  C   UNL A   1      38.925  33.517  37.814  1.00  0.00     0.173 A 
ATOM     73  C   UNL A   1      40.404  35.153  36.869  1.00  0.00     0.173 A 
ATOM     74  F   UNL A   1      38.255  32.357  37.741  1.00  0.00    -0.203 F 
ATOM     75  C   UNL A   1      38.743  34.330  38.932  1.00  0.00     0.198 A 
ATOM     76  C   UNL A   1      40.249  35.948  38.003  1.00  0.00     0.198 A 
ATOM     77  F   UNL A   1      41.202  35.587  35.882  1.00  0.00    -0.203 F 
ATOM     78  F   UNL A   1      37.902  33.949  39.903  1.00  0.00    -0.200 F 
ATOM     79  C   UNL A   1      39.407  35.542  39.026  1.00  0.00     0.200 A 
ATOM     80  F   UNL A   1      40.906  37.112  38.097  1.00  0.00    -0.200 F 
ATOM     81  F   UNL A   1      39.227  36.326  40.099  1.00  0.00    -0.200 F 
ENDBRANCH  47  71
BRANCH  59  82
ATOM     82  C   UNL A   1      43.788  28.522  35.029  1.00  0.00     0.064 A 
ATOM     83  C   UNL A   1      43.508  27.390  35.808  1.00  0.00     0.173 A 
ATOM     84  C   UNL A   1      45.125  28.934  34.924  1.00  0.00     0.173 A 
ATOM     85  F   UNL A   1      42.243  26.966  35.955  1.00  0.00    -0.203 F 
ATOM     86  C   UNL A   1      44.525  26.711  36.474  1.00  0.00     0.198 A 
ATOM     87  C   UNL A   1      46.143  28.233  35.564  1.00  0.00     0.198 A 
ATOM     88  F   UNL A   1      45.446  30.007  34.187  1.00  0.00    -0.203 F 
ATOM     89  F   UNL A   1      44.228  25.660  37.252  1.00  0.00    -0.200 F 
ATOM     90  C   UNL A   1      45.842  27.127  36.345  1.00  0.00     0.200 A 
ATOM     91  F   UNL A   1      47.416  28.627  35.426  1.00  0.00    -0.200 F 
ATOM     92  F   UNL A   1      46.820  26.466  36.977  1.00  0.00    -0.200 F 
ENDBRANCH  59  82
ENDBRANCH  33  34
ENDBRANCH  25  28
ENDBRANCH  23  24
ENDBRANCH  22  23
ENDBRANCH   1  22
TORSDOF 14
ENDMDL
MODEL 2
REMARK VINA RESULT:     -12.9      4.480     10.522
REMARK SMILES C[C@@H](C(=O)NCCCNC(=O)c1ccc(-c2c3nc(c(-c4c(F)c(F)c(F)c(F)c4F)c4ccc([nH]4)c(-c4c(F)c(F)c(F)c(F)c4F)c4nc(c(-c5c(F)c(F)c(F)c(F)c5F)c5ccc2[nH]5)C=C4)C=C3)cc1)c1ccc(C[C@H]2CCC[C@@H]2O)cc1
REMARK SMILES IDX 6 1 5 2 3 3 4 4 2 6 1 7 75 8 76 9 87 10 77 11 86 12 78 13
REMARK SMILES IDX 79 14 80 15 81 16 84 17 82 18 83 19 85 20 7 22 8 23 9 24
REMARK SMILES IDX 10 25 11 27 12 28 13 29 74 30 14 31 73 32 15 33 16 34 17 35
REMARK SMILES IDX 67 36 18 37 72 38 66 39 68 40 19 41 71 42 65 43 64 44 20 46
REMARK SMILES IDX 52 47 32 48 51 49 33 50 36 51 50 52 69 53 34 54 35 55 49 57
REMARK SMILES IDX 70 58 37 59 21 60 22 61 30 62 23 63 24 64 28 65 31 66 25 67
REMARK SMILES IDX 26 68 29 69 27 70 53 71 54 72 62 73 55 74 56 75 60 76 63 77
REMARK SMILES IDX 57 78 58 79 61 80 59 81 38 82 39 83 47 84 40 85 41 86 45 87
REMARK SMILES IDX 48 88 42 89 43 90 46 91 44 92
REMARK H PARENT 5 5 85 21 9 26 68 45 36 56
REMARK Flexibility Score: inf
ROOT
ATOM      1  C   UNL A   1      34.783  34.013  31.469  1.00  0.00     0.117 C 
ENDROOT
BRANCH   1   2
ATOM      2  N   UNL A   1      36.126  34.506  31.711  1.00  0.00    -0.356 N 
ATOM      3  C   UNL A   1      36.960  34.314  32.774  1.00  0.00     0.227 C 
ATOM      4  O   UNL A   1      37.926  35.076  32.848  1.00  0.00    -0.274 OA
ATOM      5  H   UNL A   1      36.495  35.070  30.993  1.00  0.00     0.163 HD
BRANCH   3   6
ATOM      6  C   UNL A   1      36.698  33.169  33.772  1.00  0.00     0.105 C 
ATOM      7  C   UNL A   1      36.657  33.720  35.200  1.00  0.00     0.023 C 
BRANCH   6   8
ATOM      8  C   UNL A   1      37.672  31.995  33.599  1.00  0.00    -0.036 A 
ATOM      9  C   UNL A   1      37.207  30.775  33.083  1.00  0.00     0.005 A 
ATOM     10  C   UNL A   1      39.021  32.063  33.984  1.00  0.00     0.005 A 
ATOM     11  C   UNL A   1      38.059  29.680  32.935  1.00  0.00     0.004 A 
ATOM     12  C   UNL A   1      39.862  30.953  33.877  1.00  0.00     0.004 A 
ATOM     13  C   UNL A   1      39.383  29.741  33.374  1.00  0.00    -0.048 A 
BRANCH  13  14
ATOM     14  C   UNL A   1      40.272  28.522  33.346  1.00  0.00     0.041 C 
BRANCH  14  15
ATOM     15  C   UNL A   1      41.773  28.793  33.551  1.00  0.00     0.022 C 
ATOM     16  C   UNL A   1      42.228  29.051  34.999  1.00  0.00     0.007 C 
ATOM     17  C   UNL A   1      42.713  27.694  33.051  1.00  0.00     0.117 C 
ATOM     18  C   UNL A   1      43.615  28.413  35.126  1.00  0.00     0.003 C 
ATOM     19  C   UNL A   1      44.034  28.058  33.707  1.00  0.00     0.032 C 
BRANCH  17  20
ATOM     20  O   UNL A   1      42.801  27.702  31.639  1.00  0.00    -0.393 OA
ATOM     21  H   UNL A   1      42.809  26.789  31.311  1.00  0.00     0.210 HD
ENDBRANCH  17  20
ENDBRANCH  14  15
ENDBRANCH  13  14
ENDBRANCH   6   8
ENDBRANCH   3   6
ENDBRANCH   1   2
BRANCH   1  22
ATOM     22  C   UNL A   1      34.816  32.684  30.714  1.00  0.00     0.042 C 
BRANCH  22  23
ATOM     23  C   UNL A   1      34.853  32.829  29.194  1.00  0.00     0.118 C 
BRANCH  23  24
ATOM     24  N   UNL A   1      34.077  31.804  28.515  1.00  0.00    -0.352 N 
ATOM     25  C   UNL A   1      34.473  30.599  27.990  1.00  0.00     0.251 C 
ATOM     26  H   UNL A   1      33.118  32.005  28.416  1.00  0.00     0.163 HD
ATOM     27  O   UNL A   1      33.703  29.964  27.277  1.00  0.00    -0.269 OA
BRANCH  25  28
ATOM     28  C   UNL A   1      35.833  30.075  28.249  1.00  0.00     0.039 A 
ATOM     29  C   UNL A   1      36.826  30.291  27.289  1.00  0.00     0.014 A 
ATOM     30  C   UNL A   1      36.132  29.368  29.416  1.00  0.00     0.014 A 
ATOM     31  C   UNL A   1      38.137  29.878  27.541  1.00  0.00     0.010 A 
ATOM     32  C   UNL A   1      37.452  29.016  29.697  1.00  0.00     0.010 A 
ATOM     33  C   UNL A   1      38.471  29.286  28.769  1.00  0.00    -0.014 A 
BRANCH  33  34
ATOM     34  C   UNL A   1      39.888  29.011  29.128  1.00  0.00     0.031 A 
ATOM     35  C   UNL A   1      40.721  30.048  29.827  1.00  0.00     0.074 A 
ATOM     36  C   UNL A   1      40.443  27.843  28.746  1.00  0.00     0.049 A 
ATOM     37  N   UNL A   1      41.992  30.013  30.137  1.00  0.00    -0.248 NA
ATOM     38  C   UNL A   1      40.044  31.297  30.211  1.00  0.00     0.031 C 
ATOM     39  C   UNL A   1      39.750  26.775  28.022  1.00  0.00     0.029 A 
ATOM     40  N   UNL A   1      41.722  27.364  28.893  1.00  0.00    -0.354 N 
ATOM     41  C   UNL A   1      42.271  31.233  30.739  1.00  0.00     0.074 A 
ATOM     42  C   UNL A   1      41.045  32.002  30.722  1.00  0.00     0.031 C 
ATOM     43  C   UNL A   1      40.606  25.767  27.796  1.00  0.00     0.029 A 
ATOM     44  C   UNL A   1      41.920  26.133  28.314  1.00  0.00     0.049 A 
ATOM     45  H   UNL A   1      42.430  27.856  29.368  1.00  0.00     0.167 HD
ATOM     46  C   UNL A   1      43.441  31.661  31.268  1.00  0.00     0.037 A 
ATOM     47  C   UNL A   1      43.039  25.393  28.190  1.00  0.00     0.037 A 
ATOM     48  C   UNL A   1      44.651  30.880  31.308  1.00  0.00     0.049 A 
ATOM     49  C   UNL A   1      44.329  25.915  28.765  1.00  0.00     0.074 A 
ATOM     50  C   UNL A   1      45.859  31.195  31.908  1.00  0.00     0.029 A 
ATOM     51  N   UNL A   1      44.811  29.637  30.716  1.00  0.00    -0.354 N 
ATOM     52  N   UNL A   1      44.554  27.027  29.418  1.00  0.00    -0.248 NA
ATOM     53  C   UNL A   1      45.523  25.075  28.582  1.00  0.00     0.031 C 
ATOM     54  C   UNL A   1      46.768  30.173  31.624  1.00  0.00     0.029 A 
ATOM     55  C   UNL A   1      46.113  29.193  30.896  1.00  0.00     0.049 A 
ATOM     56  H   UNL A   1      44.107  29.144  30.237  1.00  0.00     0.167 HD
ATOM     57  C   UNL A   1      45.903  27.013  29.741  1.00  0.00     0.074 A 
ATOM     58  C   UNL A   1      46.443  25.768  29.237  1.00  0.00     0.031 C 
ATOM     59  C   UNL A   1      46.634  27.952  30.390  1.00  0.00     0.037 A 
BRANCH  46  60
ATOM     60  C   UNL A   1      43.491  33.041  31.857  1.00  0.00     0.064 A 
ATOM     61  C   UNL A   1      43.717  34.173  31.061  1.00  0.00     0.173 A 
ATOM     62  C   UNL A   1      43.201  33.240  33.216  1.00  0.00     0.173 A 
ATOM     63  F   UNL A   1      44.004  34.035  29.758  1.00  0.00    -0.203 F 
ATOM     64  C   UNL A   1      43.660  35.453  31.606  1.00  0.00     0.198 A 
ATOM     65  C   UNL A   1      43.118  34.522  33.751  1.00  0.00     0.198 A 
ATOM     66  F   UNL A   1      42.968  32.191  34.019  1.00  0.00    -0.203 F 
ATOM     67  F   UNL A   1      43.900  36.521  30.831  1.00  0.00    -0.200 F 
ATOM     68  C   UNL A   1      43.349  35.627  32.946  1.00  0.00     0.200 A 
ATOM     69  F   UNL A   1      42.802  34.689  35.043  1.00  0.00    -0.200 F 
ATOM     70  F   UNL A   1      43.269  36.862  33.462  1.00  0.00    -0.200 F 
ENDBRANCH  46  60
BRANCH  47  71
ATOM     71  C   UNL A   1      43.004  24.091  27.471  1.00  0.00     0.064 A 
ATOM     72  C   UNL A   1      43.303  24.011  26.104  1.00  0.00     0.173 A 
ATOM     73  C   UNL A   1      42.625  22.908  28.124  1.00  0.00     0.173 A 
ATOM     74  F   UNL A   1      43.650  25.117  25.429  1.00  0.00    -0.203 F 
ATOM     75  C   UNL A   1      43.190  22.807  25.410  1.00  0.00     0.198 A 
ATOM     76  C   UNL A   1      42.548  21.699  27.437  1.00  0.00     0.198 A 
ATOM     77  F   UNL A   1      42.331  22.926  29.432  1.00  0.00    -0.203 F 
ATOM     78  F   UNL A   1      43.418  22.775  24.090  1.00  0.00    -0.200 F 
ATOM     79  C   UNL A   1      42.816  21.652  26.078  1.00  0.00     0.200 A 
ATOM     80  F   UNL A   1      42.201  20.581  28.090  1.00  0.00    -0.200 F 
ATOM     81  F   UNL A   1      42.702  20.496  25.409  1.00  0.00    -0.200 F 
ENDBRANCH  47  71
BRANCH  59  82
ATOM     82  C   UNL A   1      48.093  27.663  30.603  1.00  0.00     0.064 A 
ATOM     83  C   UNL A   1      49.064  28.090  29.685  1.00  0.00     0.173 A 
ATOM     84  C   UNL A   1      48.527  26.990  31.755  1.00  0.00     0.173 A 
ATOM     85  F   UNL A   1      48.699  28.722  28.559  1.00  0.00    -0.203 F 
ATOM     86  C   UNL A   1      50.415  27.832  29.903  1.00  0.00     0.198 A 
ATOM     87  C   UNL A   1      49.881  26.763  31.984  1.00  0.00     0.198 A 
ATOM     88  F   UNL A   1      47.638  26.566  32.666  1.00  0.00    -0.203 F 
ATOM     89  F   UNL A   1      51.321  28.206  28.989  1.00  0.00    -0.200 F 
ATOM     90  C   UNL A   1      50.823  27.177  31.055  1.00  0.00     0.200 A 
ATOM     91  F   UNL A   1      50.274  26.144  33.106  1.00  0.00    -0.200 F 
ATOM     92  F   UNL A   1      52.124  26.940  31.268  1.00  0.00    -0.200 F 
ENDBRANCH  59  82
ENDBRANCH  33  34
ENDBRANCH  25  28
ENDBRANCH  23  24
ENDBRANCH  22  23
ENDBRANCH   1  22
TORSDOF 14
ENDMDL
MODEL 3
REMARK VINA RESULT:     -12.9      5.954     11.406
REMARK SMILES C[C@@H](C(=O)NCCCNC(=O)c1ccc(-c2c3nc(c(-c4c(F)c(F)c(F)c(F)c4F)c4ccc([nH]4)c(-c4c(F)c(F)c(F)c(F)c4F)c4nc(c(-c5c(F)c(F)c(F)c(F)c5F)c5ccc2[nH]5)C=C4)C=C3)cc1)c1ccc(C[C@H]2CCC[C@@H]2O)cc1
REMARK SMILES IDX 6 1 5 2 3 3 4 4 2 6 1 7 75 8 76 9 87 10 77 11 86 12 78 13
REMARK SMILES IDX 79 14 80 15 81 16 84 17 82 18 83 19 85 20 7 22 8 23 9 24
REMARK SMILES IDX 10 25 11 27 12 28 13 29 74 30 14 31 73 32 15 33 16 34 17 35
REMARK SMILES IDX 67 36 18 37 72 38 66 39 68 40 19 41 71 42 65 43 64 44 20 46
REMARK SMILES IDX 52 47 32 48 51 49 33 50 36 51 50 52 69 53 34 54 35 55 49 57
REMARK SMILES IDX 70 58 37 59 21 60 22 61 30 62 23 63 24 64 28 65 31 66 25 67
REMARK SMILES IDX 26 68 29 69 27 70 53 71 54 72 62 73 55 74 56 75 60 76 63 77
REMARK SMILES IDX 57 78 58 79 61 80 59 81 38 82 39 83 47 84 40 85 41 86 45 87
REMARK SMILES IDX 48 88 42 89 43 90 46 91 44 92
REMARK H PARENT 5 5 85 21 9 26 68 45 36 56
REMARK Flexibility Score: inf
ROOT
ATOM      1  C   UNL A   1      36.914  20.885  25.173  1.00  0.00     0.117 C 
ENDROOT
BRANCH   1   2
ATOM      2  N   UNL A   1      37.085  21.892  24.143  1.00  0.00    -0.356 N 
ATOM      3  C   UNL A   1      36.183  22.750  23.585  1.00  0.00     0.227 C 
ATOM      4  O   UNL A   1      36.532  23.298  22.537  1.00  0.00    -0.274 OA
ATOM      5  H   UNL A   1      38.001  21.968  23.789  1.00  0.00     0.163 HD
BRANCH   3   6
ATOM      6  C   UNL A   1      34.836  23.025  24.284  1.00  0.00     0.105 C 
ATOM      7  C   UNL A   1      33.862  21.875  24.011  1.00  0.00     0.023 C 
BRANCH   6   8
ATOM      8  C   UNL A   1      34.260  24.406  23.942  1.00  0.00    -0.036 A 
ATOM      9  C   UNL A   1      34.265  25.422  24.912  1.00  0.00     0.005 A 
ATOM     10  C   UNL A   1      33.672  24.699  22.701  1.00  0.00     0.005 A 
ATOM     11  C   UNL A   1      33.728  26.682  24.643  1.00  0.00     0.004 A 
ATOM     12  C   UNL A   1      33.095  25.946  22.449  1.00  0.00     0.004 A 
ATOM     13  C   UNL A   1      33.096  26.943  23.427  1.00  0.00    -0.048 A 
BRANCH  13  14
ATOM     14  C   UNL A   1      32.391  28.255  23.179  1.00  0.00     0.041 C 
BRANCH  14  15
ATOM     15  C   UNL A   1      30.944  28.142  22.669  1.00  0.00     0.022 C 
ATOM     16  C   UNL A   1      29.974  27.325  23.542  1.00  0.00     0.007 C 
ATOM     17  C   UNL A   1      30.221  29.473  22.447  1.00  0.00     0.117 C 
ATOM     18  C   UNL A   1      28.618  28.031  23.442  1.00  0.00     0.003 C 
ATOM     19  C   UNL A   1      28.767  29.048  22.321  1.00  0.00     0.032 C 
BRANCH  17  20
ATOM     20  O   UNL A   1      30.689  30.119  21.279  1.00  0.00    -0.393 OA
ATOM     21  H   UNL A   1      31.268  29.516  20.786  1.00  0.00     0.210 HD
ENDBRANCH  17  20
ENDBRANCH  14  15
ENDBRANCH  13  14
ENDBRANCH   6   8
ENDBRANCH   3   6
ENDBRANCH   1   2
BRANCH   1  22
ATOM     22  C   UNL A   1      38.036  19.848  25.116  1.00  0.00     0.042 C 
BRANCH  22  23
ATOM     23  C   UNL A   1      39.318  20.276  25.827  1.00  0.00     0.118 C 
BRANCH  23  24
ATOM     24  N   UNL A   1      40.291  19.200  25.922  1.00  0.00    -0.352 N 
ATOM     25  C   UNL A   1      41.648  19.250  26.126  1.00  0.00     0.251 C 
ATOM     26  H   UNL A   1      39.919  18.293  25.825  1.00  0.00     0.163 HD
ATOM     27  O   UNL A   1      42.323  18.238  25.975  1.00  0.00    -0.269 OA
BRANCH  25  28
ATOM     28  C   UNL A   1      42.306  20.524  26.495  1.00  0.00     0.039 A 
ATOM     29  C   UNL A   1      42.949  21.257  25.495  1.00  0.00     0.014 A 
ATOM     30  C   UNL A   1      42.306  20.990  27.812  1.00  0.00     0.014 A 
ATOM     31  C   UNL A   1      43.512  22.500  25.797  1.00  0.00     0.010 A 
ATOM     32  C   UNL A   1      42.806  22.260  28.100  1.00  0.00     0.010 A 
ATOM     33  C   UNL A   1      43.397  23.035  27.090  1.00  0.00    -0.014 A 
BRANCH  33  34
ATOM     34  C   UNL A   1      43.822  24.430  27.384  1.00  0.00     0.031 A 
ATOM     35  C   UNL A   1      42.819  25.469  27.799  1.00  0.00     0.074 A 
ATOM     36  C   UNL A   1      45.112  24.773  27.194  1.00  0.00     0.049 A 
ATOM     37  N   UNL A   1      42.997  26.749  28.010  1.00  0.00    -0.248 NA
ATOM     38  C   UNL A   1      41.431  25.019  27.984  1.00  0.00     0.031 C 
ATOM     39  C   UNL A   1      46.171  23.864  26.749  1.00  0.00     0.029 A 
ATOM     40  N   UNL A   1      45.751  25.981  27.331  1.00  0.00    -0.354 N 
ATOM     41  C   UNL A   1      41.748  27.259  28.338  1.00  0.00     0.074 A 
ATOM     42  C   UNL A   1      40.811  26.158  28.267  1.00  0.00     0.031 C 
ATOM     43  C   UNL A   1      47.325  24.542  26.658  1.00  0.00     0.029 A 
ATOM     44  C   UNL A   1      47.083  25.942  26.990  1.00  0.00     0.049 A 
ATOM     45  H   UNL A   1      45.300  26.797  27.644  1.00  0.00     0.167 HD
ATOM     46  C   UNL A   1      41.421  28.527  28.680  1.00  0.00     0.037 A 
ATOM     47  C   UNL A   1      48.000  26.927  26.925  1.00  0.00     0.037 A 
ATOM     48  C   UNL A   1      42.362  29.613  28.776  1.00  0.00     0.049 A 
ATOM     49  C   UNL A   1      47.592  28.331  27.284  1.00  0.00     0.074 A 
ATOM     50  C   UNL A   1      42.138  30.910  29.207  1.00  0.00     0.029 A 
ATOM     51  N   UNL A   1      43.701  29.534  28.427  1.00  0.00    -0.354 N 
ATOM     52  N   UNL A   1      46.429  28.777  27.688  1.00  0.00    -0.248 NA
ATOM     53  C   UNL A   1      48.628  29.369  27.176  1.00  0.00     0.031 C 
ATOM     54  C   UNL A   1      43.325  31.632  29.058  1.00  0.00     0.029 A 
ATOM     55  C   UNL A   1      44.304  30.772  28.588  1.00  0.00     0.049 A 
ATOM     56  H   UNL A   1      44.156  28.720  28.111  1.00  0.00     0.167 HD
ATOM     57  C   UNL A   1      46.597  30.138  27.901  1.00  0.00     0.074 A 
ATOM     58  C   UNL A   1      47.981  30.442  27.609  1.00  0.00     0.031 C 
ATOM     59  C   UNL A   1      45.683  31.058  28.294  1.00  0.00     0.037 A 
BRANCH  46  60
ATOM     60  C   UNL A   1      39.983  28.832  28.983  1.00  0.00     0.064 A 
ATOM     61  C   UNL A   1      39.092  29.249  27.983  1.00  0.00     0.173 A 
ATOM     62  C   UNL A   1      39.465  28.598  30.266  1.00  0.00     0.173 A 
ATOM     63  F   UNL A   1      39.538  29.491  26.741  1.00  0.00    -0.203 F 
ATOM     64  C   UNL A   1      37.740  29.430  28.259  1.00  0.00     0.198 A 
ATOM     65  C   UNL A   1      38.108  28.754  30.533  1.00  0.00     0.198 A 
ATOM     66  F   UNL A   1      40.273  28.189  31.257  1.00  0.00    -0.203 F 
ATOM     67  F   UNL A   1      36.910  29.850  27.293  1.00  0.00    -0.200 F 
ATOM     68  C   UNL A   1      37.247  29.171  29.530  1.00  0.00     0.200 A 
ATOM     69  F   UNL A   1      37.631  28.488  31.757  1.00  0.00    -0.200 F 
ATOM     70  F   UNL A   1      35.939  29.320  29.787  1.00  0.00    -0.200 F 
ENDBRANCH  46  60
BRANCH  47  71
ATOM     71  C   UNL A   1      49.389  26.634  26.479  1.00  0.00     0.064 A 
ATOM     72  C   UNL A   1      50.374  26.241  27.395  1.00  0.00     0.173 A 
ATOM     73  C   UNL A   1      49.771  26.788  25.138  1.00  0.00     0.173 A 
ATOM     74  F   UNL A   1      50.064  26.101  28.692  1.00  0.00    -0.203 F 
ATOM     75  C   UNL A   1      51.695  26.047  26.994  1.00  0.00     0.198 A 
ATOM     76  C   UNL A   1      51.084  26.559  24.732  1.00  0.00     0.198 A 
ATOM     77  F   UNL A   1      48.868  27.159  24.219  1.00  0.00    -0.203 F 
ATOM     78  F   UNL A   1      52.629  25.737  27.903  1.00  0.00    -0.200 F 
ATOM     79  C   UNL A   1      52.048  26.204  25.663  1.00  0.00     0.200 A 
ATOM     80  F   UNL A   1      51.418  26.696  23.441  1.00  0.00    -0.200 F 
ATOM     81  F   UNL A   1      53.319  26.023  25.279  1.00  0.00    -0.200 F 
ENDBRANCH  47  71
BRANCH  59  82
ATOM     82  C   UNL A   1      46.154  32.477  28.445  1.00  0.00     0.064 A 
ATOM     83  C   UNL A   1      46.045  33.399  27.393  1.00  0.00     0.173 A 
ATOM     84  C   UNL A   1      46.681  32.929  29.664  1.00  0.00     0.173 A 
ATOM     85  F   UNL A   1      45.564  33.011  26.202  1.00  0.00    -0.203 F 
ATOM     86  C   UNL A   1      46.469  34.716  27.550  1.00  0.00     0.198 A 
ATOM     87  C   UNL A   1      47.074  34.254  29.827  1.00  0.00     0.198 A 
ATOM     88  F   UNL A   1      46.802  32.088  30.702  1.00  0.00    -0.203 F 
ATOM     89  F   UNL A   1      46.400  35.566  26.517  1.00  0.00    -0.200 F 
ATOM     90  C   UNL A   1      46.974  35.145  28.769  1.00  0.00     0.200 A 
ATOM     91  F   UNL A   1      47.547  34.671  31.009  1.00  0.00    -0.200 F 
ATOM     92  F   UNL A   1      47.371  36.415  28.921  1.00  0.00    -0.200 F 
ENDBRANCH  59  82
ENDBRANCH  33  34
ENDBRANCH  25  28
ENDBRANCH  23  24
ENDBRANCH  22  23
ENDBRANCH   1  22
TORSDOF 14
ENDMDL
