MODEL 1
REMARK VINA RESULT:     -13.6      0.000      0.000
REMARK SMILES O=C(Cn1nc(-c2ccc(Br)cc2)ccc1=O)N[C@H](C(=O)NCCCNC(=O)c1ccc(-c2c3nc(c(-c4c(F)c(F)c(F)c(F)c4F)c4ccc([nH]4)c(-c4c(F)c(F)c(F)c(F)c4F)c4nc(c(-c5c(F)c(F)c(F)c(F)c5F)c5ccc2[nH]5)C=C4)C=C3)cc1)c1ccccc1
REMARK SMILES IDX 23 1 22 2 20 3 21 4 19 6 18 7 1 8 2 9 3 11 4 12 5 13 16 14
REMARK SMILES IDX 6 15 15 16 17 17 14 18 7 19 8 20 13 21 9 22 12 23 10 24
REMARK SMILES IDX 11 25 92 26 93 27 97 28 94 29 96 30 95 31 24 32 25 33 26 34
REMARK SMILES IDX 27 35 28 37 29 38 30 39 91 40 31 41 90 42 32 43 33 44 34 45
REMARK SMILES IDX 84 46 35 47 89 48 83 49 85 50 36 51 88 52 82 53 81 54 37 56
REMARK SMILES IDX 69 57 49 58 68 59 50 60 53 61 67 62 86 63 51 64 52 65 66 67
REMARK SMILES IDX 87 68 54 69 38 70 39 71 47 72 40 73 41 74 45 75 48 76 42 77
REMARK SMILES IDX 43 78 46 79 44 80 70 81 71 82 79 83 72 84 73 85 77 86 80 87
REMARK SMILES IDX 74 88 75 89 78 90 76 91 55 92 56 93 64 94 57 95 58 96 62 97
REMARK SMILES IDX 65 98 59 99 60 100 63 101 61 102
REMARK H PARENT 22 5 18 10 26 36 85 55 53 66
REMARK Flexibility Score: inf
ROOT
ATOM      1  C   UNL A   1      36.769  21.114  25.578  1.00  0.00     0.117 C 
ENDROOT
BRANCH   1   2
ATOM      2  N   UNL A   1      36.197  22.008  24.588  1.00  0.00    -0.354 N 
ATOM      3  C   UNL A   1      34.902  22.160  24.158  1.00  0.00     0.247 C 
ATOM      4  O   UNL A   1      34.771  22.853  23.145  1.00  0.00    -0.272 OA
ATOM      5  H   UNL A   1      36.846  22.605  24.151  1.00  0.00     0.163 HD
BRANCH   3   6
ATOM      6  C   UNL A   1      33.754  21.329  24.818  1.00  0.00     0.202 C 
BRANCH   6   7
ATOM      7  N   UNL A   1      32.534  22.130  24.924  1.00  0.00    -0.339 N 
ATOM      8  O   UNL A   1      32.787  22.667  27.139  1.00  0.00    -0.273 OA
ATOM      9  C   UNL A   1      32.169  22.780  26.085  1.00  0.00     0.242 C 
ATOM     10  H   UNL A   1      31.951  22.208  24.134  1.00  0.00     0.164 HD
BRANCH   9  11
ATOM     11  C   UNL A   1      30.839  23.517  25.998  1.00  0.00     0.248 C 
BRANCH  11  12
ATOM     12  N   UNL A   1      30.979  24.734  25.210  1.00  0.00    -0.220 N 
ATOM     13  N   UNL A   1      31.485  25.817  25.880  1.00  0.00    -0.169 NA
ATOM     14  C   UNL A   1      30.639  24.744  23.868  1.00  0.00     0.267 A 
ATOM     15  C   UNL A   1      31.589  26.931  25.232  1.00  0.00     0.091 A 
ATOM     16  C   UNL A   1      30.748  26.046  23.177  1.00  0.00     0.075 A 
ATOM     17  O   UNL A   1      30.298  23.745  23.237  1.00  0.00    -0.268 OA
ATOM     18  C   UNL A   1      31.201  27.125  23.821  1.00  0.00     0.036 A 
BRANCH  15  19
ATOM     19  C   UNL A   1      32.152  28.102  25.932  1.00  0.00     0.002 A 
ATOM     20  C   UNL A   1      31.570  29.356  25.713  1.00  0.00     0.011 A 
ATOM     21  C   UNL A   1      33.289  27.970  26.734  1.00  0.00     0.011 A 
ATOM     22  C   UNL A   1      32.116  30.485  26.322  1.00  0.00     0.016 A 
ATOM     23  C   UNL A   1      33.841  29.106  27.330  1.00  0.00     0.016 A 
ATOM     24  C   UNL A   1      33.250  30.356  27.124  1.00  0.00     0.018 A 
ATOM     25  Br  UNL A   1      34.007  31.891  27.926  1.00  0.00    -0.051 Br
ENDBRANCH  15  19
ENDBRANCH  11  12
ENDBRANCH   9  11
ENDBRANCH   6   7
BRANCH   6  26
ATOM     26  C   UNL A   1      33.500  19.920  24.278  1.00  0.00    -0.016 A 
ATOM     27  C   UNL A   1      32.481  19.668  23.343  1.00  0.00     0.006 A 
ATOM     28  C   UNL A   1      34.347  18.844  24.610  1.00  0.00     0.006 A 
ATOM     29  C   UNL A   1      32.273  18.390  22.817  1.00  0.00     0.000 A 
ATOM     30  C   UNL A   1      34.147  17.567  24.077  1.00  0.00     0.000 A 
ATOM     31  C   UNL A   1      33.104  17.338  23.188  1.00  0.00     0.000 A 
ENDBRANCH   6  26
ENDBRANCH   3   6
ENDBRANCH   1   2
BRANCH   1  32
ATOM     32  C   UNL A   1      37.985  20.378  25.039  1.00  0.00     0.042 C 
BRANCH  32  33
ATOM     33  C   UNL A   1      39.257  20.585  25.845  1.00  0.00     0.118 C 
BRANCH  33  34
ATOM     34  N   UNL A   1      40.130  19.418  25.864  1.00  0.00    -0.352 N 
ATOM     35  C   UNL A   1      41.483  19.347  26.112  1.00  0.00     0.251 C 
ATOM     36  H   UNL A   1      39.690  18.558  25.674  1.00  0.00     0.163 HD
ATOM     37  O   UNL A   1      42.087  18.290  25.966  1.00  0.00    -0.269 OA
BRANCH  35  38
ATOM     38  C   UNL A   1      42.215  20.571  26.504  1.00  0.00     0.039 A 
ATOM     39  C   UNL A   1      42.214  21.004  27.831  1.00  0.00     0.014 A 
ATOM     40  C   UNL A   1      42.852  21.327  25.516  1.00  0.00     0.014 A 
ATOM     41  C   UNL A   1      42.662  22.285  28.132  1.00  0.00     0.010 A 
ATOM     42  C   UNL A   1      43.392  22.574  25.842  1.00  0.00     0.010 A 
ATOM     43  C   UNL A   1      43.242  23.091  27.139  1.00  0.00    -0.014 A 
BRANCH  43  44
ATOM     44  C   UNL A   1      43.650  24.481  27.470  1.00  0.00     0.031 A 
ATOM     45  C   UNL A   1      42.630  25.497  27.910  1.00  0.00     0.074 A 
ATOM     46  C   UNL A   1      44.956  24.812  27.439  1.00  0.00     0.049 A 
ATOM     47  N   UNL A   1      42.799  26.757  28.225  1.00  0.00    -0.248 NA
ATOM     48  C   UNL A   1      41.233  25.042  28.007  1.00  0.00     0.031 C 
ATOM     49  C   UNL A   1      46.043  23.911  27.055  1.00  0.00     0.029 A 
ATOM     50  N   UNL A   1      45.592  25.984  27.760  1.00  0.00    -0.354 N 
ATOM     51  C   UNL A   1      41.537  27.249  28.530  1.00  0.00     0.074 A 
ATOM     52  C   UNL A   1      40.603  26.159  28.343  1.00  0.00     0.031 C 
ATOM     53  C   UNL A   1      47.215  24.542  27.217  1.00  0.00     0.029 A 
ATOM     54  C   UNL A   1      46.958  25.912  27.651  1.00  0.00     0.049 A 
ATOM     55  H   UNL A   1      45.114  26.798  28.042  1.00  0.00     0.167 HD
ATOM     56  C   UNL A   1      41.190  28.493  28.939  1.00  0.00     0.037 A 
ATOM     57  C   UNL A   1      47.902  26.849  27.861  1.00  0.00     0.037 A 
ATOM     58  C   UNL A   1      42.123  29.567  29.161  1.00  0.00     0.049 A 
ATOM     59  C   UNL A   1      47.485  28.230  28.278  1.00  0.00     0.074 A 
ATOM     60  C   UNL A   1      41.868  30.857  29.593  1.00  0.00     0.029 A 
ATOM     61  N   UNL A   1      43.495  29.470  28.977  1.00  0.00    -0.354 N 
ATOM     62  N   UNL A   1      46.286  28.686  28.538  1.00  0.00    -0.248 NA
ATOM     63  C   UNL A   1      48.554  29.228  28.413  1.00  0.00     0.031 C 
ATOM     64  C   UNL A   1      43.081  31.552  29.639  1.00  0.00     0.029 A 
ATOM     65  C   UNL A   1      44.096  30.685  29.271  1.00  0.00     0.049 A 
ATOM     66  H   UNL A   1      43.970  28.661  28.680  1.00  0.00     0.167 HD
ATOM     67  C   UNL A   1      46.452  30.024  28.868  1.00  0.00     0.074 A 
ATOM     68  C   UNL A   1      47.872  30.298  28.802  1.00  0.00     0.031 C 
ATOM     69  C   UNL A   1      45.510  30.943  29.189  1.00  0.00     0.037 A 
BRANCH  56  70
ATOM     70  C   UNL A   1      39.734  28.774  29.171  1.00  0.00     0.064 A 
ATOM     71  C   UNL A   1      39.145  28.606  30.431  1.00  0.00     0.173 A 
ATOM     72  C   UNL A   1      38.937  29.281  28.134  1.00  0.00     0.173 A 
ATOM     73  F   UNL A   1      39.862  28.112  31.451  1.00  0.00    -0.203 F 
ATOM     74  C   UNL A   1      37.806  28.924  30.643  1.00  0.00     0.198 A 
ATOM     75  C   UNL A   1      37.604  29.620  28.355  1.00  0.00     0.198 A 
ATOM     76  F   UNL A   1      39.454  29.466  26.910  1.00  0.00    -0.203 F 
ATOM     77  F   UNL A   1      37.254  28.728  31.849  1.00  0.00    -0.200 F 
ATOM     78  C   UNL A   1      37.039  29.439  29.608  1.00  0.00     0.200 A 
ATOM     79  F   UNL A   1      36.867  30.127  27.356  1.00  0.00    -0.200 F 
ATOM     80  F   UNL A   1      35.754  29.756  29.818  1.00  0.00    -0.200 F 
ENDBRANCH  56  70
BRANCH  57  81
ATOM     81  C   UNL A   1      49.332  26.502  27.670  1.00  0.00     0.064 A 
ATOM     82  C   UNL A   1      49.880  26.402  26.385  1.00  0.00     0.173 A 
ATOM     83  C   UNL A   1      50.185  26.297  28.764  1.00  0.00     0.173 A 
ATOM     84  F   UNL A   1      49.098  26.569  25.309  1.00  0.00    -0.203 F 
ATOM     85  C   UNL A   1      51.230  26.108  26.201  1.00  0.00     0.198 A 
ATOM     86  C   UNL A   1      51.538  26.030  28.581  1.00  0.00     0.198 A 
ATOM     87  F   UNL A   1      49.705  26.384  30.015  1.00  0.00    -0.203 F 
ATOM     88  F   UNL A   1      51.726  25.992  24.962  1.00  0.00    -0.200 F 
ATOM     89  C   UNL A   1      52.059  25.931  27.300  1.00  0.00     0.200 A 
ATOM     90  F   UNL A   1      52.339  25.873  29.644  1.00  0.00    -0.200 F 
ATOM     91  F   UNL A   1      53.360  25.664  27.123  1.00  0.00    -0.200 F 
ENDBRANCH  57  81
BRANCH  69  92
ATOM     92  C   UNL A   1      45.983  32.333  29.489  1.00  0.00     0.064 A 
ATOM     93  C   UNL A   1      46.366  32.707  30.784  1.00  0.00     0.173 A 
ATOM     94  C   UNL A   1      46.099  33.284  28.464  1.00  0.00     0.173 A 
ATOM     95  F   UNL A   1      46.257  31.836  31.799  1.00  0.00    -0.203 F 
ATOM     96  C   UNL A   1      46.836  33.991  31.047  1.00  0.00     0.198 A 
ATOM     97  C   UNL A   1      46.592  34.559  28.727  1.00  0.00     0.198 A 
ATOM     98  F   UNL A   1      45.750  32.970  27.207  1.00  0.00    -0.203 F 
ATOM     99  F   UNL A   1      47.163  34.339  32.299  1.00  0.00    -0.200 F 
ATOM    100  C   UNL A   1      46.954  34.913  30.017  1.00  0.00     0.200 A 
ATOM    101  F   UNL A   1      46.716  35.446  27.729  1.00  0.00    -0.200 F 
ATOM    102  F   UNL A   1      47.415  36.145  30.271  1.00  0.00    -0.200 F 
ENDBRANCH  69  92
ENDBRANCH  43  44
ENDBRANCH  35  38
ENDBRANCH  33  34
ENDBRANCH  32  33
ENDBRANCH   1  32
TORSDOF 15
ENDMDL
MODEL 2
REMARK VINA RESULT:     -13.6      0.678      7.005
REMARK SMILES O=C(Cn1nc(-c2ccc(Br)cc2)ccc1=O)N[C@H](C(=O)NCCCNC(=O)c1ccc(-c2c3nc(c(-c4c(F)c(F)c(F)c(F)c4F)c4ccc([nH]4)c(-c4c(F)c(F)c(F)c(F)c4F)c4nc(c(-c5c(F)c(F)c(F)c(F)c5F)c5ccc2[nH]5)C=C4)C=C3)cc1)c1ccccc1
REMARK SMILES IDX 23 1 22 2 20 3 21 4 19 6 18 7 1 8 2 9 3 11 4 12 5 13 16 14
REMARK SMILES IDX 6 15 15 16 17 17 14 18 7 19 8 20 13 21 9 22 12 23 10 24
REMARK SMILES IDX 11 25 92 26 93 27 97 28 94 29 96 30 95 31 24 32 25 33 26 34
REMARK SMILES IDX 27 35 28 37 29 38 30 39 91 40 31 41 90 42 32 43 33 44 34 45
REMARK SMILES IDX 84 46 35 47 89 48 83 49 85 50 36 51 88 52 82 53 81 54 37 56
REMARK SMILES IDX 69 57 49 58 68 59 50 60 53 61 67 62 86 63 51 64 52 65 66 67
REMARK SMILES IDX 87 68 54 69 38 70 39 71 47 72 40 73 41 74 45 75 48 76 42 77
REMARK SMILES IDX 43 78 46 79 44 80 70 81 71 82 79 83 72 84 73 85 77 86 80 87
REMARK SMILES IDX 74 88 75 89 78 90 76 91 55 92 56 93 64 94 57 95 58 96 62 97
REMARK SMILES IDX 65 98 59 99 60 100 63 101 61 102
REMARK H PARENT 22 5 18 10 26 36 85 55 53 66
REMARK Flexibility Score: inf
ROOT
ATOM      1  C   UNL A   1      36.660  20.934  25.536  1.00  0.00     0.117 C 
ENDROOT
BRANCH   1   2
ATOM      2  N   UNL A   1      36.121  21.897  24.594  1.00  0.00    -0.354 N 
ATOM      3  C   UNL A   1      34.832  22.121  24.177  1.00  0.00     0.247 C 
ATOM      4  O   UNL A   1      34.726  22.868  23.200  1.00  0.00    -0.272 OA
ATOM      5  H   UNL A   1      36.792  22.490  24.185  1.00  0.00     0.163 HD
BRANCH   3   6
ATOM      6  C   UNL A   1      33.654  21.303  24.799  1.00  0.00     0.202 C 
BRANCH   6   7
ATOM      7  N   UNL A   1      32.445  22.123  24.880  1.00  0.00    -0.339 N 
ATOM      8  O   UNL A   1      32.736  22.772  27.061  1.00  0.00    -0.273 OA
ATOM      9  C   UNL A   1      32.104  22.837  26.010  1.00  0.00     0.242 C 
ATOM     10  H   UNL A   1      31.851  22.167  24.096  1.00  0.00     0.164 HD
BRANCH   9  11
ATOM     11  C   UNL A   1      30.781  23.584  25.904  1.00  0.00     0.248 C 
BRANCH  11  12
ATOM     12  N   UNL A   1      30.947  24.811  25.137  1.00  0.00    -0.220 N 
ATOM     13  N   UNL A   1      31.459  25.877  25.830  1.00  0.00    -0.169 NA
ATOM     14  C   UNL A   1      30.625  24.847  23.791  1.00  0.00     0.267 A 
ATOM     15  C   UNL A   1      31.586  27.000  25.200  1.00  0.00     0.091 A 
ATOM     16  C   UNL A   1      30.759  26.158  23.122  1.00  0.00     0.075 A 
ATOM     17  O   UNL A   1      30.278  23.862  23.140  1.00  0.00    -0.268 OA
ATOM     18  C   UNL A   1      31.218  27.221  23.789  1.00  0.00     0.036 A 
BRANCH  15  19
ATOM     19  C   UNL A   1      32.155  28.152  25.926  1.00  0.00     0.002 A 
ATOM     20  C   UNL A   1      31.565  29.409  25.754  1.00  0.00     0.011 A 
ATOM     21  C   UNL A   1      33.306  28.002  26.705  1.00  0.00     0.011 A 
ATOM     22  C   UNL A   1      32.117  30.522  26.387  1.00  0.00     0.016 A 
ATOM     23  C   UNL A   1      33.863  29.122  27.325  1.00  0.00     0.016 A 
ATOM     24  C   UNL A   1      33.264  30.375  27.166  1.00  0.00     0.018 A 
ATOM     25  Br  UNL A   1      34.028  31.888  28.001  1.00  0.00    -0.051 Br
ENDBRANCH  15  19
ENDBRANCH  11  12
ENDBRANCH   9  11
ENDBRANCH   6   7
BRANCH   6  26
ATOM     26  C   UNL A   1      33.391  19.903  24.240  1.00  0.00    -0.016 A 
ATOM     27  C   UNL A   1      32.431  19.685  23.237  1.00  0.00     0.006 A 
ATOM     28  C   UNL A   1      34.177  18.800  24.626  1.00  0.00     0.006 A 
ATOM     29  C   UNL A   1      32.217  18.414  22.696  1.00  0.00     0.000 A 
ATOM     30  C   UNL A   1      33.973  17.530  24.079  1.00  0.00     0.000 A 
ATOM     31  C   UNL A   1      32.986  17.336  23.120  1.00  0.00     0.000 A 
ENDBRANCH   6  26
ENDBRANCH   3   6
ENDBRANCH   1   2
BRANCH   1  32
ATOM     32  C   UNL A   1      37.914  20.261  25.001  1.00  0.00     0.042 C 
BRANCH  32  33
ATOM     33  C   UNL A   1      39.158  20.487  25.844  1.00  0.00     0.118 C 
BRANCH  33  34
ATOM     34  N   UNL A   1      40.043  19.330  25.896  1.00  0.00    -0.352 N 
ATOM     35  C   UNL A   1      41.404  19.283  26.108  1.00  0.00     0.251 C 
ATOM     36  H   UNL A   1      39.608  18.458  25.760  1.00  0.00     0.163 HD
ATOM     37  O   UNL A   1      42.015  18.226  25.997  1.00  0.00    -0.269 OA
BRANCH  35  38
ATOM     38  C   UNL A   1      42.134  20.532  26.419  1.00  0.00     0.039 A 
ATOM     39  C   UNL A   1      42.279  20.959  27.740  1.00  0.00     0.014 A 
ATOM     40  C   UNL A   1      42.619  21.315  25.368  1.00  0.00     0.014 A 
ATOM     41  C   UNL A   1      42.715  22.254  27.995  1.00  0.00     0.010 A 
ATOM     42  C   UNL A   1      43.149  22.579  25.636  1.00  0.00     0.010 A 
ATOM     43  C   UNL A   1      43.140  23.084  26.946  1.00  0.00    -0.014 A 
BRANCH  43  44
ATOM     44  C   UNL A   1      43.536  24.487  27.237  1.00  0.00     0.031 A 
ATOM     45  C   UNL A   1      44.933  24.967  26.947  1.00  0.00     0.074 A 
ATOM     46  C   UNL A   1      42.614  25.352  27.703  1.00  0.00     0.049 A 
ATOM     47  N   UNL A   1      45.461  26.149  27.148  1.00  0.00    -0.248 NA
ATOM     48  C   UNL A   1      45.865  23.992  26.355  1.00  0.00     0.031 C 
ATOM     49  C   UNL A   1      41.220  25.016  27.999  1.00  0.00     0.029 A 
ATOM     50  N   UNL A   1      42.700  26.691  27.982  1.00  0.00    -0.354 N 
ATOM     51  C   UNL A   1      46.783  26.053  26.735  1.00  0.00     0.074 A 
ATOM     52  C   UNL A   1      46.989  24.691  26.291  1.00  0.00     0.031 C 
ATOM     53  C   UNL A   1      40.568  26.130  28.364  1.00  0.00     0.029 A 
ATOM     54  C   UNL A   1      41.512  27.243  28.391  1.00  0.00     0.049 A 
ATOM     55  H   UNL A   1      43.534  27.208  27.897  1.00  0.00     0.167 HD
ATOM     56  C   UNL A   1      47.736  27.016  26.719  1.00  0.00     0.037 A 
ATOM     57  C   UNL A   1      41.215  28.502  28.764  1.00  0.00     0.037 A 
ATOM     58  C   UNL A   1      47.521  28.380  27.126  1.00  0.00     0.049 A 
ATOM     59  C   UNL A   1      42.299  29.540  28.771  1.00  0.00     0.074 A 
ATOM     60  C   UNL A   1      48.421  29.433  27.127  1.00  0.00     0.029 A 
ATOM     61  N   UNL A   1      46.317  28.883  27.595  1.00  0.00    -0.354 N 
ATOM     62  N   UNL A   1      43.551  29.428  28.402  1.00  0.00    -0.248 NA
ATOM     63  C   UNL A   1      41.932  30.874  29.263  1.00  0.00     0.031 C 
ATOM     64  C   UNL A   1      47.771  30.565  27.629  1.00  0.00     0.029 A 
ATOM     65  C   UNL A   1      46.456  30.227  27.905  1.00  0.00     0.049 A 
ATOM     66  H   UNL A   1      45.487  28.363  27.695  1.00  0.00     0.167 HD
ATOM     67  C   UNL A   1      44.123  30.674  28.615  1.00  0.00     0.074 A 
ATOM     68  C   UNL A   1      43.073  31.535  29.121  1.00  0.00     0.031 C 
ATOM     69  C   UNL A   1      45.404  31.066  28.418  1.00  0.00     0.037 A 
BRANCH  56  70
ATOM     70  C   UNL A   1      49.110  26.635  26.250  1.00  0.00     0.064 A 
ATOM     71  C   UNL A   1      49.517  26.839  24.925  1.00  0.00     0.173 A 
ATOM     72  C   UNL A   1      50.051  26.122  27.156  1.00  0.00     0.173 A 
ATOM     73  F   UNL A   1      48.651  27.314  24.018  1.00  0.00    -0.203 F 
ATOM     74  C   UNL A   1      50.813  26.531  24.519  1.00  0.00     0.198 A 
ATOM     75  C   UNL A   1      51.353  25.838  26.753  1.00  0.00     0.198 A 
ATOM     76  F   UNL A   1      49.712  25.914  28.438  1.00  0.00    -0.203 F 
ATOM     77  F   UNL A   1      51.173  26.705  23.240  1.00  0.00    -0.200 F 
ATOM     78  C   UNL A   1      51.732  26.039  25.434  1.00  0.00     0.200 A 
ATOM     79  F   UNL A   1      52.243  25.373  27.641  1.00  0.00    -0.200 F 
ATOM     80  F   UNL A   1      52.983  25.756  25.045  1.00  0.00    -0.200 F 
ENDBRANCH  56  70
BRANCH  57  81
ATOM     81  C   UNL A   1      39.826  28.838  29.166  1.00  0.00     0.064 A 
ATOM     82  C   UNL A   1      38.914  29.350  28.236  1.00  0.00     0.173 A 
ATOM     83  C   UNL A   1      39.375  28.622  30.476  1.00  0.00     0.173 A 
ATOM     84  F   UNL A   1      39.307  29.593  26.977  1.00  0.00    -0.203 F 
ATOM     85  C   UNL A   1      37.600  29.637  28.601  1.00  0.00     0.198 A 
ATOM     86  C   UNL A   1      38.056  28.884  30.834  1.00  0.00     0.198 A 
ATOM     87  F   UNL A   1      40.213  28.131  31.403  1.00  0.00    -0.203 F 
ATOM     88  F   UNL A   1      36.753  30.152  27.700  1.00  0.00    -0.200 F 
ATOM     89  C   UNL A   1      37.171  29.395  29.898  1.00  0.00     0.200 A 
ATOM     90  F   UNL A   1      37.641  28.635  32.084  1.00  0.00    -0.200 F 
ATOM     91  F   UNL A   1      35.903  29.656  30.245  1.00  0.00    -0.200 F 
ENDBRANCH  57  81
BRANCH  69  92
ATOM     92  C   UNL A   1      45.746  32.486  28.753  1.00  0.00     0.064 A 
ATOM     93  C   UNL A   1      46.247  32.835  30.014  1.00  0.00     0.173 A 
ATOM     94  C   UNL A   1      45.617  33.498  27.790  1.00  0.00     0.173 A 
ATOM     95  F   UNL A   1      46.374  31.903  30.972  1.00  0.00    -0.203 F 
ATOM     96  C   UNL A   1      46.595  34.151  30.307  1.00  0.00     0.198 A 
ATOM     97  C   UNL A   1      45.987  34.809  28.078  1.00  0.00     0.198 A 
ATOM     98  F   UNL A   1      45.147  33.212  26.567  1.00  0.00    -0.203 F 
ATOM     99  F   UNL A   1      47.038  34.469  31.531  1.00  0.00    -0.200 F 
ATOM    100  C   UNL A   1      46.470  35.135  29.337  1.00  0.00     0.200 A 
ATOM    101  F   UNL A   1      45.876  35.757  27.137  1.00  0.00    -0.200 F 
ATOM    102  F   UNL A   1      46.812  36.399  29.618  1.00  0.00    -0.200 F 
ENDBRANCH  69  92
ENDBRANCH  43  44
ENDBRANCH  35  38
ENDBRANCH  33  34
ENDBRANCH  32  33
ENDBRANCH   1  32
TORSDOF 15
ENDMDL
MODEL 3
REMARK VINA RESULT:     -13.5      5.484     10.879
REMARK SMILES O=C(Cn1nc(-c2ccc(Br)cc2)ccc1=O)N[C@H](C(=O)NCCCNC(=O)c1ccc(-c2c3nc(c(-c4c(F)c(F)c(F)c(F)c4F)c4ccc([nH]4)c(-c4c(F)c(F)c(F)c(F)c4F)c4nc(c(-c5c(F)c(F)c(F)c(F)c5F)c5ccc2[nH]5)C=C4)C=C3)cc1)c1ccccc1
REMARK SMILES IDX 23 1 22 2 20 3 21 4 19 6 18 7 1 8 2 9 3 11 4 12 5 13 16 14
REMARK SMILES IDX 6 15 15 16 17 17 14 18 7 19 8 20 13 21 9 22 12 23 10 24
REMARK SMILES IDX 11 25 92 26 93 27 97 28 94 29 96 30 95 31 24 32 25 33 26 34
REMARK SMILES IDX 27 35 28 37 29 38 30 39 91 40 31 41 90 42 32 43 33 44 34 45
REMARK SMILES IDX 84 46 35 47 89 48 83 49 85 50 36 51 88 52 82 53 81 54 37 56
REMARK SMILES IDX 69 57 49 58 68 59 50 60 53 61 67 62 86 63 51 64 52 65 66 67
REMARK SMILES IDX 87 68 54 69 38 70 39 71 47 72 40 73 41 74 45 75 48 76 42 77
REMARK SMILES IDX 43 78 46 79 44 80 70 81 71 82 79 83 72 84 73 85 77 86 80 87
REMARK SMILES IDX 74 88 75 89 78 90 76 91 55 92 56 93 64 94 57 95 58 96 62 97
REMARK SMILES IDX 65 98 59 99 60 100 63 101 61 102
REMARK H PARENT 22 5 18 10 26 36 85 55 53 66
REMARK Flexibility Score: inf
ROOT
ATOM      1  C   UNL A   1      32.430  30.492  25.840  1.00  0.00     0.117 C 
ENDROOT
BRANCH   1   2
ATOM      2  N   UNL A   1      32.013  29.166  26.256  1.00  0.00    -0.354 N 
ATOM      3  C   UNL A   1      31.427  28.146  25.548  1.00  0.00     0.247 C 
ATOM      4  O   UNL A   1      30.992  27.220  26.239  1.00  0.00    -0.272 OA
ATOM      5  H   UNL A   1      32.177  28.964  27.205  1.00  0.00     0.163 HD
BRANCH   3   6
ATOM      6  C   UNL A   1      31.176  28.301  24.013  1.00  0.00     0.202 C 
BRANCH   6   7
ATOM      7  N   UNL A   1      31.380  27.024  23.327  1.00  0.00    -0.339 N 
ATOM      8  O   UNL A   1      33.505  27.480  22.592  1.00  0.00    -0.273 OA
ATOM      9  C   UNL A   1      32.565  26.697  22.700  1.00  0.00     0.242 C 
ATOM     10  H   UNL A   1      30.642  26.373  23.313  1.00  0.00     0.164 HD
BRANCH   9  11
ATOM     11  C   UNL A   1      32.553  25.343  22.004  1.00  0.00     0.248 C 
BRANCH  11  12
ATOM     12  N   UNL A   1      32.640  24.265  22.980  1.00  0.00    -0.220 N 
ATOM     13  N   UNL A   1      33.904  23.968  23.420  1.00  0.00    -0.169 NA
ATOM     14  C   UNL A   1      31.495  23.630  23.429  1.00  0.00     0.267 A 
ATOM     15  C   UNL A   1      34.036  22.991  24.257  1.00  0.00     0.091 A 
ATOM     16  C   UNL A   1      31.699  22.501  24.362  1.00  0.00     0.075 A 
ATOM     17  O   UNL A   1      30.354  23.973  23.126  1.00  0.00    -0.268 OA
ATOM     18  C   UNL A   1      32.925  22.168  24.773  1.00  0.00     0.036 A 
BRANCH  15  19
ATOM     19  C   UNL A   1      35.386  22.671  24.757  1.00  0.00     0.002 A 
ATOM     20  C   UNL A   1      36.165  23.704  25.289  1.00  0.00     0.011 A 
ATOM     21  C   UNL A   1      35.903  21.378  24.628  1.00  0.00     0.011 A 
ATOM     22  C   UNL A   1      37.465  23.437  25.719  1.00  0.00     0.016 A 
ATOM     23  C   UNL A   1      37.209  21.119  25.047  1.00  0.00     0.016 A 
ATOM     24  C   UNL A   1      37.982  22.148  25.593  1.00  0.00     0.018 A 
ATOM     25  Br  UNL A   1      39.753  21.792  26.150  1.00  0.00    -0.051 Br
ENDBRANCH  15  19
ENDBRANCH  11  12
ENDBRANCH   9  11
ENDBRANCH   6   7
BRANCH   6  26
ATOM     26  C   UNL A   1      29.899  29.019  23.573  1.00  0.00    -0.016 A 
ATOM     27  C   UNL A   1      28.776  28.303  23.124  1.00  0.00     0.006 A 
ATOM     28  C   UNL A   1      29.759  30.414  23.707  1.00  0.00     0.006 A 
ATOM     29  C   UNL A   1      27.593  28.953  22.759  1.00  0.00     0.000 A 
ATOM     30  C   UNL A   1      28.573  31.066  23.354  1.00  0.00     0.000 A 
ATOM     31  C   UNL A   1      27.494  30.336  22.871  1.00  0.00     0.000 A 
ENDBRANCH   6  26
ENDBRANCH   3   6
ENDBRANCH   1   2
BRANCH   1  32
ATOM     32  C   UNL A   1      31.937  31.566  26.796  1.00  0.00     0.042 C 
BRANCH  32  33
ATOM     33  C   UNL A   1      33.034  32.434  27.390  1.00  0.00     0.118 C 
BRANCH  33  34
ATOM     34  N   UNL A   1      32.617  33.808  27.642  1.00  0.00    -0.352 N 
ATOM     35  C   UNL A   1      33.080  34.700  28.584  1.00  0.00     0.251 C 
ATOM     36  H   UNL A   1      31.903  34.147  27.055  1.00  0.00     0.163 HD
ATOM     37  O   UNL A   1      32.528  35.784  28.738  1.00  0.00    -0.269 OA
BRANCH  35  38
ATOM     38  C   UNL A   1      34.218  34.318  29.448  1.00  0.00     0.039 A 
ATOM     39  C   UNL A   1      35.530  34.437  28.987  1.00  0.00     0.014 A 
ATOM     40  C   UNL A   1      33.960  33.773  30.709  1.00  0.00     0.014 A 
ATOM     41  C   UNL A   1      36.559  33.823  29.690  1.00  0.00     0.010 A 
ATOM     42  C   UNL A   1      35.013  33.243  31.460  1.00  0.00     0.010 A 
ATOM     43  C   UNL A   1      36.311  33.205  30.927  1.00  0.00    -0.014 A 
BRANCH  43  44
ATOM     44  C   UNL A   1      37.414  32.495  31.626  1.00  0.00     0.031 A 
ATOM     45  C   UNL A   1      38.143  31.361  30.956  1.00  0.00     0.074 A 
ATOM     46  C   UNL A   1      37.806  32.918  32.844  1.00  0.00     0.049 A 
ATOM     47  N   UNL A   1      39.119  30.618  31.417  1.00  0.00    -0.248 NA
ATOM     48  C   UNL A   1      37.721  31.009  29.590  1.00  0.00     0.031 C 
ATOM     49  C   UNL A   1      37.197  34.023  33.586  1.00  0.00     0.029 A 
ATOM     50  N   UNL A   1      38.823  32.490  33.657  1.00  0.00    -0.354 N 
ATOM     51  C   UNL A   1      39.408  29.701  30.415  1.00  0.00     0.074 A 
ATOM     52  C   UNL A   1      38.491  29.963  29.326  1.00  0.00     0.031 C 
ATOM     53  C   UNL A   1      37.887  34.223  34.719  1.00  0.00     0.029 A 
ATOM     54  C   UNL A   1      38.942  33.219  34.814  1.00  0.00     0.049 A 
ATOM     55  H   UNL A   1      39.410  31.732  33.434  1.00  0.00     0.167 HD
ATOM     56  C   UNL A   1      40.358  28.736  30.401  1.00  0.00     0.037 A 
ATOM     57  C   UNL A   1      39.796  33.088  35.846  1.00  0.00     0.037 A 
ATOM     58  C   UNL A   1      41.294  28.499  31.468  1.00  0.00     0.049 A 
ATOM     59  C   UNL A   1      40.815  31.985  35.820  1.00  0.00     0.074 A 
ATOM     60  C   UNL A   1      42.306  27.556  31.537  1.00  0.00     0.029 A 
ATOM     61  N   UNL A   1      41.340  29.221  32.652  1.00  0.00    -0.354 N 
ATOM     62  N   UNL A   1      41.059  31.110  34.876  1.00  0.00    -0.248 NA
ATOM     63  C   UNL A   1      41.664  31.843  37.010  1.00  0.00     0.031 C 
ATOM     64  C   UNL A   1      42.941  27.684  32.776  1.00  0.00     0.029 A 
ATOM     65  C   UNL A   1      42.352  28.731  33.464  1.00  0.00     0.049 A 
ATOM     66  H   UNL A   1      40.742  29.968  32.882  1.00  0.00     0.167 HD
ATOM     67  C   UNL A   1      42.089  30.313  35.355  1.00  0.00     0.074 A 
ATOM     68  C   UNL A   1      42.441  30.826  36.663  1.00  0.00     0.031 C 
ATOM     69  C   UNL A   1      42.682  29.247  34.767  1.00  0.00     0.037 A 
BRANCH  56  70
ATOM     70  C   UNL A   1      40.437  27.848  29.193  1.00  0.00     0.064 A 
ATOM     71  C   UNL A   1      39.674  26.677  29.090  1.00  0.00     0.173 A 
ATOM     72  C   UNL A   1      41.238  28.211  28.099  1.00  0.00     0.173 A 
ATOM     73  F   UNL A   1      38.904  26.280  30.114  1.00  0.00    -0.203 F 
ATOM     74  C   UNL A   1      39.719  25.893  27.940  1.00  0.00     0.198 A 
ATOM     75  C   UNL A   1      41.261  27.437  26.941  1.00  0.00     0.198 A 
ATOM     76  F   UNL A   1      41.983  29.325  28.145  1.00  0.00    -0.203 F 
ATOM     77  F   UNL A   1      39.004  24.761  27.873  1.00  0.00    -0.200 F 
ATOM     78  C   UNL A   1      40.504  26.278  26.863  1.00  0.00     0.200 A 
ATOM     79  F   UNL A   1      42.013  27.816  25.898  1.00  0.00    -0.200 F 
ATOM     80  F   UNL A   1      40.535  25.529  25.752  1.00  0.00    -0.200 F 
ENDBRANCH  56  70
BRANCH  57  81
ATOM     81  C   UNL A   1      39.709  34.027  36.992  1.00  0.00     0.064 A 
ATOM     82  C   UNL A   1      38.940  33.715  38.119  1.00  0.00     0.173 A 
ATOM     83  C   UNL A   1      40.419  35.237  36.997  1.00  0.00     0.173 A 
ATOM     84  F   UNL A   1      38.227  32.579  38.150  1.00  0.00    -0.203 F 
ATOM     85  C   UNL A   1      38.881  34.579  39.210  1.00  0.00     0.198 A 
ATOM     86  C   UNL A   1      40.381  36.088  38.097  1.00  0.00     0.198 A 
ATOM     87  F   UNL A   1      41.171  35.579  35.940  1.00  0.00    -0.203 F 
ATOM     88  F   UNL A   1      38.117  34.271  40.267  1.00  0.00    -0.200 F 
ATOM     89  C   UNL A   1      39.609  35.761  39.202  1.00  0.00     0.200 A 
ATOM     90  F   UNL A   1      41.096  37.221  38.091  1.00  0.00    -0.200 F 
ATOM     91  F   UNL A   1      39.564  36.584  40.257  1.00  0.00    -0.200 F 
ENDBRANCH  57  81
BRANCH  69  92
ATOM     92  C   UNL A   1      43.771  28.559  35.533  1.00  0.00     0.064 A 
ATOM     93  C   UNL A   1      43.482  27.536  36.446  1.00  0.00     0.173 A 
ATOM     94  C   UNL A   1      45.116  28.892  35.317  1.00  0.00     0.173 A 
ATOM     95  F   UNL A   1      42.209  27.194  36.697  1.00  0.00    -0.203 F 
ATOM     96  C   UNL A   1      44.502  26.878  37.129  1.00  0.00     0.198 A 
ATOM     97  C   UNL A   1      46.135  28.217  35.983  1.00  0.00     0.198 A 
ATOM     98  F   UNL A   1      45.442  29.861  34.448  1.00  0.00    -0.203 F 
ATOM     99  F   UNL A   1      44.202  25.928  38.024  1.00  0.00    -0.200 F 
ATOM    100  C   UNL A   1      45.827  27.216  36.892  1.00  0.00     0.200 A 
ATOM    101  F   UNL A   1      47.415  28.536  35.746  1.00  0.00    -0.200 F 
ATOM    102  F   UNL A   1      46.808  26.576  37.544  1.00  0.00    -0.200 F 
ENDBRANCH  69  92
ENDBRANCH  43  44
ENDBRANCH  35  38
ENDBRANCH  33  34
ENDBRANCH  32  33
ENDBRANCH   1  32
TORSDOF 15
ENDMDL
