MODEL 1
REMARK VINA RESULT:     -12.9      0.000      0.000
REMARK SMILES CC(C)CSc1cc2c(cc1Cl)C=C(C(=O)NCCCNC(=O)c1ccc(-c3c4nc(c(-c5c(F)c(F)c(F)c(F)c5F)c5ccc([nH]5)c(-c5c(F)c(F)c(F)c(F)c5F)c5nc(c(-c6c(F)c(F)c(F)c(F)c6F)c6ccc3[nH]6)C=C5)C=C4)cc1)[C@@H](C(F)(F)F)O2
REMARK SMILES IDX 18 1 17 2 15 3 16 4 14 6 6 7 7 8 11 9 8 10 10 11 12 12 9 13
REMARK SMILES IDX 92 14 13 15 87 16 5 17 4 18 2 19 1 20 3 21 88 22 89 23 90 24
REMARK SMILES IDX 91 25 19 26 20 27 21 28 22 29 23 31 24 32 25 33 86 34 26 35
REMARK SMILES IDX 85 36 27 37 28 38 29 39 79 40 30 41 84 42 78 43 80 44 31 45
REMARK SMILES IDX 83 46 77 47 76 48 32 50 64 51 44 52 63 53 45 54 48 55 62 56
REMARK SMILES IDX 81 57 46 58 47 59 61 61 82 62 49 63 33 64 34 65 42 66 35 67
REMARK SMILES IDX 36 68 40 69 43 70 37 71 38 72 41 73 39 74 65 75 66 76 74 77
REMARK SMILES IDX 67 78 68 79 72 80 75 81 69 82 70 83 73 84 71 85 50 86 51 87
REMARK SMILES IDX 59 88 52 89 53 90 57 91 60 92 54 93 55 94 58 95 56 96
REMARK H PARENT 17 5 21 30 80 49 48 60
REMARK Flexibility Score: inf
ROOT
ATOM      1  C   UNL A   1      36.816  20.657  25.232  1.00  0.00     0.118 C 
ENDROOT
BRANCH   1   2
ATOM      2  N   UNL A   1      35.560  19.971  24.965  1.00  0.00    -0.352 N 
ATOM      3  C   UNL A   1      34.249  20.289  24.870  1.00  0.00     0.251 C 
ATOM      4  O   UNL A   1      33.496  19.339  24.631  1.00  0.00    -0.270 OA
ATOM      5  H   UNL A   1      35.706  19.010  24.812  1.00  0.00     0.163 HD
BRANCH   3   6
ATOM      6  C   UNL A   1      33.680  21.659  25.032  1.00  0.00     0.067 C 
ATOM      7  C   UNL A   1      32.206  26.442  24.287  1.00  0.00     0.030 A 
ATOM      8  C   UNL A   1      31.973  25.463  25.253  1.00  0.00     0.063 A 
ATOM      9  C   UNL A   1      33.131  26.135  23.266  1.00  0.00     0.055 A 
ATOM     10  C   UNL A   1      32.533  24.194  25.146  1.00  0.00     0.129 A 
ATOM     11  C   UNL A   1      33.738  24.868  23.193  1.00  0.00     0.033 A 
ATOM     12  Cl  UNL A   1      33.567  27.271  22.031  1.00  0.00    -0.083 Cl
ATOM     13  C   UNL A   1      33.419  23.881  24.125  1.00  0.00     0.019 A 
ATOM     14  O   UNL A   1      32.081  23.284  26.054  1.00  0.00    -0.475 OA
ATOM     15  C   UNL A   1      33.945  22.526  24.035  1.00  0.00     0.025 C 
ATOM     16  C   UNL A   1      32.873  22.084  26.224  1.00  0.00     0.314 C 
BRANCH   7  17
ATOM     17  S   UNL A   1      31.325  28.008  24.319  1.00  0.00    -0.124 SA
BRANCH  17  18
ATOM     18  C   UNL A   1      32.435  29.196  25.177  1.00  0.00     0.078 C 
BRANCH  18  19
ATOM     19  C   UNL A   1      32.074  29.548  26.635  1.00  0.00    -0.007 C 
ATOM     20  C   UNL A   1      31.777  28.356  27.546  1.00  0.00     0.008 C 
ATOM     21  C   UNL A   1      33.230  30.349  27.252  1.00  0.00     0.008 C 
ENDBRANCH  18  19
ENDBRANCH  17  18
ENDBRANCH   7  17
BRANCH  16  22
ATOM     22  C   UNL A   1      33.710  22.252  27.505  1.00  0.00     0.429 C 
ATOM     23  F   UNL A   1      32.904  22.578  28.548  1.00  0.00    -0.167 F 
ATOM     24  F   UNL A   1      34.362  21.123  27.862  1.00  0.00    -0.167 F 
ATOM     25  F   UNL A   1      34.639  23.227  27.391  1.00  0.00    -0.167 F 
ENDBRANCH  16  22
ENDBRANCH   3   6
ENDBRANCH   1   2
BRANCH   1  26
ATOM     26  C   UNL A   1      38.016  19.753  25.001  1.00  0.00     0.042 C 
BRANCH  26  27
ATOM     27  C   UNL A   1      39.241  20.213  25.781  1.00  0.00     0.118 C 
BRANCH  27  28
ATOM     28  N   UNL A   1      40.264  19.172  25.862  1.00  0.00    -0.352 N 
ATOM     29  C   UNL A   1      41.623  19.267  26.045  1.00  0.00     0.251 C 
ATOM     30  H   UNL A   1      39.924  18.252  25.771  1.00  0.00     0.163 HD
ATOM     31  O   UNL A   1      42.337  18.286  25.854  1.00  0.00    -0.269 OA
BRANCH  29  32
ATOM     32  C   UNL A   1      42.227  20.553  26.447  1.00  0.00     0.039 A 
ATOM     33  C   UNL A   1      42.286  20.911  27.793  1.00  0.00     0.014 A 
ATOM     34  C   UNL A   1      42.739  21.412  25.471  1.00  0.00     0.014 A 
ATOM     35  C   UNL A   1      42.653  22.202  28.143  1.00  0.00     0.010 A 
ATOM     36  C   UNL A   1      43.219  22.673  25.839  1.00  0.00     0.010 A 
ATOM     37  C   UNL A   1      43.127  23.099  27.173  1.00  0.00    -0.014 A 
BRANCH  37  38
ATOM     38  C   UNL A   1      43.509  24.473  27.590  1.00  0.00     0.031 A 
ATOM     39  C   UNL A   1      44.947  24.918  27.550  1.00  0.00     0.074 A 
ATOM     40  C   UNL A   1      42.539  25.346  27.928  1.00  0.00     0.049 A 
ATOM     41  N   UNL A   1      45.457  26.084  27.862  1.00  0.00    -0.248 NA
ATOM     42  C   UNL A   1      45.946  23.931  27.109  1.00  0.00     0.031 C 
ATOM     43  C   UNL A   1      41.110  25.032  27.992  1.00  0.00     0.029 A 
ATOM     44  N   UNL A   1      42.598  26.679  28.246  1.00  0.00    -0.354 N 
ATOM     45  C   UNL A   1      46.828  25.961  27.684  1.00  0.00     0.074 A 
ATOM     46  C   UNL A   1      47.080  24.604  27.254  1.00  0.00     0.031 C 
ATOM     47  C   UNL A   1      40.424  26.152  28.262  1.00  0.00     0.029 A 
ATOM     48  C   UNL A   1      41.366  27.245  28.465  1.00  0.00     0.049 A 
ATOM     49  H   UNL A   1      43.443  27.181  28.312  1.00  0.00     0.167 HD
ATOM     50  C   UNL A   1      47.786  26.903  27.854  1.00  0.00     0.037 A 
ATOM     51  C   UNL A   1      41.030  28.502  28.809  1.00  0.00     0.037 A 
ATOM     52  C   UNL A   1      47.526  28.265  28.238  1.00  0.00     0.049 A 
ATOM     53  C   UNL A   1      42.119  29.518  29.005  1.00  0.00     0.074 A 
ATOM     54  C   UNL A   1      48.431  29.298  28.409  1.00  0.00     0.029 A 
ATOM     55  N   UNL A   1      46.268  28.786  28.497  1.00  0.00    -0.354 N 
ATOM     56  N   UNL A   1      43.412  29.384  28.839  1.00  0.00    -0.248 NA
ATOM     57  C   UNL A   1      41.705  30.856  29.451  1.00  0.00     0.031 C 
ATOM     58  C   UNL A   1      47.725  30.437  28.806  1.00  0.00     0.029 A 
ATOM     59  C   UNL A   1      46.376  30.124  28.843  1.00  0.00     0.049 A 
ATOM     60  H   UNL A   1      45.424  28.282  28.443  1.00  0.00     0.167 HD
ATOM     61  C   UNL A   1      43.965  30.615  29.157  1.00  0.00     0.074 A 
ATOM     62  C   UNL A   1      42.865  31.494  29.497  1.00  0.00     0.031 C 
ATOM     63  C   UNL A   1      45.269  30.981  29.176  1.00  0.00     0.037 A 
BRANCH  50  64
ATOM     64  C   UNL A   1      49.215  26.509  27.630  1.00  0.00     0.064 A 
ATOM     65  C   UNL A   1      49.762  26.429  26.342  1.00  0.00     0.173 A 
ATOM     66  C   UNL A   1      50.076  26.315  28.723  1.00  0.00     0.173 A 
ATOM     67  F   UNL A   1      48.978  26.594  25.265  1.00  0.00    -0.203 F 
ATOM     68  C   UNL A   1      51.117  26.169  26.155  1.00  0.00     0.198 A 
ATOM     69  C   UNL A   1      51.434  26.078  28.532  1.00  0.00     0.198 A 
ATOM     70  F   UNL A   1      49.603  26.387  29.976  1.00  0.00    -0.203 F 
ATOM     71  F   UNL A   1      51.615  26.081  24.913  1.00  0.00    -0.200 F 
ATOM     72  C   UNL A   1      51.953  26.005  27.248  1.00  0.00     0.200 A 
ATOM     73  F   UNL A   1      52.243  25.932  29.591  1.00  0.00    -0.200 F 
ATOM     74  F   UNL A   1      53.262  25.780  27.065  1.00  0.00    -0.200 F 
ENDBRANCH  50  64
BRANCH  51  75
ATOM     75  C   UNL A   1      39.602  28.857  29.006  1.00  0.00     0.064 A 
ATOM     76  C   UNL A   1      38.812  29.296  27.934  1.00  0.00     0.173 A 
ATOM     77  C   UNL A   1      38.993  28.751  30.266  1.00  0.00     0.173 A 
ATOM     78  F   UNL A   1      39.353  29.432  26.715  1.00  0.00    -0.203 F 
ATOM     79  C   UNL A   1      37.469  29.623  28.118  1.00  0.00     0.198 A 
ATOM     80  C   UNL A   1      37.645  29.049  30.442  1.00  0.00     0.198 A 
ATOM     81  F   UNL A   1      39.706  28.334  31.323  1.00  0.00    -0.203 F 
ATOM     82  F   UNL A   1      36.745  30.075  27.085  1.00  0.00    -0.200 F 
ATOM     83  C   UNL A   1      36.885  29.491  29.370  1.00  0.00     0.200 A 
ATOM     84  F   UNL A   1      37.081  28.903  31.649  1.00  0.00    -0.200 F 
ATOM     85  F   UNL A   1      35.592  29.795  29.543  1.00  0.00    -0.200 F 
ENDBRANCH  51  75
BRANCH  63  86
ATOM     86  C   UNL A   1      45.581  32.392  29.573  1.00  0.00     0.064 A 
ATOM     87  C   UNL A   1      45.880  32.724  30.901  1.00  0.00     0.173 A 
ATOM     88  C   UNL A   1      45.646  33.406  28.606  1.00  0.00     0.173 A 
ATOM     89  F   UNL A   1      45.818  31.788  31.861  1.00  0.00    -0.203 F 
ATOM     90  C   UNL A   1      46.221  34.026  31.251  1.00  0.00     0.198 A 
ATOM     91  C   UNL A   1      46.011  34.702  28.956  1.00  0.00     0.198 A 
ATOM     92  F   UNL A   1      45.375  33.133  27.321  1.00  0.00    -0.203 F 
ATOM     93  F   UNL A   1      46.472  34.330  32.532  1.00  0.00    -0.200 F 
ATOM     94  C   UNL A   1      46.295  35.012  30.278  1.00  0.00     0.200 A 
ATOM     95  F   UNL A   1      46.094  35.651  28.013  1.00  0.00    -0.200 F 
ATOM     96  F   UNL A   1      46.636  36.263  30.615  1.00  0.00    -0.200 F 
ENDBRANCH  63  86
ENDBRANCH  37  38
ENDBRANCH  29  32
ENDBRANCH  27  28
ENDBRANCH  26  27
ENDBRANCH   1  26
TORSDOF 14
ENDMDL
MODEL 2
REMARK VINA RESULT:     -12.9      1.443      2.096
REMARK SMILES CC(C)CSc1cc2c(cc1Cl)C=C(C(=O)NCCCNC(=O)c1ccc(-c3c4nc(c(-c5c(F)c(F)c(F)c(F)c5F)c5ccc([nH]5)c(-c5c(F)c(F)c(F)c(F)c5F)c5nc(c(-c6c(F)c(F)c(F)c(F)c6F)c6ccc3[nH]6)C=C5)C=C4)cc1)[C@@H](C(F)(F)F)O2
REMARK SMILES IDX 18 1 17 2 15 3 16 4 14 6 6 7 7 8 11 9 8 10 10 11 12 12 9 13
REMARK SMILES IDX 92 14 13 15 87 16 5 17 4 18 2 19 1 20 3 21 88 22 89 23 90 24
REMARK SMILES IDX 91 25 19 26 20 27 21 28 22 29 23 31 24 32 25 33 86 34 26 35
REMARK SMILES IDX 85 36 27 37 28 38 29 39 79 40 30 41 84 42 78 43 80 44 31 45
REMARK SMILES IDX 83 46 77 47 76 48 32 50 64 51 44 52 63 53 45 54 48 55 62 56
REMARK SMILES IDX 81 57 46 58 47 59 61 61 82 62 49 63 33 64 34 65 42 66 35 67
REMARK SMILES IDX 36 68 40 69 43 70 37 71 38 72 41 73 39 74 65 75 66 76 74 77
REMARK SMILES IDX 67 78 68 79 72 80 75 81 69 82 70 83 73 84 71 85 50 86 51 87
REMARK SMILES IDX 59 88 52 89 53 90 57 91 60 92 54 93 55 94 58 95 56 96
REMARK H PARENT 17 5 21 30 80 49 48 60
REMARK Flexibility Score: inf
ROOT
ATOM      1  C   UNL A   1      37.180  20.763  24.762  1.00  0.00     0.118 C 
ENDROOT
BRANCH   1   2
ATOM      2  N   UNL A   1      35.884  20.523  25.381  1.00  0.00    -0.352 N 
ATOM      3  C   UNL A   1      34.685  21.145  25.463  1.00  0.00     0.251 C 
ATOM      4  O   UNL A   1      33.836  20.557  26.139  1.00  0.00    -0.270 OA
ATOM      5  H   UNL A   1      35.879  19.673  25.877  1.00  0.00     0.163 HD
BRANCH   3   6
ATOM      6  C   UNL A   1      34.343  22.444  24.815  1.00  0.00     0.067 C 
ATOM      7  C   UNL A   1      33.528  27.345  23.855  1.00  0.00     0.030 A 
ATOM      8  C   UNL A   1      33.608  26.178  23.095  1.00  0.00     0.063 A 
ATOM      9  C   UNL A   1      33.605  27.210  25.258  1.00  0.00     0.055 A 
ATOM     10  C   UNL A   1      33.879  24.948  23.687  1.00  0.00     0.129 A 
ATOM     11  C   UNL A   1      33.824  25.956  25.856  1.00  0.00     0.033 A 
ATOM     12  Cl  UNL A   1      33.461  28.562  26.333  1.00  0.00    -0.083 Cl
ATOM     13  C   UNL A   1      33.986  24.819  25.064  1.00  0.00     0.019 A 
ATOM     14  O   UNL A   1      34.110  23.926  22.817  1.00  0.00    -0.475 OA
ATOM     15  C   UNL A   1      34.310  23.516  25.630  1.00  0.00     0.025 C 
ATOM     16  C   UNL A   1      34.034  22.583  23.352  1.00  0.00     0.314 C 
BRANCH   7  17
ATOM     17  S   UNL A   1      33.380  28.956  23.071  1.00  0.00    -0.124 SA
BRANCH  17  18
ATOM     18  C   UNL A   1      31.645  29.072  22.476  1.00  0.00     0.078 C 
BRANCH  18  19
ATOM     19  C   UNL A   1      30.544  29.091  23.557  1.00  0.00    -0.007 C 
ATOM     20  C   UNL A   1      29.461  30.154  23.375  1.00  0.00     0.008 C 
ATOM     21  C   UNL A   1      29.867  27.714  23.597  1.00  0.00     0.008 C 
ENDBRANCH  18  19
ENDBRANCH  17  18
ENDBRANCH   7  17
BRANCH  16  22
ATOM     22  C   UNL A   1      32.668  21.995  22.954  1.00  0.00     0.429 C 
ATOM     23  F   UNL A   1      32.469  22.144  21.619  1.00  0.00    -0.167 F 
ATOM     24  F   UNL A   1      32.567  20.672  23.212  1.00  0.00    -0.167 F 
ATOM     25  F   UNL A   1      31.640  22.603  23.587  1.00  0.00    -0.167 F 
ENDBRANCH  16  22
ENDBRANCH   3   6
ENDBRANCH   1   2
BRANCH   1  26
ATOM     26  C   UNL A   1      38.158  19.632  25.039  1.00  0.00     0.042 C 
BRANCH  26  27
ATOM     27  C   UNL A   1      39.385  20.109  25.804  1.00  0.00     0.118 C 
BRANCH  27  28
ATOM     28  N   UNL A   1      40.421  19.081  25.879  1.00  0.00    -0.352 N 
ATOM     29  C   UNL A   1      41.777  19.190  26.070  1.00  0.00     0.251 C 
ATOM     30  H   UNL A   1      40.093  18.157  25.776  1.00  0.00     0.163 HD
ATOM     31  O   UNL A   1      42.504  18.220  25.872  1.00  0.00    -0.269 OA
BRANCH  29  32
ATOM     32  C   UNL A   1      42.364  20.478  26.488  1.00  0.00     0.039 A 
ATOM     33  C   UNL A   1      42.319  20.869  27.826  1.00  0.00     0.014 A 
ATOM     34  C   UNL A   1      42.964  21.308  25.537  1.00  0.00     0.014 A 
ATOM     35  C   UNL A   1      42.674  22.164  28.174  1.00  0.00     0.010 A 
ATOM     36  C   UNL A   1      43.428  22.572  25.913  1.00  0.00     0.010 A 
ATOM     37  C   UNL A   1      43.235  23.032  27.224  1.00  0.00    -0.014 A 
BRANCH  37  38
ATOM     38  C   UNL A   1      43.600  24.412  27.638  1.00  0.00     0.031 A 
ATOM     39  C   UNL A   1      45.035  24.867  27.620  1.00  0.00     0.074 A 
ATOM     40  C   UNL A   1      42.618  25.279  27.954  1.00  0.00     0.049 A 
ATOM     41  N   UNL A   1      45.531  26.039  27.932  1.00  0.00    -0.248 NA
ATOM     42  C   UNL A   1      46.049  23.884  27.202  1.00  0.00     0.031 C 
ATOM     43  C   UNL A   1      41.190  24.955  27.996  1.00  0.00     0.029 A 
ATOM     44  N   UNL A   1      42.662  26.615  28.264  1.00  0.00    -0.354 N 
ATOM     45  C   UNL A   1      46.906  25.924  27.777  1.00  0.00     0.074 A 
ATOM     46  C   UNL A   1      47.175  24.567  27.361  1.00  0.00     0.031 C 
ATOM     47  C   UNL A   1      40.492  26.071  28.247  1.00  0.00     0.029 A 
ATOM     48  C   UNL A   1      41.422  27.173  28.459  1.00  0.00     0.049 A 
ATOM     49  H   UNL A   1      43.502  27.123  28.341  1.00  0.00     0.167 HD
ATOM     50  C   UNL A   1      47.854  26.874  27.957  1.00  0.00     0.037 A 
ATOM     51  C   UNL A   1      41.072  28.430  28.789  1.00  0.00     0.037 A 
ATOM     52  C   UNL A   1      47.578  28.237  28.327  1.00  0.00     0.049 A 
ATOM     53  C   UNL A   1      42.149  29.455  28.995  1.00  0.00     0.074 A 
ATOM     54  C   UNL A   1      48.472  29.278  28.507  1.00  0.00     0.029 A 
ATOM     55  N   UNL A   1      46.311  28.751  28.562  1.00  0.00    -0.354 N 
ATOM     56  N   UNL A   1      43.446  29.329  28.852  1.00  0.00    -0.248 NA
ATOM     57  C   UNL A   1      41.718  30.793  29.426  1.00  0.00     0.031 C 
ATOM     58  C   UNL A   1      47.751  30.414  28.884  1.00  0.00     0.029 A 
ATOM     59  C   UNL A   1      46.404  30.092  28.901  1.00  0.00     0.049 A 
ATOM     60  H   UNL A   1      45.473  28.240  28.498  1.00  0.00     0.167 HD
ATOM     61  C   UNL A   1      43.984  30.567  29.171  1.00  0.00     0.074 A 
ATOM     62  C   UNL A   1      42.873  31.440  29.486  1.00  0.00     0.031 C 
ATOM     63  C   UNL A   1      45.285  30.943  29.209  1.00  0.00     0.037 A 
BRANCH  50  64
ATOM     64  C   UNL A   1      49.290  26.490  27.760  1.00  0.00     0.064 A 
ATOM     65  C   UNL A   1      49.872  26.454  26.485  1.00  0.00     0.173 A 
ATOM     66  C   UNL A   1      50.120  26.260  28.869  1.00  0.00     0.173 A 
ATOM     67  F   UNL A   1      49.118  26.655  25.393  1.00  0.00    -0.203 F 
ATOM     68  C   UNL A   1      51.232  26.202  26.327  1.00  0.00     0.198 A 
ATOM     69  C   UNL A   1      51.483  26.030  28.708  1.00  0.00     0.198 A 
ATOM     70  F   UNL A   1      49.612  26.288  30.110  1.00  0.00    -0.203 F 
ATOM     71  F   UNL A   1      51.765  26.158  25.098  1.00  0.00    -0.200 F 
ATOM     72  C   UNL A   1      52.038  26.002  27.438  1.00  0.00     0.200 A 
ATOM     73  F   UNL A   1      52.263  25.849  29.784  1.00  0.00    -0.200 F 
ATOM     74  F   UNL A   1      53.352  25.784  27.284  1.00  0.00    -0.200 F 
ENDBRANCH  50  64
BRANCH  51  75
ATOM     75  C   UNL A   1      39.637  28.776  28.959  1.00  0.00     0.064 A 
ATOM     76  C   UNL A   1      39.008  28.657  30.205  1.00  0.00     0.173 A 
ATOM     77  C   UNL A   1      38.871  29.246  27.881  1.00  0.00     0.173 A 
ATOM     78  F   UNL A   1      39.694  28.193  31.260  1.00  0.00    -0.203 F 
ATOM     79  C   UNL A   1      37.663  28.987  30.365  1.00  0.00     0.198 A 
ATOM     80  C   UNL A   1      37.536  29.605  28.049  1.00  0.00     0.198 A 
ATOM     81  F   UNL A   1      39.427  29.380  26.668  1.00  0.00    -0.203 F 
ATOM     82  F   UNL A   1      37.075  28.830  31.559  1.00  0.00    -0.200 F 
ATOM     83  C   UNL A   1      36.931  29.469  29.289  1.00  0.00     0.200 A 
ATOM     84  F   UNL A   1      36.838  30.086  27.012  1.00  0.00    -0.200 F 
ATOM     85  F   UNL A   1      35.641  29.797  29.448  1.00  0.00    -0.200 F 
ENDBRANCH  51  75
BRANCH  63  86
ATOM     86  C   UNL A   1      45.580  32.358  29.602  1.00  0.00     0.064 A 
ATOM     87  C   UNL A   1      45.836  32.705  30.935  1.00  0.00     0.173 A 
ATOM     88  C   UNL A   1      45.672  33.363  28.627  1.00  0.00     0.173 A 
ATOM     89  F   UNL A   1      45.746  31.778  31.902  1.00  0.00    -0.203 F 
ATOM     90  C   UNL A   1      46.162  34.011  31.283  1.00  0.00     0.198 A 
ATOM     91  C   UNL A   1      46.022  34.664  28.976  1.00  0.00     0.198 A 
ATOM     92  F   UNL A   1      45.443  33.077  27.337  1.00  0.00    -0.203 F 
ATOM     93  F   UNL A   1      46.371  34.329  32.568  1.00  0.00    -0.200 F 
ATOM     94  C   UNL A   1      46.263  34.988  30.302  1.00  0.00     0.200 A 
ATOM     95  F   UNL A   1      46.133  35.603  28.026  1.00  0.00    -0.200 F 
ATOM     96  F   UNL A   1      46.590  36.244  30.637  1.00  0.00    -0.200 F 
ENDBRANCH  63  86
ENDBRANCH  37  38
ENDBRANCH  29  32
ENDBRANCH  27  28
ENDBRANCH  26  27
ENDBRANCH   1  26
TORSDOF 14
ENDMDL
MODEL 3
REMARK VINA RESULT:     -12.9      5.766     10.105
REMARK SMILES CC(C)CSc1cc2c(cc1Cl)C=C(C(=O)NCCCNC(=O)c1ccc(-c3c4nc(c(-c5c(F)c(F)c(F)c(F)c5F)c5ccc([nH]5)c(-c5c(F)c(F)c(F)c(F)c5F)c5nc(c(-c6c(F)c(F)c(F)c(F)c6F)c6ccc3[nH]6)C=C5)C=C4)cc1)[C@@H](C(F)(F)F)O2
REMARK SMILES IDX 18 1 17 2 15 3 16 4 14 6 6 7 7 8 11 9 8 10 10 11 12 12 9 13
REMARK SMILES IDX 92 14 13 15 87 16 5 17 4 18 2 19 1 20 3 21 88 22 89 23 90 24
REMARK SMILES IDX 91 25 19 26 20 27 21 28 22 29 23 31 24 32 25 33 86 34 26 35
REMARK SMILES IDX 85 36 27 37 28 38 29 39 79 40 30 41 84 42 78 43 80 44 31 45
REMARK SMILES IDX 83 46 77 47 76 48 32 50 64 51 44 52 63 53 45 54 48 55 62 56
REMARK SMILES IDX 81 57 46 58 47 59 61 61 82 62 49 63 33 64 34 65 42 66 35 67
REMARK SMILES IDX 36 68 40 69 43 70 37 71 38 72 41 73 39 74 65 75 66 76 74 77
REMARK SMILES IDX 67 78 68 79 72 80 75 81 69 82 70 83 73 84 71 85 50 86 51 87
REMARK SMILES IDX 59 88 52 89 53 90 57 91 60 92 54 93 55 94 58 95 56 96
REMARK H PARENT 17 5 21 30 80 49 48 60
REMARK Flexibility Score: inf
ROOT
ATOM      1  C   UNL A   1      31.720  30.678  26.386  1.00  0.00     0.118 C 
ENDROOT
BRANCH   1   2
ATOM      2  N   UNL A   1      31.414  30.340  25.003  1.00  0.00    -0.352 N 
ATOM      3  C   UNL A   1      31.349  29.227  24.237  1.00  0.00     0.251 C 
ATOM      4  O   UNL A   1      31.052  29.422  23.054  1.00  0.00    -0.270 OA
ATOM      5  H   UNL A   1      31.195  31.145  24.480  1.00  0.00     0.163 HD
BRANCH   3   6
ATOM      6  C   UNL A   1      31.607  27.838  24.714  1.00  0.00     0.067 C 
ATOM      7  C   UNL A   1      33.784  23.572  26.350  1.00  0.00     0.030 A 
ATOM      8  C   UNL A   1      32.478  24.048  26.239  1.00  0.00     0.063 A 
ATOM      9  C   UNL A   1      34.814  24.385  25.831  1.00  0.00     0.055 A 
ATOM     10  C   UNL A   1      32.212  25.324  25.751  1.00  0.00     0.129 A 
ATOM     11  C   UNL A   1      34.536  25.652  25.287  1.00  0.00     0.033 A 
ATOM     12  Cl  UNL A   1      36.479  23.899  25.843  1.00  0.00    -0.083 Cl
ATOM     13  C   UNL A   1      33.229  26.137  25.268  1.00  0.00     0.019 A 
ATOM     14  O   UNL A   1      30.917  25.730  25.865  1.00  0.00    -0.475 OA
ATOM     15  C   UNL A   1      32.902  27.479  24.806  1.00  0.00     0.025 C 
ATOM     16  C   UNL A   1      30.516  26.867  25.064  1.00  0.00     0.314 C 
BRANCH   7  17
ATOM     17  S   UNL A   1      34.137  22.010  27.165  1.00  0.00    -0.124 SA
BRANCH  17  18
ATOM     18  C   UNL A   1      33.443  20.702  26.076  1.00  0.00     0.078 C 
BRANCH  18  19
ATOM     19  C   UNL A   1      34.291  20.303  24.850  1.00  0.00    -0.007 C 
ATOM     20  C   UNL A   1      35.800  20.505  24.999  1.00  0.00     0.008 C 
ATOM     21  C   UNL A   1      34.032  18.825  24.528  1.00  0.00     0.008 C 
ENDBRANCH  18  19
ENDBRANCH  17  18
ENDBRANCH   7  17
BRANCH  16  22
ATOM     22  C   UNL A   1      29.753  26.332  23.839  1.00  0.00     0.429 C 
ATOM     23  F   UNL A   1      28.589  27.014  23.683  1.00  0.00    -0.167 F 
ATOM     24  F   UNL A   1      30.441  26.477  22.684  1.00  0.00    -0.167 F 
ATOM     25  F   UNL A   1      29.443  25.022  23.955  1.00  0.00    -0.167 F 
ENDBRANCH  16  22
ENDBRANCH   3   6
ENDBRANCH   1   2
BRANCH   1  26
ATOM     26  C   UNL A   1      31.517  32.159  26.666  1.00  0.00     0.042 C 
BRANCH  26  27
ATOM     27  C   UNL A   1      32.754  32.802  27.278  1.00  0.00     0.118 C 
BRANCH  27  28
ATOM     28  N   UNL A   1      32.530  34.203  27.628  1.00  0.00    -0.352 N 
ATOM     29  C   UNL A   1      33.032  34.957  28.661  1.00  0.00     0.251 C 
ATOM     30  H   UNL A   1      31.920  34.686  27.025  1.00  0.00     0.163 HD
ATOM     31  O   UNL A   1      32.541  36.054  28.914  1.00  0.00    -0.269 OA
BRANCH  29  32
ATOM     32  C   UNL A   1      34.144  34.440  29.483  1.00  0.00     0.039 A 
ATOM     33  C   UNL A   1      35.458  34.543  29.031  1.00  0.00     0.014 A 
ATOM     34  C   UNL A   1      33.874  33.843  30.718  1.00  0.00     0.014 A 
ATOM     35  C   UNL A   1      36.469  33.868  29.700  1.00  0.00     0.010 A 
ATOM     36  C   UNL A   1      34.913  33.262  31.450  1.00  0.00     0.010 A 
ATOM     37  C   UNL A   1      36.211  33.220  30.919  1.00  0.00    -0.014 A 
BRANCH  37  38
ATOM     38  C   UNL A   1      37.321  32.507  31.603  1.00  0.00     0.031 A 
ATOM     39  C   UNL A   1      38.082  31.414  30.901  1.00  0.00     0.074 A 
ATOM     40  C   UNL A   1      37.693  32.909  32.834  1.00  0.00     0.049 A 
ATOM     41  N   UNL A   1      39.087  30.698  31.341  1.00  0.00    -0.248 NA
ATOM     42  C   UNL A   1      37.662  31.071  29.533  1.00  0.00     0.031 C 
ATOM     43  C   UNL A   1      37.037  33.965  33.608  1.00  0.00     0.029 A 
ATOM     44  N   UNL A   1      38.729  32.506  33.638  1.00  0.00    -0.354 N 
ATOM     45  C   UNL A   1      39.398  29.809  30.321  1.00  0.00     0.074 A 
ATOM     46  C   UNL A   1      38.466  30.056  29.244  1.00  0.00     0.031 C 
ATOM     47  C   UNL A   1      37.724  34.173  34.741  1.00  0.00     0.029 A 
ATOM     48  C   UNL A   1      38.821  33.216  34.811  1.00  0.00     0.049 A 
ATOM     49  H   UNL A   1      39.347  31.778  33.397  1.00  0.00     0.167 HD
ATOM     50  C   UNL A   1      40.381  28.879  30.287  1.00  0.00     0.037 A 
ATOM     51  C   UNL A   1      39.682  33.098  35.838  1.00  0.00     0.037 A 
ATOM     52  C   UNL A   1      41.336  28.667  31.343  1.00  0.00     0.049 A 
ATOM     53  C   UNL A   1      40.751  32.046  35.775  1.00  0.00     0.074 A 
ATOM     54  C   UNL A   1      42.384  27.766  31.387  1.00  0.00     0.029 A 
ATOM     55  N   UNL A   1      41.364  29.374  32.535  1.00  0.00    -0.354 N 
ATOM     56  N   UNL A   1      41.026  31.208  34.806  1.00  0.00    -0.248 NA
ATOM     57  C   UNL A   1      41.619  31.910  36.953  1.00  0.00     0.031 C 
ATOM     58  C   UNL A   1      43.028  27.902  32.620  1.00  0.00     0.029 A 
ATOM     59  C   UNL A   1      42.405  28.916  33.328  1.00  0.00     0.049 A 
ATOM     60  H   UNL A   1      40.739  30.094  32.782  1.00  0.00     0.167 HD
ATOM     61  C   UNL A   1      42.098  30.449  35.254  1.00  0.00     0.074 A 
ATOM     62  C   UNL A   1      42.442  30.946  36.570  1.00  0.00     0.031 C 
ATOM     63  C   UNL A   1      42.731  29.425  34.634  1.00  0.00     0.037 A 
BRANCH  50  64
ATOM     64  C   UNL A   1      40.491  28.006  29.073  1.00  0.00     0.064 A 
ATOM     65  C   UNL A   1      39.757  26.818  28.954  1.00  0.00     0.173 A 
ATOM     66  C   UNL A   1      41.257  28.419  27.971  1.00  0.00     0.173 A 
ATOM     67  F   UNL A   1      39.019  26.374  29.983  1.00  0.00    -0.203 F 
ATOM     68  C   UNL A   1      39.785  26.075  27.776  1.00  0.00     0.198 A 
ATOM     69  C   UNL A   1      41.266  27.685  26.788  1.00  0.00     0.198 A 
ATOM     70  F   UNL A   1      41.974  29.551  28.033  1.00  0.00    -0.203 F 
ATOM     71  F   UNL A   1      39.087  24.933  27.689  1.00  0.00    -0.200 F 
ATOM     72  C   UNL A   1      40.529  26.514  26.692  1.00  0.00     0.200 A 
ATOM     73  F   UNL A   1      41.976  28.118  25.737  1.00  0.00    -0.200 F 
ATOM     74  F   UNL A   1      40.535  25.809  25.551  1.00  0.00    -0.200 F 
ENDBRANCH  50  64
BRANCH  51  75
ATOM     75  C   UNL A   1      39.551  33.992  37.017  1.00  0.00     0.064 A 
ATOM     76  C   UNL A   1      40.171  35.249  37.044  1.00  0.00     0.173 A 
ATOM     77  C   UNL A   1      38.790  33.615  38.134  1.00  0.00     0.173 A 
ATOM     78  F   UNL A   1      40.924  35.646  36.008  1.00  0.00    -0.203 F 
ATOM     79  C   UNL A   1      40.042  36.090  38.148  1.00  0.00     0.198 A 
ATOM     80  C   UNL A   1      38.637  34.468  39.224  1.00  0.00     0.198 A 
ATOM     81  F   UNL A   1      38.174  32.423  38.156  1.00  0.00    -0.203 F 
ATOM     82  F   UNL A   1      40.675  37.271  38.164  1.00  0.00    -0.200 F 
ATOM     83  C   UNL A   1      39.269  35.703  39.233  1.00  0.00     0.200 A 
ATOM     84  F   UNL A   1      37.875  34.097  40.261  1.00  0.00    -0.200 F 
ATOM     85  F   UNL A   1      39.137  36.517  40.288  1.00  0.00    -0.200 F 
ENDBRANCH  51  75
BRANCH  63  86
ATOM     86  C   UNL A   1      43.864  28.774  35.367  1.00  0.00     0.064 A 
ATOM     87  C   UNL A   1      45.184  29.218  35.207  1.00  0.00     0.173 A 
ATOM     88  C   UNL A   1      43.620  27.742  36.285  1.00  0.00     0.173 A 
ATOM     89  F   UNL A   1      45.467  30.194  34.330  1.00  0.00    -0.203 F 
ATOM     90  C   UNL A   1      46.222  28.644  35.933  1.00  0.00     0.198 A 
ATOM     91  C   UNL A   1      44.657  27.187  37.026  1.00  0.00     0.198 A 
ATOM     92  F   UNL A   1      42.372  27.290  36.476  1.00  0.00    -0.203 F 
ATOM     93  F   UNL A   1      47.481  29.061  35.742  1.00  0.00    -0.200 F 
ATOM     94  C   UNL A   1      45.957  27.634  36.848  1.00  0.00     0.200 A 
ATOM     95  F   UNL A   1      44.399  26.221  37.919  1.00  0.00    -0.200 F 
ATOM     96  F   UNL A   1      46.958  27.091  37.555  1.00  0.00    -0.200 F 
ENDBRANCH  63  86
ENDBRANCH  37  38
ENDBRANCH  29  32
ENDBRANCH  27  28
ENDBRANCH  26  27
ENDBRANCH   1  26
TORSDOF 14
ENDMDL
