MODEL 1
REMARK VINA RESULT:     -13.5      0.000      0.000
REMARK SMILES O=C(CCC1CC[NH+]([C@H]2CCO[C@@]3(CCSC3)C2)CC1)NCCCNC(=O)c1ccc(-c2c3nc(c(-c4c(F)c(F)c(F)c(F)c4F)c4ccc([nH]4)c(-c4c(F)c(F)c(F)c(F)c4F)c4nc(c(-c5c(F)c(F)c(F)c(F)c5F)c5ccc2[nH]5)C=C4)C=C3)cc1
REMARK SMILES IDX 22 1 21 2 1 3 2 4 3 6 4 7 5 8 6 9 20 10 7 11 19 12 8 13 9 15
REMARK SMILES IDX 10 16 18 17 11 18 13 19 12 20 14 21 17 22 15 23 16 24 23 25
REMARK SMILES IDX 24 26 25 27 26 28 27 30 28 31 29 32 90 33 30 34 89 35 31 36
REMARK SMILES IDX 32 37 33 38 83 39 34 40 88 41 82 42 84 43 35 44 87 45 81 46
REMARK SMILES IDX 80 47 36 49 68 50 48 51 67 52 49 53 52 54 66 55 85 56 50 57
REMARK SMILES IDX 51 58 65 60 86 61 53 62 37 63 38 64 46 65 39 66 40 67 44 68
REMARK SMILES IDX 47 69 41 70 42 71 45 72 43 73 69 74 70 75 78 76 71 77 72 78
REMARK SMILES IDX 76 79 79 80 73 81 74 82 77 83 75 84 54 85 55 86 63 87 56 88
REMARK SMILES IDX 57 89 61 90 64 91 58 92 59 93 62 94 60 95
REMARK H PARENT 21 5 8 14 25 29 84 48 52 59
REMARK Flexibility Score: inf
ROOT
ATOM      1  C   UNL A   1      35.386  22.019  26.488  1.00  0.00     0.117 C 
ENDROOT
BRANCH   1   2
ATOM      2  N   UNL A   1      34.993  23.346  26.067  1.00  0.00    -0.356 N 
ATOM      3  O   UNL A   1      32.745  23.192  26.463  1.00  0.00    -0.275 OA
ATOM      4  C   UNL A   1      33.705  23.812  26.017  1.00  0.00     0.220 C 
ATOM      5  H   UNL A   1      35.709  23.964  25.794  1.00  0.00     0.163 HD
BRANCH   4   6
ATOM      6  C   UNL A   1      33.537  25.137  25.278  1.00  0.00     0.100 C 
BRANCH   6   7
ATOM      7  C   UNL A   1      33.294  26.386  26.126  1.00  0.00     0.014 C 
BRANCH   7   8
ATOM      8  C   UNL A   1      31.882  27.021  26.245  1.00  0.00     0.000 C 
ATOM      9  C   UNL A   1      30.674  26.234  25.743  1.00  0.00     0.065 C 
ATOM     10  C   UNL A   1      31.812  28.433  25.670  1.00  0.00     0.065 C 
ATOM     11  C   UNL A   1      30.422  26.314  24.237  1.00  0.00     0.262 C 
ATOM     12  C   UNL A   1      31.768  28.431  24.153  1.00  0.00     0.262 C 
ATOM     13  N   UNL A   1      30.738  27.578  23.532  1.00  0.00    -0.332 N 
ATOM     14  H   UNL A   1      31.220  27.290  22.680  1.00  0.00     0.348 HD
BRANCH  13  15
ATOM     15  C   UNL A   1      29.506  28.294  23.091  1.00  0.00     0.189 C 
ATOM     16  C   UNL A   1      28.227  27.682  23.672  1.00  0.00     0.093 C 
ATOM     17  C   UNL A   1      29.493  29.827  23.335  1.00  0.00     0.101 C 
ATOM     18  C   UNL A   1      27.010  28.400  23.127  1.00  0.00     0.167 C 
ATOM     19  C   UNL A   1      28.174  30.497  22.865  1.00  0.00     0.084 C 
ATOM     20  O   UNL A   1      27.063  29.784  23.449  1.00  0.00    -0.374 OA
ATOM     21  C   UNL A   1      28.062  31.939  23.409  1.00  0.00     0.047 C 
ATOM     22  C   UNL A   1      28.011  30.580  21.330  1.00  0.00     0.105 C 
ATOM     23  C   UNL A   1      28.676  32.904  22.418  1.00  0.00     0.072 C 
ATOM     24  S   UNL A   1      28.030  32.327  20.840  1.00  0.00    -0.159 SA
ENDBRANCH  13  15
ENDBRANCH   7   8
ENDBRANCH   6   7
ENDBRANCH   4   6
ENDBRANCH   1   2
BRANCH   1  25
ATOM     25  C   UNL A   1      35.820  21.156  25.297  1.00  0.00     0.042 C 
BRANCH  25  26
ATOM     26  C   UNL A   1      37.181  21.486  24.672  1.00  0.00     0.118 C 
BRANCH  26  27
ATOM     27  N   UNL A   1      38.268  20.696  25.218  1.00  0.00    -0.352 N 
ATOM     28  C   UNL A   1      39.361  21.032  25.974  1.00  0.00     0.251 C 
ATOM     29  H   UNL A   1      38.210  19.737  25.006  1.00  0.00     0.163 HD
ATOM     30  O   UNL A   1      40.209  20.160  26.147  1.00  0.00    -0.269 OA
BRANCH  28  31
ATOM     31  C   UNL A   1      39.576  22.386  26.556  1.00  0.00     0.039 A 
ATOM     32  C   UNL A   1      40.478  22.492  27.625  1.00  0.00     0.014 A 
ATOM     33  C   UNL A   1      38.924  23.540  26.112  1.00  0.00     0.014 A 
ATOM     34  C   UNL A   1      40.845  23.743  28.128  1.00  0.00     0.010 A 
ATOM     35  C   UNL A   1      39.336  24.798  26.567  1.00  0.00     0.010 A 
ATOM     36  C   UNL A   1      40.351  24.910  27.526  1.00  0.00    -0.014 A 
BRANCH  36  37
ATOM     37  C   UNL A   1      41.059  26.204  27.719  1.00  0.00     0.031 A 
ATOM     38  C   UNL A   1      42.468  26.427  27.265  1.00  0.00     0.074 A 
ATOM     39  C   UNL A   1      40.412  27.166  28.411  1.00  0.00     0.049 A 
ATOM     40  N   UNL A   1      43.223  27.488  27.413  1.00  0.00    -0.248 NA
ATOM     41  C   UNL A   1      43.126  25.311  26.573  1.00  0.00     0.031 C 
ATOM     42  C   UNL A   1      39.057  27.040  28.956  1.00  0.00     0.029 A 
ATOM     43  N   UNL A   1      40.800  28.428  28.787  1.00  0.00    -0.354 N 
ATOM     44  C   UNL A   1      44.443  27.173  26.832  1.00  0.00     0.074 A 
ATOM     45  C   UNL A   1      44.342  25.804  26.368  1.00  0.00     0.031 C 
ATOM     46  C   UNL A   1      38.717  28.182  29.568  1.00  0.00     0.029 A 
ATOM     47  C   UNL A   1      39.843  29.105  29.506  1.00  0.00     0.049 A 
ATOM     48  H   UNL A   1      41.678  28.812  28.563  1.00  0.00     0.167 HD
ATOM     49  C   UNL A   1      45.538  27.963  26.691  1.00  0.00     0.037 A 
ATOM     50  C   UNL A   1      39.869  30.328  30.066  1.00  0.00     0.037 A 
ATOM     51  C   UNL A   1      45.627  29.323  27.168  1.00  0.00     0.049 A 
ATOM     52  C   UNL A   1      41.103  31.169  29.912  1.00  0.00     0.074 A 
ATOM     53  C   UNL A   1      46.675  30.218  27.034  1.00  0.00     0.029 A 
ATOM     54  N   UNL A   1      44.635  29.980  27.883  1.00  0.00    -0.354 N 
ATOM     55  N   UNL A   1      42.223  30.888  29.291  1.00  0.00    -0.248 NA
ATOM     56  C   UNL A   1      41.076  32.501  30.529  1.00  0.00     0.031 C 
ATOM     57  C   UNL A   1      46.341  31.393  27.716  1.00  0.00     0.029 A 
ATOM     58  C   UNL A   1      45.059  31.257  28.222  1.00  0.00     0.049 A 
ATOM     59  H   UNL A   1      43.758  29.595  28.116  1.00  0.00     0.167 HD
ATOM     60  C   UNL A   1      43.021  32.016  29.417  1.00  0.00     0.074 A 
ATOM     61  C   UNL A   1      42.250  32.991  30.160  1.00  0.00     0.031 C 
ATOM     62  C   UNL A   1      44.280  32.221  28.958  1.00  0.00     0.037 A 
BRANCH  49  63
ATOM     63  C   UNL A   1      46.736  27.376  25.999  1.00  0.00     0.064 A 
ATOM     64  C   UNL A   1      46.952  27.552  24.623  1.00  0.00     0.173 A 
ATOM     65  C   UNL A   1      47.707  26.668  26.726  1.00  0.00     0.173 A 
ATOM     66  F   UNL A   1      46.056  28.218  23.879  1.00  0.00    -0.203 F 
ATOM     67  C   UNL A   1      48.075  27.015  23.998  1.00  0.00     0.198 A 
ATOM     68  C   UNL A   1      48.844  26.160  26.102  1.00  0.00     0.198 A 
ATOM     69  F   UNL A   1      47.560  26.479  28.046  1.00  0.00    -0.203 F 
ATOM     70  F   UNL A   1      48.232  27.153  22.673  1.00  0.00    -0.200 F 
ATOM     71  C   UNL A   1      49.022  26.325  24.737  1.00  0.00     0.200 A 
ATOM     72  F   UNL A   1      49.767  25.506  26.823  1.00  0.00    -0.200 F 
ATOM     73  F   UNL A   1      50.103  25.812  24.134  1.00  0.00    -0.200 F 
ENDBRANCH  49  63
BRANCH  50  74
ATOM     74  C   UNL A   1      38.682  30.832  30.804  1.00  0.00     0.064 A 
ATOM     75  C   UNL A   1      38.600  30.717  32.199  1.00  0.00     0.173 A 
ATOM     76  C   UNL A   1      37.608  31.441  30.137  1.00  0.00     0.173 A 
ATOM     77  F   UNL A   1      39.592  30.128  32.882  1.00  0.00    -0.203 F 
ATOM     78  C   UNL A   1      37.480  31.168  32.895  1.00  0.00     0.198 A 
ATOM     79  C   UNL A   1      36.503  31.922  30.836  1.00  0.00     0.198 A 
ATOM     80  F   UNL A   1      37.641  31.586  28.804  1.00  0.00    -0.203 F 
ATOM     81  F   UNL A   1      37.406  30.999  34.222  1.00  0.00    -0.200 F 
ATOM     82  C   UNL A   1      36.436  31.776  32.214  1.00  0.00     0.200 A 
ATOM     83  F   UNL A   1      35.505  32.524  30.176  1.00  0.00    -0.200 F 
ATOM     84  F   UNL A   1      35.361  32.212  32.883  1.00  0.00    -0.200 F 
ENDBRANCH  50  74
BRANCH  62  85
ATOM     85  C   UNL A   1      44.888  33.571  29.214  1.00  0.00     0.064 A 
ATOM     86  C   UNL A   1      44.716  34.640  28.321  1.00  0.00     0.173 A 
ATOM     87  C   UNL A   1      45.630  33.805  30.382  1.00  0.00     0.173 A 
ATOM     88  F   UNL A   1      44.033  34.465  27.180  1.00  0.00    -0.203 F 
ATOM     89  C   UNL A   1      45.287  35.885  28.576  1.00  0.00     0.198 A 
ATOM     90  C   UNL A   1      46.170  35.059  30.650  1.00  0.00     0.198 A 
ATOM     91  F   UNL A   1      45.820  32.818  31.270  1.00  0.00    -0.203 F 
ATOM     92  F   UNL A   1      45.155  36.876  27.683  1.00  0.00    -0.200 F 
ATOM     93  C   UNL A   1      46.006  36.095  29.744  1.00  0.00     0.200 A 
ATOM     94  F   UNL A   1      46.850  35.264  31.786  1.00  0.00    -0.200 F 
ATOM     95  F   UNL A   1      46.547  37.295  29.992  1.00  0.00    -0.200 F 
ENDBRANCH  62  85
ENDBRANCH  36  37
ENDBRANCH  28  31
ENDBRANCH  26  27
ENDBRANCH  25  26
ENDBRANCH   1  25
TORSDOF 13
ENDMDL
MODEL 2
REMARK VINA RESULT:     -13.4      0.361      7.367
REMARK SMILES O=C(CCC1CC[NH+]([C@H]2CCO[C@@]3(CCSC3)C2)CC1)NCCCNC(=O)c1ccc(-c2c3nc(c(-c4c(F)c(F)c(F)c(F)c4F)c4ccc([nH]4)c(-c4c(F)c(F)c(F)c(F)c4F)c4nc(c(-c5c(F)c(F)c(F)c(F)c5F)c5ccc2[nH]5)C=C4)C=C3)cc1
REMARK SMILES IDX 22 1 21 2 1 3 2 4 3 6 4 7 5 8 6 9 20 10 7 11 19 12 8 13 9 15
REMARK SMILES IDX 10 16 18 17 11 18 13 19 12 20 14 21 17 22 15 23 16 24 23 25
REMARK SMILES IDX 24 26 25 27 26 28 27 30 28 31 29 32 90 33 30 34 89 35 31 36
REMARK SMILES IDX 32 37 33 38 83 39 34 40 88 41 82 42 84 43 35 44 87 45 81 46
REMARK SMILES IDX 80 47 36 49 68 50 48 51 67 52 49 53 52 54 66 55 85 56 50 57
REMARK SMILES IDX 51 58 65 60 86 61 53 62 37 63 38 64 46 65 39 66 40 67 44 68
REMARK SMILES IDX 47 69 41 70 42 71 45 72 43 73 69 74 70 75 78 76 71 77 72 78
REMARK SMILES IDX 76 79 79 80 73 81 74 82 77 83 75 84 54 85 55 86 63 87 56 88
REMARK SMILES IDX 57 89 61 90 64 91 58 92 59 93 62 94 60 95
REMARK H PARENT 21 5 8 14 25 29 84 48 52 59
REMARK Flexibility Score: inf
ROOT
ATOM      1  C   UNL A   1      35.242  21.963  26.428  1.00  0.00     0.117 C 
ENDROOT
BRANCH   1   2
ATOM      2  N   UNL A   1      34.878  23.310  26.046  1.00  0.00    -0.356 N 
ATOM      3  O   UNL A   1      32.777  22.893  25.241  1.00  0.00    -0.275 OA
ATOM      4  C   UNL A   1      33.712  23.667  25.420  1.00  0.00     0.220 C 
ATOM      5  H   UNL A   1      35.520  24.027  26.251  1.00  0.00     0.163 HD
BRANCH   4   6
ATOM      6  C   UNL A   1      33.694  25.094  24.877  1.00  0.00     0.100 C 
BRANCH   6   7
ATOM      7  C   UNL A   1      33.434  26.220  25.879  1.00  0.00     0.014 C 
BRANCH   7   8
ATOM      8  C   UNL A   1      32.019  26.837  26.054  1.00  0.00     0.000 C 
ATOM      9  C   UNL A   1      30.809  26.065  25.536  1.00  0.00     0.065 C 
ATOM     10  C   UNL A   1      31.929  28.274  25.550  1.00  0.00     0.065 C 
ATOM     11  C   UNL A   1      30.528  26.215  24.041  1.00  0.00     0.262 C 
ATOM     12  C   UNL A   1      31.856  28.345  24.035  1.00  0.00     0.262 C 
ATOM     13  N   UNL A   1      30.822  27.515  23.392  1.00  0.00    -0.332 N 
ATOM     14  H   UNL A   1      31.290  27.271  22.519  1.00  0.00     0.348 HD
BRANCH  13  15
ATOM     15  C   UNL A   1      29.577  28.240  23.009  1.00  0.00     0.189 C 
ATOM     16  C   UNL A   1      28.316  27.614  23.614  1.00  0.00     0.093 C 
ATOM     17  C   UNL A   1      29.572  29.767  23.291  1.00  0.00     0.101 C 
ATOM     18  C   UNL A   1      27.083  28.343  23.127  1.00  0.00     0.167 C 
ATOM     19  C   UNL A   1      28.238  30.447  22.880  1.00  0.00     0.084 C 
ATOM     20  O   UNL A   1      27.147  29.720  23.480  1.00  0.00    -0.374 OA
ATOM     21  C   UNL A   1      28.144  31.875  23.463  1.00  0.00     0.047 C 
ATOM     22  C   UNL A   1      28.027  30.568  21.353  1.00  0.00     0.105 C 
ATOM     23  C   UNL A   1      28.727  32.865  22.477  1.00  0.00     0.072 C 
ATOM     24  S   UNL A   1      28.030  32.327  20.906  1.00  0.00    -0.159 SA
ENDBRANCH  13  15
ENDBRANCH   7   8
ENDBRANCH   6   7
ENDBRANCH   4   6
ENDBRANCH   1   2
BRANCH   1  25
ATOM     25  C   UNL A   1      35.887  21.202  25.263  1.00  0.00     0.042 C 
BRANCH  25  26
ATOM     26  C   UNL A   1      37.268  21.689  24.807  1.00  0.00     0.118 C 
BRANCH  26  27
ATOM     27  N   UNL A   1      38.355  20.851  25.276  1.00  0.00    -0.352 N 
ATOM     28  C   UNL A   1      39.454  21.115  26.051  1.00  0.00     0.251 C 
ATOM     29  H   UNL A   1      38.291  19.915  24.981  1.00  0.00     0.163 HD
ATOM     30  O   UNL A   1      40.298  20.228  26.142  1.00  0.00    -0.269 OA
BRANCH  28  31
ATOM     31  C   UNL A   1      39.678  22.413  26.747  1.00  0.00     0.039 A 
ATOM     32  C   UNL A   1      40.691  22.456  27.717  1.00  0.00     0.014 A 
ATOM     33  C   UNL A   1      38.933  23.570  26.503  1.00  0.00     0.014 A 
ATOM     34  C   UNL A   1      41.061  23.667  28.308  1.00  0.00     0.010 A 
ATOM     35  C   UNL A   1      39.342  24.795  27.042  1.00  0.00     0.010 A 
ATOM     36  C   UNL A   1      40.455  24.861  27.891  1.00  0.00    -0.014 A 
BRANCH  36  37
ATOM     37  C   UNL A   1      41.127  26.165  28.144  1.00  0.00     0.031 A 
ATOM     38  C   UNL A   1      40.426  27.320  28.788  1.00  0.00     0.074 A 
ATOM     39  C   UNL A   1      42.388  26.311  27.684  1.00  0.00     0.049 A 
ATOM     40  N   UNL A   1      40.876  28.528  29.024  1.00  0.00    -0.248 NA
ATOM     41  C   UNL A   1      39.036  27.103  29.207  1.00  0.00     0.031 C 
ATOM     42  C   UNL A   1      43.151  25.272  26.984  1.00  0.00     0.029 A 
ATOM     43  N   UNL A   1      43.247  27.380  27.718  1.00  0.00    -0.354 N 
ATOM     44  C   UNL A   1      39.829  29.217  29.619  1.00  0.00     0.074 A 
ATOM     45  C   UNL A   1      38.705  28.304  29.669  1.00  0.00     0.031 C 
ATOM     46  C   UNL A   1      44.368  25.743  26.683  1.00  0.00     0.029 A 
ATOM     47  C   UNL A   1      44.459  27.130  27.119  1.00  0.00     0.049 A 
ATOM     48  H   UNL A   1      43.018  28.243  28.132  1.00  0.00     0.167 HD
ATOM     49  C   UNL A   1      39.818  30.490  30.091  1.00  0.00     0.037 A 
ATOM     50  C   UNL A   1      45.525  27.929  26.930  1.00  0.00     0.037 A 
ATOM     51  C   UNL A   1      40.943  31.392  30.024  1.00  0.00     0.049 A 
ATOM     52  C   UNL A   1      45.473  29.340  27.442  1.00  0.00     0.074 A 
ATOM     53  C   UNL A   1      41.044  32.684  30.513  1.00  0.00     0.029 A 
ATOM     54  N   UNL A   1      42.158  31.102  29.420  1.00  0.00    -0.354 N 
ATOM     55  N   UNL A   1      44.503  29.954  28.074  1.00  0.00    -0.248 NA
ATOM     56  C   UNL A   1      46.666  30.167  27.222  1.00  0.00     0.031 C 
ATOM     57  C   UNL A   1      42.296  33.194  30.155  1.00  0.00     0.029 A 
ATOM     58  C   UNL A   1      43.004  32.200  29.498  1.00  0.00     0.049 A 
ATOM     59  H   UNL A   1      42.388  30.242  28.997  1.00  0.00     0.167 HD
ATOM     60  C   UNL A   1      44.978  31.227  28.354  1.00  0.00     0.074 A 
ATOM     61  C   UNL A   1      46.330  31.291  27.836  1.00  0.00     0.031 C 
ATOM     62  C   UNL A   1      44.349  32.250  28.982  1.00  0.00     0.037 A 
BRANCH  49  63
ATOM     63  C   UNL A   1      38.545  30.990  30.714  1.00  0.00     0.064 A 
ATOM     64  C   UNL A   1      38.366  31.016  32.106  1.00  0.00     0.173 A 
ATOM     65  C   UNL A   1      37.507  31.496  29.914  1.00  0.00     0.173 A 
ATOM     66  F   UNL A   1      39.324  30.542  32.918  1.00  0.00    -0.203 F 
ATOM     67  C   UNL A   1      37.187  31.496  32.671  1.00  0.00     0.198 A 
ATOM     68  C   UNL A   1      36.343  32.005  30.485  1.00  0.00     0.198 A 
ATOM     69  F   UNL A   1      37.627  31.509  28.578  1.00  0.00    -0.203 F 
ATOM     70  F   UNL A   1      37.021  31.462  34.000  1.00  0.00    -0.200 F 
ATOM     71  C   UNL A   1      36.179  31.996  31.861  1.00  0.00     0.200 A 
ATOM     72  F   UNL A   1      35.376  32.503  29.699  1.00  0.00    -0.200 F 
ATOM     73  F   UNL A   1      35.047  32.461  32.406  1.00  0.00    -0.200 F 
ENDBRANCH  49  63
BRANCH  50  74
ATOM     74  C   UNL A   1      46.732  27.405  26.240  1.00  0.00     0.064 A 
ATOM     75  C   UNL A   1      47.728  26.721  26.951  1.00  0.00     0.173 A 
ATOM     76  C   UNL A   1      46.916  27.570  24.858  1.00  0.00     0.173 A 
ATOM     77  F   UNL A   1      47.608  26.551  28.275  1.00  0.00    -0.203 F 
ATOM     78  C   UNL A   1      48.873  26.246  26.313  1.00  0.00     0.198 A 
ATOM     79  C   UNL A   1      48.044  27.066  24.215  1.00  0.00     0.198 A 
ATOM     80  F   UNL A   1      45.988  28.208  24.129  1.00  0.00    -0.203 F 
ATOM     81  F   UNL A   1      49.832  25.642  27.026  1.00  0.00    -0.200 F 
ATOM     82  C   UNL A   1      49.027  26.414  24.945  1.00  0.00     0.200 A 
ATOM     83  F   UNL A   1      48.180  27.215  22.891  1.00  0.00    -0.200 F 
ATOM     84  F   UNL A   1      50.125  25.954  24.331  1.00  0.00    -0.200 F 
ENDBRANCH  50  74
BRANCH  62  85
ATOM     85  C   UNL A   1      45.133  33.516  29.180  1.00  0.00     0.064 A 
ATOM     86  C   UNL A   1      45.926  33.725  30.318  1.00  0.00     0.173 A 
ATOM     87  C   UNL A   1      45.111  34.523  28.203  1.00  0.00     0.173 A 
ATOM     88  F   UNL A   1      45.966  32.803  31.293  1.00  0.00    -0.203 F 
ATOM     89  C   UNL A   1      46.646  34.905  30.484  1.00  0.00     0.198 A 
ATOM     90  C   UNL A   1      45.860  35.687  28.354  1.00  0.00     0.198 A 
ATOM     91  F   UNL A   1      44.373  34.372  27.094  1.00  0.00    -0.203 F 
ATOM     92  F   UNL A   1      47.354  35.105  31.604  1.00  0.00    -0.200 F 
ATOM     93  C   UNL A   1      46.619  35.881  29.498  1.00  0.00     0.200 A 
ATOM     94  F   UNL A   1      45.844  36.621  27.394  1.00  0.00    -0.200 F 
ATOM     95  F   UNL A   1      47.319  37.013  29.653  1.00  0.00    -0.200 F 
ENDBRANCH  62  85
ENDBRANCH  36  37
ENDBRANCH  28  31
ENDBRANCH  26  27
ENDBRANCH  25  26
ENDBRANCH   1  25
TORSDOF 13
ENDMDL
MODEL 3
REMARK VINA RESULT:     -13.2      4.108      9.214
REMARK SMILES O=C(CCC1CC[NH+]([C@H]2CCO[C@@]3(CCSC3)C2)CC1)NCCCNC(=O)c1ccc(-c2c3nc(c(-c4c(F)c(F)c(F)c(F)c4F)c4ccc([nH]4)c(-c4c(F)c(F)c(F)c(F)c4F)c4nc(c(-c5c(F)c(F)c(F)c(F)c5F)c5ccc2[nH]5)C=C4)C=C3)cc1
REMARK SMILES IDX 22 1 21 2 1 3 2 4 3 6 4 7 5 8 6 9 20 10 7 11 19 12 8 13 9 15
REMARK SMILES IDX 10 16 18 17 11 18 13 19 12 20 14 21 17 22 15 23 16 24 23 25
REMARK SMILES IDX 24 26 25 27 26 28 27 30 28 31 29 32 90 33 30 34 89 35 31 36
REMARK SMILES IDX 32 37 33 38 83 39 34 40 88 41 82 42 84 43 35 44 87 45 81 46
REMARK SMILES IDX 80 47 36 49 68 50 48 51 67 52 49 53 52 54 66 55 85 56 50 57
REMARK SMILES IDX 51 58 65 60 86 61 53 62 37 63 38 64 46 65 39 66 40 67 44 68
REMARK SMILES IDX 47 69 41 70 42 71 45 72 43 73 69 74 70 75 78 76 71 77 72 78
REMARK SMILES IDX 76 79 79 80 73 81 74 82 77 83 75 84 54 85 55 86 63 87 56 88
REMARK SMILES IDX 57 89 61 90 64 91 58 92 59 93 62 94 60 95
REMARK H PARENT 21 5 8 14 25 29 84 48 52 59
REMARK Flexibility Score: inf
ROOT
ATOM      1  C   UNL A   1      32.165  27.514  27.350  1.00  0.00     0.117 C 
ENDROOT
BRANCH   1   2
ATOM      2  N   UNL A   1      32.827  27.191  26.106  1.00  0.00    -0.356 N 
ATOM      3  O   UNL A   1      32.997  24.925  26.373  1.00  0.00    -0.275 OA
ATOM      4  C   UNL A   1      33.257  25.942  25.738  1.00  0.00     0.220 C 
ATOM      5  H   UNL A   1      32.982  27.927  25.471  1.00  0.00     0.163 HD
BRANCH   4   6
ATOM      6  C   UNL A   1      34.167  25.919  24.513  1.00  0.00     0.100 C 
BRANCH   6   7
ATOM      7  C   UNL A   1      33.660  25.171  23.279  1.00  0.00     0.014 C 
BRANCH   7   8
ATOM      8  C   UNL A   1      32.721  25.854  22.247  1.00  0.00     0.000 C 
ATOM      9  C   UNL A   1      32.742  27.375  22.125  1.00  0.00     0.065 C 
ATOM     10  C   UNL A   1      31.270  25.398  22.368  1.00  0.00     0.065 C 
ATOM     11  C   UNL A   1      31.906  28.126  23.162  1.00  0.00     0.262 C 
ATOM     12  C   UNL A   1      30.566  26.041  23.550  1.00  0.00     0.262 C 
ATOM     13  N   UNL A   1      30.646  27.510  23.637  1.00  0.00    -0.332 N 
ATOM     14  H   UNL A   1      30.656  27.639  24.649  1.00  0.00     0.348 HD
BRANCH  13  15
ATOM     15  C   UNL A   1      29.445  28.239  23.137  1.00  0.00     0.189 C 
ATOM     16  C   UNL A   1      28.132  27.650  23.665  1.00  0.00     0.093 C 
ATOM     17  C   UNL A   1      29.443  29.774  23.367  1.00  0.00     0.101 C 
ATOM     18  C   UNL A   1      26.952  28.380  23.061  1.00  0.00     0.167 C 
ATOM     19  C   UNL A   1      28.156  30.458  22.834  1.00  0.00     0.084 C 
ATOM     20  O   UNL A   1      27.011  29.767  23.373  1.00  0.00    -0.374 OA
ATOM     21  C   UNL A   1      28.041  31.906  23.361  1.00  0.00     0.047 C 
ATOM     22  C   UNL A   1      28.063  30.530  21.292  1.00  0.00     0.105 C 
ATOM     23  C   UNL A   1      28.713  32.854  22.390  1.00  0.00     0.072 C 
ATOM     24  S   UNL A   1      28.128  32.272  20.789  1.00  0.00    -0.159 SA
ENDBRANCH  13  15
ENDBRANCH   7   8
ENDBRANCH   6   7
ENDBRANCH   4   6
ENDBRANCH   1   2
BRANCH   1  25
ATOM     25  C   UNL A   1      31.749  28.989  27.399  1.00  0.00     0.042 C 
BRANCH  25  26
ATOM     26  C   UNL A   1      32.425  29.926  26.390  1.00  0.00     0.118 C 
BRANCH  26  27
ATOM     27  N   UNL A   1      32.549  31.290  26.868  1.00  0.00    -0.352 N 
ATOM     28  C   UNL A   1      33.535  31.935  27.568  1.00  0.00     0.251 C 
ATOM     29  H   UNL A   1      31.778  31.860  26.649  1.00  0.00     0.163 HD
ATOM     30  O   UNL A   1      33.279  33.063  27.980  1.00  0.00    -0.269 OA
BRANCH  28  31
ATOM     31  C   UNL A   1      34.862  31.329  27.870  1.00  0.00     0.039 A 
ATOM     32  C   UNL A   1      35.946  32.204  28.041  1.00  0.00     0.014 A 
ATOM     33  C   UNL A   1      35.088  29.953  27.973  1.00  0.00     0.014 A 
ATOM     34  C   UNL A   1      37.187  31.726  28.470  1.00  0.00     0.010 A 
ATOM     35  C   UNL A   1      36.309  29.477  28.464  1.00  0.00     0.010 A 
ATOM     36  C   UNL A   1      37.342  30.369  28.785  1.00  0.00    -0.014 A 
BRANCH  36  37
ATOM     37  C   UNL A   1      38.464  29.931  29.659  1.00  0.00     0.031 A 
ATOM     38  C   UNL A   1      38.655  30.455  31.048  1.00  0.00     0.074 A 
ATOM     39  C   UNL A   1      39.378  29.095  29.121  1.00  0.00     0.049 A 
ATOM     40  N   UNL A   1      39.615  30.197  31.901  1.00  0.00    -0.248 NA
ATOM     41  C   UNL A   1      37.651  31.408  31.541  1.00  0.00     0.031 C 
ATOM     42  C   UNL A   1      39.328  28.566  27.754  1.00  0.00     0.029 A 
ATOM     43  N   UNL A   1      40.526  28.553  29.640  1.00  0.00    -0.354 N 
ATOM     44  C   UNL A   1      39.335  30.950  33.032  1.00  0.00     0.074 A 
ATOM     45  C   UNL A   1      38.136  31.710  32.740  1.00  0.00     0.031 C 
ATOM     46  C   UNL A   1      40.377  27.757  27.554  1.00  0.00     0.029 A 
ATOM     47  C   UNL A   1      41.202  27.747  28.755  1.00  0.00     0.049 A 
ATOM     48  H   UNL A   1      40.837  28.725  30.559  1.00  0.00     0.167 HD
ATOM     49  C   UNL A   1      40.012  30.988  34.208  1.00  0.00     0.037 A 
ATOM     50  C   UNL A   1      42.364  27.080  28.887  1.00  0.00     0.037 A 
ATOM     51  C   UNL A   1      41.212  30.233  34.481  1.00  0.00     0.049 A 
ATOM     52  C   UNL A   1      43.102  27.161  30.192  1.00  0.00     0.074 A 
ATOM     53  C   UNL A   1      41.944  30.170  35.654  1.00  0.00     0.029 A 
ATOM     54  N   UNL A   1      41.863  29.418  33.565  1.00  0.00    -0.354 N 
ATOM     55  N   UNL A   1      42.783  27.816  31.282  1.00  0.00    -0.248 NA
ATOM     56  C   UNL A   1      44.357  26.405  30.289  1.00  0.00     0.031 C 
ATOM     57  C   UNL A   1      43.067  29.366  35.430  1.00  0.00     0.029 A 
ATOM     58  C   UNL A   1      43.003  28.873  34.137  1.00  0.00     0.049 A 
ATOM     59  H   UNL A   1      41.559  29.251  32.642  1.00  0.00     0.167 HD
ATOM     60  C   UNL A   1      43.780  27.528  32.203  1.00  0.00     0.074 A 
ATOM     61  C   UNL A   1      44.705  26.626  31.548  1.00  0.00     0.031 C 
ATOM     62  C   UNL A   1      43.915  27.973  33.476  1.00  0.00     0.037 A 
BRANCH  49  63
ATOM     63  C   UNL A   1      39.479  31.885  35.290  1.00  0.00     0.064 A 
ATOM     64  C   UNL A   1      38.581  31.414  36.261  1.00  0.00     0.173 A 
ATOM     65  C   UNL A   1      39.905  33.220  35.389  1.00  0.00     0.173 A 
ATOM     66  F   UNL A   1      38.139  30.148  36.214  1.00  0.00    -0.203 F 
ATOM     67  C   UNL A   1      38.106  32.252  37.267  1.00  0.00     0.198 A 
ATOM     68  C   UNL A   1      39.451  34.045  36.415  1.00  0.00     0.198 A 
ATOM     69  F   UNL A   1      40.771  33.721  34.496  1.00  0.00    -0.203 F 
ATOM     70  F   UNL A   1      37.211  31.792  38.153  1.00  0.00    -0.200 F 
ATOM     71  C   UNL A   1      38.545  33.564  37.348  1.00  0.00     0.200 A 
ATOM     72  F   UNL A   1      39.890  35.309  36.499  1.00  0.00    -0.200 F 
ATOM     73  F   UNL A   1      38.090  34.367  38.318  1.00  0.00    -0.200 F 
ENDBRANCH  49  63
BRANCH  50  74
ATOM     74  C   UNL A   1      42.885  26.267  27.757  1.00  0.00     0.064 A 
ATOM     75  C   UNL A   1      42.532  24.917  27.619  1.00  0.00     0.173 A 
ATOM     76  C   UNL A   1      43.740  26.818  26.791  1.00  0.00     0.173 A 
ATOM     77  F   UNL A   1      41.730  24.339  28.524  1.00  0.00    -0.203 F 
ATOM     78  C   UNL A   1      43.035  24.144  26.574  1.00  0.00     0.198 A 
ATOM     79  C   UNL A   1      44.216  26.054  25.728  1.00  0.00     0.198 A 
ATOM     80  F   UNL A   1      44.100  28.108  26.871  1.00  0.00    -0.203 F 
ATOM     81  F   UNL A   1      42.722  22.844  26.495  1.00  0.00    -0.200 F 
ATOM     82  C   UNL A   1      43.871  24.715  25.626  1.00  0.00     0.200 A 
ATOM     83  F   UNL A   1      45.009  26.614  24.805  1.00  0.00    -0.200 F 
ATOM     84  F   UNL A   1      44.351  23.972  24.620  1.00  0.00    -0.200 F 
ENDBRANCH  50  74
BRANCH  62  85
ATOM     85  C   UNL A   1      45.088  27.457  34.260  1.00  0.00     0.064 A 
ATOM     86  C   UNL A   1      45.018  26.268  35.000  1.00  0.00     0.173 A 
ATOM     87  C   UNL A   1      46.309  28.150  34.246  1.00  0.00     0.173 A 
ATOM     88  F   UNL A   1      43.869  25.577  35.063  1.00  0.00    -0.203 F 
ATOM     89  C   UNL A   1      46.117  25.805  35.719  1.00  0.00     0.198 A 
ATOM     90  C   UNL A   1      47.416  27.667  34.938  1.00  0.00     0.198 A 
ATOM     91  F   UNL A   1      46.431  29.290  33.551  1.00  0.00    -0.203 F 
ATOM     92  F   UNL A   1      46.010  24.695  36.463  1.00  0.00    -0.200 F 
ATOM     93  C   UNL A   1      47.317  26.500  35.680  1.00  0.00     0.200 A 
ATOM     94  F   UNL A   1      48.578  28.332  34.887  1.00  0.00    -0.200 F 
ATOM     95  F   UNL A   1      48.376  26.050  36.366  1.00  0.00    -0.200 F 
ENDBRANCH  62  85
ENDBRANCH  36  37
ENDBRANCH  28  31
ENDBRANCH  26  27
ENDBRANCH  25  26
ENDBRANCH   1  25
TORSDOF 13
ENDMDL
