MODEL 1
REMARK VINA RESULT:     -12.1      0.000      0.000
REMARK SMILES [NH3+][C@H]1C=C[C@@H](C(=O)NC2(CC(=O)NCCCNC(=O)c3ccc(-c4c5nc(c(-c6c(F)c(F)c(F)c(F)c6F)c6ccc([nH]6)c(-c6c(F)c(F)c(F)c(F)c6F)c6nc(c(-c7c(F)c(F)c(F)c(F)c7F)c7ccc4[nH]7)C=C6)C=C5)cc3)CCC2)C1
REMARK SMILES IDX 14 1 13 2 11 3 12 4 10 6 9 7 83 8 85 9 84 10 8 11 6 12 7 13
REMARK SMILES IDX 5 15 2 16 3 17 86 18 4 19 1 20 15 24 16 25 17 26 18 27 19 29
REMARK SMILES IDX 20 30 21 31 82 32 22 33 81 34 23 35 24 36 25 37 75 38 26 39
REMARK SMILES IDX 80 40 74 41 76 42 27 43 79 44 73 45 72 46 28 48 60 49 40 50
REMARK SMILES IDX 59 51 41 52 44 53 58 54 77 55 42 56 43 57 57 59 78 60 45 61
REMARK SMILES IDX 29 62 30 63 38 64 31 65 32 66 36 67 39 68 33 69 34 70 37 71
REMARK SMILES IDX 35 72 61 73 62 74 70 75 63 76 64 77 68 78 71 79 65 80 66 81
REMARK SMILES IDX 69 82 67 83 46 84 47 85 55 86 48 87 49 88 53 89 56 90 50 91
REMARK SMILES IDX 51 92 54 93 52 94
REMARK H PARENT 13 5 8 14 1 21 1 22 1 23 17 28 76 47 44 58
REMARK Flexibility Score: inf
ROOT
ATOM      1  C   UNL A   1      36.642  20.386  24.947  1.00  0.00     0.117 C 
ENDROOT
BRANCH   1   2
ATOM      2  N   UNL A   1      36.955  21.603  24.226  1.00  0.00    -0.356 N 
ATOM      3  C   UNL A   1      36.141  22.541  23.674  1.00  0.00     0.222 C 
ATOM      4  O   UNL A   1      36.675  23.366  22.932  1.00  0.00    -0.275 OA
ATOM      5  H   UNL A   1      37.918  21.780  24.118  1.00  0.00     0.163 HD
BRANCH   3   6
ATOM      6  C   UNL A   1      34.661  22.587  23.998  1.00  0.00     0.128 C 
BRANCH   6   7
ATOM      7  C   UNL A   1      34.013  23.975  24.066  1.00  0.00     0.049 C 
ATOM      8  C   UNL A   1      34.474  24.931  25.219  1.00  0.00     0.029 C 
ATOM      9  C   UNL A   1      32.632  23.972  24.831  1.00  0.00     0.029 C 
ATOM     10  C   UNL A   1      33.383  24.337  26.115  1.00  0.00     0.005 C 
BRANCH   7  11
ATOM     11  N   UNL A   1      33.863  24.638  22.753  1.00  0.00    -0.350 N 
ATOM     12  C   UNL A   1      33.268  25.767  22.283  1.00  0.00     0.227 C 
ATOM     13  O   UNL A   1      33.396  25.949  21.062  1.00  0.00    -0.274 OA
ATOM     14  H   UNL A   1      34.308  24.133  22.035  1.00  0.00     0.164 HD
BRANCH  12  15
ATOM     15  C   UNL A   1      32.471  26.797  23.094  1.00  0.00     0.107 C 
ATOM     16  C   UNL A   1      31.396  28.998  22.856  1.00  0.00     0.205 C 
ATOM     17  C   UNL A   1      30.403  27.889  22.884  1.00  0.00     0.033 C 
ATOM     18  C   UNL A   1      32.756  28.276  22.839  1.00  0.00     0.087 C 
ATOM     19  C   UNL A   1      30.985  26.692  23.007  1.00  0.00    -0.012 C 
BRANCH  16  20
ATOM     20  N   UNL A   1      31.175  29.850  21.701  1.00  0.00    -0.352 N 
ATOM     21  H   UNL A   1      31.927  30.536  21.635  1.00  0.00     0.345 HD
ATOM     22  H   UNL A   1      30.282  30.332  21.799  1.00  0.00     0.345 HD
ATOM     23  H   UNL A   1      31.161  29.279  20.855  1.00  0.00     0.345 HD
ENDBRANCH  16  20
ENDBRANCH  12  15
ENDBRANCH   7  11
ENDBRANCH   6   7
ENDBRANCH   3   6
ENDBRANCH   1   2
BRANCH   1  24
ATOM     24  C   UNL A   1      37.863  19.472  25.013  1.00  0.00     0.042 C 
BRANCH  24  25
ATOM     25  C   UNL A   1      39.031  20.073  25.782  1.00  0.00     0.118 C 
BRANCH  25  26
ATOM     26  N   UNL A   1      40.149  19.152  25.886  1.00  0.00    -0.352 N 
ATOM     27  C   UNL A   1      41.491  19.389  26.052  1.00  0.00     0.251 C 
ATOM     28  H   UNL A   1      39.904  18.201  25.826  1.00  0.00     0.163 HD
ATOM     29  O   UNL A   1      42.286  18.477  25.846  1.00  0.00    -0.269 OA
BRANCH  27  30
ATOM     30  C   UNL A   1      42.000  20.720  26.461  1.00  0.00     0.039 A 
ATOM     31  C   UNL A   1      41.998  21.049  27.821  1.00  0.00     0.014 A 
ATOM     32  C   UNL A   1      42.395  21.677  25.525  1.00  0.00     0.014 A 
ATOM     33  C   UNL A   1      42.427  22.313  28.240  1.00  0.00     0.010 A 
ATOM     34  C   UNL A   1      42.914  22.899  25.947  1.00  0.00     0.010 A 
ATOM     35  C   UNL A   1      42.912  23.242  27.307  1.00  0.00    -0.014 A 
BRANCH  35  36
ATOM     36  C   UNL A   1      43.371  24.594  27.721  1.00  0.00     0.031 A 
ATOM     37  C   UNL A   1      42.361  25.650  28.090  1.00  0.00     0.074 A 
ATOM     38  C   UNL A   1      44.683  24.894  27.705  1.00  0.00     0.049 A 
ATOM     39  N   UNL A   1      42.549  26.913  28.380  1.00  0.00    -0.248 NA
ATOM     40  C   UNL A   1      40.948  25.238  28.102  1.00  0.00     0.031 C 
ATOM     41  C   UNL A   1      45.757  23.976  27.326  1.00  0.00     0.029 A 
ATOM     42  N   UNL A   1      45.337  26.063  28.006  1.00  0.00    -0.354 N 
ATOM     43  C   UNL A   1      41.282  27.449  28.574  1.00  0.00     0.074 A 
ATOM     44  C   UNL A   1      40.331  26.388  28.325  1.00  0.00     0.031 C 
ATOM     45  C   UNL A   1      46.936  24.608  27.439  1.00  0.00     0.029 A 
ATOM     46  C   UNL A   1      46.701  25.984  27.861  1.00  0.00     0.049 A 
ATOM     47  H   UNL A   1      44.872  26.881  28.297  1.00  0.00     0.167 HD
ATOM     48  C   UNL A   1      40.943  28.706  28.947  1.00  0.00     0.037 A 
ATOM     49  C   UNL A   1      47.652  26.921  28.044  1.00  0.00     0.037 A 
ATOM     50  C   UNL A   1      41.892  29.744  29.249  1.00  0.00     0.049 A 
ATOM     51  C   UNL A   1      47.250  28.301  28.486  1.00  0.00     0.074 A 
ATOM     52  C   UNL A   1      41.652  31.025  29.713  1.00  0.00     0.029 A 
ATOM     53  N   UNL A   1      43.266  29.614  29.122  1.00  0.00    -0.354 N 
ATOM     54  N   UNL A   1      46.052  28.778  28.724  1.00  0.00    -0.248 NA
ATOM     55  C   UNL A   1      48.333  29.272  28.690  1.00  0.00     0.031 C 
ATOM     56  C   UNL A   1      42.880  31.683  29.835  1.00  0.00     0.029 A 
ATOM     57  C   UNL A   1      43.887  30.798  29.485  1.00  0.00     0.049 A 
ATOM     58  H   UNL A   1      43.732  28.801  28.819  1.00  0.00     0.167 HD
ATOM     59  C   UNL A   1      46.238  30.092  29.129  1.00  0.00     0.074 A 
ATOM     60  C   UNL A   1      47.666  30.335  29.118  1.00  0.00     0.031 C 
ATOM     61  C   UNL A   1      45.310  31.015  29.478  1.00  0.00     0.037 A 
BRANCH  48  62
ATOM     62  C   UNL A   1      39.480  29.027  29.061  1.00  0.00     0.064 A 
ATOM     63  C   UNL A   1      38.809  28.977  30.292  1.00  0.00     0.173 A 
ATOM     64  C   UNL A   1      38.749  29.423  27.931  1.00  0.00     0.173 A 
ATOM     65  F   UNL A   1      39.458  28.592  31.400  1.00  0.00    -0.203 F 
ATOM     66  C   UNL A   1      37.453  29.282  30.382  1.00  0.00     0.198 A 
ATOM     67  C   UNL A   1      37.400  29.756  28.029  1.00  0.00     0.198 A 
ATOM     68  F   UNL A   1      39.345  29.494  26.731  1.00  0.00    -0.203 F 
ATOM     69  F   UNL A   1      36.821  29.179  31.558  1.00  0.00    -0.200 F 
ATOM     70  C   UNL A   1      36.752  29.678  29.252  1.00  0.00     0.200 A 
ATOM     71  F   UNL A   1      36.727  30.150  26.940  1.00  0.00    -0.200 F 
ATOM     72  F   UNL A   1      35.448  29.977  29.342  1.00  0.00    -0.200 F 
ENDBRANCH  48  62
BRANCH  49  73
ATOM     73  C   UNL A   1      49.082  26.573  27.841  1.00  0.00     0.064 A 
ATOM     74  C   UNL A   1      49.920  26.324  28.936  1.00  0.00     0.173 A 
ATOM     75  C   UNL A   1      49.637  26.479  26.558  1.00  0.00     0.173 A 
ATOM     76  F   UNL A   1      49.437  26.422  30.184  1.00  0.00    -0.203 F 
ATOM     77  C   UNL A   1      51.265  26.012  28.757  1.00  0.00     0.198 A 
ATOM     78  C   UNL A   1      50.978  26.142  26.378  1.00  0.00     0.198 A 
ATOM     79  F   UNL A   1      48.875  26.702  25.477  1.00  0.00    -0.203 F 
ATOM     80  F   UNL A   1      52.054  25.818  29.822  1.00  0.00    -0.200 F 
ATOM     81  C   UNL A   1      51.792  25.915  27.477  1.00  0.00     0.200 A 
ATOM     82  F   UNL A   1      51.479  26.036  25.141  1.00  0.00    -0.200 F 
ATOM     83  F   UNL A   1      53.085  25.609  27.305  1.00  0.00    -0.200 F 
ENDBRANCH  49  73
BRANCH  61  84
ATOM     84  C   UNL A   1      45.811  32.362  29.911  1.00  0.00     0.064 A 
ATOM     85  C   UNL A   1      45.964  33.415  28.997  1.00  0.00     0.173 A 
ATOM     86  C   UNL A   1      46.097  32.612  31.260  1.00  0.00     0.173 A 
ATOM     87  F   UNL A   1      45.717  33.219  27.692  1.00  0.00    -0.203 F 
ATOM     88  C   UNL A   1      46.408  34.665  29.418  1.00  0.00     0.198 A 
ATOM     89  C   UNL A   1      46.517  33.871  31.681  1.00  0.00     0.198 A 
ATOM     90  F   UNL A   1      45.961  31.638  32.173  1.00  0.00    -0.203 F 
ATOM     91  F   UNL A   1      46.588  35.646  28.522  1.00  0.00    -0.200 F 
ATOM     92  C   UNL A   1      46.677  34.894  30.759  1.00  0.00     0.200 A 
ATOM     93  F   UNL A   1      46.766  34.094  32.979  1.00  0.00    -0.200 F 
ATOM     94  F   UNL A   1      47.098  36.101  31.162  1.00  0.00    -0.200 F 
ENDBRANCH  61  84
ENDBRANCH  35  36
ENDBRANCH  27  30
ENDBRANCH  25  26
ENDBRANCH  24  25
ENDBRANCH   1  24
TORSDOF 14
ENDMDL
MODEL 2
REMARK VINA RESULT:     -12.0      0.816      1.851
REMARK SMILES [NH3+][C@H]1C=C[C@@H](C(=O)NC2(CC(=O)NCCCNC(=O)c3ccc(-c4c5nc(c(-c6c(F)c(F)c(F)c(F)c6F)c6ccc([nH]6)c(-c6c(F)c(F)c(F)c(F)c6F)c6nc(c(-c7c(F)c(F)c(F)c(F)c7F)c7ccc4[nH]7)C=C6)C=C5)cc3)CCC2)C1
REMARK SMILES IDX 14 1 13 2 11 3 12 4 10 6 9 7 83 8 85 9 84 10 8 11 6 12 7 13
REMARK SMILES IDX 5 15 2 16 3 17 86 18 4 19 1 20 15 24 16 25 17 26 18 27 19 29
REMARK SMILES IDX 20 30 21 31 82 32 22 33 81 34 23 35 24 36 25 37 75 38 26 39
REMARK SMILES IDX 80 40 74 41 76 42 27 43 79 44 73 45 72 46 28 48 60 49 40 50
REMARK SMILES IDX 59 51 41 52 44 53 58 54 77 55 42 56 43 57 57 59 78 60 45 61
REMARK SMILES IDX 29 62 30 63 38 64 31 65 32 66 36 67 39 68 33 69 34 70 37 71
REMARK SMILES IDX 35 72 61 73 62 74 70 75 63 76 64 77 68 78 71 79 65 80 66 81
REMARK SMILES IDX 69 82 67 83 46 84 47 85 55 86 48 87 49 88 53 89 56 90 50 91
REMARK SMILES IDX 51 92 54 93 52 94
REMARK H PARENT 13 5 8 14 1 21 1 22 1 23 17 28 76 47 44 58
REMARK Flexibility Score: inf
ROOT
ATOM      1  C   UNL A   1      36.655  20.411  24.941  1.00  0.00     0.117 C 
ENDROOT
BRANCH   1   2
ATOM      2  N   UNL A   1      36.947  21.616  24.190  1.00  0.00    -0.356 N 
ATOM      3  C   UNL A   1      36.117  22.543  23.643  1.00  0.00     0.222 C 
ATOM      4  O   UNL A   1      36.631  23.355  22.872  1.00  0.00    -0.275 OA
ATOM      5  H   UNL A   1      37.906  21.791  24.054  1.00  0.00     0.163 HD
BRANCH   3   6
ATOM      6  C   UNL A   1      34.646  22.593  24.003  1.00  0.00     0.128 C 
BRANCH   6   7
ATOM      7  C   UNL A   1      33.998  23.981  24.063  1.00  0.00     0.049 C 
ATOM      8  C   UNL A   1      34.455  24.943  25.213  1.00  0.00     0.029 C 
ATOM      9  C   UNL A   1      32.614  23.982  24.823  1.00  0.00     0.029 C 
ATOM     10  C   UNL A   1      33.361  24.353  26.108  1.00  0.00     0.005 C 
BRANCH   7  11
ATOM     11  N   UNL A   1      33.853  24.637  22.746  1.00  0.00    -0.350 N 
ATOM     12  C   UNL A   1      33.256  25.763  22.267  1.00  0.00     0.227 C 
ATOM     13  O   UNL A   1      33.390  25.939  21.046  1.00  0.00    -0.274 OA
ATOM     14  H   UNL A   1      34.303  24.130  22.032  1.00  0.00     0.164 HD
BRANCH  12  15
ATOM     15  C   UNL A   1      32.452  26.793  23.069  1.00  0.00     0.107 C 
ATOM     16  C   UNL A   1      31.367  28.988  22.814  1.00  0.00     0.205 C 
ATOM     17  C   UNL A   1      30.380  27.874  22.846  1.00  0.00     0.033 C 
ATOM     18  C   UNL A   1      32.731  28.273  22.806  1.00  0.00     0.087 C 
ATOM     19  C   UNL A   1      30.966  26.681  22.978  1.00  0.00    -0.012 C 
BRANCH  16  20
ATOM     20  N   UNL A   1      31.146  29.832  21.653  1.00  0.00    -0.352 N 
ATOM     21  H   UNL A   1      30.916  30.777  21.958  1.00  0.00     0.345 HD
ATOM     22  H   UNL A   1      30.376  29.455  21.100  1.00  0.00     0.345 HD
ATOM     23  H   UNL A   1      31.993  29.855  21.084  1.00  0.00     0.345 HD
ENDBRANCH  16  20
ENDBRANCH  12  15
ENDBRANCH   7  11
ENDBRANCH   6   7
ENDBRANCH   3   6
ENDBRANCH   1   2
BRANCH   1  24
ATOM     24  C   UNL A   1      37.883  19.506  25.003  1.00  0.00     0.042 C 
BRANCH  24  25
ATOM     25  C   UNL A   1      39.055  20.125  25.751  1.00  0.00     0.118 C 
BRANCH  25  26
ATOM     26  N   UNL A   1      40.151  19.187  25.920  1.00  0.00    -0.352 N 
ATOM     27  C   UNL A   1      41.499  19.403  26.070  1.00  0.00     0.251 C 
ATOM     28  H   UNL A   1      39.884  18.240  25.927  1.00  0.00     0.163 HD
ATOM     29  O   UNL A   1      42.272  18.460  25.928  1.00  0.00    -0.269 OA
BRANCH  27  30
ATOM     30  C   UNL A   1      42.039  20.747  26.384  1.00  0.00     0.039 A 
ATOM     31  C   UNL A   1      42.283  21.075  27.722  1.00  0.00     0.014 A 
ATOM     32  C   UNL A   1      42.226  21.716  25.397  1.00  0.00     0.014 A 
ATOM     33  C   UNL A   1      42.750  22.350  28.061  1.00  0.00     0.010 A 
ATOM     34  C   UNL A   1      42.782  22.951  25.721  1.00  0.00     0.010 A 
ATOM     35  C   UNL A   1      43.026  23.293  27.059  1.00  0.00    -0.014 A 
BRANCH  35  36
ATOM     36  C   UNL A   1      43.518  24.656  27.388  1.00  0.00     0.031 A 
ATOM     37  C   UNL A   1      42.572  25.678  27.962  1.00  0.00     0.074 A 
ATOM     38  C   UNL A   1      44.791  24.998  27.114  1.00  0.00     0.049 A 
ATOM     39  N   UNL A   1      42.776  26.945  28.223  1.00  0.00    -0.248 NA
ATOM     40  C   UNL A   1      41.202  25.223  28.251  1.00  0.00     0.031 C 
ATOM     41  C   UNL A   1      45.795  24.115  26.518  1.00  0.00     0.029 A 
ATOM     42  N   UNL A   1      45.457  26.185  27.291  1.00  0.00    -0.354 N 
ATOM     43  C   UNL A   1      41.558  27.441  28.671  1.00  0.00     0.074 A 
ATOM     44  C   UNL A   1      40.608  26.352  28.605  1.00  0.00     0.031 C 
ATOM     45  C   UNL A   1      46.954  24.783  26.401  1.00  0.00     0.029 A 
ATOM     46  C   UNL A   1      46.766  26.149  26.876  1.00  0.00     0.049 A 
ATOM     47  H   UNL A   1      45.036  26.987  27.677  1.00  0.00     0.167 HD
ATOM     48  C   UNL A   1      41.263  28.685  29.118  1.00  0.00     0.037 A 
ATOM     49  C   UNL A   1      47.706  27.114  26.876  1.00  0.00     0.037 A 
ATOM     50  C   UNL A   1      42.222  29.751  29.236  1.00  0.00     0.049 A 
ATOM     51  C   UNL A   1      47.360  28.479  27.404  1.00  0.00     0.074 A 
ATOM     52  C   UNL A   1      42.041  31.021  29.752  1.00  0.00     0.029 A 
ATOM     53  N   UNL A   1      43.546  29.664  28.835  1.00  0.00    -0.354 N 
ATOM     54  N   UNL A   1      46.220  28.918  27.881  1.00  0.00    -0.248 NA
ATOM     55  C   UNL A   1      48.433  29.483  27.398  1.00  0.00     0.031 C 
ATOM     56  C   UNL A   1      43.249  31.717  29.634  1.00  0.00     0.029 A 
ATOM     57  C   UNL A   1      44.192  30.865  29.081  1.00  0.00     0.049 A 
ATOM     58  H   UNL A   1      43.966  28.868  28.437  1.00  0.00     0.167 HD
ATOM     59  C   UNL A   1      46.445  30.235  28.255  1.00  0.00     0.074 A 
ATOM     60  C   UNL A   1      47.833  30.522  27.962  1.00  0.00     0.031 C 
ATOM     61  C   UNL A   1      45.578  31.127  28.792  1.00  0.00     0.037 A 
BRANCH  48  62
ATOM     62  C   UNL A   1      39.844  28.960  29.524  1.00  0.00     0.064 A 
ATOM     63  C   UNL A   1      38.888  29.412  28.602  1.00  0.00     0.173 A 
ATOM     64  C   UNL A   1      39.425  28.734  30.844  1.00  0.00     0.173 A 
ATOM     65  F   UNL A   1      39.239  29.655  27.330  1.00  0.00    -0.203 F 
ATOM     66  C   UNL A   1      37.574  29.658  28.993  1.00  0.00     0.198 A 
ATOM     67  C   UNL A   1      38.104  28.953  31.226  1.00  0.00     0.198 A 
ATOM     68  F   UNL A   1      40.298  28.295  31.764  1.00  0.00    -0.203 F 
ATOM     69  F   UNL A   1      36.692  30.138  28.107  1.00  0.00    -0.200 F 
ATOM     70  C   UNL A   1      37.182  29.422  30.303  1.00  0.00     0.200 A 
ATOM     71  F   UNL A   1      37.723  28.714  32.488  1.00  0.00    -0.200 F 
ATOM     72  F   UNL A   1      35.916  29.654  30.676  1.00  0.00    -0.200 F 
ENDBRANCH  48  62
BRANCH  49  73
ATOM     73  C   UNL A   1      49.077  26.812  26.388  1.00  0.00     0.064 A 
ATOM     74  C   UNL A   1      49.418  27.013  25.045  1.00  0.00     0.173 A 
ATOM     75  C   UNL A   1      50.068  26.321  27.248  1.00  0.00     0.173 A 
ATOM     76  F   UNL A   1      48.496  27.463  24.180  1.00  0.00    -0.203 F 
ATOM     77  C   UNL A   1      50.695  26.719  24.574  1.00  0.00     0.198 A 
ATOM     78  C   UNL A   1      51.354  26.050  26.782  1.00  0.00     0.198 A 
ATOM     79  F   UNL A   1      49.793  26.116  28.545  1.00  0.00    -0.203 F 
ATOM     80  F   UNL A   1      50.984  26.884  23.276  1.00  0.00    -0.200 F 
ATOM     81  C   UNL A   1      51.665  26.243  25.445  1.00  0.00     0.200 A 
ATOM     82  F   UNL A   1      52.291  25.604  27.629  1.00  0.00    -0.200 F 
ATOM     83  F   UNL A   1      52.895  25.965  24.993  1.00  0.00    -0.200 F 
ENDBRANCH  49  73
BRANCH  61  84
ATOM     84  C   UNL A   1      46.114  32.487  29.131  1.00  0.00     0.064 A 
ATOM     85  C   UNL A   1      46.048  33.549  28.217  1.00  0.00     0.173 A 
ATOM     86  C   UNL A   1      46.660  32.738  30.398  1.00  0.00     0.173 A 
ATOM     87  F   UNL A   1      45.548  33.352  26.988  1.00  0.00    -0.203 F 
ATOM     88  C   UNL A   1      46.530  34.810  28.555  1.00  0.00     0.198 A 
ATOM     89  C   UNL A   1      47.118  34.007  30.740  1.00  0.00     0.198 A 
ATOM     90  F   UNL A   1      46.741  31.755  31.307  1.00  0.00    -0.203 F 
ATOM     91  F   UNL A   1      46.495  35.801  27.653  1.00  0.00    -0.200 F 
ATOM     92  C   UNL A   1      47.058  35.040  29.817  1.00  0.00     0.200 A 
ATOM     93  F   UNL A   1      47.617  34.231  31.964  1.00  0.00    -0.200 F 
ATOM     94  F   UNL A   1      47.515  36.258  30.141  1.00  0.00    -0.200 F 
ENDBRANCH  61  84
ENDBRANCH  35  36
ENDBRANCH  27  30
ENDBRANCH  25  26
ENDBRANCH  24  25
ENDBRANCH   1  24
TORSDOF 14
ENDMDL
MODEL 3
REMARK VINA RESULT:     -12.0      5.667     10.862
REMARK SMILES [NH3+][C@H]1C=C[C@@H](C(=O)NC2(CC(=O)NCCCNC(=O)c3ccc(-c4c5nc(c(-c6c(F)c(F)c(F)c(F)c6F)c6ccc([nH]6)c(-c6c(F)c(F)c(F)c(F)c6F)c6nc(c(-c7c(F)c(F)c(F)c(F)c7F)c7ccc4[nH]7)C=C6)C=C5)cc3)CCC2)C1
REMARK SMILES IDX 14 1 13 2 11 3 12 4 10 6 9 7 83 8 85 9 84 10 8 11 6 12 7 13
REMARK SMILES IDX 5 15 2 16 3 17 86 18 4 19 1 20 15 24 16 25 17 26 18 27 19 29
REMARK SMILES IDX 20 30 21 31 82 32 22 33 81 34 23 35 24 36 25 37 75 38 26 39
REMARK SMILES IDX 80 40 74 41 76 42 27 43 79 44 73 45 72 46 28 48 60 49 40 50
REMARK SMILES IDX 59 51 41 52 44 53 58 54 77 55 42 56 43 57 57 59 78 60 45 61
REMARK SMILES IDX 29 62 30 63 38 64 31 65 32 66 36 67 39 68 33 69 34 70 37 71
REMARK SMILES IDX 35 72 61 73 62 74 70 75 63 76 64 77 68 78 71 79 65 80 66 81
REMARK SMILES IDX 69 82 67 83 46 84 47 85 55 86 48 87 49 88 53 89 56 90 50 91
REMARK SMILES IDX 51 92 54 93 52 94
REMARK H PARENT 13 5 8 14 1 21 1 22 1 23 17 28 76 47 44 58
REMARK Flexibility Score: inf
ROOT
ATOM      1  C   UNL A   1      31.657  30.830  26.213  1.00  0.00     0.117 C 
ENDROOT
BRANCH   1   2
ATOM      2  N   UNL A   1      31.780  29.804  27.230  1.00  0.00    -0.356 N 
ATOM      3  C   UNL A   1      31.586  28.461  27.163  1.00  0.00     0.222 C 
ATOM      4  O   UNL A   1      31.552  27.855  28.234  1.00  0.00    -0.275 OA
ATOM      5  H   UNL A   1      32.050  30.137  28.117  1.00  0.00     0.163 HD
BRANCH   3   6
ATOM      6  C   UNL A   1      31.462  27.749  25.830  1.00  0.00     0.128 C 
BRANCH   6   7
ATOM      7  C   UNL A   1      32.151  26.385  25.710  1.00  0.00     0.049 C 
ATOM      8  C   UNL A   1      33.717  26.360  25.768  1.00  0.00     0.029 C 
ATOM      9  C   UNL A   1      32.354  25.927  24.213  1.00  0.00     0.029 C 
ATOM     10  C   UNL A   1      33.752  26.552  24.249  1.00  0.00     0.005 C 
BRANCH   7  11
ATOM     11  N   UNL A   1      31.500  25.308  26.486  1.00  0.00    -0.350 N 
ATOM     12  C   UNL A   1      31.693  23.974  26.673  1.00  0.00     0.227 C 
ATOM     13  O   UNL A   1      30.879  23.437  27.441  1.00  0.00    -0.274 OA
ATOM     14  H   UNL A   1      30.728  25.641  26.999  1.00  0.00     0.164 HD
BRANCH  12  15
ATOM     15  C   UNL A   1      32.780  23.101  26.035  1.00  0.00     0.107 C 
ATOM     16  C   UNL A   1      33.595  20.779  26.010  1.00  0.00     0.205 C 
ATOM     17  C   UNL A   1      32.843  21.123  24.771  1.00  0.00     0.033 C 
ATOM     18  C   UNL A   1      33.425  22.021  26.903  1.00  0.00     0.087 C 
ATOM     19  C   UNL A   1      32.394  22.382  24.785  1.00  0.00    -0.012 C 
BRANCH  16  20
ATOM     20  N   UNL A   1      33.071  19.560  26.601  1.00  0.00    -0.352 N 
ATOM     21  H   UNL A   1      33.709  18.788  26.412  1.00  0.00     0.345 HD
ATOM     22  H   UNL A   1      32.156  19.353  26.199  1.00  0.00     0.345 HD
ATOM     23  H   UNL A   1      32.978  19.685  27.610  1.00  0.00     0.345 HD
ENDBRANCH  16  20
ENDBRANCH  12  15
ENDBRANCH   7  11
ENDBRANCH   6   7
ENDBRANCH   3   6
ENDBRANCH   1   2
BRANCH   1  24
ATOM     24  C   UNL A   1      31.468  32.202  26.855  1.00  0.00     0.042 C 
BRANCH  24  25
ATOM     25  C   UNL A   1      32.771  32.958  27.067  1.00  0.00     0.118 C 
BRANCH  25  26
ATOM     26  N   UNL A   1      32.551  34.286  27.612  1.00  0.00    -0.352 N 
ATOM     27  C   UNL A   1      33.051  34.884  28.743  1.00  0.00     0.251 C 
ATOM     28  H   UNL A   1      31.941  34.850  27.085  1.00  0.00     0.163 HD
ATOM     29  O   UNL A   1      32.524  35.913  29.154  1.00  0.00    -0.269 OA
BRANCH  27  30
ATOM     30  C   UNL A   1      34.201  34.308  29.481  1.00  0.00     0.039 A 
ATOM     31  C   UNL A   1      35.486  34.477  28.956  1.00  0.00     0.014 A 
ATOM     32  C   UNL A   1      34.026  33.535  30.630  1.00  0.00     0.014 A 
ATOM     33  C   UNL A   1      36.590  33.909  29.601  1.00  0.00     0.010 A 
ATOM     34  C   UNL A   1      35.132  33.051  31.325  1.00  0.00     0.010 A 
ATOM     35  C   UNL A   1      36.424  33.210  30.806  1.00  0.00    -0.014 A 
BRANCH  35  36
ATOM     36  C   UNL A   1      37.577  32.591  31.512  1.00  0.00     0.031 A 
ATOM     37  C   UNL A   1      38.321  31.446  30.876  1.00  0.00     0.074 A 
ATOM     38  C   UNL A   1      37.916  33.011  32.745  1.00  0.00     0.049 A 
ATOM     39  N   UNL A   1      39.285  30.707  31.366  1.00  0.00    -0.248 NA
ATOM     40  C   UNL A   1      37.904  31.058  29.518  1.00  0.00     0.031 C 
ATOM     41  C   UNL A   1      37.248  34.080  33.489  1.00  0.00     0.029 A 
ATOM     42  N   UNL A   1      38.902  32.580  33.598  1.00  0.00    -0.354 N 
ATOM     43  C   UNL A   1      39.561  29.752  30.395  1.00  0.00     0.074 A 
ATOM     44  C   UNL A   1      38.635  29.975  29.306  1.00  0.00     0.031 C 
ATOM     45  C   UNL A   1      37.857  34.237  34.675  1.00  0.00     0.029 A 
ATOM     46  C   UNL A   1      38.932  33.257  34.793  1.00  0.00     0.049 A 
ATOM     47  H   UNL A   1      39.527  31.853  33.375  1.00  0.00     0.167 HD
ATOM     48  C   UNL A   1      40.515  28.791  30.400  1.00  0.00     0.037 A 
ATOM     49  C   UNL A   1      39.735  33.100  35.863  1.00  0.00     0.037 A 
ATOM     50  C   UNL A   1      41.471  28.606  31.459  1.00  0.00     0.049 A 
ATOM     51  C   UNL A   1      40.805  32.043  35.831  1.00  0.00     0.074 A 
ATOM     52  C   UNL A   1      42.527  27.714  31.523  1.00  0.00     0.029 A 
ATOM     53  N   UNL A   1      41.489  29.335  32.639  1.00  0.00    -0.354 N 
ATOM     54  N   UNL A   1      41.094  31.186  34.883  1.00  0.00    -0.248 NA
ATOM     55  C   UNL A   1      41.662  31.934  37.019  1.00  0.00     0.031 C 
ATOM     56  C   UNL A   1      43.165  27.880  32.757  1.00  0.00     0.029 A 
ATOM     57  C   UNL A   1      42.531  28.903  33.444  1.00  0.00     0.049 A 
ATOM     58  H   UNL A   1      40.857  30.054  32.869  1.00  0.00     0.167 HD
ATOM     59  C   UNL A   1      42.180  30.457  35.345  1.00  0.00     0.074 A 
ATOM     60  C   UNL A   1      42.507  30.979  36.655  1.00  0.00     0.031 C 
ATOM     61  C   UNL A   1      42.846  29.444  34.740  1.00  0.00     0.037 A 
BRANCH  48  62
ATOM     62  C   UNL A   1      40.579  27.868  29.218  1.00  0.00     0.064 A 
ATOM     63  C   UNL A   1      39.735  26.752  29.108  1.00  0.00     0.173 A 
ATOM     64  C   UNL A   1      41.471  28.121  28.165  1.00  0.00     0.173 A 
ATOM     65  F   UNL A   1      38.873  26.458  30.092  1.00  0.00    -0.203 F 
ATOM     66  C   UNL A   1      39.804  25.907  28.003  1.00  0.00     0.198 A 
ATOM     67  C   UNL A   1      41.517  27.292  27.047  1.00  0.00     0.198 A 
ATOM     68  F   UNL A   1      42.295  29.179  28.217  1.00  0.00    -0.203 F 
ATOM     69  F   UNL A   1      39.024  24.821  27.943  1.00  0.00    -0.200 F 
ATOM     70  C   UNL A   1      40.689  26.182  26.970  1.00  0.00     0.200 A 
ATOM     71  F   UNL A   1      42.363  27.564  26.046  1.00  0.00    -0.200 F 
ATOM     72  F   UNL A   1      40.749  25.371  25.905  1.00  0.00    -0.200 F 
ENDBRANCH  48  62
BRANCH  49  73
ATOM     73  C   UNL A   1      39.578  33.989  37.042  1.00  0.00     0.064 A 
ATOM     74  C   UNL A   1      40.199  35.245  37.080  1.00  0.00     0.173 A 
ATOM     75  C   UNL A   1      38.808  33.608  38.149  1.00  0.00     0.173 A 
ATOM     76  F   UNL A   1      40.963  35.644  36.051  1.00  0.00    -0.203 F 
ATOM     77  C   UNL A   1      40.071  36.080  38.186  1.00  0.00     0.198 A 
ATOM     78  C   UNL A   1      38.659  34.454  39.247  1.00  0.00     0.198 A 
ATOM     79  F   UNL A   1      38.188  32.419  38.160  1.00  0.00    -0.203 F 
ATOM     80  F   UNL A   1      40.707  37.258  38.213  1.00  0.00    -0.200 F 
ATOM     81  C   UNL A   1      39.295  35.686  39.268  1.00  0.00     0.200 A 
ATOM     82  F   UNL A   1      37.897  34.077  40.282  1.00  0.00    -0.200 F 
ATOM     83  F   UNL A   1      39.167  36.492  40.330  1.00  0.00    -0.200 F 
ENDBRANCH  49  73
BRANCH  61  84
ATOM     84  C   UNL A   1      44.017  28.858  35.473  1.00  0.00     0.064 A 
ATOM     85  C   UNL A   1      45.321  29.329  35.266  1.00  0.00     0.173 A 
ATOM     86  C   UNL A   1      43.823  27.844  36.422  1.00  0.00     0.173 A 
ATOM     87  F   UNL A   1      45.558  30.287  34.357  1.00  0.00    -0.203 F 
ATOM     88  C   UNL A   1      46.394  28.789  35.970  1.00  0.00     0.198 A 
ATOM     89  C   UNL A   1      44.895  27.325  37.142  1.00  0.00     0.198 A 
ATOM     90  F   UNL A   1      42.593  27.364  36.658  1.00  0.00    -0.203 F 
ATOM     91  F   UNL A   1      47.638  29.225  35.728  1.00  0.00    -0.200 F 
ATOM     92  C   UNL A   1      46.179  27.793  36.912  1.00  0.00     0.200 A 
ATOM     93  F   UNL A   1      44.685  26.370  38.060  1.00  0.00    -0.200 F 
ATOM     94  F   UNL A   1      47.213  27.281  37.593  1.00  0.00    -0.200 F 
ENDBRANCH  61  84
ENDBRANCH  35  36
ENDBRANCH  27  30
ENDBRANCH  25  26
ENDBRANCH  24  25
ENDBRANCH   1  24
TORSDOF 14
ENDMDL
