MODEL 1
REMARK VINA RESULT:     -10.7      0.000      0.000
REMARK SMILES CS(=O)(=O)c1ccc(C2=NN(c3ccc(C(=O)NCCCNC(=O)c4ccc(-c5c6nc(c(-c7c(F)c(F)c(F)c(F)c7F)c7ccc([nH]7)c(-c7c(F)c(F)c(F)c(F)c7F)c7nc(c(-c8c(F)c(F)c(F)c(F)c8F)c8ccc5[nH]8)C=C7)C=C6)cc4)cc3)[C@H](c3ccc(F)cc3)C2)cc1
REMARK SMILES IDX 19 1 18 2 16 3 17 4 15 6 12 7 13 8 89 9 14 10 88 11 11 12
REMARK SMILES IDX 9 13 10 14 98 15 90 16 8 17 5 18 6 19 100 20 7 21 99 22 2 23
REMARK SMILES IDX 1 24 3 25 4 26 91 27 92 28 97 29 93 30 96 31 94 32 95 33
REMARK SMILES IDX 20 34 21 35 22 36 23 37 24 39 25 40 26 41 87 42 27 43 86 44
REMARK SMILES IDX 28 45 29 46 30 47 80 48 31 49 85 50 79 51 81 52 32 53 84 54
REMARK SMILES IDX 78 55 77 56 33 58 65 59 45 60 64 61 46 62 49 63 63 64 82 65
REMARK SMILES IDX 47 66 48 67 62 69 83 70 50 71 34 72 35 73 43 74 36 75 37 76
REMARK SMILES IDX 41 77 44 78 38 79 39 80 42 81 40 82 66 83 67 84 75 85 68 86
REMARK SMILES IDX 69 87 73 88 76 89 70 90 71 91 74 92 72 93 51 94 52 95 60 96
REMARK SMILES IDX 53 97 54 98 58 99 61 100 55 101 56 102 59 103 57 104
REMARK H PARENT 18 5 22 38 81 57 49 68
REMARK Flexibility Score: inf
ROOT
ATOM      1  C   UNL A   1      36.211  32.739  30.713  1.00  0.00     0.118 C 
ENDROOT
BRANCH   1   2
ATOM      2  N   UNL A   1      36.266  33.578  31.898  1.00  0.00    -0.352 N 
ATOM      3  C   UNL A   1      37.255  34.398  32.383  1.00  0.00     0.251 C 
ATOM      4  O   UNL A   1      37.014  35.077  33.379  1.00  0.00    -0.269 OA
ATOM      5  H   UNL A   1      35.451  33.554  32.450  1.00  0.00     0.163 HD
BRANCH   3   6
ATOM      6  C   UNL A   1      38.567  34.536  31.701  1.00  0.00     0.039 A 
ATOM      7  C   UNL A   1      40.999  34.604  30.283  1.00  0.00     0.060 A 
ATOM      8  C   UNL A   1      39.781  34.670  29.601  1.00  0.00     0.029 A 
ATOM      9  C   UNL A   1      40.984  34.603  31.679  1.00  0.00     0.029 A 
ATOM     10  C   UNL A   1      38.571  34.637  30.303  1.00  0.00     0.016 A 
ATOM     11  C   UNL A   1      39.782  34.586  32.383  1.00  0.00     0.016 A 
BRANCH   7  12
ATOM     12  N   UNL A   1      42.211  34.533  29.623  1.00  0.00    -0.257 N 
ATOM     13  C   UNL A   1      43.878  33.463  28.877  1.00  0.00     0.071 C 
ATOM     14  N   UNL A   1      42.610  33.350  29.112  1.00  0.00    -0.176 NA
ATOM     15  C   UNL A   1      44.509  34.766  29.288  1.00  0.00     0.091 C 
ATOM     16  C   UNL A   1      43.252  35.561  29.693  1.00  0.00     0.144 C 
BRANCH  13  17
ATOM     17  C   UNL A   1      44.646  32.375  28.259  1.00  0.00    -0.002 A 
ATOM     18  C   UNL A   1      45.978  30.307  26.965  1.00  0.00     0.067 A 
ATOM     19  C   UNL A   1      45.699  31.488  26.272  1.00  0.00     0.021 A 
ATOM     20  C   UNL A   1      45.594  30.154  28.303  1.00  0.00     0.021 A 
ATOM     21  C   UNL A   1      45.019  32.517  26.917  1.00  0.00     0.011 A 
ATOM     22  C   UNL A   1      44.935  31.200  28.957  1.00  0.00     0.011 A 
BRANCH  18  23
ATOM     23  S   UNL A   1      46.821  29.001  26.100  1.00  0.00     0.175 S 
ATOM     24  C   UNL A   1      45.985  27.504  26.544  1.00  0.00     0.163 C 
ATOM     25  O   UNL A   1      48.157  28.917  26.663  1.00  0.00    -0.224 OA
ATOM     26  O   UNL A   1      46.610  29.238  24.687  1.00  0.00    -0.224 OA
ENDBRANCH  18  23
ENDBRANCH  13  17
BRANCH  16  27
ATOM     27  C   UNL A   1      42.866  36.778  28.849  1.00  0.00    -0.023 A 
ATOM     28  C   UNL A   1      42.261  36.700  27.583  1.00  0.00     0.009 A 
ATOM     29  C   UNL A   1      43.083  38.064  29.393  1.00  0.00     0.009 A 
ATOM     30  C   UNL A   1      41.898  37.862  26.889  1.00  0.00     0.039 A 
ATOM     31  C   UNL A   1      42.690  39.221  28.716  1.00  0.00     0.039 A 
ATOM     32  C   UNL A   1      42.105  39.108  27.465  1.00  0.00     0.123 A 
ATOM     33  F   UNL A   1      41.728  40.213  26.809  1.00  0.00    -0.207 F 
ENDBRANCH  16  27
ENDBRANCH   7  12
ENDBRANCH   3   6
ENDBRANCH   1   2
BRANCH   1  34
ATOM     34  C   UNL A   1      34.792  32.667  30.153  1.00  0.00     0.042 C 
BRANCH  34  35
ATOM     35  C   UNL A   1      34.748  32.638  28.631  1.00  0.00     0.118 C 
BRANCH  35  36
ATOM     36  N   UNL A   1      34.090  31.443  28.127  1.00  0.00    -0.352 N 
ATOM     37  C   UNL A   1      34.611  30.214  27.813  1.00  0.00     0.251 C 
ATOM     38  H   UNL A   1      33.118  31.529  27.990  1.00  0.00     0.163 HD
ATOM     39  O   UNL A   1      33.932  29.411  27.180  1.00  0.00    -0.269 OA
BRANCH  37  40
ATOM     40  C   UNL A   1      35.984  29.850  28.225  1.00  0.00     0.039 A 
ATOM     41  C   UNL A   1      36.183  29.312  29.500  1.00  0.00     0.014 A 
ATOM     42  C   UNL A   1      37.077  30.080  27.386  1.00  0.00     0.014 A 
ATOM     43  C   UNL A   1      37.470  28.966  29.914  1.00  0.00     0.010 A 
ATOM     44  C   UNL A   1      38.347  29.655  27.766  1.00  0.00     0.010 A 
ATOM     45  C   UNL A   1      38.561  29.108  29.040  1.00  0.00    -0.014 A 
BRANCH  45  46
ATOM     46  C   UNL A   1      39.930  28.705  29.448  1.00  0.00     0.031 A 
ATOM     47  C   UNL A   1      40.726  29.573  30.384  1.00  0.00     0.074 A 
ATOM     48  C   UNL A   1      40.475  27.585  28.935  1.00  0.00     0.049 A 
ATOM     49  N   UNL A   1      41.954  29.423  30.812  1.00  0.00    -0.248 NA
ATOM     50  C   UNL A   1      40.061  30.785  30.887  1.00  0.00     0.031 C 
ATOM     51  C   UNL A   1      39.820  26.685  27.986  1.00  0.00     0.029 A 
ATOM     52  N   UNL A   1      41.709  27.018  29.132  1.00  0.00    -0.354 N 
ATOM     53  C   UNL A   1      42.211  30.523  31.619  1.00  0.00     0.074 A 
ATOM     54  C   UNL A   1      41.034  31.364  31.575  1.00  0.00     0.031 C 
ATOM     55  C   UNL A   1      40.647  25.667  27.703  1.00  0.00     0.029 A 
ATOM     56  C   UNL A   1      41.906  25.864  28.414  1.00  0.00     0.049 A 
ATOM     57  H   UNL A   1      42.390  27.402  29.732  1.00  0.00     0.167 HD
ATOM     58  C   UNL A   1      43.318  30.795  32.349  1.00  0.00     0.037 A 
ATOM     59  C   UNL A   1      42.984  25.062  28.329  1.00  0.00     0.037 A 
ATOM     60  C   UNL A   1      44.479  29.945  32.403  1.00  0.00     0.049 A 
ATOM     61  C   UNL A   1      44.212  25.401  29.134  1.00  0.00     0.074 A 
ATOM     62  C   UNL A   1      45.629  30.102  33.154  1.00  0.00     0.029 A 
ATOM     63  N   UNL A   1      44.639  28.781  31.665  1.00  0.00    -0.354 N 
ATOM     64  N   UNL A   1      44.416  26.405  29.951  1.00  0.00    -0.248 NA
ATOM     65  C   UNL A   1      45.357  24.488  29.010  1.00  0.00     0.031 C 
ATOM     66  C   UNL A   1      46.509  29.066  32.828  1.00  0.00     0.029 A 
ATOM     67  C   UNL A   1      45.882  28.225  31.923  1.00  0.00     0.049 A 
ATOM     68  H   UNL A   1      43.968  28.405  31.050  1.00  0.00     0.167 HD
ATOM     69  C   UNL A   1      45.696  26.229  30.461  1.00  0.00     0.074 A 
ATOM     70  C   UNL A   1      46.214  25.012  29.874  1.00  0.00     0.031 C 
ATOM     71  C   UNL A   1      46.380  27.006  31.337  1.00  0.00     0.037 A 
BRANCH  58  72
ATOM     72  C   UNL A   1      43.330  32.067  33.152  1.00  0.00     0.064 A 
ATOM     73  C   UNL A   1      42.553  32.216  34.311  1.00  0.00     0.173 A 
ATOM     74  C   UNL A   1      44.156  33.138  32.776  1.00  0.00     0.173 A 
ATOM     75  F   UNL A   1      41.738  31.228  34.709  1.00  0.00    -0.203 F 
ATOM     76  C   UNL A   1      42.578  33.400  35.045  1.00  0.00     0.198 A 
ATOM     77  C   UNL A   1      44.206  34.306  33.533  1.00  0.00     0.198 A 
ATOM     78  F   UNL A   1      44.927  33.048  31.682  1.00  0.00    -0.203 F 
ATOM     79  F   UNL A   1      41.786  33.537  36.116  1.00  0.00    -0.200 F 
ATOM     80  C   UNL A   1      43.410  34.440  34.661  1.00  0.00     0.200 A 
ATOM     81  F   UNL A   1      45.023  35.304  33.170  1.00  0.00    -0.200 F 
ATOM     82  F   UNL A   1      43.440  35.574  35.373  1.00  0.00    -0.200 F 
ENDBRANCH  58  72
BRANCH  59  83
ATOM     83  C   UNL A   1      42.949  23.853  27.464  1.00  0.00     0.064 A 
ATOM     84  C   UNL A   1      42.475  22.629  27.955  1.00  0.00     0.173 A 
ATOM     85  C   UNL A   1      43.397  23.893  26.135  1.00  0.00     0.173 A 
ATOM     86  F   UNL A   1      42.053  22.534  29.225  1.00  0.00    -0.203 F 
ATOM     87  C   UNL A   1      42.475  21.484  27.160  1.00  0.00     0.198 A 
ATOM     88  C   UNL A   1      43.365  22.755  25.330  1.00  0.00     0.198 A 
ATOM     89  F   UNL A   1      43.855  25.040  25.614  1.00  0.00    -0.203 F 
ATOM     90  F   UNL A   1      42.068  20.316  27.672  1.00  0.00    -0.200 F 
ATOM     91  C   UNL A   1      42.915  21.549  25.847  1.00  0.00     0.200 A 
ATOM     92  F   UNL A   1      43.776  22.828  24.057  1.00  0.00    -0.200 F 
ATOM     93  F   UNL A   1      42.913  20.450  25.081  1.00  0.00    -0.200 F 
ENDBRANCH  59  83
BRANCH  71  94
ATOM     94  C   UNL A   1      47.750  26.543  31.747  1.00  0.00     0.064 A 
ATOM     95  C   UNL A   1      47.946  25.701  32.851  1.00  0.00     0.173 A 
ATOM     96  C   UNL A   1      48.876  26.916  30.997  1.00  0.00     0.173 A 
ATOM     97  F   UNL A   1      46.905  25.327  33.610  1.00  0.00    -0.203 F 
ATOM     98  C   UNL A   1      49.223  25.271  33.204  1.00  0.00     0.198 A 
ATOM     99  C   UNL A   1      50.145  26.454  31.332  1.00  0.00     0.198 A 
ATOM    100  F   UNL A   1      48.743  27.714  29.927  1.00  0.00    -0.203 F 
ATOM    101  F   UNL A   1      49.393  24.509  34.294  1.00  0.00    -0.200 F 
ATOM    102  C   UNL A   1      50.319  25.640  32.440  1.00  0.00     0.200 A 
ATOM    103  F   UNL A   1      51.201  26.798  30.582  1.00  0.00    -0.200 F 
ATOM    104  F   UNL A   1      51.545  25.216  32.775  1.00  0.00    -0.200 F 
ENDBRANCH  71  94
ENDBRANCH  45  46
ENDBRANCH  37  40
ENDBRANCH  35  36
ENDBRANCH  34  35
ENDBRANCH   1  34
TORSDOF 14
ENDMDL
MODEL 2
REMARK VINA RESULT:     -10.7      6.683     13.621
REMARK SMILES CS(=O)(=O)c1ccc(C2=NN(c3ccc(C(=O)NCCCNC(=O)c4ccc(-c5c6nc(c(-c7c(F)c(F)c(F)c(F)c7F)c7ccc([nH]7)c(-c7c(F)c(F)c(F)c(F)c7F)c7nc(c(-c8c(F)c(F)c(F)c(F)c8F)c8ccc5[nH]8)C=C7)C=C6)cc4)cc3)[C@H](c3ccc(F)cc3)C2)cc1
REMARK SMILES IDX 19 1 18 2 16 3 17 4 15 6 12 7 13 8 89 9 14 10 88 11 11 12
REMARK SMILES IDX 9 13 10 14 98 15 90 16 8 17 5 18 6 19 100 20 7 21 99 22 2 23
REMARK SMILES IDX 1 24 3 25 4 26 91 27 92 28 97 29 93 30 96 31 94 32 95 33
REMARK SMILES IDX 20 34 21 35 22 36 23 37 24 39 25 40 26 41 87 42 27 43 86 44
REMARK SMILES IDX 28 45 29 46 30 47 80 48 31 49 85 50 79 51 81 52 32 53 84 54
REMARK SMILES IDX 78 55 77 56 33 58 65 59 45 60 64 61 46 62 49 63 63 64 82 65
REMARK SMILES IDX 47 66 48 67 62 69 83 70 50 71 34 72 35 73 43 74 36 75 37 76
REMARK SMILES IDX 41 77 44 78 38 79 39 80 42 81 40 82 66 83 67 84 75 85 68 86
REMARK SMILES IDX 69 87 73 88 76 89 70 90 71 91 74 92 72 93 51 94 52 95 60 96
REMARK SMILES IDX 53 97 54 98 58 99 61 100 55 101 56 102 59 103 57 104
REMARK H PARENT 18 5 22 38 81 57 49 68
REMARK Flexibility Score: inf
ROOT
ATOM      1  C   UNL A   1      39.504  24.500  26.433  1.00  0.00     0.118 C 
ENDROOT
BRANCH   1   2
ATOM      2  N   UNL A   1      39.526  23.061  26.225  1.00  0.00    -0.352 N 
ATOM      3  C   UNL A   1      38.566  22.198  25.757  1.00  0.00     0.251 C 
ATOM      4  O   UNL A   1      38.871  21.019  25.593  1.00  0.00    -0.269 OA
ATOM      5  H   UNL A   1      40.379  22.631  26.462  1.00  0.00     0.163 HD
BRANCH   3   6
ATOM      6  C   UNL A   1      37.206  22.664  25.380  1.00  0.00     0.039 A 
ATOM      7  C   UNL A   1      34.544  23.387  24.819  1.00  0.00     0.060 A 
ATOM      8  C   UNL A   1      35.049  23.501  26.118  1.00  0.00     0.029 A 
ATOM      9  C   UNL A   1      35.412  23.004  23.796  1.00  0.00     0.029 A 
ATOM     10  C   UNL A   1      36.372  23.143  26.399  1.00  0.00     0.016 A 
ATOM     11  C   UNL A   1      36.734  22.661  24.068  1.00  0.00     0.016 A 
BRANCH   7  12
ATOM     12  N   UNL A   1      33.218  23.636  24.520  1.00  0.00    -0.257 N 
ATOM     13  C   UNL A   1      31.563  24.935  24.287  1.00  0.00     0.071 C 
ATOM     14  N   UNL A   1      32.850  24.885  24.167  1.00  0.00    -0.176 NA
ATOM     15  C   UNL A   1      30.905  23.692  24.826  1.00  0.00     0.091 C 
ATOM     16  C   UNL A   1      32.112  22.735  24.850  1.00  0.00     0.144 C 
BRANCH  13  17
ATOM     17  C   UNL A   1      30.801  26.138  23.930  1.00  0.00    -0.002 A 
ATOM     18  C   UNL A   1      29.272  28.319  23.137  1.00  0.00     0.067 A 
ATOM     19  C   UNL A   1      28.638  27.176  23.632  1.00  0.00     0.021 A 
ATOM     20  C   UNL A   1      30.667  28.378  23.036  1.00  0.00     0.021 A 
ATOM     21  C   UNL A   1      29.405  26.079  24.015  1.00  0.00     0.011 A 
ATOM     22  C   UNL A   1      31.437  27.285  23.447  1.00  0.00     0.011 A 
BRANCH  18  23
ATOM     23  S   UNL A   1      28.259  29.691  22.628  1.00  0.00     0.175 S 
ATOM     24  C   UNL A   1      28.903  31.110  23.470  1.00  0.00     0.163 C 
ATOM     25  O   UNL A   1      26.930  29.453  23.164  1.00  0.00    -0.224 OA
ATOM     26  O   UNL A   1      28.480  29.863  21.208  1.00  0.00    -0.224 OA
ENDBRANCH  18  23
ENDBRANCH  13  17
BRANCH  16  27
ATOM     27  C   UNL A   1      32.097  21.532  23.904  1.00  0.00    -0.023 A 
ATOM     28  C   UNL A   1      31.865  21.618  22.521  1.00  0.00     0.009 A 
ATOM     29  C   UNL A   1      32.382  20.256  24.442  1.00  0.00     0.009 A 
ATOM     30  C   UNL A   1      31.911  20.474  21.713  1.00  0.00     0.039 A 
ATOM     31  C   UNL A   1      32.460  19.121  23.631  1.00  0.00     0.039 A 
ATOM     32  C   UNL A   1      32.217  19.241  22.272  1.00  0.00     0.123 A 
ATOM     33  F   UNL A   1      32.287  18.156  21.490  1.00  0.00    -0.207 F 
ENDBRANCH  16  27
ENDBRANCH   7  12
ENDBRANCH   3   6
ENDBRANCH   1   2
BRANCH   1  34
ATOM     34  C   UNL A   1      39.451  24.842  27.920  1.00  0.00     0.042 C 
BRANCH  34  35
ATOM     35  C   UNL A   1      40.830  24.994  28.550  1.00  0.00     0.118 C 
BRANCH  35  36
ATOM     36  N   UNL A   1      41.587  23.753  28.509  1.00  0.00    -0.352 N 
ATOM     37  C   UNL A   1      42.868  23.513  28.082  1.00  0.00     0.251 C 
ATOM     38  H   UNL A   1      41.104  22.960  28.839  1.00  0.00     0.163 HD
ATOM     39  O   UNL A   1      43.243  22.358  27.907  1.00  0.00    -0.269 OA
BRANCH  37  40
ATOM     40  C   UNL A   1      43.798  24.634  27.825  1.00  0.00     0.039 A 
ATOM     41  C   UNL A   1      44.440  25.236  28.911  1.00  0.00     0.014 A 
ATOM     42  C   UNL A   1      44.003  25.125  26.533  1.00  0.00     0.014 A 
ATOM     43  C   UNL A   1      45.319  26.298  28.695  1.00  0.00     0.010 A 
ATOM     44  C   UNL A   1      44.943  26.127  26.311  1.00  0.00     0.010 A 
ATOM     45  C   UNL A   1      45.600  26.736  27.390  1.00  0.00    -0.014 A 
BRANCH  45  46
ATOM     46  C   UNL A   1      46.564  27.836  27.139  1.00  0.00     0.031 A 
ATOM     47  C   UNL A   1      48.034  27.540  27.011  1.00  0.00     0.074 A 
ATOM     48  C   UNL A   1      46.123  29.108  27.080  1.00  0.00     0.049 A 
ATOM     49  N   UNL A   1      49.036  28.367  26.850  1.00  0.00    -0.248 NA
ATOM     50  C   UNL A   1      48.433  26.127  27.103  1.00  0.00     0.031 C 
ATOM     51  C   UNL A   1      44.729  29.525  27.231  1.00  0.00     0.029 A 
ATOM     52  N   UNL A   1      46.802  30.284  26.884  1.00  0.00    -0.354 N 
ATOM     53  C   UNL A   1      50.178  27.578  26.834  1.00  0.00     0.074 A 
ATOM     54  C   UNL A   1      49.755  26.214  27.063  1.00  0.00     0.031 C 
ATOM     55  C   UNL A   1      44.652  30.858  27.099  1.00  0.00     0.029 A 
ATOM     56  C   UNL A   1      45.994  31.395  26.898  1.00  0.00     0.049 A 
ATOM     57  H   UNL A   1      47.777  30.327  26.748  1.00  0.00     0.167 HD
ATOM     58  C   UNL A   1      51.462  27.955  26.624  1.00  0.00     0.037 A 
ATOM     59  C   UNL A   1      46.303  32.699  26.774  1.00  0.00     0.037 A 
ATOM     60  C   UNL A   1      51.875  29.312  26.379  1.00  0.00     0.049 A 
ATOM     61  C   UNL A   1      47.742  33.093  26.564  1.00  0.00     0.074 A 
ATOM     62  C   UNL A   1      53.142  29.792  26.099  1.00  0.00     0.029 A 
ATOM     63  N   UNL A   1      51.027  30.411  26.395  1.00  0.00    -0.354 N 
ATOM     64  N   UNL A   1      48.806  32.332  26.478  1.00  0.00    -0.248 NA
ATOM     65  C   UNL A   1      48.022  34.529  26.428  1.00  0.00     0.031 C 
ATOM     66  C   UNL A   1      53.072  31.184  26.004  1.00  0.00     0.029 A 
ATOM     67  C   UNL A   1      51.750  31.569  26.158  1.00  0.00     0.049 A 
ATOM     68  H   UNL A   1      50.056  30.372  26.550  1.00  0.00     0.167 HD
ATOM     69  C   UNL A   1      49.873  33.190  26.245  1.00  0.00     0.074 A 
ATOM     70  C   UNL A   1      49.325  34.528  26.188  1.00  0.00     0.031 C 
ATOM     71  C   UNL A   1      51.188  32.895  26.094  1.00  0.00     0.037 A 
BRANCH  58  72
ATOM     72  C   UNL A   1      52.517  26.884  26.650  1.00  0.00     0.064 A 
ATOM     73  C   UNL A   1      52.702  26.003  25.573  1.00  0.00     0.173 A 
ATOM     74  C   UNL A   1      53.378  26.759  27.751  1.00  0.00     0.173 A 
ATOM     75  F   UNL A   1      51.901  26.072  24.499  1.00  0.00    -0.203 F 
ATOM     76  C   UNL A   1      53.686  25.018  25.611  1.00  0.00     0.198 A 
ATOM     77  C   UNL A   1      54.384  25.797  27.771  1.00  0.00     0.198 A 
ATOM     78  F   UNL A   1      53.252  27.579  28.806  1.00  0.00    -0.203 F 
ATOM     79  F   UNL A   1      53.807  24.155  24.594  1.00  0.00    -0.200 F 
ATOM     80  C   UNL A   1      54.532  24.921  26.706  1.00  0.00     0.200 A 
ATOM     81  F   UNL A   1      55.211  25.715  28.823  1.00  0.00    -0.200 F 
ATOM     82  F   UNL A   1      55.484  23.980  26.737  1.00  0.00    -0.200 F 
ENDBRANCH  58  72
BRANCH  59  83
ATOM     83  C   UNL A   1      45.231  33.728  26.828  1.00  0.00     0.064 A 
ATOM     84  C   UNL A   1      44.351  33.909  25.751  1.00  0.00     0.173 A 
ATOM     85  C   UNL A   1      45.070  34.558  27.948  1.00  0.00     0.173 A 
ATOM     86  F   UNL A   1      44.475  33.154  24.650  1.00  0.00    -0.203 F 
ATOM     87  C   UNL A   1      43.369  34.897  25.782  1.00  0.00     0.198 A 
ATOM     88  C   UNL A   1      44.066  35.523  27.990  1.00  0.00     0.198 A 
ATOM     89  F   UNL A   1      45.881  34.422  29.006  1.00  0.00    -0.203 F 
ATOM     90  F   UNL A   1      42.577  35.084  24.718  1.00  0.00    -0.200 F 
ATOM     91  C   UNL A   1      43.223  35.700  26.903  1.00  0.00     0.200 A 
ATOM     92  F   UNL A   1      43.919  36.284  29.083  1.00  0.00    -0.200 F 
ATOM     93  F   UNL A   1      42.277  36.648  26.933  1.00  0.00    -0.200 F 
ENDBRANCH  59  83
BRANCH  71  94
ATOM     94  C   UNL A   1      52.123  34.036  25.811  1.00  0.00     0.064 A 
ATOM     95  C   UNL A   1      52.427  34.435  24.501  1.00  0.00     0.173 A 
ATOM     96  C   UNL A   1      52.689  34.767  26.867  1.00  0.00     0.173 A 
ATOM     97  F   UNL A   1      51.925  33.762  23.455  1.00  0.00    -0.203 F 
ATOM     98  C   UNL A   1      53.285  35.506  24.260  1.00  0.00     0.198 A 
ATOM     99  C   UNL A   1      53.516  35.859  26.623  1.00  0.00     0.198 A 
ATOM    100  F   UNL A   1      52.425  34.432  28.139  1.00  0.00    -0.203 F 
ATOM    101  F   UNL A   1      53.603  35.837  23.001  1.00  0.00    -0.200 F 
ATOM    102  C   UNL A   1      53.821  36.222  25.320  1.00  0.00     0.200 A 
ATOM    103  F   UNL A   1      54.018  36.560  27.648  1.00  0.00    -0.200 F 
ATOM    104  F   UNL A   1      54.636  37.259  25.086  1.00  0.00    -0.200 F 
ENDBRANCH  71  94
ENDBRANCH  45  46
ENDBRANCH  37  40
ENDBRANCH  35  36
ENDBRANCH  34  35
ENDBRANCH   1  34
TORSDOF 14
ENDMDL
MODEL 3
REMARK VINA RESULT:     -10.5      2.675      4.825
REMARK SMILES CS(=O)(=O)c1ccc(C2=NN(c3ccc(C(=O)NCCCNC(=O)c4ccc(-c5c6nc(c(-c7c(F)c(F)c(F)c(F)c7F)c7ccc([nH]7)c(-c7c(F)c(F)c(F)c(F)c7F)c7nc(c(-c8c(F)c(F)c(F)c(F)c8F)c8ccc5[nH]8)C=C7)C=C6)cc4)cc3)[C@H](c3ccc(F)cc3)C2)cc1
REMARK SMILES IDX 19 1 18 2 16 3 17 4 15 6 12 7 13 8 89 9 14 10 88 11 11 12
REMARK SMILES IDX 9 13 10 14 98 15 90 16 8 17 5 18 6 19 100 20 7 21 99 22 2 23
REMARK SMILES IDX 1 24 3 25 4 26 91 27 92 28 97 29 93 30 96 31 94 32 95 33
REMARK SMILES IDX 20 34 21 35 22 36 23 37 24 39 25 40 26 41 87 42 27 43 86 44
REMARK SMILES IDX 28 45 29 46 30 47 80 48 31 49 85 50 79 51 81 52 32 53 84 54
REMARK SMILES IDX 78 55 77 56 33 58 65 59 45 60 64 61 46 62 49 63 63 64 82 65
REMARK SMILES IDX 47 66 48 67 62 69 83 70 50 71 34 72 35 73 43 74 36 75 37 76
REMARK SMILES IDX 41 77 44 78 38 79 39 80 42 81 40 82 66 83 67 84 75 85 68 86
REMARK SMILES IDX 69 87 73 88 76 89 70 90 71 91 74 92 72 93 51 94 52 95 60 96
REMARK SMILES IDX 53 97 54 98 58 99 61 100 55 101 56 102 59 103 57 104
REMARK H PARENT 18 5 22 38 81 57 49 68
REMARK Flexibility Score: inf
ROOT
ATOM      1  C   UNL A   1      34.652  35.008  29.588  1.00  0.00     0.118 C 
ENDROOT
BRANCH   1   2
ATOM      2  N   UNL A   1      33.965  35.651  30.696  1.00  0.00    -0.352 N 
ATOM      3  C   UNL A   1      34.176  35.590  32.051  1.00  0.00     0.251 C 
ATOM      4  O   UNL A   1      33.497  36.309  32.780  1.00  0.00    -0.269 OA
ATOM      5  H   UNL A   1      33.216  36.231  30.427  1.00  0.00     0.163 HD
BRANCH   3   6
ATOM      6  C   UNL A   1      35.240  34.740  32.644  1.00  0.00     0.039 A 
ATOM      7  C   UNL A   1      37.154  33.163  33.978  1.00  0.00     0.060 A 
ATOM      8  C   UNL A   1      35.800  32.819  34.022  1.00  0.00     0.029 A 
ATOM      9  C   UNL A   1      37.544  34.241  33.181  1.00  0.00     0.029 A 
ATOM     10  C   UNL A   1      34.847  33.601  33.360  1.00  0.00     0.016 A 
ATOM     11  C   UNL A   1      36.601  35.013  32.508  1.00  0.00     0.016 A 
BRANCH   7  12
ATOM     12  N   UNL A   1      38.113  32.476  34.698  1.00  0.00    -0.257 N 
ATOM     13  C   UNL A   1      39.432  30.845  34.979  1.00  0.00     0.071 C 
ATOM     14  N   UNL A   1      38.893  31.579  34.060  1.00  0.00    -0.176 NA
ATOM     15  C   UNL A   1      38.999  31.137  36.391  1.00  0.00     0.091 C 
ATOM     16  C   UNL A   1      38.157  32.406  36.160  1.00  0.00     0.144 C 
BRANCH  13  17
ATOM     17  C   UNL A   1      40.396  29.787  34.653  1.00  0.00    -0.002 A 
ATOM     18  C   UNL A   1      42.349  27.897  34.070  1.00  0.00     0.067 A 
ATOM     19  C   UNL A   1      42.328  28.500  35.330  1.00  0.00     0.021 A 
ATOM     20  C   UNL A   1      41.398  28.234  33.098  1.00  0.00     0.021 A 
ATOM     21  C   UNL A   1      41.357  29.458  35.615  1.00  0.00     0.011 A 
ATOM     22  C   UNL A   1      40.408  29.176  33.397  1.00  0.00     0.011 A 
BRANCH  18  23
ATOM     23  S   UNL A   1      43.622  26.702  33.729  1.00  0.00     0.175 S 
ATOM     24  C   UNL A   1      45.134  27.425  34.300  1.00  0.00     0.163 C 
ATOM     25  O   UNL A   1      43.726  26.599  32.284  1.00  0.00    -0.224 OA
ATOM     26  O   UNL A   1      43.332  25.544  34.549  1.00  0.00    -0.224 OA
ENDBRANCH  18  23
ENDBRANCH  13  17
BRANCH  16  27
ATOM     27  C   UNL A   1      38.664  33.725  36.748  1.00  0.00    -0.023 A 
ATOM     28  C   UNL A   1      38.408  34.156  38.060  1.00  0.00     0.009 A 
ATOM     29  C   UNL A   1      39.485  34.545  35.938  1.00  0.00     0.009 A 
ATOM     30  C   UNL A   1      38.944  35.358  38.539  1.00  0.00     0.039 A 
ATOM     31  C   UNL A   1      40.047  35.726  36.427  1.00  0.00     0.039 A 
ATOM     32  C   UNL A   1      39.765  36.125  37.724  1.00  0.00     0.123 A 
ATOM     33  F   UNL A   1      40.299  37.259  38.197  1.00  0.00    -0.207 F 
ENDBRANCH  16  27
ENDBRANCH   7  12
ENDBRANCH   3   6
ENDBRANCH   1   2
BRANCH   1  34
ATOM     34  C   UNL A   1      33.902  33.763  29.120  1.00  0.00     0.042 C 
BRANCH  34  35
ATOM     35  C   UNL A   1      34.728  32.488  29.234  1.00  0.00     0.118 C 
BRANCH  35  36
ATOM     36  N   UNL A   1      34.086  31.363  28.570  1.00  0.00    -0.352 N 
ATOM     37  C   UNL A   1      34.632  30.223  28.038  1.00  0.00     0.251 C 
ATOM     38  H   UNL A   1      33.107  31.431  28.491  1.00  0.00     0.163 HD
ATOM     39  O   UNL A   1      33.950  29.506  27.313  1.00  0.00    -0.269 OA
BRANCH  37  40
ATOM     40  C   UNL A   1      36.034  29.854  28.326  1.00  0.00     0.039 A 
ATOM     41  C   UNL A   1      36.992  30.021  27.322  1.00  0.00     0.014 A 
ATOM     42  C   UNL A   1      36.402  29.301  29.556  1.00  0.00     0.014 A 
ATOM     43  C   UNL A   1      38.323  29.676  27.567  1.00  0.00     0.010 A 
ATOM     44  C   UNL A   1      37.741  29.037  29.828  1.00  0.00     0.010 A 
ATOM     45  C   UNL A   1      38.714  29.207  28.832  1.00  0.00    -0.014 A 
BRANCH  45  46
ATOM     46  C   UNL A   1      40.131  28.875  29.124  1.00  0.00     0.031 A 
ATOM     47  C   UNL A   1      40.998  29.851  29.871  1.00  0.00     0.074 A 
ATOM     48  C   UNL A   1      40.651  27.718  28.669  1.00  0.00     0.049 A 
ATOM     49  N   UNL A   1      42.270  29.771  30.171  1.00  0.00    -0.248 NA
ATOM     50  C   UNL A   1      40.356  31.097  30.319  1.00  0.00     0.031 C 
ATOM     51  C   UNL A   1      39.923  26.711  27.897  1.00  0.00     0.029 A 
ATOM     52  N   UNL A   1      41.916  27.198  28.784  1.00  0.00    -0.354 N 
ATOM     53  C   UNL A   1      42.580  30.954  30.827  1.00  0.00     0.074 A 
ATOM     54  C   UNL A   1      41.381  31.764  30.830  1.00  0.00     0.031 C 
ATOM     55  C   UNL A   1      40.745  25.685  27.629  1.00  0.00     0.029 A 
ATOM     56  C   UNL A   1      42.068  25.979  28.170  1.00  0.00     0.049 A 
ATOM     57  H   UNL A   1      42.646  27.656  29.261  1.00  0.00     0.167 HD
ATOM     58  C   UNL A   1      43.752  31.322  31.397  1.00  0.00     0.037 A 
ATOM     59  C   UNL A   1      43.154  25.193  28.047  1.00  0.00     0.037 A 
ATOM     60  C   UNL A   1      44.937  30.505  31.407  1.00  0.00     0.049 A 
ATOM     61  C   UNL A   1      44.452  25.638  28.671  1.00  0.00     0.074 A 
ATOM     62  C   UNL A   1      46.158  30.761  32.004  1.00  0.00     0.029 A 
ATOM     63  N   UNL A   1      45.051  29.272  30.778  1.00  0.00    -0.354 N 
ATOM     64  N   UNL A   1      44.714  26.726  29.353  1.00  0.00    -0.248 NA
ATOM     65  C   UNL A   1      45.603  24.739  28.512  1.00  0.00     0.031 C 
ATOM     66  C   UNL A   1      47.028  29.713  31.689  1.00  0.00     0.029 A 
ATOM     67  C   UNL A   1      46.331  28.770  30.951  1.00  0.00     0.049 A 
ATOM     68  H   UNL A   1      44.329  28.821  30.284  1.00  0.00     0.167 HD
ATOM     69  C   UNL A   1      46.046  26.629  29.731  1.00  0.00     0.074 A 
ATOM     70  C   UNL A   1      46.534  25.366  29.217  1.00  0.00     0.031 C 
ATOM     71  C   UNL A   1      46.799  27.506  30.440  1.00  0.00     0.037 A 
BRANCH  58  72
ATOM     72  C   UNL A   1      43.813  32.671  32.059  1.00  0.00     0.064 A 
ATOM     73  C   UNL A   1      44.224  33.818  31.362  1.00  0.00     0.173 A 
ATOM     74  C   UNL A   1      43.422  32.825  33.398  1.00  0.00     0.173 A 
ATOM     75  F   UNL A   1      44.617  33.726  30.083  1.00  0.00    -0.203 F 
ATOM     76  C   UNL A   1      44.271  35.061  31.989  1.00  0.00     0.198 A 
ATOM     77  C   UNL A   1      43.436  34.076  34.011  1.00  0.00     0.198 A 
ATOM     78  F   UNL A   1      43.013  31.765  34.111  1.00  0.00    -0.203 F 
ATOM     79  F   UNL A   1      44.718  36.131  31.317  1.00  0.00    -0.200 F 
ATOM     80  C   UNL A   1      43.870  35.190  33.309  1.00  0.00     0.200 A 
ATOM     81  F   UNL A   1      43.032  34.201  35.282  1.00  0.00    -0.200 F 
ATOM     82  F   UNL A   1      43.907  36.388  33.908  1.00  0.00    -0.200 F 
ENDBRANCH  58  72
BRANCH  59  83
ATOM     83  C   UNL A   1      43.061  23.900  27.319  1.00  0.00     0.064 A 
ATOM     84  C   UNL A   1      43.430  23.805  25.970  1.00  0.00     0.173 A 
ATOM     85  C   UNL A   1      42.592  22.738  27.950  1.00  0.00     0.173 A 
ATOM     86  F   UNL A   1      43.867  24.892  25.316  1.00  0.00    -0.203 F 
ATOM     87  C   UNL A   1      43.309  22.604  25.273  1.00  0.00     0.198 A 
ATOM     88  C   UNL A   1      42.503  21.530  27.260  1.00  0.00     0.198 A 
ATOM     89  F   UNL A   1      42.231  22.773  29.241  1.00  0.00    -0.203 F 
ATOM     90  F   UNL A   1      43.618  22.555  23.970  1.00  0.00    -0.200 F 
ATOM     91  C   UNL A   1      42.851  21.467  25.919  1.00  0.00     0.200 A 
ATOM     92  F   UNL A   1      42.076  20.430  27.895  1.00  0.00    -0.200 F 
ATOM     93  F   UNL A   1      42.737  20.312  25.250  1.00  0.00    -0.200 F 
ENDBRANCH  59  83
BRANCH  71  94
ATOM     94  C   UNL A   1      48.218  27.115  30.739  1.00  0.00     0.064 A 
ATOM     95  C   UNL A   1      48.542  26.270  31.811  1.00  0.00     0.173 A 
ATOM     96  C   UNL A   1      49.263  27.559  29.914  1.00  0.00     0.173 A 
ATOM     97  F   UNL A   1      47.584  25.829  32.639  1.00  0.00    -0.203 F 
ATOM     98  C   UNL A   1      49.864  25.907  32.061  1.00  0.00     0.198 A 
ATOM     99  C   UNL A   1      50.577  27.165  30.145  1.00  0.00     0.198 A 
ATOM    100  F   UNL A   1      49.007  28.363  28.871  1.00  0.00    -0.203 F 
ATOM    101  F   UNL A   1      50.157  25.142  33.122  1.00  0.00    -0.200 F 
ATOM    102  C   UNL A   1      50.878  26.347  31.224  1.00  0.00     0.200 A 
ATOM    103  F   UNL A   1      51.553  27.577  29.325  1.00  0.00    -0.200 F 
ATOM    104  F   UNL A   1      52.147  25.988  31.459  1.00  0.00    -0.200 F 
ENDBRANCH  71  94
ENDBRANCH  45  46
ENDBRANCH  37  40
ENDBRANCH  35  36
ENDBRANCH  34  35
ENDBRANCH   1  34
TORSDOF 14
ENDMDL
