MODEL 1
REMARK VINA RESULT:     -12.8      0.000      0.000
REMARK SMILES O=C(C[NH+]1CCN(C(=O)c2ccc(F)c(F)c2F)CC1)NCCCNC(=O)c1ccc(-c2c3nc(c(-c4c(F)c(F)c(F)c(F)c4F)c4ccc([nH]4)c(-c4c(F)c(F)c(F)c(F)c4F)c4nc(c(-c5c(F)c(F)c(F)c(F)c5F)c5ccc2[nH]5)C=C4)C=C3)cc1
REMARK SMILES IDX 23 1 22 2 21 3 1 4 2 5 3 7 4 8 5 9 20 10 6 12 19 13 7 14
REMARK SMILES IDX 8 15 9 16 10 17 11 18 17 19 12 20 15 21 18 22 13 23 16 24
REMARK SMILES IDX 14 25 24 26 25 27 26 28 27 30 28 31 29 32 90 33 30 34 89 35
REMARK SMILES IDX 31 36 32 37 33 38 83 39 34 40 88 41 82 42 84 43 35 44 87 45
REMARK SMILES IDX 81 46 80 47 36 49 68 50 48 51 67 52 49 53 52 54 66 55 85 56
REMARK SMILES IDX 50 57 51 58 65 60 86 61 53 62 37 63 38 64 46 65 39 66 40 67
REMARK SMILES IDX 44 68 47 69 41 70 42 71 45 72 43 73 69 74 70 75 78 76 71 77
REMARK SMILES IDX 72 78 76 79 79 80 73 81 74 82 77 83 75 84 54 85 55 86 63 87
REMARK SMILES IDX 56 88 57 89 61 90 64 91 58 92 59 93 62 94 60 95
REMARK H PARENT 21 6 4 11 25 29 84 48 52 59
REMARK Flexibility Score: inf
ROOT
ATOM      1  C   UNL A   1      31.028  31.953  26.729  1.00  0.00     0.042 C 
ENDROOT
BRANCH   1   2
ATOM      2  C   UNL A   1      30.695  31.368  25.354  1.00  0.00     0.118 C 
BRANCH   2   3
ATOM      3  N   UNL A   1      31.482  30.206  25.003  1.00  0.00    -0.351 N 
ATOM      4  O   UNL A   1      29.851  29.195  23.761  1.00  0.00    -0.269 OA
ATOM      5  C   UNL A   1      31.000  29.197  24.203  1.00  0.00     0.275 C 
ATOM      6  H   UNL A   1      32.401  30.134  25.351  1.00  0.00     0.163 HD
BRANCH   5   7
ATOM      7  C   UNL A   1      31.959  28.032  23.921  1.00  0.00     0.363 C 
BRANCH   7   8
ATOM      8  N   UNL A   1      32.736  27.602  25.114  1.00  0.00    -0.324 N 
ATOM      9  C   UNL A   1      31.861  27.274  26.271  1.00  0.00     0.284 C 
ATOM     10  C   UNL A   1      33.546  26.399  24.789  1.00  0.00     0.284 C 
ATOM     11  H   UNL A   1      33.335  28.386  25.372  1.00  0.00     0.348 HD
ATOM     12  C   UNL A   1      31.051  25.965  26.162  1.00  0.00     0.181 C 
ATOM     13  C   UNL A   1      32.729  25.106  24.579  1.00  0.00     0.181 C 
ATOM     14  N   UNL A   1      31.877  24.835  25.740  1.00  0.00    -0.327 N 
ATOM     15  C   UNL A   1      31.662  23.601  26.341  1.00  0.00     0.257 C 
ATOM     16  O   UNL A   1      30.852  23.421  27.251  1.00  0.00    -0.269 OA
BRANCH  15  17
ATOM     17  C   UNL A   1      32.450  22.434  25.920  1.00  0.00     0.079 A 
ATOM     18  C   UNL A   1      31.893  21.468  25.069  1.00  0.00     0.020 A 
ATOM     19  C   UNL A   1      33.793  22.358  26.290  1.00  0.00     0.174 A 
ATOM     20  C   UNL A   1      32.683  20.403  24.627  1.00  0.00     0.043 A 
ATOM     21  C   UNL A   1      34.576  21.304  25.838  1.00  0.00     0.195 A 
ATOM     22  F   UNL A   1      34.336  23.282  27.097  1.00  0.00    -0.203 F 
ATOM     23  C   UNL A   1      34.020  20.330  25.015  1.00  0.00     0.161 A 
ATOM     24  F   UNL A   1      35.865  21.222  26.198  1.00  0.00    -0.200 F 
ATOM     25  F   UNL A   1      34.770  19.309  24.583  1.00  0.00    -0.204 F 
ENDBRANCH  15  17
ENDBRANCH   7   8
ENDBRANCH   5   7
ENDBRANCH   2   3
ENDBRANCH   1   2
BRANCH   1  26
ATOM     26  C   UNL A   1      32.446  32.503  26.878  1.00  0.00     0.118 C 
BRANCH  26  27
ATOM     27  N   UNL A   1      32.482  33.839  27.449  1.00  0.00    -0.352 N 
ATOM     28  C   UNL A   1      33.304  34.410  28.385  1.00  0.00     0.251 C 
ATOM     29  H   UNL A   1      31.789  34.445  27.100  1.00  0.00     0.163 HD
ATOM     30  O   UNL A   1      33.031  35.540  28.792  1.00  0.00    -0.269 OA
BRANCH  28  31
ATOM     31  C   UNL A   1      34.499  33.721  28.931  1.00  0.00     0.039 A 
ATOM     32  C   UNL A   1      34.290  32.601  29.747  1.00  0.00     0.014 A 
ATOM     33  C   UNL A   1      35.800  34.198  28.750  1.00  0.00     0.014 A 
ATOM     34  C   UNL A   1      35.371  31.949  30.350  1.00  0.00     0.010 A 
ATOM     35  C   UNL A   1      36.886  33.515  29.309  1.00  0.00     0.010 A 
ATOM     36  C   UNL A   1      36.682  32.392  30.125  1.00  0.00    -0.014 A 
BRANCH  36  37
ATOM     37  C   UNL A   1      37.832  31.698  30.762  1.00  0.00     0.031 A 
ATOM     38  C   UNL A   1      38.199  31.982  32.193  1.00  0.00     0.074 A 
ATOM     39  C   UNL A   1      38.558  30.813  30.052  1.00  0.00     0.049 A 
ATOM     40  N   UNL A   1      39.176  31.484  32.912  1.00  0.00    -0.248 NA
ATOM     41  C   UNL A   1      37.371  32.965  32.907  1.00  0.00     0.031 C 
ATOM     42  C   UNL A   1      38.325  30.463  28.651  1.00  0.00     0.029 A 
ATOM     43  N   UNL A   1      39.636  30.042  30.414  1.00  0.00    -0.354 N 
ATOM     44  C   UNL A   1      39.087  32.103  34.152  1.00  0.00     0.074 A 
ATOM     45  C   UNL A   1      37.984  33.037  34.081  1.00  0.00     0.031 C 
ATOM     46  C   UNL A   1      39.212  29.526  28.280  1.00  0.00     0.029 A 
ATOM     47  C   UNL A   1      40.091  29.227  29.408  1.00  0.00     0.049 A 
ATOM     48  H   UNL A   1      40.042  30.071  31.310  1.00  0.00     0.167 HD
ATOM     49  C   UNL A   1      39.846  31.899  35.255  1.00  0.00     0.037 A 
ATOM     50  C   UNL A   1      41.096  28.330  29.397  1.00  0.00     0.037 A 
ATOM     51  C   UNL A   1      40.924  30.949  35.344  1.00  0.00     0.049 A 
ATOM     52  C   UNL A   1      41.902  28.098  30.644  1.00  0.00     0.074 A 
ATOM     53  C   UNL A   1      41.738  30.665  36.428  1.00  0.00     0.029 A 
ATOM     54  N   UNL A   1      41.332  30.120  34.311  1.00  0.00    -0.354 N 
ATOM     55  N   UNL A   1      41.793  28.673  31.816  1.00  0.00    -0.248 NA
ATOM     56  C   UNL A   1      42.965  27.084  30.570  1.00  0.00     0.031 C 
ATOM     57  C   UNL A   1      42.651  29.677  36.045  1.00  0.00     0.029 A 
ATOM     58  C   UNL A   1      42.383  29.323  34.733  1.00  0.00     0.049 A 
ATOM     59  H   UNL A   1      40.934  30.101  33.410  1.00  0.00     0.167 HD
ATOM     60  C   UNL A   1      42.749  28.074  32.625  1.00  0.00     0.074 A 
ATOM     61  C   UNL A   1      43.427  27.087  31.813  1.00  0.00     0.031 C 
ATOM     62  C   UNL A   1      43.035  28.325  33.925  1.00  0.00     0.037 A 
BRANCH  49  63
ATOM     63  C   UNL A   1      39.531  32.714  36.474  1.00  0.00     0.064 A 
ATOM     64  C   UNL A   1      38.504  32.325  37.348  1.00  0.00     0.173 A 
ATOM     65  C   UNL A   1      40.207  33.912  36.742  1.00  0.00     0.173 A 
ATOM     66  F   UNL A   1      37.823  31.191  37.128  1.00  0.00    -0.203 F 
ATOM     67  C   UNL A   1      38.162  33.113  38.444  1.00  0.00     0.198 A 
ATOM     68  C   UNL A   1      39.878  34.686  37.852  1.00  0.00     0.198 A 
ATOM     69  F   UNL A   1      41.203  34.321  35.941  1.00  0.00    -0.203 F 
ATOM     70  F   UNL A   1      37.163  32.735  39.252  1.00  0.00    -0.200 F 
ATOM     71  C   UNL A   1      38.852  34.289  38.697  1.00  0.00     0.200 A 
ATOM     72  F   UNL A   1      40.557  35.812  38.108  1.00  0.00    -0.200 F 
ATOM     73  F   UNL A   1      38.528  35.041  39.759  1.00  0.00    -0.200 F 
ENDBRANCH  49  63
BRANCH  50  74
ATOM     74  C   UNL A   1      41.356  27.540  28.168  1.00  0.00     0.064 A 
ATOM     75  C   UNL A   1      40.723  26.311  27.941  1.00  0.00     0.173 A 
ATOM     76  C   UNL A   1      42.269  27.996  27.207  1.00  0.00     0.173 A 
ATOM     77  F   UNL A   1      39.844  25.834  28.835  1.00  0.00    -0.203 F 
ATOM     78  C   UNL A   1      41.004  25.559  26.803  1.00  0.00     0.198 A 
ATOM     79  C   UNL A   1      42.535  27.253  26.058  1.00  0.00     0.198 A 
ATOM     80  F   UNL A   1      42.882  29.176  27.374  1.00  0.00    -0.203 F 
ATOM     81  F   UNL A   1      40.404  24.375  26.618  1.00  0.00    -0.200 F 
ATOM     82  C   UNL A   1      41.906  26.032  25.861  1.00  0.00     0.200 A 
ATOM     83  F   UNL A   1      43.391  27.723  25.143  1.00  0.00    -0.200 F 
ATOM     84  F   UNL A   1      42.169  25.314  24.761  1.00  0.00    -0.200 F 
ENDBRANCH  50  74
BRANCH  62  85
ATOM     85  C   UNL A   1      44.098  27.495  34.576  1.00  0.00     0.064 A 
ATOM     86  C   UNL A   1      43.768  26.280  35.194  1.00  0.00     0.173 A 
ATOM     87  C   UNL A   1      45.427  27.935  34.652  1.00  0.00     0.173 A 
ATOM     88  F   UNL A   1      42.508  25.820  35.152  1.00  0.00    -0.203 F 
ATOM     89  C   UNL A   1      44.730  25.537  35.872  1.00  0.00     0.198 A 
ATOM     90  C   UNL A   1      46.391  27.180  35.315  1.00  0.00     0.198 A 
ATOM     91  F   UNL A   1      45.791  29.085  34.066  1.00  0.00    -0.203 F 
ATOM     92  F   UNL A   1      44.389  24.389  36.474  1.00  0.00    -0.200 F 
ATOM     93  C   UNL A   1      46.041  25.987  35.930  1.00  0.00     0.200 A 
ATOM     94  F   UNL A   1      47.661  27.604  35.355  1.00  0.00    -0.200 F 
ATOM     95  F   UNL A   1      46.968  25.267  36.578  1.00  0.00    -0.200 F 
ENDBRANCH  62  85
ENDBRANCH  36  37
ENDBRANCH  28  31
ENDBRANCH  26  27
ENDBRANCH   1  26
TORSDOF 12
ENDMDL
MODEL 2
REMARK VINA RESULT:     -12.8      1.460      2.118
REMARK SMILES O=C(C[NH+]1CCN(C(=O)c2ccc(F)c(F)c2F)CC1)NCCCNC(=O)c1ccc(-c2c3nc(c(-c4c(F)c(F)c(F)c(F)c4F)c4ccc([nH]4)c(-c4c(F)c(F)c(F)c(F)c4F)c4nc(c(-c5c(F)c(F)c(F)c(F)c5F)c5ccc2[nH]5)C=C4)C=C3)cc1
REMARK SMILES IDX 23 1 22 2 21 3 1 4 2 5 3 7 4 8 5 9 20 10 6 12 19 13 7 14
REMARK SMILES IDX 8 15 9 16 10 17 11 18 17 19 12 20 15 21 18 22 13 23 16 24
REMARK SMILES IDX 14 25 24 26 25 27 26 28 27 30 28 31 29 32 90 33 30 34 89 35
REMARK SMILES IDX 31 36 32 37 33 38 83 39 34 40 88 41 82 42 84 43 35 44 87 45
REMARK SMILES IDX 81 46 80 47 36 49 68 50 48 51 67 52 49 53 52 54 66 55 85 56
REMARK SMILES IDX 50 57 51 58 65 60 86 61 53 62 37 63 38 64 46 65 39 66 40 67
REMARK SMILES IDX 44 68 47 69 41 70 42 71 45 72 43 73 69 74 70 75 78 76 71 77
REMARK SMILES IDX 72 78 76 79 79 80 73 81 74 82 77 83 75 84 54 85 55 86 63 87
REMARK SMILES IDX 56 88 57 89 61 90 64 91 58 92 59 93 62 94 60 95
REMARK H PARENT 21 6 4 11 25 29 84 48 52 59
REMARK Flexibility Score: inf
ROOT
ATOM      1  C   UNL A   1      31.480  32.052  26.856  1.00  0.00     0.042 C 
ENDROOT
BRANCH   1   2
ATOM      2  C   UNL A   1      31.738  30.543  26.875  1.00  0.00     0.118 C 
BRANCH   2   3
ATOM      3  N   UNL A   1      31.599  29.905  25.583  1.00  0.00    -0.351 N 
ATOM      4  O   UNL A   1      33.779  29.238  25.425  1.00  0.00    -0.269 OA
ATOM      5  C   UNL A   1      32.643  29.273  24.952  1.00  0.00     0.275 C 
ATOM      6  H   UNL A   1      30.721  29.925  25.138  1.00  0.00     0.163 HD
BRANCH   5   7
ATOM      7  C   UNL A   1      32.335  28.644  23.586  1.00  0.00     0.363 C 
BRANCH   7   8
ATOM      8  N   UNL A   1      31.500  27.416  23.673  1.00  0.00    -0.324 N 
ATOM      9  C   UNL A   1      31.261  26.799  22.341  1.00  0.00     0.284 C 
ATOM     10  C   UNL A   1      32.164  26.408  24.540  1.00  0.00     0.284 C 
ATOM     11  H   UNL A   1      30.602  27.700  24.065  1.00  0.00     0.348 HD
ATOM     12  C   UNL A   1      32.469  26.091  21.693  1.00  0.00     0.181 C 
ATOM     13  C   UNL A   1      33.433  25.770  23.937  1.00  0.00     0.181 C 
ATOM     14  N   UNL A   1      33.147  25.187  22.622  1.00  0.00    -0.327 N 
ATOM     15  C   UNL A   1      33.599  23.965  22.140  1.00  0.00     0.257 C 
ATOM     16  O   UNL A   1      33.410  23.578  20.987  1.00  0.00    -0.269 OA
BRANCH  15  17
ATOM     17  C   UNL A   1      34.314  23.045  23.036  1.00  0.00     0.079 A 
ATOM     18  C   UNL A   1      35.706  23.134  23.187  1.00  0.00     0.020 A 
ATOM     19  C   UNL A   1      33.576  22.153  23.815  1.00  0.00     0.174 A 
ATOM     20  C   UNL A   1      36.354  22.294  24.095  1.00  0.00     0.043 A 
ATOM     21  C   UNL A   1      34.225  21.329  24.724  1.00  0.00     0.195 A 
ATOM     22  F   UNL A   1      32.244  22.066  23.683  1.00  0.00    -0.203 F 
ATOM     23  C   UNL A   1      35.608  21.397  24.859  1.00  0.00     0.161 A 
ATOM     24  F   UNL A   1      33.522  20.465  25.470  1.00  0.00    -0.200 F 
ATOM     25  F   UNL A   1      36.239  20.599  25.729  1.00  0.00    -0.204 F 
ENDBRANCH  15  17
ENDBRANCH   7   8
ENDBRANCH   5   7
ENDBRANCH   2   3
ENDBRANCH   1   2
BRANCH   1  26
ATOM     26  C   UNL A   1      32.731  32.929  26.885  1.00  0.00     0.118 C 
BRANCH  26  27
ATOM     27  N   UNL A   1      32.533  34.180  27.597  1.00  0.00    -0.352 N 
ATOM     28  C   UNL A   1      33.116  34.689  28.728  1.00  0.00     0.251 C 
ATOM     29  H   UNL A   1      31.855  34.770  27.195  1.00  0.00     0.163 HD
ATOM     30  O   UNL A   1      32.665  35.734  29.199  1.00  0.00    -0.269 OA
BRANCH  28  31
ATOM     31  C   UNL A   1      34.259  34.031  29.408  1.00  0.00     0.039 A 
ATOM     32  C   UNL A   1      35.552  34.423  29.036  1.00  0.00     0.014 A 
ATOM     33  C   UNL A   1      34.101  32.981  30.317  1.00  0.00     0.014 A 
ATOM     34  C   UNL A   1      36.672  33.793  29.587  1.00  0.00     0.010 A 
ATOM     35  C   UNL A   1      35.221  32.387  30.909  1.00  0.00     0.010 A 
ATOM     36  C   UNL A   1      36.517  32.777  30.541  1.00  0.00    -0.014 A 
BRANCH  36  37
ATOM     37  C   UNL A   1      37.707  32.109  31.131  1.00  0.00     0.031 A 
ATOM     38  C   UNL A   1      38.162  32.447  32.525  1.00  0.00     0.074 A 
ATOM     39  C   UNL A   1      38.391  31.200  30.411  1.00  0.00     0.049 A 
ATOM     40  N   UNL A   1      39.184  31.978  33.199  1.00  0.00    -0.248 NA
ATOM     41  C   UNL A   1      37.377  33.455  33.252  1.00  0.00     0.031 C 
ATOM     42  C   UNL A   1      38.072  30.797  29.041  1.00  0.00     0.029 A 
ATOM     43  N   UNL A   1      39.492  30.444  30.732  1.00  0.00    -0.354 N 
ATOM     44  C   UNL A   1      39.171  32.642  34.418  1.00  0.00     0.074 A 
ATOM     45  C   UNL A   1      38.061  33.571  34.381  1.00  0.00     0.031 C 
ATOM     46  C   UNL A   1      38.938  29.848  28.650  1.00  0.00     0.029 A 
ATOM     47  C   UNL A   1      39.887  29.592  29.730  1.00  0.00     0.049 A 
ATOM     48  H   UNL A   1      39.954  30.508  31.600  1.00  0.00     0.167 HD
ATOM     49  C   UNL A   1      39.997  32.481  35.478  1.00  0.00     0.037 A 
ATOM     50  C   UNL A   1      40.892  28.698  29.690  1.00  0.00     0.037 A 
ATOM     51  C   UNL A   1      41.083  31.537  35.534  1.00  0.00     0.049 A 
ATOM     52  C   UNL A   1      41.776  28.514  30.892  1.00  0.00     0.074 A 
ATOM     53  C   UNL A   1      41.964  31.295  36.575  1.00  0.00     0.029 A 
ATOM     54  N   UNL A   1      41.428  30.671  34.509  1.00  0.00    -0.354 N 
ATOM     55  N   UNL A   1      41.738  29.132  32.046  1.00  0.00    -0.248 NA
ATOM     56  C   UNL A   1      42.836  27.499  30.789  1.00  0.00     0.031 C 
ATOM     57  C   UNL A   1      42.855  30.294  36.173  1.00  0.00     0.029 A 
ATOM     58  C   UNL A   1      42.507  29.891  34.894  1.00  0.00     0.049 A 
ATOM     59  H   UNL A   1      40.975  30.617  33.637  1.00  0.00     0.167 HD
ATOM     60  C   UNL A   1      42.745  28.565  32.816  1.00  0.00     0.074 A 
ATOM     61  C   UNL A   1      43.375  27.549  32.000  1.00  0.00     0.031 C 
ATOM     62  C   UNL A   1      43.111  28.865  34.084  1.00  0.00     0.037 A 
BRANCH  49  63
ATOM     63  C   UNL A   1      39.757  33.341  36.683  1.00  0.00     0.064 A 
ATOM     64  C   UNL A   1      38.830  32.953  37.663  1.00  0.00     0.173 A 
ATOM     65  C   UNL A   1      40.399  34.577  36.835  1.00  0.00     0.173 A 
ATOM     66  F   UNL A   1      38.184  31.784  37.558  1.00  0.00    -0.203 F 
ATOM     67  C   UNL A   1      38.552  33.779  38.750  1.00  0.00     0.198 A 
ATOM     68  C   UNL A   1      40.136  35.389  37.935  1.00  0.00     0.198 A 
ATOM     69  F   UNL A   1      41.300  34.986  35.929  1.00  0.00    -0.203 F 
ATOM     70  F   UNL A   1      37.647  33.400  39.662  1.00  0.00    -0.200 F 
ATOM     71  C   UNL A   1      39.208  34.993  38.887  1.00  0.00     0.200 A 
ATOM     72  F   UNL A   1      40.784  36.553  38.077  1.00  0.00    -0.200 F 
ATOM     73  F   UNL A   1      38.947  35.782  39.939  1.00  0.00    -0.200 F 
ENDBRANCH  49  63
BRANCH  50  74
ATOM     74  C   UNL A   1      41.078  27.863  28.477  1.00  0.00     0.064 A 
ATOM     75  C   UNL A   1      41.913  28.272  27.429  1.00  0.00     0.173 A 
ATOM     76  C   UNL A   1      40.398  26.646  28.338  1.00  0.00     0.173 A 
ATOM     77  F   UNL A   1      42.582  29.432  27.517  1.00  0.00    -0.203 F 
ATOM     78  C   UNL A   1      42.050  27.500  26.278  1.00  0.00     0.198 A 
ATOM     79  C   UNL A   1      40.551  25.863  27.195  1.00  0.00     0.198 A 
ATOM     80  F   UNL A   1      39.605  26.206  29.325  1.00  0.00    -0.203 F 
ATOM     81  F   UNL A   1      42.836  27.922  25.278  1.00  0.00    -0.200 F 
ATOM     82  C   UNL A   1      41.373  26.294  26.164  1.00  0.00     0.200 A 
ATOM     83  F   UNL A   1      39.911  24.691  27.098  1.00  0.00    -0.200 F 
ATOM     84  F   UNL A   1      41.513  25.546  25.061  1.00  0.00    -0.200 F 
ENDBRANCH  50  74
BRANCH  62  85
ATOM     85  C   UNL A   1      44.216  28.062  34.698  1.00  0.00     0.064 A 
ATOM     86  C   UNL A   1      43.929  26.874  35.387  1.00  0.00     0.173 A 
ATOM     87  C   UNL A   1      45.547  28.502  34.667  1.00  0.00     0.173 A 
ATOM     88  F   UNL A   1      42.670  26.415  35.449  1.00  0.00    -0.203 F 
ATOM     89  C   UNL A   1      44.935  26.160  36.031  1.00  0.00     0.198 A 
ATOM     90  C   UNL A   1      46.554  27.775  35.296  1.00  0.00     0.198 A 
ATOM     91  F   UNL A   1      45.870  29.626  34.010  1.00  0.00    -0.203 F 
ATOM     92  F   UNL A   1      44.636  25.039  36.703  1.00  0.00    -0.200 F 
ATOM     93  C   UNL A   1      46.247  26.609  35.983  1.00  0.00     0.200 A 
ATOM     94  F   UNL A   1      47.823  28.198  35.233  1.00  0.00    -0.200 F 
ATOM     95  F   UNL A   1      47.216  25.916  36.597  1.00  0.00    -0.200 F 
ENDBRANCH  62  85
ENDBRANCH  36  37
ENDBRANCH  28  31
ENDBRANCH  26  27
ENDBRANCH   1  26
TORSDOF 12
ENDMDL
MODEL 3
REMARK VINA RESULT:     -12.7      2.432      3.612
REMARK SMILES O=C(C[NH+]1CCN(C(=O)c2ccc(F)c(F)c2F)CC1)NCCCNC(=O)c1ccc(-c2c3nc(c(-c4c(F)c(F)c(F)c(F)c4F)c4ccc([nH]4)c(-c4c(F)c(F)c(F)c(F)c4F)c4nc(c(-c5c(F)c(F)c(F)c(F)c5F)c5ccc2[nH]5)C=C4)C=C3)cc1
REMARK SMILES IDX 23 1 22 2 21 3 1 4 2 5 3 7 4 8 5 9 20 10 6 12 19 13 7 14
REMARK SMILES IDX 8 15 9 16 10 17 11 18 17 19 12 20 15 21 18 22 13 23 16 24
REMARK SMILES IDX 14 25 24 26 25 27 26 28 27 30 28 31 29 32 90 33 30 34 89 35
REMARK SMILES IDX 31 36 32 37 33 38 83 39 34 40 88 41 82 42 84 43 35 44 87 45
REMARK SMILES IDX 81 46 80 47 36 49 68 50 48 51 67 52 49 53 52 54 66 55 85 56
REMARK SMILES IDX 50 57 51 58 65 60 86 61 53 62 37 63 38 64 46 65 39 66 40 67
REMARK SMILES IDX 44 68 47 69 41 70 42 71 45 72 43 73 69 74 70 75 78 76 71 77
REMARK SMILES IDX 72 78 76 79 79 80 73 81 74 82 77 83 75 84 54 85 55 86 63 87
REMARK SMILES IDX 56 88 57 89 61 90 64 91 58 92 59 93 62 94 60 95
REMARK H PARENT 21 6 4 11 25 29 84 48 52 59
REMARK Flexibility Score: inf
ROOT
ATOM      1  C   UNL A   1      33.323  35.181  28.760  1.00  0.00     0.042 C 
ENDROOT
BRANCH   1   2
ATOM      2  C   UNL A   1      34.699  34.552  28.524  1.00  0.00     0.118 C 
BRANCH   2   3
ATOM      3  N   UNL A   1      34.659  33.314  27.776  1.00  0.00    -0.351 N 
ATOM      4  O   UNL A   1      34.403  31.958  29.598  1.00  0.00    -0.269 OA
ATOM      5  C   UNL A   1      34.493  32.089  28.378  1.00  0.00     0.275 C 
ATOM      6  H   UNL A   1      34.756  33.349  26.797  1.00  0.00     0.163 HD
BRANCH   5   7
ATOM      7  C   UNL A   1      34.472  30.868  27.446  1.00  0.00     0.363 C 
BRANCH   7   8
ATOM      8  N   UNL A   1      33.345  29.936  27.715  1.00  0.00    -0.324 N 
ATOM      9  C   UNL A   1      32.047  30.456  27.206  1.00  0.00     0.284 C 
ATOM     10  C   UNL A   1      33.604  28.623  27.070  1.00  0.00     0.284 C 
ATOM     11  H   UNL A   1      33.280  29.839  28.729  1.00  0.00     0.348 HD
ATOM     12  C   UNL A   1      31.864  30.446  25.675  1.00  0.00     0.181 C 
ATOM     13  C   UNL A   1      33.521  28.631  25.529  1.00  0.00     0.181 C 
ATOM     14  N   UNL A   1      32.231  29.161  25.080  1.00  0.00    -0.327 N 
ATOM     15  C   UNL A   1      31.440  28.662  24.053  1.00  0.00     0.257 C 
ATOM     16  O   UNL A   1      30.415  29.215  23.655  1.00  0.00    -0.269 OA
BRANCH  15  17
ATOM     17  C   UNL A   1      31.796  27.390  23.408  1.00  0.00     0.079 A 
ATOM     18  C   UNL A   1      32.844  27.331  22.477  1.00  0.00     0.020 A 
ATOM     19  C   UNL A   1      31.149  26.223  23.816  1.00  0.00     0.174 A 
ATOM     20  C   UNL A   1      33.208  26.099  21.929  1.00  0.00     0.043 A 
ATOM     21  C   UNL A   1      31.524  25.000  23.276  1.00  0.00     0.195 A 
ATOM     22  F   UNL A   1      30.151  26.268  24.711  1.00  0.00    -0.203 F 
ATOM     23  C   UNL A   1      32.545  24.941  22.334  1.00  0.00     0.161 A 
ATOM     24  F   UNL A   1      30.900  23.877  23.658  1.00  0.00    -0.200 F 
ATOM     25  F   UNL A   1      32.905  23.765  21.805  1.00  0.00    -0.204 F 
ENDBRANCH  15  17
ENDBRANCH   7   8
ENDBRANCH   5   7
ENDBRANCH   2   3
ENDBRANCH   1   2
BRANCH   1  26
ATOM     26  C   UNL A   1      33.325  36.464  29.590  1.00  0.00     0.118 C 
BRANCH  26  27
ATOM     27  N   UNL A   1      32.418  36.411  30.724  1.00  0.00    -0.352 N 
ATOM     28  C   UNL A   1      32.493  35.751  31.923  1.00  0.00     0.251 C 
ATOM     29  H   UNL A   1      31.599  36.945  30.610  1.00  0.00     0.163 HD
ATOM     30  O   UNL A   1      31.510  35.774  32.666  1.00  0.00    -0.269 OA
BRANCH  28  31
ATOM     31  C   UNL A   1      33.702  35.009  32.357  1.00  0.00     0.039 A 
ATOM     32  C   UNL A   1      34.947  35.625  32.171  1.00  0.00     0.014 A 
ATOM     33  C   UNL A   1      33.656  33.699  32.842  1.00  0.00     0.014 A 
ATOM     34  C   UNL A   1      36.128  34.951  32.494  1.00  0.00     0.010 A 
ATOM     35  C   UNL A   1      34.835  33.043  33.216  1.00  0.00     0.010 A 
ATOM     36  C   UNL A   1      36.083  33.657  33.034  1.00  0.00    -0.014 A 
BRANCH  36  37
ATOM     37  C   UNL A   1      37.339  32.940  33.381  1.00  0.00     0.031 A 
ATOM     38  C   UNL A   1      38.039  33.211  34.685  1.00  0.00     0.074 A 
ATOM     39  C   UNL A   1      37.862  32.048  32.518  1.00  0.00     0.049 A 
ATOM     40  N   UNL A   1      39.149  32.693  35.152  1.00  0.00    -0.248 NA
ATOM     41  C   UNL A   1      37.420  34.203  35.575  1.00  0.00     0.031 C 
ATOM     42  C   UNL A   1      37.298  31.709  31.211  1.00  0.00     0.029 A 
ATOM     43  N   UNL A   1      38.981  31.257  32.614  1.00  0.00    -0.354 N 
ATOM     44  C   UNL A   1      39.366  33.306  36.379  1.00  0.00     0.074 A 
ATOM     45  C   UNL A   1      38.293  34.259  36.571  1.00  0.00     0.031 C 
ATOM     46  C   UNL A   1      38.056  30.760  30.640  1.00  0.00     0.029 A 
ATOM     47  C   UNL A   1      39.171  30.440  31.527  1.00  0.00     0.049 A 
ATOM     48  H   UNL A   1      39.588  31.275  33.389  1.00  0.00     0.167 HD
ATOM     49  C   UNL A   1      40.360  33.084  37.271  1.00  0.00     0.037 A 
ATOM     50  C   UNL A   1      40.129  29.527  31.278  1.00  0.00     0.037 A 
ATOM     51  C   UNL A   1      41.413  32.116  37.101  1.00  0.00     0.049 A 
ATOM     52  C   UNL A   1      41.203  29.275  32.299  1.00  0.00     0.074 A 
ATOM     53  C   UNL A   1      42.454  31.814  37.961  1.00  0.00     0.029 A 
ATOM     54  N   UNL A   1      41.550  31.287  35.999  1.00  0.00    -0.354 N 
ATOM     55  N   UNL A   1      41.384  29.845  33.465  1.00  0.00    -0.248 NA
ATOM     56  C   UNL A   1      42.201  28.244  31.975  1.00  0.00     0.031 C 
ATOM     57  C   UNL A   1      43.234  30.812  37.372  1.00  0.00     0.029 A 
ATOM     58  C   UNL A   1      42.658  30.470  36.160  1.00  0.00     0.049 A 
ATOM     59  H   UNL A   1      40.950  31.279  35.219  1.00  0.00     0.167 HD
ATOM     60  C   UNL A   1      42.494  29.227  34.024  1.00  0.00     0.074 A 
ATOM     61  C   UNL A   1      42.944  28.233  33.073  1.00  0.00     0.031 C 
ATOM     62  C   UNL A   1      43.083  29.466  35.219  1.00  0.00     0.037 A 
BRANCH  49  63
ATOM     63  C   UNL A   1      40.357  33.897  38.530  1.00  0.00     0.064 A 
ATOM     64  C   UNL A   1      39.588  33.500  39.635  1.00  0.00     0.173 A 
ATOM     65  C   UNL A   1      41.066  35.103  38.620  1.00  0.00     0.173 A 
ATOM     66  F   UNL A   1      38.885  32.359  39.594  1.00  0.00    -0.203 F 
ATOM     67  C   UNL A   1      39.527  34.286  40.783  1.00  0.00     0.198 A 
ATOM     68  C   UNL A   1      41.022  35.874  39.778  1.00  0.00     0.198 A 
ATOM     69  F   UNL A   1      41.823  35.520  37.594  1.00  0.00    -0.203 F 
ATOM     70  F   UNL A   1      38.769  33.900  41.818  1.00  0.00    -0.200 F 
ATOM     71  C   UNL A   1      40.247  35.469  40.855  1.00  0.00     0.200 A 
ATOM     72  F   UNL A   1      41.732  37.007  39.855  1.00  0.00    -0.200 F 
ATOM     73  F   UNL A   1      40.195  36.219  41.965  1.00  0.00    -0.200 F 
ENDBRANCH  49  63
BRANCH  50  74
ATOM     74  C   UNL A   1      40.079  28.740  30.021  1.00  0.00     0.064 A 
ATOM     75  C   UNL A   1      39.469  27.479  29.972  1.00  0.00     0.173 A 
ATOM     76  C   UNL A   1      40.666  29.231  28.848  1.00  0.00     0.173 A 
ATOM     77  F   UNL A   1      38.896  26.968  31.072  1.00  0.00    -0.203 F 
ATOM     78  C   UNL A   1      39.460  26.731  28.797  1.00  0.00     0.198 A 
ATOM     79  C   UNL A   1      40.640  28.491  27.667  1.00  0.00     0.198 A 
ATOM     80  F   UNL A   1      41.243  30.441  28.844  1.00  0.00    -0.203 F 
ATOM     81  F   UNL A   1      38.892  25.518  28.781  1.00  0.00    -0.200 F 
ATOM     82  C   UNL A   1      40.043  27.239  27.645  1.00  0.00     0.200 A 
ATOM     83  F   UNL A   1      41.186  28.993  26.552  1.00  0.00    -0.200 F 
ATOM     84  F   UNL A   1      40.026  26.524  26.512  1.00  0.00    -0.200 F 
ENDBRANCH  50  74
BRANCH  62  85
ATOM     85  C   UNL A   1      44.255  28.615  35.600  1.00  0.00     0.064 A 
ATOM     86  C   UNL A   1      44.070  27.458  36.371  1.00  0.00     0.173 A 
ATOM     87  C   UNL A   1      45.566  28.981  35.264  1.00  0.00     0.173 A 
ATOM     88  F   UNL A   1      42.834  27.070  36.722  1.00  0.00    -0.203 F 
ATOM     89  C   UNL A   1      45.157  26.702  36.800  1.00  0.00     0.198 A 
ATOM     90  C   UNL A   1      46.650  28.212  35.679  1.00  0.00     0.198 A 
ATOM     91  F   UNL A   1      45.791  30.073  34.518  1.00  0.00    -0.203 F 
ATOM     92  F   UNL A   1      44.959  25.612  37.555  1.00  0.00    -0.200 F 
ATOM     93  C   UNL A   1      46.446  27.079  36.451  1.00  0.00     0.200 A 
ATOM     94  F   UNL A   1      47.894  28.565  35.326  1.00  0.00    -0.200 F 
ATOM     95  F   UNL A   1      47.491  26.345  36.859  1.00  0.00    -0.200 F 
ENDBRANCH  62  85
ENDBRANCH  36  37
ENDBRANCH  28  31
ENDBRANCH  26  27
ENDBRANCH   1  26
TORSDOF 12
ENDMDL
