MODEL 1
REMARK VINA RESULT:     -11.9      0.000      0.000
REMARK SMILES O=C(NCCCNC(=O)C1CCN(S(=O)(=O)C2CC2)CC1)c1ccc(-c2c3nc(c(-c4c(F)c(F)c(F)c(F)c4F)c4ccc([nH]4)c(-c4c(F)c(F)c(F)c(F)c4F)c4nc(c(-c5c(F)c(F)c(F)c(F)c5F)c5ccc2[nH]5)C=C4)C=C3)cc1
REMARK SMILES IDX 5 1 4 2 3 3 1 4 2 5 22 7 23 8 84 9 24 10 83 11 25 12 26 13
REMARK SMILES IDX 27 14 77 15 28 16 82 17 76 18 78 19 29 20 81 21 75 22 74 23
REMARK SMILES IDX 30 25 62 26 42 27 61 28 43 29 46 30 60 31 79 32 44 33 45 34
REMARK SMILES IDX 59 36 80 37 47 38 31 39 32 40 40 41 33 42 34 43 38 44 41 45
REMARK SMILES IDX 35 46 36 47 39 48 37 49 63 50 64 51 72 52 65 53 66 54 70 55
REMARK SMILES IDX 73 56 67 57 68 58 71 59 69 60 48 61 49 62 57 63 50 64 51 65
REMARK SMILES IDX 55 66 58 67 52 68 53 69 56 70 54 71 6 72 7 73 8 74 9 76
REMARK SMILES IDX 10 77 11 78 21 79 12 80 20 81 13 82 14 83 15 84 16 85 17 86
REMARK SMILES IDX 18 87 19 88
REMARK H PARENT 3 6 78 24 46 35 7 75
REMARK Flexibility Score: inf
ROOT
ATOM      1  C   UNL A   1      31.328  32.397  26.526  1.00  0.00     0.042 C 
ENDROOT
BRANCH   1   2
ATOM      2  C   UNL A   1      32.578  32.891  27.243  1.00  0.00     0.118 C 
BRANCH   2   3
ATOM      3  N   UNL A   1      32.443  34.275  27.659  1.00  0.00    -0.352 N 
ATOM      4  O   UNL A   1      32.574  36.007  29.086  1.00  0.00    -0.269 OA
ATOM      5  C   UNL A   1      33.038  34.937  28.704  1.00  0.00     0.251 C 
ATOM      6  H   UNL A   1      31.834  34.821  27.110  1.00  0.00     0.163 HD
BRANCH   5   7
ATOM      7  C   UNL A   1      34.227  34.369  29.378  1.00  0.00     0.039 A 
ATOM      8  C   UNL A   1      34.098  33.529  30.488  1.00  0.00     0.014 A 
ATOM      9  C   UNL A   1      35.493  34.622  28.842  1.00  0.00     0.014 A 
ATOM     10  C   UNL A   1      35.231  33.046  31.136  1.00  0.00     0.010 A 
ATOM     11  C   UNL A   1      36.624  34.059  29.437  1.00  0.00     0.010 A 
ATOM     12  C   UNL A   1      36.503  33.280  30.598  1.00  0.00    -0.014 A 
BRANCH  12  13
ATOM     13  C   UNL A   1      37.700  32.647  31.207  1.00  0.00     0.031 A 
ATOM     14  C   UNL A   1      38.411  31.526  30.511  1.00  0.00     0.074 A 
ATOM     15  C   UNL A   1      38.115  33.065  32.418  1.00  0.00     0.049 A 
ATOM     16  N   UNL A   1      39.394  30.774  30.941  1.00  0.00    -0.248 NA
ATOM     17  C   UNL A   1      37.948  31.194  29.156  1.00  0.00     0.031 C 
ATOM     18  C   UNL A   1      37.502  34.149  33.189  1.00  0.00     0.029 A 
ATOM     19  N   UNL A   1      39.134  32.621  33.222  1.00  0.00    -0.354 N 
ATOM     20  C   UNL A   1      39.648  29.864  29.924  1.00  0.00     0.074 A 
ATOM     21  C   UNL A   1      38.697  30.139  28.867  1.00  0.00     0.031 C 
ATOM     22  C   UNL A   1      38.163  34.294  34.347  1.00  0.00     0.029 A 
ATOM     23  C   UNL A   1      39.194  33.266  34.432  1.00  0.00     0.049 A 
ATOM     24  H   UNL A   1      39.760  31.909  32.956  1.00  0.00     0.167 HD
ATOM     25  C   UNL A   1      40.592  28.892  29.881  1.00  0.00     0.037 A 
ATOM     26  C   UNL A   1      39.964  33.031  35.511  1.00  0.00     0.037 A 
ATOM     27  C   UNL A   1      41.532  28.634  30.942  1.00  0.00     0.049 A 
ATOM     28  C   UNL A   1      40.968  31.916  35.462  1.00  0.00     0.074 A 
ATOM     29  C   UNL A   1      42.549  27.697  30.985  1.00  0.00     0.029 A 
ATOM     30  N   UNL A   1      41.560  29.308  32.156  1.00  0.00    -0.354 N 
ATOM     31  N   UNL A   1      41.220  31.077  34.488  1.00  0.00    -0.248 NA
ATOM     32  C   UNL A   1      41.795  31.715  36.658  1.00  0.00     0.031 C 
ATOM     33  C   UNL A   1      43.147  27.758  32.248  1.00  0.00     0.029 A 
ATOM     34  C   UNL A   1      42.556  28.786  32.966  1.00  0.00     0.049 A 
ATOM     35  H   UNL A   1      40.959  30.048  32.405  1.00  0.00     0.167 HD
ATOM     36  C   UNL A   1      42.255  30.269  34.936  1.00  0.00     0.074 A 
ATOM     37  C   UNL A   1      42.584  30.720  36.274  1.00  0.00     0.031 C 
ATOM     38  C   UNL A   1      42.881  29.254  34.292  1.00  0.00     0.037 A 
BRANCH  25  39
ATOM     39  C   UNL A   1      40.621  28.008  28.664  1.00  0.00     0.064 A 
ATOM     40  C   UNL A   1      39.908  26.801  28.601  1.00  0.00     0.173 A 
ATOM     41  C   UNL A   1      41.374  28.380  27.538  1.00  0.00     0.173 A 
ATOM     42  F   UNL A   1      39.176  26.393  29.649  1.00  0.00    -0.203 F 
ATOM     43  C   UNL A   1      39.985  25.978  27.479  1.00  0.00     0.198 A 
ATOM     44  C   UNL A   1      41.418  27.573  26.403  1.00  0.00     0.198 A 
ATOM     45  F   UNL A   1      42.066  29.529  27.535  1.00  0.00    -0.203 F 
ATOM     46  F   UNL A   1      39.350  24.798  27.472  1.00  0.00    -0.200 F 
ATOM     47  C   UNL A   1      40.736  26.366  26.381  1.00  0.00     0.200 A 
ATOM     48  F   UNL A   1      42.129  27.960  25.335  1.00  0.00    -0.200 F 
ATOM     49  F   UNL A   1      40.812  25.573  25.304  1.00  0.00    -0.200 F 
ENDBRANCH  25  39
BRANCH  26  50
ATOM     50  C   UNL A   1      39.790  33.873  36.722  1.00  0.00     0.064 A 
ATOM     51  C   UNL A   1      40.431  35.114  36.837  1.00  0.00     0.173 A 
ATOM     52  C   UNL A   1      38.940  33.478  37.766  1.00  0.00     0.173 A 
ATOM     53  F   UNL A   1      41.265  35.529  35.872  1.00  0.00    -0.203 F 
ATOM     54  C   UNL A   1      40.230  35.925  37.952  1.00  0.00     0.198 A 
ATOM     55  C   UNL A   1      38.716  34.302  38.865  1.00  0.00     0.198 A 
ATOM     56  F   UNL A   1      38.296  32.303  37.699  1.00  0.00    -0.203 F 
ATOM     57  F   UNL A   1      40.876  37.095  38.050  1.00  0.00    -0.200 F 
ATOM     58  C   UNL A   1      39.365  35.524  38.960  1.00  0.00     0.200 A 
ATOM     59  F   UNL A   1      37.864  33.920  39.825  1.00  0.00    -0.200 F 
ATOM     60  F   UNL A   1      39.158  36.314  40.021  1.00  0.00    -0.200 F 
ENDBRANCH  26  50
BRANCH  38  61
ATOM     61  C   UNL A   1      44.031  28.591  34.993  1.00  0.00     0.064 A 
ATOM     62  C   UNL A   1      43.859  27.448  35.787  1.00  0.00     0.173 A 
ATOM     63  C   UNL A   1      45.337  29.070  34.805  1.00  0.00     0.173 A 
ATOM     64  F   UNL A   1      42.630  26.960  36.014  1.00  0.00    -0.203 F 
ATOM     65  C   UNL A   1      44.953  26.816  36.375  1.00  0.00     0.198 A 
ATOM     66  C   UNL A   1      46.429  28.417  35.366  1.00  0.00     0.198 A 
ATOM     67  F   UNL A   1      45.555  30.158  34.052  1.00  0.00    -0.203 F 
ATOM     68  F   UNL A   1      44.765  25.746  37.160  1.00  0.00    -0.200 F 
ATOM     69  C   UNL A   1      46.237  27.293  36.154  1.00  0.00     0.200 A 
ATOM     70  F   UNL A   1      47.669  28.871  35.138  1.00  0.00    -0.200 F 
ATOM     71  F   UNL A   1      47.288  26.670  36.704  1.00  0.00    -0.200 F 
ENDBRANCH  38  61
ENDBRANCH  12  13
ENDBRANCH   5   7
ENDBRANCH   2   3
ENDBRANCH   1   2
BRANCH   1  72
ATOM     72  C   UNL A   1      31.249  30.874  26.411  1.00  0.00     0.117 C 
BRANCH  72  73
ATOM     73  N   UNL A   1      32.109  30.357  25.362  1.00  0.00    -0.356 N 
ATOM     74  C   UNL A   1      32.784  29.213  25.133  1.00  0.00     0.223 C 
ATOM     75  H   UNL A   1      32.229  31.006  24.632  1.00  0.00     0.163 HD
ATOM     76  O   UNL A   1      33.431  29.213  24.075  1.00  0.00    -0.275 OA
BRANCH  74  77
ATOM     77  C   UNL A   1      32.753  27.937  25.990  1.00  0.00     0.081 C 
ATOM     78  C   UNL A   1      33.854  26.894  25.893  1.00  0.00     0.030 C 
ATOM     79  C   UNL A   1      31.446  27.180  25.675  1.00  0.00     0.030 C 
ATOM     80  C   UNL A   1      33.936  26.302  24.500  1.00  0.00     0.103 C 
ATOM     81  C   UNL A   1      31.483  26.608  24.254  1.00  0.00     0.103 C 
ATOM     82  N   UNL A   1      32.649  25.681  24.071  1.00  0.00    -0.202 NA
BRANCH  82  83
ATOM     83  S   UNL A   1      32.824  25.066  22.453  1.00  0.00     0.216 S 
ATOM     84  O   UNL A   1      31.501  25.042  21.858  1.00  0.00    -0.212 OA
ATOM     85  O   UNL A   1      33.880  25.833  21.828  1.00  0.00    -0.212 OA
BRANCH  83  86
ATOM     86  C   UNL A   1      33.444  23.368  22.430  1.00  0.00     0.124 C 
ATOM     87  C   UNL A   1      33.483  22.649  23.745  1.00  0.00     0.022 C 
ATOM     88  C   UNL A   1      32.439  22.291  22.718  1.00  0.00     0.022 C 
ENDBRANCH  83  86
ENDBRANCH  82  83
ENDBRANCH  74  77
ENDBRANCH  72  73
ENDBRANCH   1  72
TORSDOF 12
ENDMDL
MODEL 2
REMARK VINA RESULT:     -11.9      0.390      2.042
REMARK SMILES O=C(NCCCNC(=O)C1CCN(S(=O)(=O)C2CC2)CC1)c1ccc(-c2c3nc(c(-c4c(F)c(F)c(F)c(F)c4F)c4ccc([nH]4)c(-c4c(F)c(F)c(F)c(F)c4F)c4nc(c(-c5c(F)c(F)c(F)c(F)c5F)c5ccc2[nH]5)C=C4)C=C3)cc1
REMARK SMILES IDX 5 1 4 2 3 3 1 4 2 5 22 7 23 8 84 9 24 10 83 11 25 12 26 13
REMARK SMILES IDX 27 14 77 15 28 16 82 17 76 18 78 19 29 20 81 21 75 22 74 23
REMARK SMILES IDX 30 25 62 26 42 27 61 28 43 29 46 30 60 31 79 32 44 33 45 34
REMARK SMILES IDX 59 36 80 37 47 38 31 39 32 40 40 41 33 42 34 43 38 44 41 45
REMARK SMILES IDX 35 46 36 47 39 48 37 49 63 50 64 51 72 52 65 53 66 54 70 55
REMARK SMILES IDX 73 56 67 57 68 58 71 59 69 60 48 61 49 62 57 63 50 64 51 65
REMARK SMILES IDX 55 66 58 67 52 68 53 69 56 70 54 71 6 72 7 73 8 74 9 76
REMARK SMILES IDX 10 77 11 78 21 79 12 80 20 81 13 82 14 83 15 84 16 85 17 86
REMARK SMILES IDX 18 87 19 88
REMARK H PARENT 3 6 78 24 46 35 7 75
REMARK Flexibility Score: inf
ROOT
ATOM      1  C   UNL A   1      31.360  32.488  26.513  1.00  0.00     0.042 C 
ENDROOT
BRANCH   1   2
ATOM      2  C   UNL A   1      32.617  33.001  27.201  1.00  0.00     0.118 C 
BRANCH   2   3
ATOM      3  N   UNL A   1      32.463  34.376  27.640  1.00  0.00    -0.352 N 
ATOM      4  O   UNL A   1      32.538  36.079  29.104  1.00  0.00    -0.269 OA
ATOM      5  C   UNL A   1      33.018  35.017  28.718  1.00  0.00     0.251 C 
ATOM      6  H   UNL A   1      31.873  34.931  27.080  1.00  0.00     0.163 HD
BRANCH   5   7
ATOM      7  C   UNL A   1      34.183  34.439  29.424  1.00  0.00     0.039 A 
ATOM      8  C   UNL A   1      34.023  33.694  30.597  1.00  0.00     0.014 A 
ATOM      9  C   UNL A   1      35.454  34.581  28.860  1.00  0.00     0.014 A 
ATOM     10  C   UNL A   1      35.137  33.201  31.270  1.00  0.00     0.010 A 
ATOM     11  C   UNL A   1      36.561  34.004  29.486  1.00  0.00     0.010 A 
ATOM     12  C   UNL A   1      36.413  33.323  30.705  1.00  0.00    -0.014 A 
BRANCH  12  13
ATOM     13  C   UNL A   1      37.581  32.675  31.351  1.00  0.00     0.031 A 
ATOM     14  C   UNL A   1      38.293  31.537  30.682  1.00  0.00     0.074 A 
ATOM     15  C   UNL A   1      37.969  33.093  32.571  1.00  0.00     0.049 A 
ATOM     16  N   UNL A   1      39.250  30.772  31.144  1.00  0.00    -0.248 NA
ATOM     17  C   UNL A   1      37.861  31.204  29.317  1.00  0.00     0.031 C 
ATOM     18  C   UNL A   1      37.354  34.192  33.318  1.00  0.00     0.029 A 
ATOM     19  N   UNL A   1      38.958  32.637  33.405  1.00  0.00    -0.354 N 
ATOM     20  C   UNL A   1      39.516  29.851  30.139  1.00  0.00     0.074 A 
ATOM     21  C   UNL A   1      38.601  30.135  29.055  1.00  0.00     0.031 C 
ATOM     22  C   UNL A   1      37.985  34.333  34.493  1.00  0.00     0.029 A 
ATOM     23  C   UNL A   1      38.996  33.288  34.613  1.00  0.00     0.049 A 
ATOM     24  H   UNL A   1      39.580  31.913  33.161  1.00  0.00     0.167 HD
ATOM     25  C   UNL A   1      40.445  28.863  30.128  1.00  0.00     0.037 A 
ATOM     26  C   UNL A   1      39.731  33.047  35.714  1.00  0.00     0.037 A 
ATOM     27  C   UNL A   1      41.351  28.596  31.217  1.00  0.00     0.049 A 
ATOM     28  C   UNL A   1      40.717  31.916  35.699  1.00  0.00     0.074 A 
ATOM     29  C   UNL A   1      42.350  27.642  31.294  1.00  0.00     0.029 A 
ATOM     30  N   UNL A   1      41.356  29.277  32.427  1.00  0.00    -0.354 N 
ATOM     31  N   UNL A   1      40.982  31.066  34.738  1.00  0.00    -0.248 NA
ATOM     32  C   UNL A   1      41.507  31.708  36.920  1.00  0.00     0.031 C 
ATOM     33  C   UNL A   1      42.914  27.701  32.572  1.00  0.00     0.029 A 
ATOM     34  C   UNL A   1      42.320  28.744  33.267  1.00  0.00     0.049 A 
ATOM     35  H   UNL A   1      40.761  30.028  32.654  1.00  0.00     0.167 HD
ATOM     36  C   UNL A   1      41.990  30.244  35.219  1.00  0.00     0.074 A 
ATOM     37  C   UNL A   1      42.289  30.697  36.563  1.00  0.00     0.031 C 
ATOM     38  C   UNL A   1      42.617  29.214  34.599  1.00  0.00     0.037 A 
BRANCH  25  39
ATOM     39  C   UNL A   1      40.493  27.971  28.918  1.00  0.00     0.064 A 
ATOM     40  C   UNL A   1      41.317  28.251  27.816  1.00  0.00     0.173 A 
ATOM     41  C   UNL A   1      39.702  26.811  28.862  1.00  0.00     0.173 A 
ATOM     42  F   UNL A   1      42.089  29.347  27.812  1.00  0.00    -0.203 F 
ATOM     43  C   UNL A   1      41.311  27.432  26.689  1.00  0.00     0.198 A 
ATOM     44  C   UNL A   1      39.728  25.974  27.750  1.00  0.00     0.198 A 
ATOM     45  F   UNL A   1      38.904  26.486  29.890  1.00  0.00    -0.203 F 
ATOM     46  F   UNL A   1      42.055  27.759  25.623  1.00  0.00    -0.200 F 
ATOM     47  C   UNL A   1      40.521  26.294  26.657  1.00  0.00     0.200 A 
ATOM     48  F   UNL A   1      38.978  24.864  27.729  1.00  0.00    -0.200 F 
ATOM     49  F   UNL A   1      40.515  25.509  25.572  1.00  0.00    -0.200 F 
ENDBRANCH  25  39
BRANCH  26  50
ATOM     50  C   UNL A   1      39.538  33.900  36.915  1.00  0.00     0.064 A 
ATOM     51  C   UNL A   1      38.731  33.477  37.979  1.00  0.00     0.173 A 
ATOM     52  C   UNL A   1      40.199  35.132  37.045  1.00  0.00     0.173 A 
ATOM     53  F   UNL A   1      38.067  32.316  37.895  1.00  0.00    -0.203 F 
ATOM     54  C   UNL A   1      38.588  34.256  39.126  1.00  0.00     0.198 A 
ATOM     55  C   UNL A   1      40.080  35.894  38.204  1.00  0.00     0.198 A 
ATOM     56  F   UNL A   1      40.991  35.576  36.059  1.00  0.00    -0.203 F 
ATOM     57  F   UNL A   1      37.788  33.843  40.117  1.00  0.00    -0.200 F 
ATOM     58  C   UNL A   1      39.271  35.458  39.242  1.00  0.00     0.200 A 
ATOM     59  F   UNL A   1      40.759  37.044  38.320  1.00  0.00    -0.200 F 
ATOM     60  F   UNL A   1      39.148  36.196  40.353  1.00  0.00    -0.200 F 
ENDBRANCH  26  50
BRANCH  38  61
ATOM     61  C   UNL A   1      43.735  28.536  35.336  1.00  0.00     0.064 A 
ATOM     62  C   UNL A   1      45.069  28.945  35.202  1.00  0.00     0.173 A 
ATOM     63  C   UNL A   1      43.451  27.507  36.248  1.00  0.00     0.173 A 
ATOM     64  F   UNL A   1      45.397  29.911  34.332  1.00  0.00    -0.203 F 
ATOM     65  C   UNL A   1      46.080  28.339  35.947  1.00  0.00     0.198 A 
ATOM     66  C   UNL A   1      44.457  26.928  37.013  1.00  0.00     0.198 A 
ATOM     67  F   UNL A   1      42.190  27.082  36.415  1.00  0.00    -0.203 F 
ATOM     68  F   UNL A   1      47.354  28.719  35.778  1.00  0.00    -0.200 F 
ATOM     69  C   UNL A   1      45.772  27.341  36.860  1.00  0.00     0.200 A 
ATOM     70  F   UNL A   1      44.154  25.975  37.906  1.00  0.00    -0.200 F 
ATOM     71  F   UNL A   1      46.742  26.775  37.589  1.00  0.00    -0.200 F 
ENDBRANCH  38  61
ENDBRANCH  12  13
ENDBRANCH   5   7
ENDBRANCH   2   3
ENDBRANCH   1   2
BRANCH   1  72
ATOM     72  C   UNL A   1      31.282  30.963  26.432  1.00  0.00     0.117 C 
BRANCH  72  73
ATOM     73  N   UNL A   1      32.122  30.425  25.377  1.00  0.00    -0.356 N 
ATOM     74  C   UNL A   1      32.758  29.261  25.137  1.00  0.00     0.223 C 
ATOM     75  H   UNL A   1      32.262  31.076  24.652  1.00  0.00     0.163 HD
ATOM     76  O   UNL A   1      33.401  29.247  24.077  1.00  0.00    -0.275 OA
BRANCH  74  77
ATOM     77  C   UNL A   1      32.685  27.980  25.984  1.00  0.00     0.081 C 
ATOM     78  C   UNL A   1      33.759  26.908  25.889  1.00  0.00     0.030 C 
ATOM     79  C   UNL A   1      31.361  27.259  25.651  1.00  0.00     0.030 C 
ATOM     80  C   UNL A   1      33.839  26.326  24.493  1.00  0.00     0.103 C 
ATOM     81  C   UNL A   1      31.397  26.697  24.226  1.00  0.00     0.103 C 
ATOM     82  N   UNL A   1      32.540  25.742  24.047  1.00  0.00    -0.202 NA
BRANCH  82  83
ATOM     83  S   UNL A   1      32.714  25.134  22.426  1.00  0.00     0.216 S 
ATOM     84  O   UNL A   1      31.536  25.544  21.686  1.00  0.00    -0.212 OA
ATOM     85  O   UNL A   1      34.028  25.536  21.970  1.00  0.00    -0.212 OA
BRANCH  83  86
ATOM     86  C   UNL A   1      32.768  23.327  22.375  1.00  0.00     0.124 C 
ATOM     87  C   UNL A   1      33.609  22.650  23.415  1.00  0.00     0.022 C 
ATOM     88  C   UNL A   1      32.105  22.612  23.516  1.00  0.00     0.022 C 
ENDBRANCH  83  86
ENDBRANCH  82  83
ENDBRANCH  74  77
ENDBRANCH  72  73
ENDBRANCH   1  72
TORSDOF 12
ENDMDL
MODEL 3
REMARK VINA RESULT:     -11.9      5.705     11.245
REMARK SMILES O=C(NCCCNC(=O)C1CCN(S(=O)(=O)C2CC2)CC1)c1ccc(-c2c3nc(c(-c4c(F)c(F)c(F)c(F)c4F)c4ccc([nH]4)c(-c4c(F)c(F)c(F)c(F)c4F)c4nc(c(-c5c(F)c(F)c(F)c(F)c5F)c5ccc2[nH]5)C=C4)C=C3)cc1
REMARK SMILES IDX 5 1 4 2 3 3 1 4 2 5 22 7 23 8 84 9 24 10 83 11 25 12 26 13
REMARK SMILES IDX 27 14 77 15 28 16 82 17 76 18 78 19 29 20 81 21 75 22 74 23
REMARK SMILES IDX 30 25 62 26 42 27 61 28 43 29 46 30 60 31 79 32 44 33 45 34
REMARK SMILES IDX 59 36 80 37 47 38 31 39 32 40 40 41 33 42 34 43 38 44 41 45
REMARK SMILES IDX 35 46 36 47 39 48 37 49 63 50 64 51 72 52 65 53 66 54 70 55
REMARK SMILES IDX 73 56 67 57 68 58 71 59 69 60 48 61 49 62 57 63 50 64 51 65
REMARK SMILES IDX 55 66 58 67 52 68 53 69 56 70 54 71 6 72 7 73 8 74 9 76
REMARK SMILES IDX 10 77 11 78 21 79 12 80 20 81 13 82 14 83 15 84 16 85 17 86
REMARK SMILES IDX 18 87 19 88
REMARK H PARENT 3 6 78 24 46 35 7 75
REMARK Flexibility Score: inf
ROOT
ATOM      1  C   UNL A   1      37.976  19.735  25.001  1.00  0.00     0.042 C 
ENDROOT
BRANCH   1   2
ATOM      2  C   UNL A   1      39.062  20.197  25.964  1.00  0.00     0.118 C 
BRANCH   2   3
ATOM      3  N   UNL A   1      40.148  19.237  26.045  1.00  0.00    -0.352 N 
ATOM      4  O   UNL A   1      42.268  18.519  25.833  1.00  0.00    -0.269 OA
ATOM      5  C   UNL A   1      41.503  19.450  26.073  1.00  0.00     0.251 C 
ATOM      6  H   UNL A   1      39.872  18.293  26.085  1.00  0.00     0.163 HD
BRANCH   5   7
ATOM      7  C   UNL A   1      42.051  20.789  26.383  1.00  0.00     0.039 A 
ATOM      8  C   UNL A   1      42.259  21.737  25.376  1.00  0.00     0.014 A 
ATOM      9  C   UNL A   1      42.291  21.129  27.717  1.00  0.00     0.014 A 
ATOM     10  C   UNL A   1      42.821  22.973  25.684  1.00  0.00     0.010 A 
ATOM     11  C   UNL A   1      42.765  22.404  28.035  1.00  0.00     0.010 A 
ATOM     12  C   UNL A   1      43.049  23.330  27.019  1.00  0.00    -0.014 A 
BRANCH  12  13
ATOM     13  C   UNL A   1      43.515  24.698  27.358  1.00  0.00     0.031 A 
ATOM     14  C   UNL A   1      42.566  25.711  27.926  1.00  0.00     0.074 A 
ATOM     15  C   UNL A   1      44.794  25.034  27.106  1.00  0.00     0.049 A 
ATOM     16  N   UNL A   1      42.760  26.983  28.168  1.00  0.00    -0.248 NA
ATOM     17  C   UNL A   1      41.214  25.235  28.252  1.00  0.00     0.031 C 
ATOM     18  C   UNL A   1      45.808  24.132  26.556  1.00  0.00     0.029 A 
ATOM     19  N   UNL A   1      45.458  26.225  27.260  1.00  0.00    -0.354 N 
ATOM     20  C   UNL A   1      41.549  27.466  28.648  1.00  0.00     0.074 A 
ATOM     21  C   UNL A   1      40.620  26.356  28.636  1.00  0.00     0.031 C 
ATOM     22  C   UNL A   1      46.966  24.796  26.431  1.00  0.00     0.029 A 
ATOM     23  C   UNL A   1      46.757  26.186  26.818  1.00  0.00     0.049 A 
ATOM     24  H   UNL A   1      45.043  27.028  27.651  1.00  0.00     0.167 HD
ATOM     25  C   UNL A   1      41.249  28.721  29.063  1.00  0.00     0.037 A 
ATOM     26  C   UNL A   1      47.668  27.168  26.696  1.00  0.00     0.037 A 
ATOM     27  C   UNL A   1      42.189  29.814  29.070  1.00  0.00     0.049 A 
ATOM     28  C   UNL A   1      47.299  28.562  27.112  1.00  0.00     0.074 A 
ATOM     29  C   UNL A   1      41.997  31.115  29.501  1.00  0.00     0.029 A 
ATOM     30  N   UNL A   1      43.497  29.736  28.611  1.00  0.00    -0.354 N 
ATOM     31  N   UNL A   1      46.163  29.006  27.589  1.00  0.00    -0.248 NA
ATOM     32  C   UNL A   1      48.337  29.593  26.975  1.00  0.00     0.031 C 
ATOM     33  C   UNL A   1      43.164  31.839  29.240  1.00  0.00     0.029 A 
ATOM     34  C   UNL A   1      44.113  30.973  28.719  1.00  0.00     0.049 A 
ATOM     35  H   UNL A   1      43.924  28.921  28.259  1.00  0.00     0.167 HD
ATOM     36  C   UNL A   1      46.354  30.356  27.842  1.00  0.00     0.074 A 
ATOM     37  C   UNL A   1      47.719  30.660  27.463  1.00  0.00     0.031 C 
ATOM     38  C   UNL A   1      45.478  31.258  28.350  1.00  0.00     0.037 A 
BRANCH  25  39
ATOM     39  C   UNL A   1      39.834  28.987  29.498  1.00  0.00     0.064 A 
ATOM     40  C   UNL A   1      39.414  28.805  30.825  1.00  0.00     0.173 A 
ATOM     41  C   UNL A   1      38.882  29.439  28.569  1.00  0.00     0.173 A 
ATOM     42  F   UNL A   1      40.279  28.370  31.753  1.00  0.00    -0.203 F 
ATOM     43  C   UNL A   1      38.088  29.017  31.194  1.00  0.00     0.198 A 
ATOM     44  C   UNL A   1      37.565  29.686  28.950  1.00  0.00     0.198 A 
ATOM     45  F   UNL A   1      39.227  29.643  27.289  1.00  0.00    -0.203 F 
ATOM     46  F   UNL A   1      37.697  28.768  32.452  1.00  0.00    -0.200 F 
ATOM     47  C   UNL A   1      37.166  29.460  30.259  1.00  0.00     0.200 A 
ATOM     48  F   UNL A   1      36.681  30.133  28.049  1.00  0.00    -0.200 F 
ATOM     49  F   UNL A   1      35.890  29.661  30.615  1.00  0.00    -0.200 F 
ENDBRANCH  25  39
BRANCH  26  50
ATOM     50  C   UNL A   1      49.009  26.848  26.142  1.00  0.00     0.064 A 
ATOM     51  C   UNL A   1      49.999  26.262  26.941  1.00  0.00     0.173 A 
ATOM     52  C   UNL A   1      49.309  27.073  24.789  1.00  0.00     0.173 A 
ATOM     53  F   UNL A   1      49.765  26.041  28.243  1.00  0.00    -0.203 F 
ATOM     54  C   UNL A   1      51.240  25.917  26.409  1.00  0.00     0.198 A 
ATOM     55  C   UNL A   1      50.538  26.700  24.252  1.00  0.00     0.198 A 
ATOM     56  F   UNL A   1      48.392  27.622  23.981  1.00  0.00    -0.203 F 
ATOM     57  F   UNL A   1      52.181  25.384  27.201  1.00  0.00    -0.200 F 
ATOM     58  C   UNL A   1      51.506  26.126  25.064  1.00  0.00     0.200 A 
ATOM     59  F   UNL A   1      50.781  26.885  22.948  1.00  0.00    -0.200 F 
ATOM     60  F   UNL A   1      52.692  25.777  24.550  1.00  0.00    -0.200 F 
ENDBRANCH  26  50
BRANCH  38  61
ATOM     61  C   UNL A   1      45.980  32.653  28.590  1.00  0.00     0.064 A 
ATOM     62  C   UNL A   1      46.626  33.017  29.780  1.00  0.00     0.173 A 
ATOM     63  C   UNL A   1      45.873  33.620  27.578  1.00  0.00     0.173 A 
ATOM     64  F   UNL A   1      46.739  32.137  30.786  1.00  0.00    -0.203 F 
ATOM     65  C   UNL A   1      47.138  34.302  29.950  1.00  0.00     0.198 A 
ATOM     66  C   UNL A   1      46.414  34.890  27.739  1.00  0.00     0.198 A 
ATOM     67  F   UNL A   1      45.266  33.321  26.420  1.00  0.00    -0.203 F 
ATOM     68  F   UNL A   1      47.720  34.641  31.109  1.00  0.00    -0.200 F 
ATOM     69  C   UNL A   1      47.043  35.233  28.926  1.00  0.00     0.200 A 
ATOM     70  F   UNL A   1      46.335  35.782  26.741  1.00  0.00    -0.200 F 
ATOM     71  F   UNL A   1      47.554  36.461  29.085  1.00  0.00    -0.200 F 
ENDBRANCH  38  61
ENDBRANCH  12  13
ENDBRANCH   5   7
ENDBRANCH   2   3
ENDBRANCH   1   2
BRANCH   1  72
ATOM     72  C   UNL A   1      36.922  20.802  24.707  1.00  0.00     0.117 C 
BRANCH  72  73
ATOM     73  N   UNL A   1      35.714  20.612  25.490  1.00  0.00    -0.356 N 
ATOM     74  C   UNL A   1      34.397  20.845  25.320  1.00  0.00     0.223 C 
ATOM     75  H   UNL A   1      35.905  20.211  26.368  1.00  0.00     0.163 HD
ATOM     76  O   UNL A   1      33.700  20.532  26.295  1.00  0.00    -0.275 OA
BRANCH  74  77
ATOM     77  C   UNL A   1      33.710  21.361  24.044  1.00  0.00     0.081 C 
ATOM     78  C   UNL A   1      33.928  22.782  23.551  1.00  0.00     0.030 C 
ATOM     79  C   UNL A   1      32.184  21.226  24.234  1.00  0.00     0.030 C 
ATOM     80  C   UNL A   1      33.452  23.801  24.566  1.00  0.00     0.103 C 
ATOM     81  C   UNL A   1      31.682  22.216  25.290  1.00  0.00     0.103 C 
ATOM     82  N   UNL A   1      32.010  23.630  24.910  1.00  0.00    -0.202 NA
BRANCH  82  83
ATOM     83  S   UNL A   1      31.564  24.812  26.105  1.00  0.00     0.216 S 
ATOM     84  O   UNL A   1      31.047  24.089  27.251  1.00  0.00    -0.212 OA
ATOM     85  O   UNL A   1      32.701  25.694  26.263  1.00  0.00    -0.212 OA
BRANCH  83  86
ATOM     86  C   UNL A   1      30.243  25.903  25.529  1.00  0.00     0.124 C 
ATOM     87  C   UNL A   1      30.654  27.060  24.668  1.00  0.00     0.022 C 
ATOM     88  C   UNL A   1      29.953  25.873  24.056  1.00  0.00     0.022 C 
ENDBRANCH  83  86
ENDBRANCH  82  83
ENDBRANCH  74  77
ENDBRANCH  72  73
ENDBRANCH   1  72
TORSDOF 12
ENDMDL
