MODEL 1
REMARK VINA RESULT:     -14.0      0.000      0.000
REMARK SMILES O=C(Nc1cccc(C(=O)NCCCNC(=O)c2ccc(-c3c4nc(c(-c5c(F)c(F)c(F)c(F)c5F)c5ccc([nH]5)c(-c5c(F)c(F)c(F)c(F)c5F)c5nc(c(-c6c(F)c(F)c(F)c(F)c6F)c6ccc3[nH]6)C=C5)C=C4)cc2)c1)Nc1cc(Cl)c(Cl)cc1Cl
REMARK SMILES IDX 13 1 12 2 11 3 9 4 10 5 8 7 4 8 5 9 81 10 6 11 7 12 3 13
REMARK SMILES IDX 1 14 2 15 82 16 83 19 84 20 90 21 85 22 89 23 91 24 86 25
REMARK SMILES IDX 87 26 88 27 14 28 15 29 16 30 17 32 18 33 19 34 80 35 20 36
REMARK SMILES IDX 79 37 21 38 22 39 23 40 73 41 24 42 78 43 72 44 74 45 25 46
REMARK SMILES IDX 77 47 71 48 70 49 26 51 58 52 38 53 57 54 39 55 42 56 56 57
REMARK SMILES IDX 75 58 40 59 41 60 55 62 76 63 43 64 27 65 28 66 36 67 29 68
REMARK SMILES IDX 30 69 34 70 37 71 31 72 32 73 35 74 33 75 59 76 60 77 68 78
REMARK SMILES IDX 61 79 62 80 66 81 69 82 63 83 64 84 67 85 65 86 44 87 45 88
REMARK SMILES IDX 53 89 46 90 47 91 51 92 54 93 48 94 49 95 52 96 50 97
REMARK H PARENT 11 6 3 17 82 18 15 31 74 50 42 61
REMARK Flexibility Score: inf
ROOT
ATOM      1  C   UNL A   1      31.349  32.386  26.538  1.00  0.00     0.042 C 
ENDROOT
BRANCH   1   2
ATOM      2  C   UNL A   1      31.317  30.863  26.419  1.00  0.00     0.118 C 
BRANCH   2   3
ATOM      3  N   UNL A   1      32.233  30.393  25.397  1.00  0.00    -0.352 N 
ATOM      4  C   UNL A   1      32.278  29.271  24.610  1.00  0.00     0.251 C 
ATOM      5  O   UNL A   1      33.209  29.204  23.804  1.00  0.00    -0.269 OA
ATOM      6  H   UNL A   1      32.980  31.012  25.233  1.00  0.00     0.163 HD
BRANCH   4   7
ATOM      7  C   UNL A   1      31.272  28.167  24.640  1.00  0.00     0.041 A 
ATOM      8  C   UNL A   1      30.238  26.154  25.544  1.00  0.00     0.043 A 
ATOM      9  C   UNL A   1      29.311  26.147  24.503  1.00  0.00     0.026 A 
ATOM     10  C   UNL A   1      31.248  27.123  25.568  1.00  0.00     0.040 A 
ATOM     11  C   UNL A   1      29.335  27.162  23.549  1.00  0.00     0.003 A 
ATOM     12  C   UNL A   1      30.298  28.171  23.628  1.00  0.00     0.014 A 
BRANCH   8  13
ATOM     13  N   UNL A   1      30.139  25.154  26.527  1.00  0.00    -0.308 N 
ATOM     14  O   UNL A   1      30.286  23.083  27.390  1.00  0.00    -0.248 OA
ATOM     15  C   UNL A   1      30.671  23.887  26.546  1.00  0.00     0.323 C 
ATOM     16  N   UNL A   1      31.747  23.691  25.711  1.00  0.00    -0.306 N 
ATOM     17  H   UNL A   1      29.610  25.398  27.320  1.00  0.00     0.171 HD
ATOM     18  H   UNL A   1      32.075  24.475  25.212  1.00  0.00     0.171 HD
BRANCH  16  19
ATOM     19  C   UNL A   1      32.423  22.468  25.503  1.00  0.00     0.063 A 
ATOM     20  C   UNL A   1      32.014  21.725  24.385  1.00  0.00     0.049 A 
ATOM     21  C   UNL A   1      33.431  21.945  26.332  1.00  0.00     0.066 A 
ATOM     22  C   UNL A   1      32.653  20.528  24.046  1.00  0.00     0.061 A 
ATOM     23  C   UNL A   1      34.067  20.743  25.991  1.00  0.00     0.044 A 
ATOM     24  Cl  UNL A   1      33.818  22.604  27.884  1.00  0.00    -0.082 Cl
ATOM     25  Cl  UNL A   1      32.110  19.706  22.626  1.00  0.00    -0.083 Cl
ATOM     26  C   UNL A   1      33.692  20.044  24.842  1.00  0.00     0.061 A 
ATOM     27  Cl  UNL A   1      34.531  18.579  24.480  1.00  0.00    -0.083 Cl
ENDBRANCH  16  19
ENDBRANCH   8  13
ENDBRANCH   4   7
ENDBRANCH   2   3
ENDBRANCH   1   2
BRANCH   1  28
ATOM     28  C   UNL A   1      32.634  32.914  27.176  1.00  0.00     0.118 C 
BRANCH  28  29
ATOM     29  N   UNL A   1      32.474  34.282  27.652  1.00  0.00    -0.352 N 
ATOM     30  C   UNL A   1      33.049  34.927  28.716  1.00  0.00     0.251 C 
ATOM     31  H   UNL A   1      31.851  34.832  27.123  1.00  0.00     0.163 HD
ATOM     32  O   UNL A   1      32.579  35.996  29.094  1.00  0.00    -0.269 OA
BRANCH  30  33
ATOM     33  C   UNL A   1      34.224  34.357  29.413  1.00  0.00     0.039 A 
ATOM     34  C   UNL A   1      34.017  33.647  30.600  1.00  0.00     0.014 A 
ATOM     35  C   UNL A   1      35.524  34.575  28.949  1.00  0.00     0.014 A 
ATOM     36  C   UNL A   1      35.107  33.112  31.292  1.00  0.00     0.010 A 
ATOM     37  C   UNL A   1      36.605  33.988  29.605  1.00  0.00     0.010 A 
ATOM     38  C   UNL A   1      36.408  33.253  30.783  1.00  0.00    -0.014 A 
BRANCH  38  39
ATOM     39  C   UNL A   1      37.569  32.622  31.460  1.00  0.00     0.031 A 
ATOM     40  C   UNL A   1      38.292  31.470  30.820  1.00  0.00     0.074 A 
ATOM     41  C   UNL A   1      37.925  33.047  32.688  1.00  0.00     0.049 A 
ATOM     42  N   UNL A   1      39.271  30.742  31.295  1.00  0.00    -0.248 NA
ATOM     43  C   UNL A   1      37.840  31.069  29.480  1.00  0.00     0.031 C 
ATOM     44  C   UNL A   1      37.271  34.124  33.431  1.00  0.00     0.029 A 
ATOM     45  N   UNL A   1      38.915  32.613  33.534  1.00  0.00    -0.354 N 
ATOM     46  C   UNL A   1      39.538  29.787  30.322  1.00  0.00     0.074 A 
ATOM     47  C   UNL A   1      38.593  30.003  29.248  1.00  0.00     0.031 C 
ATOM     48  C   UNL A   1      37.885  34.278  34.615  1.00  0.00     0.029 A 
ATOM     49  C   UNL A   1      38.950  33.287  34.729  1.00  0.00     0.049 A 
ATOM     50  H   UNL A   1      39.540  31.886  33.305  1.00  0.00     0.167 HD
ATOM     51  C   UNL A   1      40.498  28.830  30.319  1.00  0.00     0.037 A 
ATOM     52  C   UNL A   1      39.746  33.119  35.802  1.00  0.00     0.037 A 
ATOM     53  C   UNL A   1      41.455  28.638  31.378  1.00  0.00     0.049 A 
ATOM     54  C   UNL A   1      40.805  32.053  35.770  1.00  0.00     0.074 A 
ATOM     55  C   UNL A   1      42.506  27.740  31.440  1.00  0.00     0.029 A 
ATOM     56  N   UNL A   1      41.474  29.357  32.565  1.00  0.00    -0.354 N 
ATOM     57  N   UNL A   1      41.090  31.199  34.818  1.00  0.00    -0.248 NA
ATOM     58  C   UNL A   1      41.657  31.931  36.961  1.00  0.00     0.031 C 
ATOM     59  C   UNL A   1      43.137  27.888  32.679  1.00  0.00     0.029 A 
ATOM     60  C   UNL A   1      42.507  28.909  33.373  1.00  0.00     0.049 A 
ATOM     61  H   UNL A   1      40.846  30.079  32.798  1.00  0.00     0.167 HD
ATOM     62  C   UNL A   1      42.165  30.454  35.283  1.00  0.00     0.074 A 
ATOM     63  C   UNL A   1      42.492  30.969  36.596  1.00  0.00     0.031 C 
ATOM     64  C   UNL A   1      42.820  29.434  34.677  1.00  0.00     0.037 A 
BRANCH  51  65
ATOM     65  C   UNL A   1      40.566  27.916  29.130  1.00  0.00     0.064 A 
ATOM     66  C   UNL A   1      39.755  26.775  29.034  1.00  0.00     0.173 A 
ATOM     67  C   UNL A   1      41.418  28.208  28.055  1.00  0.00     0.173 A 
ATOM     68  F   UNL A   1      38.930  26.446  30.039  1.00  0.00    -0.203 F 
ATOM     69  C   UNL A   1      39.814  25.946  27.916  1.00  0.00     0.198 A 
ATOM     70  C   UNL A   1      41.454  27.393  26.927  1.00  0.00     0.198 A 
ATOM     71  F   UNL A   1      42.209  29.291  28.093  1.00  0.00    -0.203 F 
ATOM     72  F   UNL A   1      39.061  24.838  27.864  1.00  0.00    -0.200 F 
ATOM     73  C   UNL A   1      40.657  26.260  26.860  1.00  0.00     0.200 A 
ATOM     74  F   UNL A   1      42.260  27.704  25.902  1.00  0.00    -0.200 F 
ATOM     75  F   UNL A   1      40.707  25.466  25.782  1.00  0.00    -0.200 F 
ENDBRANCH  51  65
BRANCH  52  76
ATOM     76  C   UNL A   1      39.581  33.997  36.989  1.00  0.00     0.064 A 
ATOM     77  C   UNL A   1      38.805  33.587  38.082  1.00  0.00     0.173 A 
ATOM     78  C   UNL A   1      40.195  35.255  37.058  1.00  0.00     0.173 A 
ATOM     79  F   UNL A   1      38.181  32.401  38.052  1.00  0.00    -0.203 F 
ATOM     80  C   UNL A   1      38.634  34.412  39.191  1.00  0.00     0.198 A 
ATOM     81  C   UNL A   1      40.045  36.068  38.180  1.00  0.00     0.198 A 
ATOM     82  F   UNL A   1      40.951  35.691  36.040  1.00  0.00    -0.203 F 
ATOM     83  F   UNL A   1      37.850  34.014  40.204  1.00  0.00    -0.200 F 
ATOM     84  C   UNL A   1      39.258  35.649  39.242  1.00  0.00     0.200 A 
ATOM     85  F   UNL A   1      40.660  37.257  38.230  1.00  0.00    -0.200 F 
ATOM     86  F   UNL A   1      39.095  36.440  40.312  1.00  0.00    -0.200 F 
ENDBRANCH  52  76
BRANCH  64  87
ATOM     87  C   UNL A   1      43.974  28.825  35.418  1.00  0.00     0.064 A 
ATOM     88  C   UNL A   1      45.285  29.287  35.238  1.00  0.00     0.173 A 
ATOM     89  C   UNL A   1      43.759  27.790  36.340  1.00  0.00     0.173 A 
ATOM     90  F   UNL A   1      45.543  30.264  34.355  1.00  0.00    -0.203 F 
ATOM     91  C   UNL A   1      46.345  28.720  35.940  1.00  0.00     0.198 A 
ATOM     92  C   UNL A   1      44.818  27.243  37.060  1.00  0.00     0.198 A 
ATOM     93  F   UNL A   1      42.523  27.317  36.551  1.00  0.00    -0.203 F 
ATOM     94  F   UNL A   1      47.597  29.146  35.721  1.00  0.00    -0.200 F 
ATOM     95  C   UNL A   1      46.109  27.703  36.855  1.00  0.00     0.200 A 
ATOM     96  F   UNL A   1      44.588  26.269  37.951  1.00  0.00    -0.200 F 
ATOM     97  F   UNL A   1      47.131  27.162  37.533  1.00  0.00    -0.200 F 
ENDBRANCH  64  87
ENDBRANCH  38  39
ENDBRANCH  30  33
ENDBRANCH  28  29
ENDBRANCH   1  28
TORSDOF 12
ENDMDL
MODEL 2
REMARK VINA RESULT:     -13.9      0.094      1.118
REMARK SMILES O=C(Nc1cccc(C(=O)NCCCNC(=O)c2ccc(-c3c4nc(c(-c5c(F)c(F)c(F)c(F)c5F)c5ccc([nH]5)c(-c5c(F)c(F)c(F)c(F)c5F)c5nc(c(-c6c(F)c(F)c(F)c(F)c6F)c6ccc3[nH]6)C=C5)C=C4)cc2)c1)Nc1cc(Cl)c(Cl)cc1Cl
REMARK SMILES IDX 13 1 12 2 11 3 9 4 10 5 8 7 4 8 5 9 81 10 6 11 7 12 3 13
REMARK SMILES IDX 1 14 2 15 82 16 83 19 84 20 90 21 85 22 89 23 91 24 86 25
REMARK SMILES IDX 87 26 88 27 14 28 15 29 16 30 17 32 18 33 19 34 80 35 20 36
REMARK SMILES IDX 79 37 21 38 22 39 23 40 73 41 24 42 78 43 72 44 74 45 25 46
REMARK SMILES IDX 77 47 71 48 70 49 26 51 58 52 38 53 57 54 39 55 42 56 56 57
REMARK SMILES IDX 75 58 40 59 41 60 55 62 76 63 43 64 27 65 28 66 36 67 29 68
REMARK SMILES IDX 30 69 34 70 37 71 31 72 32 73 35 74 33 75 59 76 60 77 68 78
REMARK SMILES IDX 61 79 62 80 66 81 69 82 63 83 64 84 67 85 65 86 44 87 45 88
REMARK SMILES IDX 53 89 46 90 47 91 51 92 54 93 48 94 49 95 52 96 50 97
REMARK H PARENT 11 6 3 17 82 18 15 31 74 50 42 61
REMARK Flexibility Score: inf
ROOT
ATOM      1  C   UNL A   1      31.394  32.340  26.524  1.00  0.00     0.042 C 
ENDROOT
BRANCH   1   2
ATOM      2  C   UNL A   1      31.386  30.815  26.429  1.00  0.00     0.118 C 
BRANCH   2   3
ATOM      3  N   UNL A   1      32.281  30.345  25.388  1.00  0.00    -0.352 N 
ATOM      4  C   UNL A   1      32.307  29.228  24.595  1.00  0.00     0.251 C 
ATOM      5  O   UNL A   1      33.223  29.159  23.773  1.00  0.00    -0.269 OA
ATOM      6  H   UNL A   1      33.029  30.961  25.214  1.00  0.00     0.163 HD
BRANCH   4   7
ATOM      7  C   UNL A   1      31.296  28.129  24.637  1.00  0.00     0.041 A 
ATOM      8  C   UNL A   1      30.261  26.121  25.553  1.00  0.00     0.043 A 
ATOM      9  C   UNL A   1      29.324  26.118  24.522  1.00  0.00     0.026 A 
ATOM     10  C   UNL A   1      31.276  27.086  25.566  1.00  0.00     0.040 A 
ATOM     11  C   UNL A   1      29.343  27.132  23.567  1.00  0.00     0.003 A 
ATOM     12  C   UNL A   1      30.311  28.136  23.635  1.00  0.00     0.014 A 
BRANCH   8  13
ATOM     13  N   UNL A   1      30.168  25.123  26.539  1.00  0.00    -0.308 N 
ATOM     14  O   UNL A   1      30.317  23.053  27.403  1.00  0.00    -0.248 OA
ATOM     15  C   UNL A   1      30.698  23.855  26.555  1.00  0.00     0.323 C 
ATOM     16  N   UNL A   1      31.768  23.657  25.713  1.00  0.00    -0.306 N 
ATOM     17  H   UNL A   1      29.644  25.369  27.335  1.00  0.00     0.171 HD
ATOM     18  H   UNL A   1      32.093  24.439  25.211  1.00  0.00     0.171 HD
BRANCH  16  19
ATOM     19  C   UNL A   1      32.441  22.433  25.502  1.00  0.00     0.063 A 
ATOM     20  C   UNL A   1      32.022  21.688  24.389  1.00  0.00     0.049 A 
ATOM     21  C   UNL A   1      33.455  21.910  26.324  1.00  0.00     0.066 A 
ATOM     22  C   UNL A   1      32.657  20.490  24.046  1.00  0.00     0.061 A 
ATOM     23  C   UNL A   1      34.087  20.707  25.981  1.00  0.00     0.044 A 
ATOM     24  Cl  UNL A   1      33.854  22.570  27.872  1.00  0.00    -0.082 Cl
ATOM     25  Cl  UNL A   1      32.103  19.666  22.633  1.00  0.00    -0.083 Cl
ATOM     26  C   UNL A   1      33.702  20.006  24.836  1.00  0.00     0.061 A 
ATOM     27  Cl  UNL A   1      34.537  18.539  24.470  1.00  0.00    -0.083 Cl
ENDBRANCH  16  19
ENDBRANCH   8  13
ENDBRANCH   4   7
ENDBRANCH   2   3
ENDBRANCH   1   2
BRANCH   1  28
ATOM     28  C   UNL A   1      32.686  32.900  27.118  1.00  0.00     0.118 C 
BRANCH  28  29
ATOM     29  N   UNL A   1      32.503  34.256  27.619  1.00  0.00    -0.352 N 
ATOM     30  C   UNL A   1      33.062  34.889  28.699  1.00  0.00     0.251 C 
ATOM     31  H   UNL A   1      31.876  34.807  27.096  1.00  0.00     0.163 HD
ATOM     32  O   UNL A   1      32.574  35.943  29.094  1.00  0.00    -0.269 OA
BRANCH  30  33
ATOM     33  C   UNL A   1      34.239  34.321  29.394  1.00  0.00     0.039 A 
ATOM     34  C   UNL A   1      34.031  33.546  30.539  1.00  0.00     0.014 A 
ATOM     35  C   UNL A   1      35.541  34.604  28.972  1.00  0.00     0.014 A 
ATOM     36  C   UNL A   1      35.123  33.012  31.228  1.00  0.00     0.010 A 
ATOM     37  C   UNL A   1      36.627  34.020  29.622  1.00  0.00     0.010 A 
ATOM     38  C   UNL A   1      36.429  33.220  30.757  1.00  0.00    -0.014 A 
BRANCH  38  39
ATOM     39  C   UNL A   1      37.596  32.594  31.429  1.00  0.00     0.031 A 
ATOM     40  C   UNL A   1      38.328  31.453  30.780  1.00  0.00     0.074 A 
ATOM     41  C   UNL A   1      37.950  33.012  32.659  1.00  0.00     0.049 A 
ATOM     42  N   UNL A   1      39.313  30.728  31.249  1.00  0.00    -0.248 NA
ATOM     43  C   UNL A   1      37.878  31.058  29.437  1.00  0.00     0.031 C 
ATOM     44  C   UNL A   1      37.287  34.078  33.411  1.00  0.00     0.029 A 
ATOM     45  N   UNL A   1      38.943  32.579  33.501  1.00  0.00    -0.354 N 
ATOM     46  C   UNL A   1      39.587  29.783  30.268  1.00  0.00     0.074 A 
ATOM     47  C   UNL A   1      38.639  30.000  29.196  1.00  0.00     0.031 C 
ATOM     48  C   UNL A   1      37.901  34.228  34.596  1.00  0.00     0.029 A 
ATOM     49  C   UNL A   1      38.974  33.245  34.702  1.00  0.00     0.049 A 
ATOM     50  H   UNL A   1      39.574  31.859  33.267  1.00  0.00     0.167 HD
ATOM     51  C   UNL A   1      40.554  28.834  30.257  1.00  0.00     0.037 A 
ATOM     52  C   UNL A   1      39.772  33.074  35.773  1.00  0.00     0.037 A 
ATOM     53  C   UNL A   1      41.513  28.641  31.314  1.00  0.00     0.049 A 
ATOM     54  C   UNL A   1      40.839  32.017  35.732  1.00  0.00     0.074 A 
ATOM     55  C   UNL A   1      42.572  27.751  31.368  1.00  0.00     0.029 A 
ATOM     56  N   UNL A   1      41.527  29.351  32.506  1.00  0.00    -0.354 N 
ATOM     57  N   UNL A   1      41.131  31.173  34.774  1.00  0.00    -0.248 NA
ATOM     58  C   UNL A   1      41.693  31.893  36.922  1.00  0.00     0.031 C 
ATOM     59  C   UNL A   1      43.202  27.895  32.608  1.00  0.00     0.029 A 
ATOM     60  C   UNL A   1      42.564  28.905  33.310  1.00  0.00     0.049 A 
ATOM     61  H   UNL A   1      40.894  30.067  32.745  1.00  0.00     0.167 HD
ATOM     62  C   UNL A   1      42.211  30.433  35.232  1.00  0.00     0.074 A 
ATOM     63  C   UNL A   1      42.536  30.940  36.549  1.00  0.00     0.031 C 
ATOM     64  C   UNL A   1      42.875  29.423  34.618  1.00  0.00     0.037 A 
BRANCH  51  65
ATOM     65  C   UNL A   1      40.628  27.929  29.061  1.00  0.00     0.064 A 
ATOM     66  C   UNL A   1      39.842  26.771  28.967  1.00  0.00     0.173 A 
ATOM     67  C   UNL A   1      41.461  28.248  27.978  1.00  0.00     0.173 A 
ATOM     68  F   UNL A   1      39.037  26.416  29.979  1.00  0.00    -0.203 F 
ATOM     69  C   UNL A   1      39.906  25.951  27.842  1.00  0.00     0.198 A 
ATOM     70  C   UNL A   1      41.501  27.442  26.844  1.00  0.00     0.198 A 
ATOM     71  F   UNL A   1      42.227  29.349  28.014  1.00  0.00    -0.203 F 
ATOM     72  F   UNL A   1      39.179  24.826  27.792  1.00  0.00    -0.200 F 
ATOM     73  C   UNL A   1      40.730  26.291  26.779  1.00  0.00     0.200 A 
ATOM     74  F   UNL A   1      42.288  27.777  25.811  1.00  0.00    -0.200 F 
ATOM     75  F   UNL A   1      40.785  25.505  25.694  1.00  0.00    -0.200 F 
ENDBRANCH  51  65
BRANCH  52  76
ATOM     76  C   UNL A   1      39.601  33.942  36.967  1.00  0.00     0.064 A 
ATOM     77  C   UNL A   1      38.833  33.516  38.059  1.00  0.00     0.173 A 
ATOM     78  C   UNL A   1      40.201  35.207  37.043  1.00  0.00     0.173 A 
ATOM     79  F   UNL A   1      38.222  32.323  38.022  1.00  0.00    -0.203 F 
ATOM     80  C   UNL A   1      38.656  34.330  39.175  1.00  0.00     0.198 A 
ATOM     81  C   UNL A   1      40.045  36.009  38.171  1.00  0.00     0.198 A 
ATOM     82  F   UNL A   1      40.949  35.658  36.026  1.00  0.00    -0.203 F 
ATOM     83  F   UNL A   1      37.880  33.917  40.187  1.00  0.00    -0.200 F 
ATOM     84  C   UNL A   1      39.267  35.574  39.233  1.00  0.00     0.200 A 
ATOM     85  F   UNL A   1      40.647  37.205  38.228  1.00  0.00    -0.200 F 
ATOM     86  F   UNL A   1      39.098  36.355  40.309  1.00  0.00    -0.200 F 
ENDBRANCH  52  76
BRANCH  64  87
ATOM     87  C   UNL A   1      44.033  28.818  35.353  1.00  0.00     0.064 A 
ATOM     88  C   UNL A   1      43.863  27.729  36.220  1.00  0.00     0.173 A 
ATOM     89  C   UNL A   1      45.332  29.312  35.163  1.00  0.00     0.173 A 
ATOM     90  F   UNL A   1      42.637  27.232  36.447  1.00  0.00    -0.203 F 
ATOM     91  C   UNL A   1      44.949  27.170  36.888  1.00  0.00     0.198 A 
ATOM     92  C   UNL A   1      46.420  28.733  35.812  1.00  0.00     0.198 A 
ATOM     93  F   UNL A   1      45.549  30.349  34.340  1.00  0.00    -0.203 F 
ATOM     94  F   UNL A   1      44.758  26.159  37.746  1.00  0.00    -0.200 F 
ATOM     95  C   UNL A   1      46.227  27.669  36.678  1.00  0.00     0.200 A 
ATOM     96  F   UNL A   1      47.655  29.209  35.600  1.00  0.00    -0.200 F 
ATOM     97  F   UNL A   1      47.271  27.126  37.319  1.00  0.00    -0.200 F 
ENDBRANCH  64  87
ENDBRANCH  38  39
ENDBRANCH  30  33
ENDBRANCH  28  29
ENDBRANCH   1  28
TORSDOF 12
ENDMDL
MODEL 3
REMARK VINA RESULT:     -13.9      0.896      2.005
REMARK SMILES O=C(Nc1cccc(C(=O)NCCCNC(=O)c2ccc(-c3c4nc(c(-c5c(F)c(F)c(F)c(F)c5F)c5ccc([nH]5)c(-c5c(F)c(F)c(F)c(F)c5F)c5nc(c(-c6c(F)c(F)c(F)c(F)c6F)c6ccc3[nH]6)C=C5)C=C4)cc2)c1)Nc1cc(Cl)c(Cl)cc1Cl
REMARK SMILES IDX 13 1 12 2 11 3 9 4 10 5 8 7 4 8 5 9 81 10 6 11 7 12 3 13
REMARK SMILES IDX 1 14 2 15 82 16 83 19 84 20 90 21 85 22 89 23 91 24 86 25
REMARK SMILES IDX 87 26 88 27 14 28 15 29 16 30 17 32 18 33 19 34 80 35 20 36
REMARK SMILES IDX 79 37 21 38 22 39 23 40 73 41 24 42 78 43 72 44 74 45 25 46
REMARK SMILES IDX 77 47 71 48 70 49 26 51 58 52 38 53 57 54 39 55 42 56 56 57
REMARK SMILES IDX 75 58 40 59 41 60 55 62 76 63 43 64 27 65 28 66 36 67 29 68
REMARK SMILES IDX 30 69 34 70 37 71 31 72 32 73 35 74 33 75 59 76 60 77 68 78
REMARK SMILES IDX 61 79 62 80 66 81 69 82 63 83 64 84 67 85 65 86 44 87 45 88
REMARK SMILES IDX 53 89 46 90 47 91 51 92 54 93 48 94 49 95 52 96 50 97
REMARK H PARENT 11 6 3 17 82 18 15 31 74 50 42 61
REMARK Flexibility Score: inf
ROOT
ATOM      1  C   UNL A   1      31.318  32.322  26.516  1.00  0.00     0.042 C 
ENDROOT
BRANCH   1   2
ATOM      2  C   UNL A   1      31.281  30.806  26.324  1.00  0.00     0.118 C 
BRANCH   2   3
ATOM      3  N   UNL A   1      32.184  30.385  25.270  1.00  0.00    -0.352 N 
ATOM      4  C   UNL A   1      32.368  29.205  24.597  1.00  0.00     0.251 C 
ATOM      5  O   UNL A   1      33.231  29.204  23.717  1.00  0.00    -0.269 OA
ATOM      6  H   UNL A   1      32.794  31.098  24.975  1.00  0.00     0.163 HD
BRANCH   4   7
ATOM      7  C   UNL A   1      31.582  27.957  24.833  1.00  0.00     0.041 A 
ATOM      8  C   UNL A   1      31.089  25.838  25.931  1.00  0.00     0.043 A 
ATOM      9  C   UNL A   1      29.987  25.648  25.098  1.00  0.00     0.026 A 
ATOM     10  C   UNL A   1      31.912  26.956  25.749  1.00  0.00     0.040 A 
ATOM     11  C   UNL A   1      29.656  26.619  24.156  1.00  0.00     0.003 A 
ATOM     12  C   UNL A   1      30.439  27.770  24.037  1.00  0.00     0.014 A 
BRANCH   8  13
ATOM     13  N   UNL A   1      31.351  24.870  26.917  1.00  0.00    -0.308 N 
ATOM     14  O   UNL A   1      32.089  22.917  27.750  1.00  0.00    -0.248 OA
ATOM     15  C   UNL A   1      32.167  23.766  26.867  1.00  0.00     0.323 C 
ATOM     16  N   UNL A   1      33.148  23.807  25.904  1.00  0.00    -0.306 N 
ATOM     17  H   UNL A   1      30.879  25.004  27.771  1.00  0.00     0.171 HD
ATOM     18  H   UNL A   1      33.217  24.632  25.369  1.00  0.00     0.171 HD
BRANCH  16  19
ATOM     19  C   UNL A   1      34.065  22.773  25.610  1.00  0.00     0.063 A 
ATOM     20  C   UNL A   1      35.422  23.095  25.770  1.00  0.00     0.049 A 
ATOM     21  C   UNL A   1      33.723  21.487  25.155  1.00  0.00     0.066 A 
ATOM     22  C   UNL A   1      36.417  22.133  25.567  1.00  0.00     0.061 A 
ATOM     23  C   UNL A   1      34.723  20.527  24.948  1.00  0.00     0.044 A 
ATOM     24  Cl  UNL A   1      32.130  21.059  24.636  1.00  0.00    -0.082 Cl
ATOM     25  Cl  UNL A   1      38.056  22.609  25.832  1.00  0.00    -0.083 Cl
ATOM     26  C   UNL A   1      36.065  20.842  25.170  1.00  0.00     0.061 A 
ATOM     27  Cl  UNL A   1      37.238  19.602  24.908  1.00  0.00    -0.083 Cl
ENDBRANCH  16  19
ENDBRANCH   8  13
ENDBRANCH   4   7
ENDBRANCH   2   3
ENDBRANCH   1   2
BRANCH   1  28
ATOM     28  C   UNL A   1      32.583  32.808  27.223  1.00  0.00     0.118 C 
BRANCH  28  29
ATOM     29  N   UNL A   1      32.464  34.199  27.640  1.00  0.00    -0.352 N 
ATOM     30  C   UNL A   1      33.067  34.874  28.670  1.00  0.00     0.251 C 
ATOM     31  H   UNL A   1      31.850  34.742  27.094  1.00  0.00     0.163 HD
ATOM     32  O   UNL A   1      32.628  35.971  29.006  1.00  0.00    -0.269 OA
BRANCH  30  33
ATOM     33  C   UNL A   1      34.233  34.303  29.380  1.00  0.00     0.039 A 
ATOM     34  C   UNL A   1      34.014  33.598  30.568  1.00  0.00     0.014 A 
ATOM     35  C   UNL A   1      35.538  34.516  28.928  1.00  0.00     0.014 A 
ATOM     36  C   UNL A   1      35.096  33.063  31.272  1.00  0.00     0.010 A 
ATOM     37  C   UNL A   1      36.612  33.929  29.596  1.00  0.00     0.010 A 
ATOM     38  C   UNL A   1      36.401  33.199  30.775  1.00  0.00    -0.014 A 
BRANCH  38  39
ATOM     39  C   UNL A   1      37.554  32.569  31.465  1.00  0.00     0.031 A 
ATOM     40  C   UNL A   1      38.264  31.396  30.849  1.00  0.00     0.074 A 
ATOM     41  C   UNL A   1      37.915  33.014  32.685  1.00  0.00     0.049 A 
ATOM     42  N   UNL A   1      39.234  30.665  31.340  1.00  0.00    -0.248 NA
ATOM     43  C   UNL A   1      37.808  30.973  29.517  1.00  0.00     0.031 C 
ATOM     44  C   UNL A   1      37.274  34.113  33.406  1.00  0.00     0.029 A 
ATOM     45  N   UNL A   1      38.899  32.584  33.540  1.00  0.00    -0.354 N 
ATOM     46  C   UNL A   1      39.490  29.688  30.386  1.00  0.00     0.074 A 
ATOM     47  C   UNL A   1      38.548  29.894  29.307  1.00  0.00     0.031 C 
ATOM     48  C   UNL A   1      37.889  34.283  34.587  1.00  0.00     0.029 A 
ATOM     49  C   UNL A   1      38.941  33.282  34.722  1.00  0.00     0.049 A 
ATOM     50  H   UNL A   1      39.515  31.846  33.327  1.00  0.00     0.167 HD
ATOM     51  C   UNL A   1      40.438  28.719  30.403  1.00  0.00     0.037 A 
ATOM     52  C   UNL A   1      39.735  33.125  35.799  1.00  0.00     0.037 A 
ATOM     53  C   UNL A   1      41.392  28.537  31.467  1.00  0.00     0.049 A 
ATOM     54  C   UNL A   1      40.781  32.047  35.789  1.00  0.00     0.074 A 
ATOM     55  C   UNL A   1      42.433  27.628  31.547  1.00  0.00     0.029 A 
ATOM     56  N   UNL A   1      41.419  29.279  32.639  1.00  0.00    -0.354 N 
ATOM     57  N   UNL A   1      41.056  31.170  34.855  1.00  0.00    -0.248 NA
ATOM     58  C   UNL A   1      41.631  31.938  36.983  1.00  0.00     0.031 C 
ATOM     59  C   UNL A   1      43.065  27.793  32.784  1.00  0.00     0.029 A 
ATOM     60  C   UNL A   1      42.446  28.835  33.456  1.00  0.00     0.049 A 
ATOM     61  H   UNL A   1      40.800  30.014  32.857  1.00  0.00     0.167 HD
ATOM     62  C   UNL A   1      42.121  30.422  35.335  1.00  0.00     0.074 A 
ATOM     63  C   UNL A   1      42.455  30.959  36.638  1.00  0.00     0.031 C 
ATOM     64  C   UNL A   1      42.765  29.382  34.750  1.00  0.00     0.037 A 
BRANCH  51  65
ATOM     65  C   UNL A   1      40.496  27.781  29.233  1.00  0.00     0.064 A 
ATOM     66  C   UNL A   1      41.392  27.985  28.171  1.00  0.00     0.173 A 
ATOM     67  C   UNL A   1      39.679  26.641  29.193  1.00  0.00     0.173 A 
ATOM     68  F   UNL A   1      42.187  29.064  28.157  1.00  0.00    -0.203 F 
ATOM     69  C   UNL A   1      41.449  27.095  27.101  1.00  0.00     0.198 A 
ATOM     70  C   UNL A   1      39.759  25.739  28.135  1.00  0.00     0.198 A 
ATOM     71  F   UNL A   1      38.811  26.395  30.185  1.00  0.00    -0.203 F 
ATOM     72  F   UNL A   1      42.281  27.333  26.078  1.00  0.00    -0.200 F 
ATOM     73  C   UNL A   1      40.638  25.970  27.087  1.00  0.00     0.200 A 
ATOM     74  F   UNL A   1      38.984  24.645  28.128  1.00  0.00    -0.200 F 
ATOM     75  F   UNL A   1      40.700  25.111  26.060  1.00  0.00    -0.200 F 
ENDBRANCH  51  65
BRANCH  52  76
ATOM     76  C   UNL A   1      39.580  34.029  36.968  1.00  0.00     0.064 A 
ATOM     77  C   UNL A   1      40.208  35.282  36.994  1.00  0.00     0.173 A 
ATOM     78  C   UNL A   1      38.803  33.664  38.076  1.00  0.00     0.173 A 
ATOM     79  F   UNL A   1      40.980  35.665  35.966  1.00  0.00    -0.203 F 
ATOM     80  C   UNL A   1      40.080  36.127  38.093  1.00  0.00     0.198 A 
ATOM     81  C   UNL A   1      38.654  34.522  39.163  1.00  0.00     0.198 A 
ATOM     82  F   UNL A   1      38.179  32.478  38.097  1.00  0.00    -0.203 F 
ATOM     83  F   UNL A   1      40.727  37.301  38.111  1.00  0.00    -0.200 F 
ATOM     84  C   UNL A   1      39.298  35.750  39.175  1.00  0.00     0.200 A 
ATOM     85  F   UNL A   1      37.887  34.158  40.200  1.00  0.00    -0.200 F 
ATOM     86  F   UNL A   1      39.173  36.566  40.230  1.00  0.00    -0.200 F 
ENDBRANCH  52  76
BRANCH  64  87
ATOM     87  C   UNL A   1      43.911  28.775  35.504  1.00  0.00     0.064 A 
ATOM     88  C   UNL A   1      45.229  29.215  35.314  1.00  0.00     0.173 A 
ATOM     89  C   UNL A   1      43.683  27.763  36.449  1.00  0.00     0.173 A 
ATOM     90  F   UNL A   1      45.498  30.168  34.409  1.00  0.00    -0.203 F 
ATOM     91  C   UNL A   1      46.281  28.649  36.027  1.00  0.00     0.198 A 
ATOM     92  C   UNL A   1      44.735  27.218  37.181  1.00  0.00     0.198 A 
ATOM     93  F   UNL A   1      42.440  27.311  36.671  1.00  0.00    -0.203 F 
ATOM     94  F   UNL A   1      47.538  29.053  35.799  1.00  0.00    -0.200 F 
ATOM     95  C   UNL A   1      46.032  27.656  36.965  1.00  0.00     0.200 A 
ATOM     96  F   UNL A   1      44.492  26.268  38.093  1.00  0.00    -0.200 F 
ATOM     97  F   UNL A   1      47.047  27.116  37.654  1.00  0.00    -0.200 F 
ENDBRANCH  64  87
ENDBRANCH  38  39
ENDBRANCH  30  33
ENDBRANCH  28  29
ENDBRANCH   1  28
TORSDOF 12
ENDMDL
