MODEL 1
REMARK VINA RESULT:     -12.0      0.000      0.000
REMARK SMILES C[C@]([NH3+])(C(=O)N1[C@@H](C(=O)NCCCNC(=O)c2ccc(-c3c4nc(c(-c5c(F)c(F)c(F)c(F)c5F)c5ccc([nH]5)c(-c5c(F)c(F)c(F)c(F)c5F)c5nc(c(-c6c(F)c(F)c(F)c(F)c6F)c6ccc3[nH]6)C=C5)C=C4)cc2)C[C@H]2CCCC[C@@H]21)C(F)(F)F
REMARK SMILES IDX 11 1 10 2 8 3 9 4 7 6 6 7 86 8 80 9 81 10 85 11 82 12 84 13
REMARK SMILES IDX 83 14 4 15 5 16 2 17 1 18 87 19 88 20 89 21 90 22 3 23 12 27
REMARK SMILES IDX 13 28 14 29 15 30 16 32 17 33 18 34 79 35 19 36 78 37 20 38
REMARK SMILES IDX 21 39 22 40 72 41 23 42 77 43 71 44 73 45 24 46 76 47 70 48
REMARK SMILES IDX 69 49 25 51 57 52 37 53 56 54 38 55 41 56 55 57 74 58 39 59
REMARK SMILES IDX 40 60 54 62 75 63 42 64 26 65 27 66 35 67 28 68 29 69 33 70
REMARK SMILES IDX 36 71 30 72 31 73 34 74 32 75 58 76 59 77 67 78 60 79 61 80
REMARK SMILES IDX 65 81 68 82 62 83 63 84 66 85 64 86 43 87 44 88 52 89 45 90
REMARK SMILES IDX 46 91 50 92 53 93 47 94 48 95 51 96 49 97
REMARK H PARENT 10 5 3 24 3 25 3 26 14 31 73 50 41 61
REMARK Flexibility Score: inf
ROOT
ATOM      1  C   UNL A   1      35.095  22.774  23.951  1.00  0.00     0.117 C 
ENDROOT
BRANCH   1   2
ATOM      2  N   UNL A   1      34.470  23.314  22.763  1.00  0.00    -0.354 N 
ATOM      3  C   UNL A   1      33.604  24.351  22.569  1.00  0.00     0.242 C 
ATOM      4  O   UNL A   1      33.215  24.515  21.406  1.00  0.00    -0.273 OA
ATOM      5  H   UNL A   1      34.717  22.844  21.934  1.00  0.00     0.163 HD
BRANCH   3   6
ATOM      6  C   UNL A   1      33.071  25.286  23.701  1.00  0.00     0.175 C 
ATOM      7  N   UNL A   1      31.721  24.964  24.206  1.00  0.00    -0.322 N 
ATOM      8  C   UNL A   1      30.751  25.889  23.673  1.00  0.00     0.089 C 
ATOM      9  C   UNL A   1      32.996  26.754  23.249  1.00  0.00     0.041 C 
ATOM     10  C   UNL A   1      31.572  27.182  23.594  1.00  0.00     0.014 C 
ATOM     11  C   UNL A   1      29.454  26.207  24.410  1.00  0.00     0.025 C 
ATOM     12  C   UNL A   1      30.897  28.189  22.680  1.00  0.00     0.006 C 
ATOM     13  C   UNL A   1      28.679  27.246  23.575  1.00  0.00     0.002 C 
ATOM     14  C   UNL A   1      29.500  28.501  23.229  1.00  0.00     0.000 C 
BRANCH   7  15
ATOM     15  C   UNL A   1      31.341  23.807  24.865  1.00  0.00     0.294 C 
ATOM     16  O   UNL A   1      30.808  22.899  24.224  1.00  0.00    -0.267 OA
BRANCH  15  17
ATOM     17  C   UNL A   1      31.386  23.802  26.414  1.00  0.00     0.267 C 
ATOM     18  C   UNL A   1      30.145  23.046  26.930  1.00  0.00     0.100 C 
BRANCH  17  19
ATOM     19  C   UNL A   1      32.648  22.993  26.828  1.00  0.00     0.453 C 
ATOM     20  F   UNL A   1      32.889  21.932  26.029  1.00  0.00    -0.164 F 
ATOM     21  F   UNL A   1      33.744  23.802  26.724  1.00  0.00    -0.164 F 
ATOM     22  F   UNL A   1      32.611  22.575  28.111  1.00  0.00    -0.164 F 
ENDBRANCH  17  19
BRANCH  17  23
ATOM     23  N   UNL A   1      31.373  25.189  26.981  1.00  0.00    -0.337 N 
ATOM     24  H   UNL A   1      32.133  25.288  27.654  1.00  0.00     0.345 HD
ATOM     25  H   UNL A   1      30.482  25.359  27.446  1.00  0.00     0.345 HD
ATOM     26  H   UNL A   1      31.497  25.866  26.227  1.00  0.00     0.345 HD
ENDBRANCH  17  23
ENDBRANCH  15  17
ENDBRANCH   7  15
ENDBRANCH   3   6
ENDBRANCH   1   2
BRANCH   1  27
ATOM     27  C   UNL A   1      36.486  23.322  24.215  1.00  0.00     0.042 C 
BRANCH  27  28
ATOM     28  C   UNL A   1      36.845  23.345  25.684  1.00  0.00     0.118 C 
BRANCH  28  29
ATOM     29  N   UNL A   1      37.970  22.469  25.991  1.00  0.00    -0.352 N 
ATOM     30  C   UNL A   1      39.226  22.767  26.460  1.00  0.00     0.251 C 
ATOM     31  H   UNL A   1      37.804  21.511  25.837  1.00  0.00     0.163 HD
ATOM     32  O   UNL A   1      40.105  21.909  26.448  1.00  0.00    -0.269 OA
BRANCH  30  33
ATOM     33  C   UNL A   1      39.528  24.123  26.964  1.00  0.00     0.039 A 
ATOM     34  C   UNL A   1      39.252  24.438  28.296  1.00  0.00     0.014 A 
ATOM     35  C   UNL A   1      40.078  25.087  26.117  1.00  0.00     0.014 A 
ATOM     36  C   UNL A   1      39.597  25.697  28.794  1.00  0.00     0.010 A 
ATOM     37  C   UNL A   1      40.532  26.287  26.641  1.00  0.00     0.010 A 
ATOM     38  C   UNL A   1      40.277  26.616  27.979  1.00  0.00    -0.014 A 
BRANCH  38  39
ATOM     39  C   UNL A   1      40.696  27.950  28.475  1.00  0.00     0.031 A 
ATOM     40  C   UNL A   1      42.142  28.191  28.814  1.00  0.00     0.074 A 
ATOM     41  C   UNL A   1      39.775  28.905  28.703  1.00  0.00     0.049 A 
ATOM     42  N   UNL A   1      42.700  29.228  29.386  1.00  0.00    -0.248 NA
ATOM     43  C   UNL A   1      43.083  27.100  28.507  1.00  0.00     0.031 C 
ATOM     44  C   UNL A   1      38.338  28.775  28.455  1.00  0.00     0.029 A 
ATOM     45  N   UNL A   1      39.910  30.172  29.213  1.00  0.00    -0.354 N 
ATOM     46  C   UNL A   1      44.043  28.902  29.526  1.00  0.00     0.074 A 
ATOM     47  C   UNL A   1      44.205  27.548  29.047  1.00  0.00     0.031 C 
ATOM     48  C   UNL A   1      37.729  29.923  28.787  1.00  0.00     0.029 A 
ATOM     49  C   UNL A   1      38.721  30.852  29.320  1.00  0.00     0.049 A 
ATOM     50  H   UNL A   1      40.776  30.557  29.476  1.00  0.00     0.167 HD
ATOM     51  C   UNL A   1      45.056  29.674  29.986  1.00  0.00     0.037 A 
ATOM     52  C   UNL A   1      38.463  32.082  29.805  1.00  0.00     0.037 A 
ATOM     53  C   UNL A   1      44.891  31.030  30.433  1.00  0.00     0.049 A 
ATOM     54  C   UNL A   1      39.605  32.914  30.325  1.00  0.00     0.074 A 
ATOM     55  C   UNL A   1      45.856  31.920  30.864  1.00  0.00     0.029 A 
ATOM     56  N   UNL A   1      43.674  31.693  30.502  1.00  0.00    -0.354 N 
ATOM     57  N   UNL A   1      40.881  32.620  30.396  1.00  0.00    -0.248 NA
ATOM     58  C   UNL A   1      39.271  34.255  30.825  1.00  0.00     0.031 C 
ATOM     59  C   UNL A   1      45.219  33.103  31.248  1.00  0.00     0.029 A 
ATOM     60  C   UNL A   1      43.862  32.975  30.992  1.00  0.00     0.049 A 
ATOM     61  H   UNL A   1      42.805  31.310  30.242  1.00  0.00     0.167 HD
ATOM     62  C   UNL A   1      41.505  33.749  30.912  1.00  0.00     0.074 A 
ATOM     63  C   UNL A   1      40.468  34.737  31.126  1.00  0.00     0.031 C 
ATOM     64  C   UNL A   1      42.819  33.950  31.182  1.00  0.00     0.037 A 
BRANCH  51  65
ATOM     65  C   UNL A   1      46.430  29.065  30.026  1.00  0.00     0.064 A 
ATOM     66  C   UNL A   1      46.908  28.394  31.163  1.00  0.00     0.173 A 
ATOM     67  C   UNL A   1      47.271  29.133  28.906  1.00  0.00     0.173 A 
ATOM     68  F   UNL A   1      46.149  28.311  32.267  1.00  0.00    -0.203 F 
ATOM     69  C   UNL A   1      48.188  27.848  31.189  1.00  0.00     0.198 A 
ATOM     70  C   UNL A   1      48.537  28.553  28.924  1.00  0.00     0.198 A 
ATOM     71  F   UNL A   1      46.866  29.758  27.791  1.00  0.00    -0.203 F 
ATOM     72  F   UNL A   1      48.644  27.267  32.309  1.00  0.00    -0.200 F 
ATOM     73  C   UNL A   1      48.999  27.920  30.067  1.00  0.00     0.200 A 
ATOM     74  F   UNL A   1      49.313  28.611  27.832  1.00  0.00    -0.200 F 
ATOM     75  F   UNL A   1      50.227  27.388  30.092  1.00  0.00    -0.200 F 
ENDBRANCH  51  65
BRANCH  52  76
ATOM     76  C   UNL A   1      37.073  32.608  29.802  1.00  0.00     0.064 A 
ATOM     77  C   UNL A   1      36.573  33.309  28.695  1.00  0.00     0.173 A 
ATOM     78  C   UNL A   1      36.219  32.432  30.900  1.00  0.00     0.173 A 
ATOM     79  F   UNL A   1      37.357  33.518  27.627  1.00  0.00    -0.203 F 
ATOM     80  C   UNL A   1      35.284  33.835  28.696  1.00  0.00     0.198 A 
ATOM     81  C   UNL A   1      34.918  32.932  30.888  1.00  0.00     0.198 A 
ATOM     82  F   UNL A   1      36.643  31.763  31.981  1.00  0.00    -0.203 F 
ATOM     83  F   UNL A   1      34.850  34.545  27.646  1.00  0.00    -0.200 F 
ATOM     84  C   UNL A   1      34.455  33.643  29.791  1.00  0.00     0.200 A 
ATOM     85  F   UNL A   1      34.114  32.728  31.940  1.00  0.00    -0.200 F 
ATOM     86  F   UNL A   1      33.214  34.147  29.792  1.00  0.00    -0.200 F 
ENDBRANCH  52  76
BRANCH  64  87
ATOM     87  C   UNL A   1      43.221  35.307  31.684  1.00  0.00     0.064 A 
ATOM     88  C   UNL A   1      43.667  36.316  30.818  1.00  0.00     0.173 A 
ATOM     89  C   UNL A   1      43.108  35.616  33.048  1.00  0.00     0.173 A 
ATOM     90  F   UNL A   1      43.807  36.068  29.507  1.00  0.00    -0.203 F 
ATOM     91  C   UNL A   1      44.010  37.575  31.304  1.00  0.00     0.198 A 
ATOM     92  C   UNL A   1      43.416  36.886  33.525  1.00  0.00     0.198 A 
ATOM     93  F   UNL A   1      42.677  34.689  33.918  1.00  0.00    -0.203 F 
ATOM     94  F   UNL A   1      44.483  38.508  30.466  1.00  0.00    -0.200 F 
ATOM     95  C   UNL A   1      43.875  37.862  32.654  1.00  0.00     0.200 A 
ATOM     96  F   UNL A   1      43.268  37.165  34.827  1.00  0.00    -0.200 F 
ATOM     97  F   UNL A   1      44.193  39.078  33.118  1.00  0.00    -0.200 F 
ENDBRANCH  64  87
ENDBRANCH  38  39
ENDBRANCH  30  33
ENDBRANCH  28  29
ENDBRANCH  27  28
ENDBRANCH   1  27
TORSDOF 14
ENDMDL
MODEL 2
REMARK VINA RESULT:     -11.9      4.553      8.247
REMARK SMILES C[C@]([NH3+])(C(=O)N1[C@@H](C(=O)NCCCNC(=O)c2ccc(-c3c4nc(c(-c5c(F)c(F)c(F)c(F)c5F)c5ccc([nH]5)c(-c5c(F)c(F)c(F)c(F)c5F)c5nc(c(-c6c(F)c(F)c(F)c(F)c6F)c6ccc3[nH]6)C=C5)C=C4)cc2)C[C@H]2CCCC[C@@H]21)C(F)(F)F
REMARK SMILES IDX 11 1 10 2 8 3 9 4 7 6 6 7 86 8 80 9 81 10 85 11 82 12 84 13
REMARK SMILES IDX 83 14 4 15 5 16 2 17 1 18 87 19 88 20 89 21 90 22 3 23 12 27
REMARK SMILES IDX 13 28 14 29 15 30 16 32 17 33 18 34 79 35 19 36 78 37 20 38
REMARK SMILES IDX 21 39 22 40 72 41 23 42 77 43 71 44 73 45 24 46 76 47 70 48
REMARK SMILES IDX 69 49 25 51 57 52 37 53 56 54 38 55 41 56 55 57 74 58 39 59
REMARK SMILES IDX 40 60 54 62 75 63 42 64 26 65 27 66 35 67 28 68 29 69 33 70
REMARK SMILES IDX 36 71 30 72 31 73 34 74 32 75 58 76 59 77 67 78 60 79 61 80
REMARK SMILES IDX 65 81 68 82 62 83 63 84 66 85 64 86 43 87 44 88 52 89 45 90
REMARK SMILES IDX 46 91 50 92 53 93 47 94 48 95 51 96 49 97
REMARK H PARENT 10 5 3 24 3 25 3 26 14 31 73 50 41 61
REMARK Flexibility Score: inf
ROOT
ATOM      1  C   UNL A   1      31.727  30.829  26.170  1.00  0.00     0.117 C 
ENDROOT
BRANCH   1   2
ATOM      2  N   UNL A   1      31.610  29.728  27.103  1.00  0.00    -0.354 N 
ATOM      3  C   UNL A   1      31.995  28.421  27.036  1.00  0.00     0.242 C 
ATOM      4  O   UNL A   1      31.688  27.722  28.009  1.00  0.00    -0.273 OA
ATOM      5  H   UNL A   1      31.167  29.969  27.949  1.00  0.00     0.163 HD
BRANCH   3   6
ATOM      6  C   UNL A   1      32.744  27.776  25.827  1.00  0.00     0.175 C 
ATOM      7  N   UNL A   1      31.910  26.948  24.933  1.00  0.00    -0.322 N 
ATOM      8  C   UNL A   1      32.145  25.546  25.181  1.00  0.00     0.089 C 
ATOM      9  C   UNL A   1      33.890  26.856  26.282  1.00  0.00     0.041 C 
ATOM     10  C   UNL A   1      33.636  25.545  25.542  1.00  0.00     0.014 C 
ATOM     11  C   UNL A   1      31.929  24.491  24.102  1.00  0.00     0.025 C 
ATOM     12  C   UNL A   1      34.015  24.255  26.245  1.00  0.00     0.006 C 
ATOM     13  C   UNL A   1      32.302  23.120  24.700  1.00  0.00     0.002 C 
ATOM     14  C   UNL A   1      33.712  23.074  25.314  1.00  0.00     0.000 C 
BRANCH   7  15
ATOM     15  C   UNL A   1      30.851  27.384  24.155  1.00  0.00     0.294 C 
ATOM     16  O   UNL A   1      29.706  27.047  24.458  1.00  0.00    -0.267 OA
BRANCH  15  17
ATOM     17  C   UNL A   1      31.174  28.074  22.805  1.00  0.00     0.267 C 
ATOM     18  C   UNL A   1      31.065  27.018  21.686  1.00  0.00     0.100 C 
BRANCH  17  19
ATOM     19  C   UNL A   1      30.069  29.142  22.568  1.00  0.00     0.453 C 
ATOM     20  F   UNL A   1      30.333  29.964  21.531  1.00  0.00    -0.164 F 
ATOM     21  F   UNL A   1      28.901  28.505  22.257  1.00  0.00    -0.164 F 
ATOM     22  F   UNL A   1      29.809  29.888  23.663  1.00  0.00    -0.164 F 
ENDBRANCH  17  19
BRANCH  17  23
ATOM     23  N   UNL A   1      32.556  28.653  22.786  1.00  0.00    -0.337 N 
ATOM     24  H   UNL A   1      32.647  29.340  23.534  1.00  0.00     0.345 HD
ATOM     25  H   UNL A   1      32.725  29.104  21.887  1.00  0.00     0.345 HD
ATOM     26  H   UNL A   1      33.239  27.907  22.925  1.00  0.00     0.345 HD
ENDBRANCH  17  23
ENDBRANCH  15  17
ENDBRANCH   7  15
ENDBRANCH   3   6
ENDBRANCH   1   2
BRANCH   1  27
ATOM     27  C   UNL A   1      31.472  32.189  26.794  1.00  0.00     0.042 C 
BRANCH  27  28
ATOM     28  C   UNL A   1      32.742  32.899  27.209  1.00  0.00     0.118 C 
BRANCH  28  29
ATOM     29  N   UNL A   1      32.493  34.273  27.634  1.00  0.00    -0.352 N 
ATOM     30  C   UNL A   1      33.024  34.989  28.678  1.00  0.00     0.251 C 
ATOM     31  H   UNL A   1      31.839  34.763  27.086  1.00  0.00     0.163 HD
ATOM     32  O   UNL A   1      32.523  36.063  29.001  1.00  0.00    -0.269 OA
BRANCH  30  33
ATOM     33  C   UNL A   1      34.186  34.464  29.424  1.00  0.00     0.039 A 
ATOM     34  C   UNL A   1      33.984  33.822  30.647  1.00  0.00     0.014 A 
ATOM     35  C   UNL A   1      35.478  34.612  28.917  1.00  0.00     0.014 A 
ATOM     36  C   UNL A   1      35.072  33.266  31.324  1.00  0.00     0.010 A 
ATOM     37  C   UNL A   1      36.536  33.954  29.524  1.00  0.00     0.010 A 
ATOM     38  C   UNL A   1      36.351  33.293  30.746  1.00  0.00    -0.014 A 
BRANCH  38  39
ATOM     39  C   UNL A   1      37.529  32.683  31.410  1.00  0.00     0.031 A 
ATOM     40  C   UNL A   1      38.245  31.541  30.740  1.00  0.00     0.074 A 
ATOM     41  C   UNL A   1      37.897  33.089  32.639  1.00  0.00     0.049 A 
ATOM     42  N   UNL A   1      39.204  30.777  31.199  1.00  0.00    -0.248 NA
ATOM     43  C   UNL A   1      37.792  31.181  29.386  1.00  0.00     0.031 C 
ATOM     44  C   UNL A   1      37.253  34.156  33.408  1.00  0.00     0.029 A 
ATOM     45  N   UNL A   1      38.894  32.639  33.467  1.00  0.00    -0.354 N 
ATOM     46  C   UNL A   1      39.447  29.840  30.204  1.00  0.00     0.074 A 
ATOM     47  C   UNL A   1      38.491  30.083  29.147  1.00  0.00     0.031 C 
ATOM     48  C   UNL A   1      37.888  34.296  34.582  1.00  0.00     0.029 A 
ATOM     49  C   UNL A   1      38.948  33.297  34.672  1.00  0.00     0.049 A 
ATOM     50  H   UNL A   1      39.512  31.914  33.221  1.00  0.00     0.167 HD
ATOM     51  C   UNL A   1      40.402  28.881  30.162  1.00  0.00     0.037 A 
ATOM     52  C   UNL A   1      39.755  33.104  35.734  1.00  0.00     0.037 A 
ATOM     53  C   UNL A   1      41.368  28.666  31.204  1.00  0.00     0.049 A 
ATOM     54  C   UNL A   1      40.798  32.021  35.668  1.00  0.00     0.074 A 
ATOM     55  C   UNL A   1      42.413  27.762  31.239  1.00  0.00     0.029 A 
ATOM     56  N   UNL A   1      41.406  29.370  32.399  1.00  0.00    -0.354 N 
ATOM     57  N   UNL A   1      41.061  31.179  34.697  1.00  0.00    -0.248 NA
ATOM     58  C   UNL A   1      41.665  31.866  36.844  1.00  0.00     0.031 C 
ATOM     59  C   UNL A   1      43.050  27.879  32.477  1.00  0.00     0.029 A 
ATOM     60  C   UNL A   1      42.444  28.903  33.189  1.00  0.00     0.049 A 
ATOM     61  H   UNL A   1      40.788  30.094  32.650  1.00  0.00     0.167 HD
ATOM     62  C   UNL A   1      42.143  30.423  35.128  1.00  0.00     0.074 A 
ATOM     63  C   UNL A   1      42.494  30.912  36.445  1.00  0.00     0.031 C 
ATOM     64  C   UNL A   1      42.789  29.415  34.491  1.00  0.00     0.037 A 
BRANCH  51  65
ATOM     65  C   UNL A   1      40.444  27.996  28.948  1.00  0.00     0.064 A 
ATOM     66  C   UNL A   1      41.215  28.324  27.821  1.00  0.00     0.173 A 
ATOM     67  C   UNL A   1      39.724  26.793  28.918  1.00  0.00     0.173 A 
ATOM     68  F   UNL A   1      41.913  29.469  27.790  1.00  0.00    -0.203 F 
ATOM     69  C   UNL A   1      41.233  27.500  26.699  1.00  0.00     0.198 A 
ATOM     70  C   UNL A   1      39.774  25.953  27.809  1.00  0.00     0.198 A 
ATOM     71  F   UNL A   1      38.974  26.426  29.968  1.00  0.00    -0.203 F 
ATOM     72  F   UNL A   1      41.928  27.866  25.612  1.00  0.00    -0.200 F 
ATOM     73  C   UNL A   1      40.520  26.311  26.697  1.00  0.00     0.200 A 
ATOM     74  F   UNL A   1      39.096  24.797  27.815  1.00  0.00    -0.200 F 
ATOM     75  F   UNL A   1      40.544  25.516  25.619  1.00  0.00    -0.200 F 
ENDBRANCH  51  65
BRANCH  52  76
ATOM     76  C   UNL A   1      39.624  33.967  36.936  1.00  0.00     0.064 A 
ATOM     77  C   UNL A   1      38.852  33.559  38.034  1.00  0.00     0.173 A 
ATOM     78  C   UNL A   1      40.257  35.216  37.015  1.00  0.00     0.173 A 
ATOM     79  F   UNL A   1      38.213  32.380  38.000  1.00  0.00    -0.203 F 
ATOM     80  C   UNL A   1      38.696  34.377  39.150  1.00  0.00     0.198 A 
ATOM     81  C   UNL A   1      40.126  36.020  38.146  1.00  0.00     0.198 A 
ATOM     82  F   UNL A   1      41.013  35.653  35.998  1.00  0.00    -0.203 F 
ATOM     83  F   UNL A   1      37.910  33.983  40.162  1.00  0.00    -0.200 F 
ATOM     84  C   UNL A   1      39.336  35.605  39.208  1.00  0.00     0.200 A 
ATOM     85  F   UNL A   1      40.761  37.198  38.206  1.00  0.00    -0.200 F 
ATOM     86  F   UNL A   1      39.189  36.390  40.283  1.00  0.00    -0.200 F 
ENDBRANCH  52  76
BRANCH  64  87
ATOM     87  C   UNL A   1      43.978  28.811  35.181  1.00  0.00     0.064 A 
ATOM     88  C   UNL A   1      45.273  29.322  35.011  1.00  0.00     0.173 A 
ATOM     89  C   UNL A   1      43.807  27.736  36.066  1.00  0.00     0.173 A 
ATOM     90  F   UNL A   1      45.492  30.340  34.165  1.00  0.00    -0.203 F 
ATOM     91  C   UNL A   1      46.357  28.760  35.682  1.00  0.00     0.198 A 
ATOM     92  C   UNL A   1      44.886  27.201  36.763  1.00  0.00     0.198 A 
ATOM     93  F   UNL A   1      42.588  27.215  36.271  1.00  0.00    -0.203 F 
ATOM     94  F   UNL A   1      47.592  29.232  35.466  1.00  0.00    -0.200 F 
ATOM     95  C   UNL A   1      46.161  27.708  36.564  1.00  0.00     0.200 A 
ATOM     96  F   UNL A   1      44.692  26.196  37.627  1.00  0.00    -0.200 F 
ATOM     97  F   UNL A   1      47.203  27.178  37.219  1.00  0.00    -0.200 F 
ENDBRANCH  64  87
ENDBRANCH  38  39
ENDBRANCH  30  33
ENDBRANCH  28  29
ENDBRANCH  27  28
ENDBRANCH   1  27
TORSDOF 14
ENDMDL
MODEL 3
REMARK VINA RESULT:     -11.8      4.099      8.861
REMARK SMILES C[C@]([NH3+])(C(=O)N1[C@@H](C(=O)NCCCNC(=O)c2ccc(-c3c4nc(c(-c5c(F)c(F)c(F)c(F)c5F)c5ccc([nH]5)c(-c5c(F)c(F)c(F)c(F)c5F)c5nc(c(-c6c(F)c(F)c(F)c(F)c6F)c6ccc3[nH]6)C=C5)C=C4)cc2)C[C@H]2CCCC[C@@H]21)C(F)(F)F
REMARK SMILES IDX 11 1 10 2 8 3 9 4 7 6 6 7 86 8 80 9 81 10 85 11 82 12 84 13
REMARK SMILES IDX 83 14 4 15 5 16 2 17 1 18 87 19 88 20 89 21 90 22 3 23 12 27
REMARK SMILES IDX 13 28 14 29 15 30 16 32 17 33 18 34 79 35 19 36 78 37 20 38
REMARK SMILES IDX 21 39 22 40 72 41 23 42 77 43 71 44 73 45 24 46 76 47 70 48
REMARK SMILES IDX 69 49 25 51 57 52 37 53 56 54 38 55 41 56 55 57 74 58 39 59
REMARK SMILES IDX 40 60 54 62 75 63 42 64 26 65 27 66 35 67 28 68 29 69 33 70
REMARK SMILES IDX 36 71 30 72 31 73 34 74 32 75 58 76 59 77 67 78 60 79 61 80
REMARK SMILES IDX 65 81 68 82 62 83 63 84 66 85 64 86 43 87 44 88 52 89 45 90
REMARK SMILES IDX 46 91 50 92 53 93 47 94 48 95 51 96 49 97
REMARK H PARENT 10 5 3 24 3 25 3 26 14 31 73 50 41 61
REMARK Flexibility Score: inf
ROOT
ATOM      1  C   UNL A   1      32.335  27.661  27.060  1.00  0.00     0.117 C 
ENDROOT
BRANCH   1   2
ATOM      2  N   UNL A   1      31.361  26.590  27.038  1.00  0.00    -0.354 N 
ATOM      3  C   UNL A   1      31.385  25.335  26.505  1.00  0.00     0.242 C 
ATOM      4  O   UNL A   1      30.341  24.682  26.623  1.00  0.00    -0.273 OA
ATOM      5  H   UNL A   1      30.518  26.810  27.497  1.00  0.00     0.163 HD
BRANCH   3   6
ATOM      6  C   UNL A   1      32.604  24.714  25.751  1.00  0.00     0.175 C 
ATOM      7  N   UNL A   1      32.311  24.181  24.405  1.00  0.00    -0.322 N 
ATOM      8  C   UNL A   1      32.238  22.740  24.439  1.00  0.00     0.089 C 
ATOM      9  C   UNL A   1      33.225  23.540  26.527  1.00  0.00     0.041 C 
ATOM     10  C   UNL A   1      33.287  22.406  25.507  1.00  0.00     0.014 C 
ATOM     11  C   UNL A   1      32.539  21.890  23.211  1.00  0.00     0.025 C 
ATOM     12  C   UNL A   1      33.098  20.989  26.017  1.00  0.00     0.006 C 
ATOM     13  C   UNL A   1      32.394  20.409  23.613  1.00  0.00     0.002 C 
ATOM     14  C   UNL A   1      33.234  20.015  24.840  1.00  0.00     0.000 C 
BRANCH   7  15
ATOM     15  C   UNL A   1      31.891  24.907  23.304  1.00  0.00     0.294 C 
ATOM     16  O   UNL A   1      30.742  24.753  22.887  1.00  0.00    -0.267 OA
BRANCH  15  17
ATOM     17  C   UNL A   1      32.956  25.698  22.503  1.00  0.00     0.267 C 
ATOM     18  C   UNL A   1      32.512  25.745  21.027  1.00  0.00     0.100 C 
BRANCH  17  19
ATOM     19  C   UNL A   1      32.946  27.153  23.053  1.00  0.00     0.453 C 
ATOM     20  F   UNL A   1      31.800  27.479  23.686  1.00  0.00    -0.164 F 
ATOM     21  F   UNL A   1      33.940  27.279  23.983  1.00  0.00    -0.164 F 
ATOM     22  F   UNL A   1      33.201  28.080  22.104  1.00  0.00    -0.164 F 
ENDBRANCH  17  19
BRANCH  17  23
ATOM     23  N   UNL A   1      34.308  25.057  22.579  1.00  0.00    -0.337 N 
ATOM     24  H   UNL A   1      34.200  24.051  22.706  1.00  0.00     0.345 HD
ATOM     25  H   UNL A   1      34.826  25.446  23.367  1.00  0.00     0.345 HD
ATOM     26  H   UNL A   1      34.818  25.238  21.714  1.00  0.00     0.345 HD
ENDBRANCH  17  23
ENDBRANCH  15  17
ENDBRANCH   7  15
ENDBRANCH   3   6
ENDBRANCH   1   2
BRANCH   1  27
ATOM     27  C   UNL A   1      31.791  28.993  26.576  1.00  0.00     0.042 C 
BRANCH  27  28
ATOM     28  C   UNL A   1      32.853  29.879  25.962  1.00  0.00     0.118 C 
BRANCH  28  29
ATOM     29  N   UNL A   1      32.692  31.279  26.344  1.00  0.00    -0.352 N 
ATOM     30  C   UNL A   1      33.369  32.028  27.274  1.00  0.00     0.251 C 
ATOM     31  H   UNL A   1      31.986  31.762  25.858  1.00  0.00     0.163 HD
ATOM     32  O   UNL A   1      32.939  33.131  27.602  1.00  0.00    -0.269 OA
BRANCH  30  33
ATOM     33  C   UNL A   1      34.603  31.505  27.895  1.00  0.00     0.039 A 
ATOM     34  C   UNL A   1      35.718  32.338  28.015  1.00  0.00     0.014 A 
ATOM     35  C   UNL A   1      34.662  30.188  28.353  1.00  0.00     0.014 A 
ATOM     36  C   UNL A   1      36.865  31.868  28.660  1.00  0.00     0.010 A 
ATOM     37  C   UNL A   1      35.750  29.766  29.101  1.00  0.00     0.010 A 
ATOM     38  C   UNL A   1      36.873  30.591  29.244  1.00  0.00    -0.014 A 
BRANCH  38  39
ATOM     39  C   UNL A   1      38.054  30.065  29.971  1.00  0.00     0.031 A 
ATOM     40  C   UNL A   1      38.334  30.545  31.370  1.00  0.00     0.074 A 
ATOM     41  C   UNL A   1      38.914  29.234  29.351  1.00  0.00     0.049 A 
ATOM     42  N   UNL A   1      39.375  30.323  32.132  1.00  0.00    -0.248 NA
ATOM     43  C   UNL A   1      37.327  31.430  31.979  1.00  0.00     0.031 C 
ATOM     44  C   UNL A   1      38.772  28.734  27.983  1.00  0.00     0.029 A 
ATOM     45  N   UNL A   1      40.089  28.678  29.789  1.00  0.00    -0.354 N 
ATOM     46  C   UNL A   1      39.156  31.056  33.290  1.00  0.00     0.074 A 
ATOM     47  C   UNL A   1      37.922  31.786  33.106  1.00  0.00     0.031 C 
ATOM     48  C   UNL A   1      39.805  27.924  27.702  1.00  0.00     0.029 A 
ATOM     49  C   UNL A   1      40.707  27.888  28.849  1.00  0.00     0.049 A 
ATOM     50  H   UNL A   1      40.454  28.829  30.689  1.00  0.00     0.167 HD
ATOM     51  C   UNL A   1      39.903  31.095  34.419  1.00  0.00     0.037 A 
ATOM     52  C   UNL A   1      41.877  27.223  28.905  1.00  0.00     0.037 A 
ATOM     53  C   UNL A   1      41.113  30.343  34.606  1.00  0.00     0.049 A 
ATOM     54  C   UNL A   1      42.696  27.295  30.166  1.00  0.00     0.074 A 
ATOM     55  C   UNL A   1      41.916  30.264  35.729  1.00  0.00     0.029 A 
ATOM     56  N   UNL A   1      41.694  29.534  33.640  1.00  0.00    -0.354 N 
ATOM     57  N   UNL A   1      42.450  27.943  31.280  1.00  0.00    -0.248 NA
ATOM     58  C   UNL A   1      43.953  26.535  30.182  1.00  0.00     0.031 C 
ATOM     59  C   UNL A   1      43.013  29.453  35.425  1.00  0.00     0.029 A 
ATOM     60  C   UNL A   1      42.859  28.971  34.134  1.00  0.00     0.049 A 
ATOM     61  H   UNL A   1      41.333  29.383  32.736  1.00  0.00     0.167 HD
ATOM     62  C   UNL A   1      43.499  27.639  32.139  1.00  0.00     0.074 A 
ATOM     63  C   UNL A   1      44.378  26.741  31.420  1.00  0.00     0.031 C 
ATOM     64  C   UNL A   1      43.713  28.065  33.409  1.00  0.00     0.037 A 
BRANCH  51  65
ATOM     65  C   UNL A   1      39.426  31.981  35.537  1.00  0.00     0.064 A 
ATOM     66  C   UNL A   1      39.825  33.324  35.636  1.00  0.00     0.173 A 
ATOM     67  C   UNL A   1      38.542  31.488  36.508  1.00  0.00     0.173 A 
ATOM     68  F   UNL A   1      40.680  33.843  34.742  1.00  0.00    -0.203 F 
ATOM     69  C   UNL A   1      39.386  34.127  36.685  1.00  0.00     0.198 A 
ATOM     70  C   UNL A   1      38.076  32.306  37.534  1.00  0.00     0.198 A 
ATOM     71  F   UNL A   1      38.124  30.215  36.460  1.00  0.00    -0.203 F 
ATOM     72  F   UNL A   1      39.830  35.388  36.793  1.00  0.00    -0.200 F 
ATOM     73  C   UNL A   1      38.505  33.620  37.628  1.00  0.00     0.200 A 
ATOM     74  F   UNL A   1      37.212  31.818  38.436  1.00  0.00    -0.200 F 
ATOM     75  F   UNL A   1      38.078  34.397  38.633  1.00  0.00    -0.200 F 
ENDBRANCH  51  65
BRANCH  52  76
ATOM     76  C   UNL A   1      42.332  26.415  27.744  1.00  0.00     0.064 A 
ATOM     77  C   UNL A   1      41.836  25.120  27.531  1.00  0.00     0.173 A 
ATOM     78  C   UNL A   1      43.272  26.909  26.829  1.00  0.00     0.173 A 
ATOM     79  F   UNL A   1      40.948  24.596  28.388  1.00  0.00    -0.203 F 
ATOM     80  C   UNL A   1      42.282  24.343  26.465  1.00  0.00     0.198 A 
ATOM     81  C   UNL A   1      43.695  26.143  25.744  1.00  0.00     0.198 A 
ATOM     82  F   UNL A   1      43.773  28.144  26.980  1.00  0.00    -0.203 F 
ATOM     83  F   UNL A   1      41.830  23.090  26.317  1.00  0.00    -0.200 F 
ATOM     84  C   UNL A   1      43.208  24.855  25.570  1.00  0.00     0.200 A 
ATOM     85  F   UNL A   1      44.575  26.648  24.870  1.00  0.00    -0.200 F 
ATOM     86  F   UNL A   1      43.635  24.109  24.543  1.00  0.00    -0.200 F 
ENDBRANCH  52  76
BRANCH  64  87
ATOM     87  C   UNL A   1      44.914  27.520  34.127  1.00  0.00     0.064 A 
ATOM     88  C   UNL A   1      44.866  26.319  34.849  1.00  0.00     0.173 A 
ATOM     89  C   UNL A   1      46.146  28.188  34.044  1.00  0.00     0.173 A 
ATOM     90  F   UNL A   1      43.709  25.650  34.970  1.00  0.00    -0.203 F 
ATOM     91  C   UNL A   1      46.000  25.821  35.484  1.00  0.00     0.198 A 
ATOM     92  C   UNL A   1      47.286  27.668  34.650  1.00  0.00     0.198 A 
ATOM     93  F   UNL A   1      46.249  29.336  33.358  1.00  0.00    -0.203 F 
ATOM     94  F   UNL A   1      45.919  24.698  36.212  1.00  0.00    -0.200 F 
ATOM     95  C   UNL A   1      47.210  26.490  35.376  1.00  0.00     0.200 A 
ATOM     96  F   UNL A   1      48.457  28.307  34.529  1.00  0.00    -0.200 F 
ATOM     97  F   UNL A   1      48.304  26.002  35.978  1.00  0.00    -0.200 F 
ENDBRANCH  64  87
ENDBRANCH  38  39
ENDBRANCH  30  33
ENDBRANCH  28  29
ENDBRANCH  27  28
ENDBRANCH   1  27
TORSDOF 14
ENDMDL
