MODEL 1
REMARK VINA RESULT:     -12.6      0.000      0.000
REMARK SMILES Cc1cc(C)cc(N(C)S(=O)(=O)c2ccc(F)c(C(=O)NCCCNC(=O)c3ccc(-c4c5nc(c(-c6c(F)c(F)c(F)c(F)c6F)c6ccc([nH]6)c(-c6c(F)c(F)c(F)c(F)c6F)c6nc(c(-c7c(F)c(F)c(F)c(F)c7F)c7ccc4[nH]7)C=C6)C=C5)cc3)c2)c1
REMARK SMILES IDX 22 1 21 2 19 3 20 4 18 6 13 7 14 8 91 9 15 10 16 11 17 12
REMARK SMILES IDX 10 13 11 14 12 15 8 16 9 17 7 18 1 19 2 20 3 21 92 22 4 23
REMARK SMILES IDX 5 24 6 25 23 26 24 27 25 28 26 29 27 31 28 32 29 33 90 34
REMARK SMILES IDX 30 35 89 36 31 37 32 38 33 39 83 40 34 41 88 42 82 43 84 44
REMARK SMILES IDX 35 45 87 46 81 47 80 48 36 50 68 51 48 52 67 53 49 54 52 55
REMARK SMILES IDX 66 56 85 57 50 58 51 59 65 61 86 62 53 63 37 64 38 65 46 66
REMARK SMILES IDX 39 67 40 68 44 69 47 70 41 71 42 72 45 73 43 74 69 75 70 76
REMARK SMILES IDX 78 77 71 78 72 79 76 80 79 81 73 82 74 83 77 84 75 85 54 86
REMARK SMILES IDX 55 87 63 88 56 89 57 90 61 91 64 92 58 93 59 94 62 95 60 96
REMARK H PARENT 21 5 25 30 84 49 52 60
REMARK Flexibility Score: inf
ROOT
ATOM      1  C   UNL A   1      36.798  20.191  25.003  1.00  0.00     0.118 C 
ENDROOT
BRANCH   1   2
ATOM      2  N   UNL A   1      36.957  21.456  25.687  1.00  0.00    -0.352 N 
ATOM      3  C   UNL A   1      36.277  22.636  25.627  1.00  0.00     0.254 C 
ATOM      4  O   UNL A   1      36.698  23.554  26.338  1.00  0.00    -0.269 OA
ATOM      5  H   UNL A   1      37.706  21.467  26.326  1.00  0.00     0.163 HD
BRANCH   3   6
ATOM      6  C   UNL A   1      35.062  22.902  24.817  1.00  0.00     0.076 A 
ATOM      7  C   UNL A   1      32.754  23.696  24.989  1.00  0.00     0.089 A 
ATOM      8  C   UNL A   1      32.687  23.779  23.593  1.00  0.00     0.025 A 
ATOM      9  C   UNL A   1      33.903  23.168  25.574  1.00  0.00     0.039 A 
ATOM     10  C   UNL A   1      33.793  23.418  22.819  1.00  0.00     0.041 A 
ATOM     11  C   UNL A   1      34.986  23.032  23.433  1.00  0.00     0.136 A 
ATOM     12  F   UNL A   1      36.038  22.833  22.634  1.00  0.00    -0.206 F 
BRANCH   7  13
ATOM     13  S   UNL A   1      31.302  24.133  25.955  1.00  0.00     0.264 S 
ATOM     14  O   UNL A   1      31.727  24.069  27.337  1.00  0.00    -0.201 OA
ATOM     15  O   UNL A   1      30.271  23.240  25.454  1.00  0.00    -0.201 OA
BRANCH  13  16
ATOM     16  N   UNL A   1      30.797  25.783  25.606  1.00  0.00    -0.269 N 
ATOM     17  C   UNL A   1      29.730  25.878  24.575  1.00  0.00     0.164 C 
BRANCH  16  18
ATOM     18  C   UNL A   1      31.932  26.742  25.428  1.00  0.00     0.052 A 
ATOM     19  C   UNL A   1      34.179  29.004  27.555  1.00  0.00     0.044 C 
ATOM     20  C   UNL A   1      33.552  28.351  26.357  1.00  0.00    -0.049 A 
ATOM     21  C   UNL A   1      33.973  28.704  25.076  1.00  0.00     0.007 A 
ATOM     22  C   UNL A   1      32.523  27.404  26.514  1.00  0.00     0.030 A 
ATOM     23  C   UNL A   1      33.370  28.125  23.963  1.00  0.00    -0.049 A 
ATOM     24  C   UNL A   1      33.799  28.540  22.584  1.00  0.00     0.044 C 
ATOM     25  C   UNL A   1      32.352  27.170  24.151  1.00  0.00     0.030 A 
ENDBRANCH  16  18
ENDBRANCH  13  16
ENDBRANCH   7  13
ENDBRANCH   3   6
ENDBRANCH   1   2
BRANCH   1  26
ATOM     26  C   UNL A   1      38.112  19.411  24.989  1.00  0.00     0.042 C 
BRANCH  26  27
ATOM     27  C   UNL A   1      39.212  20.042  25.842  1.00  0.00     0.118 C 
BRANCH  27  28
ATOM     28  N   UNL A   1      40.374  19.177  25.959  1.00  0.00    -0.352 N 
ATOM     29  C   UNL A   1      41.706  19.492  26.044  1.00  0.00     0.251 C 
ATOM     30  H   UNL A   1      40.174  18.213  25.980  1.00  0.00     0.163 HD
ATOM     31  O   UNL A   1      42.547  18.615  25.863  1.00  0.00    -0.269 OA
BRANCH  29  32
ATOM     32  C   UNL A   1      42.144  20.870  26.359  1.00  0.00     0.039 A 
ATOM     33  C   UNL A   1      42.350  21.217  27.698  1.00  0.00     0.014 A 
ATOM     34  C   UNL A   1      42.269  21.840  25.360  1.00  0.00     0.014 A 
ATOM     35  C   UNL A   1      42.712  22.523  28.031  1.00  0.00     0.010 A 
ATOM     36  C   UNL A   1      42.697  23.126  25.686  1.00  0.00     0.010 A 
ATOM     37  C   UNL A   1      42.907  23.485  27.026  1.00  0.00    -0.014 A 
BRANCH  37  38
ATOM     38  C   UNL A   1      43.311  24.872  27.368  1.00  0.00     0.031 A 
ATOM     39  C   UNL A   1      44.717  25.337  27.112  1.00  0.00     0.074 A 
ATOM     40  C   UNL A   1      42.418  25.700  27.942  1.00  0.00     0.049 A 
ATOM     41  N   UNL A   1      45.265  26.497  27.374  1.00  0.00    -0.248 NA
ATOM     42  C   UNL A   1      45.638  24.366  26.501  1.00  0.00     0.031 C 
ATOM     43  C   UNL A   1      41.038  25.348  28.277  1.00  0.00     0.029 A 
ATOM     44  N   UNL A   1      42.537  27.006  28.346  1.00  0.00    -0.354 N 
ATOM     45  C   UNL A   1      46.590  26.389  26.974  1.00  0.00     0.074 A 
ATOM     46  C   UNL A   1      46.780  25.038  26.496  1.00  0.00     0.031 C 
ATOM     47  C   UNL A   1      40.427  26.421  28.804  1.00  0.00     0.029 A 
ATOM     48  C   UNL A   1      41.381  27.525  28.876  1.00  0.00     0.049 A 
ATOM     49  H   UNL A   1      43.370  27.523  28.263  1.00  0.00     0.167 HD
ATOM     50  C   UNL A   1      47.555  27.341  26.982  1.00  0.00     0.037 A 
ATOM     51  C   UNL A   1      41.118  28.753  29.360  1.00  0.00     0.037 A 
ATOM     52  C   UNL A   1      47.352  28.693  27.428  1.00  0.00     0.049 A 
ATOM     53  C   UNL A   1      42.201  29.796  29.344  1.00  0.00     0.074 A 
ATOM     54  C   UNL A   1      48.253  29.745  27.431  1.00  0.00     0.029 A 
ATOM     55  N   UNL A   1      46.162  29.185  27.945  1.00  0.00    -0.354 N 
ATOM     56  N   UNL A   1      43.438  29.695  28.921  1.00  0.00    -0.248 NA
ATOM     57  C   UNL A   1      41.852  31.125  29.866  1.00  0.00     0.031 C 
ATOM     58  C   UNL A   1      47.619  30.862  27.984  1.00  0.00     0.029 A 
ATOM     59  C   UNL A   1      46.309  30.521  28.281  1.00  0.00     0.049 A 
ATOM     60  H   UNL A   1      45.336  28.662  28.056  1.00  0.00     0.167 HD
ATOM     61  C   UNL A   1      44.007  30.947  29.102  1.00  0.00     0.074 A 
ATOM     62  C   UNL A   1      42.976  31.798  29.662  1.00  0.00     0.031 C 
ATOM     63  C   UNL A   1      45.271  31.354  28.830  1.00  0.00     0.037 A 
BRANCH  50  64
ATOM     64  C   UNL A   1      48.916  26.962  26.478  1.00  0.00     0.064 A 
ATOM     65  C   UNL A   1      49.236  27.090  25.117  1.00  0.00     0.173 A 
ATOM     66  C   UNL A   1      49.885  26.410  27.330  1.00  0.00     0.173 A 
ATOM     67  F   UNL A   1      48.344  27.605  24.258  1.00  0.00    -0.203 F 
ATOM     68  C   UNL A   1      50.471  26.670  24.629  1.00  0.00     0.198 A 
ATOM     69  C   UNL A   1      51.129  26.017  26.843  1.00  0.00     0.198 A 
ATOM     70  F   UNL A   1      49.632  26.275  28.640  1.00  0.00    -0.203 F 
ATOM     71  F   UNL A   1      50.744  26.776  23.321  1.00  0.00    -0.200 F 
ATOM     72  C   UNL A   1      51.417  26.138  25.492  1.00  0.00     0.200 A 
ATOM     73  F   UNL A   1      52.050  25.525  27.683  1.00  0.00    -0.200 F 
ATOM     74  F   UNL A   1      52.610  25.746  25.022  1.00  0.00    -0.200 F 
ENDBRANCH  50  64
BRANCH  51  75
ATOM     75  C   UNL A   1      39.753  29.069  29.852  1.00  0.00     0.064 A 
ATOM     76  C   UNL A   1      39.352  28.748  31.156  1.00  0.00     0.173 A 
ATOM     77  C   UNL A   1      38.808  29.666  29.006  1.00  0.00     0.173 A 
ATOM     78  F   UNL A   1      40.218  28.170  32.001  1.00  0.00    -0.203 F 
ATOM     79  C   UNL A   1      38.052  28.998  31.590  1.00  0.00     0.198 A 
ATOM     80  C   UNL A   1      37.515  29.938  29.449  1.00  0.00     0.198 A 
ATOM     81  F   UNL A   1      39.151  30.007  27.755  1.00  0.00    -0.203 F 
ATOM     82  F   UNL A   1      37.683  28.650  32.831  1.00  0.00    -0.200 F 
ATOM     83  C   UNL A   1      37.136  29.595  30.737  1.00  0.00     0.200 A 
ATOM     84  F   UNL A   1      36.640  30.535  28.628  1.00  0.00    -0.200 F 
ATOM     85  F   UNL A   1      35.888  29.842  31.158  1.00  0.00    -0.200 F 
ENDBRANCH  51  75
BRANCH  63  86
ATOM     86  C   UNL A   1      45.612  32.788  29.109  1.00  0.00     0.064 A 
ATOM     87  C   UNL A   1      45.435  33.766  28.118  1.00  0.00     0.173 A 
ATOM     88  C   UNL A   1      46.183  33.182  30.328  1.00  0.00     0.173 A 
ATOM     89  F   UNL A   1      44.901  33.436  26.932  1.00  0.00    -0.203 F 
ATOM     90  C   UNL A   1      45.827  35.083  28.334  1.00  0.00     0.198 A 
ATOM     91  C   UNL A   1      46.550  34.506  30.550  1.00  0.00     0.198 A 
ATOM     92  F   UNL A   1      46.361  32.286  31.311  1.00  0.00    -0.203 F 
ATOM     93  F   UNL A   1      45.677  35.993  27.362  1.00  0.00    -0.200 F 
ATOM     94  C   UNL A   1      46.381  35.453  29.550  1.00  0.00     0.200 A 
ATOM     95  F   UNL A   1      47.062  34.867  31.734  1.00  0.00    -0.200 F 
ATOM     96  F   UNL A   1      46.749  36.724  29.761  1.00  0.00    -0.200 F 
ENDBRANCH  63  86
ENDBRANCH  37  38
ENDBRANCH  29  32
ENDBRANCH  27  28
ENDBRANCH  26  27
ENDBRANCH   1  26
TORSDOF 13
ENDMDL
MODEL 2
REMARK VINA RESULT:     -12.6      0.411      7.368
REMARK SMILES Cc1cc(C)cc(N(C)S(=O)(=O)c2ccc(F)c(C(=O)NCCCNC(=O)c3ccc(-c4c5nc(c(-c6c(F)c(F)c(F)c(F)c6F)c6ccc([nH]6)c(-c6c(F)c(F)c(F)c(F)c6F)c6nc(c(-c7c(F)c(F)c(F)c(F)c7F)c7ccc4[nH]7)C=C6)C=C5)cc3)c2)c1
REMARK SMILES IDX 22 1 21 2 19 3 20 4 18 6 13 7 14 8 91 9 15 10 16 11 17 12
REMARK SMILES IDX 10 13 11 14 12 15 8 16 9 17 7 18 1 19 2 20 3 21 92 22 4 23
REMARK SMILES IDX 5 24 6 25 23 26 24 27 25 28 26 29 27 31 28 32 29 33 90 34
REMARK SMILES IDX 30 35 89 36 31 37 32 38 33 39 83 40 34 41 88 42 82 43 84 44
REMARK SMILES IDX 35 45 87 46 81 47 80 48 36 50 68 51 48 52 67 53 49 54 52 55
REMARK SMILES IDX 66 56 85 57 50 58 51 59 65 61 86 62 53 63 37 64 38 65 46 66
REMARK SMILES IDX 39 67 40 68 44 69 47 70 41 71 42 72 45 73 43 74 69 75 70 76
REMARK SMILES IDX 78 77 71 78 72 79 76 80 79 81 73 82 74 83 77 84 75 85 54 86
REMARK SMILES IDX 55 87 63 88 56 89 57 90 61 91 64 92 58 93 59 94 62 95 60 96
REMARK H PARENT 21 5 25 30 84 49 52 60
REMARK Flexibility Score: inf
ROOT
ATOM      1  C   UNL A   1      36.822  20.178  24.978  1.00  0.00     0.118 C 
ENDROOT
BRANCH   1   2
ATOM      2  N   UNL A   1      37.008  21.457  25.630  1.00  0.00    -0.352 N 
ATOM      3  C   UNL A   1      36.344  22.644  25.551  1.00  0.00     0.254 C 
ATOM      4  O   UNL A   1      36.788  23.573  26.234  1.00  0.00    -0.269 OA
ATOM      5  H   UNL A   1      37.767  21.472  26.257  1.00  0.00     0.163 HD
BRANCH   3   6
ATOM      6  C   UNL A   1      35.121  22.908  24.753  1.00  0.00     0.076 A 
ATOM      7  C   UNL A   1      32.808  23.683  24.949  1.00  0.00     0.089 A 
ATOM      8  C   UNL A   1      32.730  23.777  23.554  1.00  0.00     0.025 A 
ATOM      9  C   UNL A   1      33.966  23.159  25.521  1.00  0.00     0.039 A 
ATOM     10  C   UNL A   1      33.833  23.431  22.769  1.00  0.00     0.041 A 
ATOM     11  C   UNL A   1      35.033  23.049  23.371  1.00  0.00     0.136 A 
ATOM     12  F   UNL A   1      36.080  22.865  22.562  1.00  0.00    -0.206 F 
BRANCH   7  13
ATOM     13  S   UNL A   1      31.360  24.101  25.929  1.00  0.00     0.264 S 
ATOM     14  O   UNL A   1      31.806  24.064  27.305  1.00  0.00    -0.201 OA
ATOM     15  O   UNL A   1      30.341  23.180  25.454  1.00  0.00    -0.201 OA
BRANCH  13  16
ATOM     16  N   UNL A   1      30.815  25.736  25.567  1.00  0.00    -0.269 N 
ATOM     17  C   UNL A   1      29.782  25.800  24.500  1.00  0.00     0.164 C 
BRANCH  16  18
ATOM     18  C   UNL A   1      31.924  26.731  25.431  1.00  0.00     0.052 A 
ATOM     19  C   UNL A   1      33.985  29.097  27.633  1.00  0.00     0.044 C 
ATOM     20  C   UNL A   1      33.441  28.407  26.415  1.00  0.00    -0.049 A 
ATOM     21  C   UNL A   1      33.912  28.758  25.152  1.00  0.00     0.007 A 
ATOM     22  C   UNL A   1      32.438  27.427  26.535  1.00  0.00     0.030 A 
ATOM     23  C   UNL A   1      33.386  28.144  24.018  1.00  0.00    -0.049 A 
ATOM     24  C   UNL A   1      33.868  28.555  22.657  1.00  0.00     0.044 C 
ATOM     25  C   UNL A   1      32.393  27.157  24.170  1.00  0.00     0.030 A 
ENDBRANCH  16  18
ENDBRANCH  13  16
ENDBRANCH   7  13
ENDBRANCH   3   6
ENDBRANCH   1   2
BRANCH   1  26
ATOM     26  C   UNL A   1      38.133  19.393  24.934  1.00  0.00     0.042 C 
BRANCH  26  27
ATOM     27  C   UNL A   1      39.250  20.015  25.770  1.00  0.00     0.118 C 
BRANCH  27  28
ATOM     28  N   UNL A   1      40.356  19.093  25.972  1.00  0.00    -0.352 N 
ATOM     29  C   UNL A   1      41.700  19.337  26.094  1.00  0.00     0.251 C 
ATOM     30  H   UNL A   1      40.100  18.144  26.031  1.00  0.00     0.163 HD
ATOM     31  O   UNL A   1      42.495  18.407  25.986  1.00  0.00    -0.269 OA
BRANCH  29  32
ATOM     32  C   UNL A   1      42.205  20.702  26.361  1.00  0.00     0.039 A 
ATOM     33  C   UNL A   1      42.333  21.119  27.689  1.00  0.00     0.014 A 
ATOM     34  C   UNL A   1      42.469  21.597  25.320  1.00  0.00     0.014 A 
ATOM     35  C   UNL A   1      42.757  22.419  27.973  1.00  0.00     0.010 A 
ATOM     36  C   UNL A   1      42.957  22.872  25.603  1.00  0.00     0.010 A 
ATOM     37  C   UNL A   1      43.090  23.301  26.932  1.00  0.00    -0.014 A 
BRANCH  37  38
ATOM     38  C   UNL A   1      43.559  24.679  27.222  1.00  0.00     0.031 A 
ATOM     39  C   UNL A   1      42.616  25.694  27.806  1.00  0.00     0.074 A 
ATOM     40  C   UNL A   1      44.826  25.024  26.926  1.00  0.00     0.049 A 
ATOM     41  N   UNL A   1      42.833  26.954  28.095  1.00  0.00    -0.248 NA
ATOM     42  C   UNL A   1      41.243  25.245  28.082  1.00  0.00     0.031 C 
ATOM     43  C   UNL A   1      45.820  24.138  26.319  1.00  0.00     0.029 A 
ATOM     44  N   UNL A   1      45.496  26.210  27.095  1.00  0.00    -0.354 N 
ATOM     45  C   UNL A   1      41.625  27.445  28.571  1.00  0.00     0.074 A 
ATOM     46  C   UNL A   1      40.666  26.367  28.488  1.00  0.00     0.031 C 
ATOM     47  C   UNL A   1      46.981  24.800  26.197  1.00  0.00     0.029 A 
ATOM     48  C   UNL A   1      46.805  26.165  26.684  1.00  0.00     0.049 A 
ATOM     49  H   UNL A   1      45.078  27.016  27.474  1.00  0.00     0.167 HD
ATOM     50  C   UNL A   1      41.349  28.679  29.057  1.00  0.00     0.037 A 
ATOM     51  C   UNL A   1      47.759  27.115  26.704  1.00  0.00     0.037 A 
ATOM     52  C   UNL A   1      42.315  29.739  29.167  1.00  0.00     0.049 A 
ATOM     53  C   UNL A   1      47.431  28.473  27.261  1.00  0.00     0.074 A 
ATOM     54  C   UNL A   1      42.146  31.010  29.690  1.00  0.00     0.029 A 
ATOM     55  N   UNL A   1      43.636  29.650  28.754  1.00  0.00    -0.354 N 
ATOM     56  N   UNL A   1      46.297  28.912  27.751  1.00  0.00    -0.248 NA
ATOM     57  C   UNL A   1      48.516  29.464  27.276  1.00  0.00     0.031 C 
ATOM     58  C   UNL A   1      43.353  31.702  29.559  1.00  0.00     0.029 A 
ATOM     59  C   UNL A   1      44.290  30.848  28.999  1.00  0.00     0.049 A 
ATOM     60  H   UNL A   1      44.048  28.855  28.347  1.00  0.00     0.167 HD
ATOM     61  C   UNL A   1      46.535  30.218  28.153  1.00  0.00     0.074 A 
ATOM     62  C   UNL A   1      47.927  30.498  27.862  1.00  0.00     0.031 C 
ATOM     63  C   UNL A   1      45.677  31.106  28.711  1.00  0.00     0.037 A 
BRANCH  50  64
ATOM     64  C   UNL A   1      39.948  28.951  29.524  1.00  0.00     0.064 A 
ATOM     65  C   UNL A   1      39.561  28.647  30.838  1.00  0.00     0.173 A 
ATOM     66  C   UNL A   1      38.970  29.452  28.651  1.00  0.00     0.173 A 
ATOM     67  F   UNL A   1      40.456  28.160  31.711  1.00  0.00    -0.203 F 
ATOM     68  C   UNL A   1      38.246  28.825  31.258  1.00  0.00     0.198 A 
ATOM     69  C   UNL A   1      37.661  29.656  29.082  1.00  0.00     0.198 A 
ATOM     70  F   UNL A   1      39.291  29.767  27.388  1.00  0.00    -0.203 F 
ATOM     71  F   UNL A   1      37.893  28.502  32.509  1.00  0.00    -0.200 F 
ATOM     72  C   UNL A   1      37.299  29.333  30.381  1.00  0.00     0.200 A 
ATOM     73  F   UNL A   1      36.754  30.168  28.240  1.00  0.00    -0.200 F 
ATOM     74  F   UNL A   1      36.035  29.516  30.789  1.00  0.00    -0.200 F 
ENDBRANCH  50  64
BRANCH  51  75
ATOM     75  C   UNL A   1      49.126  26.790  26.222  1.00  0.00     0.064 A 
ATOM     76  C   UNL A   1      49.514  27.036  24.897  1.00  0.00     0.173 A 
ATOM     77  C   UNL A   1      50.061  26.189  27.076  1.00  0.00     0.173 A 
ATOM     78  F   UNL A   1      48.652  27.604  24.040  1.00  0.00    -0.203 F 
ATOM     79  C   UNL A   1      50.779  26.676  24.441  1.00  0.00     0.198 A 
ATOM     80  C   UNL A   1      51.335  25.852  26.624  1.00  0.00     0.198 A 
ATOM     81  F   UNL A   1      49.741  25.950  28.356  1.00  0.00    -0.203 F 
ATOM     82  F   UNL A   1      51.114  26.891  23.160  1.00  0.00    -0.200 F 
ATOM     83  C   UNL A   1      51.690  26.087  25.305  1.00  0.00     0.200 A 
ATOM     84  F   UNL A   1      52.219  25.303  27.469  1.00  0.00    -0.200 F 
ATOM     85  F   UNL A   1      52.910  25.749  24.867  1.00  0.00    -0.200 F 
ENDBRANCH  51  75
BRANCH  63  86
ATOM     86  C   UNL A   1      46.215  32.459  29.070  1.00  0.00     0.064 A 
ATOM     87  C   UNL A   1      46.738  32.698  30.349  1.00  0.00     0.173 A 
ATOM     88  C   UNL A   1      46.147  33.536  28.175  1.00  0.00     0.173 A 
ATOM     89  F   UNL A   1      46.817  31.702  31.244  1.00  0.00    -0.203 F 
ATOM     90  C   UNL A   1      47.161  33.970  30.724  1.00  0.00     0.198 A 
ATOM     91  C   UNL A   1      46.596  34.801  28.543  1.00  0.00     0.198 A 
ATOM     92  F   UNL A   1      45.666  33.355  26.935  1.00  0.00    -0.203 F 
ATOM     93  F   UNL A   1      47.629  34.182  31.962  1.00  0.00    -0.200 F 
ATOM     94  C   UNL A   1      47.094  35.019  29.819  1.00  0.00     0.200 A 
ATOM     95  F   UNL A   1      46.552  35.809  27.661  1.00  0.00    -0.200 F 
ATOM     96  F   UNL A   1      47.512  36.241  30.177  1.00  0.00    -0.200 F 
ENDBRANCH  63  86
ENDBRANCH  37  38
ENDBRANCH  29  32
ENDBRANCH  27  28
ENDBRANCH  26  27
ENDBRANCH   1  26
TORSDOF 13
ENDMDL
MODEL 3
REMARK VINA RESULT:     -12.5      4.636     10.151
REMARK SMILES Cc1cc(C)cc(N(C)S(=O)(=O)c2ccc(F)c(C(=O)NCCCNC(=O)c3ccc(-c4c5nc(c(-c6c(F)c(F)c(F)c(F)c6F)c6ccc([nH]6)c(-c6c(F)c(F)c(F)c(F)c6F)c6nc(c(-c7c(F)c(F)c(F)c(F)c7F)c7ccc4[nH]7)C=C6)C=C5)cc3)c2)c1
REMARK SMILES IDX 22 1 21 2 19 3 20 4 18 6 13 7 14 8 91 9 15 10 16 11 17 12
REMARK SMILES IDX 10 13 11 14 12 15 8 16 9 17 7 18 1 19 2 20 3 21 92 22 4 23
REMARK SMILES IDX 5 24 6 25 23 26 24 27 25 28 26 29 27 31 28 32 29 33 90 34
REMARK SMILES IDX 30 35 89 36 31 37 32 38 33 39 83 40 34 41 88 42 82 43 84 44
REMARK SMILES IDX 35 45 87 46 81 47 80 48 36 50 68 51 48 52 67 53 49 54 52 55
REMARK SMILES IDX 66 56 85 57 50 58 51 59 65 61 86 62 53 63 37 64 38 65 46 66
REMARK SMILES IDX 39 67 40 68 44 69 47 70 41 71 42 72 45 73 43 74 69 75 70 76
REMARK SMILES IDX 78 77 71 78 72 79 76 80 79 81 73 82 74 83 77 84 75 85 54 86
REMARK SMILES IDX 55 87 63 88 56 89 57 90 61 91 64 92 58 93 59 94 62 95 60 96
REMARK H PARENT 21 5 25 30 84 49 52 60
REMARK Flexibility Score: inf
ROOT
ATOM      1  C   UNL A   1      33.766  28.885  25.185  1.00  0.00     0.118 C 
ENDROOT
BRANCH   1   2
ATOM      2  N   UNL A   1      34.109  28.879  23.779  1.00  0.00    -0.352 N 
ATOM      3  C   UNL A   1      33.737  28.083  22.736  1.00  0.00     0.254 C 
ATOM      4  O   UNL A   1      34.248  28.333  21.640  1.00  0.00    -0.269 OA
ATOM      5  H   UNL A   1      34.736  29.593  23.524  1.00  0.00     0.163 HD
BRANCH   3   6
ATOM      6  C   UNL A   1      32.751  26.975  22.794  1.00  0.00     0.076 A 
ATOM      7  C   UNL A   1      32.569  24.558  23.129  1.00  0.00     0.089 A 
ATOM      8  C   UNL A   1      31.180  24.687  23.245  1.00  0.00     0.025 A 
ATOM      9  C   UNL A   1      33.322  25.687  22.810  1.00  0.00     0.039 A 
ATOM     10  C   UNL A   1      30.584  25.945  23.127  1.00  0.00     0.041 A 
ATOM     11  C   UNL A   1      31.372  27.084  22.954  1.00  0.00     0.136 A 
ATOM     12  F   UNL A   1      30.743  28.262  22.985  1.00  0.00    -0.206 F 
BRANCH   7  13
ATOM     13  S   UNL A   1      33.303  22.921  23.250  1.00  0.00     0.264 S 
ATOM     14  O   UNL A   1      34.543  23.001  22.509  1.00  0.00    -0.201 OA
ATOM     15  O   UNL A   1      32.238  22.031  22.821  1.00  0.00    -0.201 OA
BRANCH  13  16
ATOM     16  N   UNL A   1      33.683  22.533  24.926  1.00  0.00    -0.269 N 
ATOM     17  C   UNL A   1      33.004  23.413  25.913  1.00  0.00     0.164 C 
BRANCH  16  18
ATOM     18  C   UNL A   1      35.139  22.304  25.183  1.00  0.00     0.052 A 
ATOM     19  C   UNL A   1      38.231  24.273  26.305  1.00  0.00     0.044 C 
ATOM     20  C   UNL A   1      37.370  23.148  25.805  1.00  0.00    -0.049 A 
ATOM     21  C   UNL A   1      37.947  21.917  25.501  1.00  0.00     0.007 A 
ATOM     22  C   UNL A   1      35.989  23.334  25.614  1.00  0.00     0.030 A 
ATOM     23  C   UNL A   1      37.158  20.883  25.005  1.00  0.00    -0.049 A 
ATOM     24  C   UNL A   1      37.792  19.571  24.640  1.00  0.00     0.044 C 
ATOM     25  C   UNL A   1      35.776  21.094  24.837  1.00  0.00     0.030 A 
ENDBRANCH  16  18
ENDBRANCH  13  16
ENDBRANCH   7  13
ENDBRANCH   3   6
ENDBRANCH   1   2
BRANCH   1  26
ATOM     26  C   UNL A   1      32.565  29.793  25.448  1.00  0.00     0.042 C 
BRANCH  26  27
ATOM     27  C   UNL A   1      32.527  30.370  26.862  1.00  0.00     0.118 C 
BRANCH  27  28
ATOM     28  N   UNL A   1      32.647  31.820  26.861  1.00  0.00    -0.352 N 
ATOM     29  C   UNL A   1      33.501  32.636  27.557  1.00  0.00     0.251 C 
ATOM     30  H   UNL A   1      32.017  32.289  26.268  1.00  0.00     0.163 HD
ATOM     31  O   UNL A   1      33.265  33.839  27.625  1.00  0.00    -0.269 OA
BRANCH  29  32
ATOM     32  C   UNL A   1      34.706  32.090  28.219  1.00  0.00     0.039 A 
ATOM     33  C   UNL A   1      34.613  30.851  28.861  1.00  0.00     0.014 A 
ATOM     34  C   UNL A   1      35.896  32.822  28.286  1.00  0.00     0.014 A 
ATOM     35  C   UNL A   1      35.718  30.334  29.540  1.00  0.00     0.010 A 
ATOM     36  C   UNL A   1      37.019  32.274  28.905  1.00  0.00     0.010 A 
ATOM     37  C   UNL A   1      36.936  31.032  29.552  1.00  0.00    -0.014 A 
BRANCH  37  38
ATOM     38  C   UNL A   1      38.122  30.482  30.254  1.00  0.00     0.031 A 
ATOM     39  C   UNL A   1      38.415  30.880  31.674  1.00  0.00     0.074 A 
ATOM     40  C   UNL A   1      38.955  29.652  29.598  1.00  0.00     0.049 A 
ATOM     41  N   UNL A   1      39.420  30.532  32.440  1.00  0.00    -0.248 NA
ATOM     42  C   UNL A   1      37.469  31.807  32.314  1.00  0.00     0.031 C 
ATOM     43  C   UNL A   1      38.798  29.228  28.207  1.00  0.00     0.029 A 
ATOM     44  N   UNL A   1      40.099  29.017  30.013  1.00  0.00    -0.354 N 
ATOM     45  C   UNL A   1      39.232  31.206  33.639  1.00  0.00     0.074 A 
ATOM     46  C   UNL A   1      38.047  32.020  33.487  1.00  0.00     0.031 C 
ATOM     47  C   UNL A   1      39.787  28.377  27.893  1.00  0.00     0.029 A 
ATOM     48  C   UNL A   1      40.667  28.222  29.048  1.00  0.00     0.049 A 
ATOM     49  H   UNL A   1      40.476  29.120  30.916  1.00  0.00     0.167 HD
ATOM     50  C   UNL A   1      39.969  31.131  34.774  1.00  0.00     0.037 A 
ATOM     51  C   UNL A   1      41.769  27.450  29.091  1.00  0.00     0.037 A 
ATOM     52  C   UNL A   1      41.129  30.295  34.930  1.00  0.00     0.049 A 
ATOM     53  C   UNL A   1      42.562  27.374  30.366  1.00  0.00     0.074 A 
ATOM     54  C   UNL A   1      41.916  30.113  36.055  1.00  0.00     0.029 A 
ATOM     55  N   UNL A   1      41.665  29.493  33.933  1.00  0.00    -0.354 N 
ATOM     56  N   UNL A   1      42.349  27.980  31.509  1.00  0.00    -0.248 NA
ATOM     57  C   UNL A   1      43.744  26.500  30.362  1.00  0.00     0.031 C 
ATOM     58  C   UNL A   1      42.949  29.230  35.727  1.00  0.00     0.029 A 
ATOM     59  C   UNL A   1      42.779  28.824  34.414  1.00  0.00     0.049 A 
ATOM     60  H   UNL A   1      41.307  29.411  33.021  1.00  0.00     0.167 HD
ATOM     61  C   UNL A   1      43.351  27.547  32.364  1.00  0.00     0.074 A 
ATOM     62  C   UNL A   1      44.168  26.615  31.614  1.00  0.00     0.031 C 
ATOM     63  C   UNL A   1      43.575  27.893  33.655  1.00  0.00     0.037 A 
BRANCH  50  64
ATOM     64  C   UNL A   1      39.537  31.964  35.945  1.00  0.00     0.064 A 
ATOM     65  C   UNL A   1      38.492  31.537  36.779  1.00  0.00     0.173 A 
ATOM     66  C   UNL A   1      40.114  33.216  36.205  1.00  0.00     0.173 A 
ATOM     67  F   UNL A   1      37.902  30.351  36.570  1.00  0.00    -0.203 F 
ATOM     68  C   UNL A   1      38.035  32.338  37.822  1.00  0.00     0.198 A 
ATOM     69  C   UNL A   1      39.673  34.003  37.267  1.00  0.00     0.198 A 
ATOM     70  F   UNL A   1      41.122  33.666  35.444  1.00  0.00    -0.203 F 
ATOM     71  F   UNL A   1      37.017  31.922  38.588  1.00  0.00    -0.200 F 
ATOM     72  C   UNL A   1      38.628  33.567  38.068  1.00  0.00     0.200 A 
ATOM     73  F   UNL A   1      40.263  35.179  37.516  1.00  0.00    -0.200 F 
ATOM     74  F   UNL A   1      38.196  34.332  39.080  1.00  0.00    -0.200 F 
ENDBRANCH  50  64
BRANCH  51  75
ATOM     75  C   UNL A   1      42.152  26.653  27.898  1.00  0.00     0.064 A 
ATOM     76  C   UNL A   1      41.620  25.377  27.668  1.00  0.00     0.173 A 
ATOM     77  C   UNL A   1      43.093  27.144  26.982  1.00  0.00     0.173 A 
ATOM     78  F   UNL A   1      40.722  24.861  28.520  1.00  0.00    -0.203 F 
ATOM     79  C   UNL A   1      42.028  24.615  26.576  1.00  0.00     0.198 A 
ATOM     80  C   UNL A   1      43.481  26.391  25.876  1.00  0.00     0.198 A 
ATOM     81  F   UNL A   1      43.616  28.368  27.151  1.00  0.00    -0.203 F 
ATOM     82  F   UNL A   1      41.530  23.383  26.397  1.00  0.00    -0.200 F 
ATOM     83  C   UNL A   1      42.956  25.123  25.679  1.00  0.00     0.200 A 
ATOM     84  F   UNL A   1      44.362  26.896  25.001  1.00  0.00    -0.200 F 
ATOM     85  F   UNL A   1      43.342  24.393  24.624  1.00  0.00    -0.200 F 
ENDBRANCH  51  75
BRANCH  63  86
ATOM     86  C   UNL A   1      44.734  27.247  34.355  1.00  0.00     0.064 A 
ATOM     87  C   UNL A   1      44.561  26.039  35.047  1.00  0.00     0.173 A 
ATOM     88  C   UNL A   1      45.995  27.858  34.403  1.00  0.00     0.173 A 
ATOM     89  F   UNL A   1      43.371  25.420  35.038  1.00  0.00    -0.203 F 
ATOM     90  C   UNL A   1      45.605  25.473  35.772  1.00  0.00     0.198 A 
ATOM     91  C   UNL A   1      47.045  27.275  35.107  1.00  0.00     0.198 A 
ATOM     92  F   UNL A   1      46.213  29.008  33.747  1.00  0.00    -0.203 F 
ATOM     93  F   UNL A   1      45.408  24.334  36.451  1.00  0.00    -0.200 F 
ATOM     94  C   UNL A   1      46.847  26.089  35.798  1.00  0.00     0.200 A 
ATOM     95  F   UNL A   1      48.251  27.859  35.111  1.00  0.00    -0.200 F 
ATOM     96  F   UNL A   1      47.855  25.538  36.487  1.00  0.00    -0.200 F 
ENDBRANCH  63  86
ENDBRANCH  37  38
ENDBRANCH  29  32
ENDBRANCH  27  28
ENDBRANCH  26  27
ENDBRANCH   1  26
TORSDOF 13
ENDMDL
