MODEL 1
REMARK VINA RESULT:     -13.2      0.000      0.000
REMARK SMILES O=C(NCCCNC(=O)c1c(F)cccc1Oc1cccc(Cl)c1)c1ccc(-c2c3nc(c(-c4c(F)c(F)c(F)c(F)c4F)c4ccc([nH]4)c(-c4c(F)c(F)c(F)c(F)c4F)c4nc(c(-c5c(F)c(F)c(F)c(F)c5F)c5ccc2[nH]5)C=C4)C=C3)cc1
REMARK SMILES IDX 5 1 4 2 3 3 1 4 2 5 25 7 26 8 87 9 27 10 86 11 28 12 29 13
REMARK SMILES IDX 30 14 80 15 31 16 85 17 79 18 81 19 32 20 84 21 78 22 77 23
REMARK SMILES IDX 33 25 65 26 45 27 64 28 46 29 49 30 63 31 82 32 47 33 48 34
REMARK SMILES IDX 62 36 83 37 50 38 34 39 35 40 43 41 36 42 37 43 41 44 44 45
REMARK SMILES IDX 38 46 39 47 42 48 40 49 66 50 67 51 75 52 68 53 69 54 73 55
REMARK SMILES IDX 76 56 70 57 71 58 74 59 72 60 51 61 52 62 60 63 53 64 54 65
REMARK SMILES IDX 58 66 61 67 55 68 56 69 59 70 57 71 6 72 7 73 8 74 9 76
REMARK SMILES IDX 10 77 11 78 16 79 12 80 13 81 15 82 14 83 17 84 18 85 19 86
REMARK SMILES IDX 24 87 20 88 22 89 21 90 23 91
REMARK H PARENT 3 6 81 24 49 35 7 75
REMARK Flexibility Score: inf
ROOT
ATOM      1  C   UNL A   1      31.422  32.011  26.519  1.00  0.00     0.042 C 
ENDROOT
BRANCH   1   2
ATOM      2  C   UNL A   1      32.663  32.663  27.114  1.00  0.00     0.118 C 
BRANCH   2   3
ATOM      3  N   UNL A   1      32.431  34.015  27.608  1.00  0.00    -0.352 N 
ATOM      4  O   UNL A   1      32.582  35.844  28.902  1.00  0.00    -0.269 OA
ATOM      5  C   UNL A   1      33.056  34.757  28.580  1.00  0.00     0.251 C 
ATOM      6  H   UNL A   1      31.690  34.484  27.160  1.00  0.00     0.163 HD
BRANCH   5   7
ATOM      7  C   UNL A   1      34.263  34.259  29.280  1.00  0.00     0.039 A 
ATOM      8  C   UNL A   1      35.546  34.529  28.812  1.00  0.00     0.014 A 
ATOM      9  C   UNL A   1      34.104  33.524  30.462  1.00  0.00     0.014 A 
ATOM     10  C   UNL A   1      36.644  33.903  29.393  1.00  0.00     0.010 A 
ATOM     11  C   UNL A   1      35.221  32.987  31.113  1.00  0.00     0.010 A 
ATOM     12  C   UNL A   1      36.498  33.123  30.552  1.00  0.00    -0.014 A 
BRANCH  12  13
ATOM     13  C   UNL A   1      37.698  32.480  31.153  1.00  0.00     0.031 A 
ATOM     14  C   UNL A   1      38.150  32.831  32.546  1.00  0.00     0.074 A 
ATOM     15  C   UNL A   1      38.346  31.523  30.460  1.00  0.00     0.049 A 
ATOM     16  N   UNL A   1      39.133  32.320  33.247  1.00  0.00    -0.248 NA
ATOM     17  C   UNL A   1      37.413  33.895  33.243  1.00  0.00     0.031 C 
ATOM     18  C   UNL A   1      38.012  31.102  29.099  1.00  0.00     0.029 A 
ATOM     19  N   UNL A   1      39.395  30.711  30.812  1.00  0.00    -0.354 N 
ATOM     20  C   UNL A   1      39.141  33.008  34.454  1.00  0.00     0.074 A 
ATOM     21  C   UNL A   1      38.087  33.998  34.380  1.00  0.00     0.031 C 
ATOM     22  C   UNL A   1      38.794  30.069  28.756  1.00  0.00     0.029 A 
ATOM     23  C   UNL A   1      39.723  29.792  29.845  1.00  0.00     0.049 A 
ATOM     24  H   UNL A   1      39.866  30.780  31.674  1.00  0.00     0.167 HD
ATOM     25  C   UNL A   1      39.943  32.821  35.530  1.00  0.00     0.037 A 
ATOM     26  C   UNL A   1      40.667  28.833  29.832  1.00  0.00     0.037 A 
ATOM     27  C   UNL A   1      40.978  31.822  35.610  1.00  0.00     0.049 A 
ATOM     28  C   UNL A   1      41.547  28.650  31.035  1.00  0.00     0.074 A 
ATOM     29  C   UNL A   1      41.831  31.549  36.665  1.00  0.00     0.029 A 
ATOM     30  N   UNL A   1      41.299  30.932  34.596  1.00  0.00    -0.354 N 
ATOM     31  N   UNL A   1      41.532  29.299  32.173  1.00  0.00    -0.248 NA
ATOM     32  C   UNL A   1      42.576  27.604  30.952  1.00  0.00     0.031 C 
ATOM     33  C   UNL A   1      42.696  30.521  36.275  1.00  0.00     0.029 A 
ATOM     34  C   UNL A   1      42.346  30.117  34.997  1.00  0.00     0.049 A 
ATOM     35  H   UNL A   1      40.850  30.886  33.721  1.00  0.00     0.167 HD
ATOM     36  C   UNL A   1      42.533  28.732  32.948  1.00  0.00     0.074 A 
ATOM     37  C   UNL A   1      43.126  27.674  32.156  1.00  0.00     0.031 C 
ATOM     38  C   UNL A   1      42.925  29.062  34.203  1.00  0.00     0.037 A 
BRANCH  25  39
ATOM     39  C   UNL A   1      39.739  33.716  36.719  1.00  0.00     0.064 A 
ATOM     40  C   UNL A   1      38.881  33.333  37.761  1.00  0.00     0.173 A 
ATOM     41  C   UNL A   1      40.341  34.982  36.798  1.00  0.00     0.173 A 
ATOM     42  F   UNL A   1      38.275  32.136  37.733  1.00  0.00    -0.203 F 
ATOM     43  C   UNL A   1      38.625  34.187  38.832  1.00  0.00     0.198 A 
ATOM     44  C   UNL A   1      40.104  35.822  37.883  1.00  0.00     0.198 A 
ATOM     45  F   UNL A   1      41.178  35.392  35.833  1.00  0.00    -0.203 F 
ATOM     46  F   UNL A   1      37.779  33.810  39.800  1.00  0.00    -0.200 F 
ATOM     47  C   UNL A   1      39.240  35.427  38.894  1.00  0.00     0.200 A 
ATOM     48  F   UNL A   1      40.718  37.011  37.954  1.00  0.00    -0.200 F 
ATOM     49  F   UNL A   1      39.003  36.243  39.931  1.00  0.00    -0.200 F 
ENDBRANCH  25  39
BRANCH  26  50
ATOM     50  C   UNL A   1      40.798  27.959  28.638  1.00  0.00     0.064 A 
ATOM     51  C   UNL A   1      41.594  28.335  27.546  1.00  0.00     0.173 A 
ATOM     52  C   UNL A   1      40.084  26.757  28.544  1.00  0.00     0.173 A 
ATOM     53  F   UNL A   1      42.290  29.481  27.586  1.00  0.00    -0.203 F 
ATOM     54  C   UNL A   1      41.649  27.556  26.394  1.00  0.00     0.198 A 
ATOM     55  C   UNL A   1      40.161  25.964  27.401  1.00  0.00     0.198 A 
ATOM     56  F   UNL A   1      39.323  26.348  29.570  1.00  0.00    -0.203 F 
ATOM     57  F   UNL A   1      42.381  27.962  25.346  1.00  0.00    -0.200 F 
ATOM     58  C   UNL A   1      40.935  26.370  26.323  1.00  0.00     0.200 A 
ATOM     59  F   UNL A   1      39.487  24.808  27.344  1.00  0.00    -0.200 F 
ATOM     60  F   UNL A   1      40.991  25.618  25.215  1.00  0.00    -0.200 F 
ENDBRANCH  26  50
BRANCH  38  61
ATOM     61  C   UNL A   1      44.030  28.257  34.819  1.00  0.00     0.064 A 
ATOM     62  C   UNL A   1      43.737  27.107  35.566  1.00  0.00     0.173 A 
ATOM     63  C   UNL A   1      45.371  28.657  34.727  1.00  0.00     0.173 A 
ATOM     64  F   UNL A   1      42.469  26.687  35.692  1.00  0.00    -0.203 F 
ATOM     65  C   UNL A   1      44.745  26.392  36.208  1.00  0.00     0.198 A 
ATOM     66  C   UNL A   1      46.380  27.924  35.345  1.00  0.00     0.198 A 
ATOM     67  F   UNL A   1      45.703  29.743  34.012  1.00  0.00    -0.203 F 
ATOM     68  F   UNL A   1      44.437  25.313  36.940  1.00  0.00    -0.200 F 
ATOM     69  C   UNL A   1      46.066  26.798  36.093  1.00  0.00     0.200 A 
ATOM     70  F   UNL A   1      47.658  28.304  35.214  1.00  0.00    -0.200 F 
ATOM     71  F   UNL A   1      47.037  26.103  36.700  1.00  0.00    -0.200 F 
ENDBRANCH  38  61
ENDBRANCH  12  13
ENDBRANCH   5   7
ENDBRANCH   2   3
ENDBRANCH   1   2
BRANCH   1  72
ATOM     72  C   UNL A   1      31.528  30.508  26.312  1.00  0.00     0.118 C 
BRANCH  72  73
ATOM     73  N   UNL A   1      32.593  30.116  25.401  1.00  0.00    -0.352 N 
ATOM     74  C   UNL A   1      32.650  29.081  24.495  1.00  0.00     0.258 C 
ATOM     75  H   UNL A   1      33.400  30.679  25.438  1.00  0.00     0.163 HD
ATOM     76  O   UNL A   1      33.588  29.011  23.705  1.00  0.00    -0.269 OA
BRANCH  74  77
ATOM     77  C   UNL A   1      31.584  28.072  24.454  1.00  0.00     0.118 A 
ATOM     78  C   UNL A   1      31.535  27.185  25.539  1.00  0.00     0.139 A 
ATOM     79  C   UNL A   1      30.585  28.007  23.471  1.00  0.00     0.143 A 
ATOM     80  F   UNL A   1      32.447  27.254  26.521  1.00  0.00    -0.206 F 
ATOM     81  C   UNL A   1      30.559  26.196  25.632  1.00  0.00     0.040 A 
ATOM     82  C   UNL A   1      29.596  27.010  23.585  1.00  0.00     0.048 A 
ATOM     83  C   UNL A   1      29.587  26.104  24.646  1.00  0.00     0.007 A 
BRANCH  79  84
ATOM     84  O   UNL A   1      30.348  28.831  22.391  1.00  0.00    -0.456 OA
BRANCH  84  85
ATOM     85  C   UNL A   1      29.552  29.936  22.495  1.00  0.00     0.128 A 
ATOM     86  C   UNL A   1      29.289  30.540  23.724  1.00  0.00     0.047 A 
ATOM     87  C   UNL A   1      29.114  30.523  21.307  1.00  0.00     0.067 A 
ATOM     88  C   UNL A   1      28.510  31.698  23.770  1.00  0.00     0.005 A 
ATOM     89  C   UNL A   1      28.341  31.679  21.359  1.00  0.00     0.044 A 
ATOM     90  C   UNL A   1      28.029  32.264  22.587  1.00  0.00     0.021 A 
ATOM     91  Cl  UNL A   1      27.781  32.402  19.902  1.00  0.00    -0.084 Cl
ENDBRANCH  84  85
ENDBRANCH  79  84
ENDBRANCH  74  77
ENDBRANCH  72  73
ENDBRANCH   1  72
TORSDOF 12
ENDMDL
MODEL 2
REMARK VINA RESULT:     -13.2      0.172      1.152
REMARK SMILES O=C(NCCCNC(=O)c1c(F)cccc1Oc1cccc(Cl)c1)c1ccc(-c2c3nc(c(-c4c(F)c(F)c(F)c(F)c4F)c4ccc([nH]4)c(-c4c(F)c(F)c(F)c(F)c4F)c4nc(c(-c5c(F)c(F)c(F)c(F)c5F)c5ccc2[nH]5)C=C4)C=C3)cc1
REMARK SMILES IDX 5 1 4 2 3 3 1 4 2 5 25 7 26 8 87 9 27 10 86 11 28 12 29 13
REMARK SMILES IDX 30 14 80 15 31 16 85 17 79 18 81 19 32 20 84 21 78 22 77 23
REMARK SMILES IDX 33 25 65 26 45 27 64 28 46 29 49 30 63 31 82 32 47 33 48 34
REMARK SMILES IDX 62 36 83 37 50 38 34 39 35 40 43 41 36 42 37 43 41 44 44 45
REMARK SMILES IDX 38 46 39 47 42 48 40 49 66 50 67 51 75 52 68 53 69 54 73 55
REMARK SMILES IDX 76 56 70 57 71 58 74 59 72 60 51 61 52 62 60 63 53 64 54 65
REMARK SMILES IDX 58 66 61 67 55 68 56 69 59 70 57 71 6 72 7 73 8 74 9 76
REMARK SMILES IDX 10 77 11 78 16 79 12 80 13 81 15 82 14 83 17 84 18 85 19 86
REMARK SMILES IDX 24 87 20 88 22 89 21 90 23 91
REMARK H PARENT 3 6 81 24 49 35 7 75
REMARK Flexibility Score: inf
ROOT
ATOM      1  C   UNL A   1      31.402  31.952  26.550  1.00  0.00     0.042 C 
ENDROOT
BRANCH   1   2
ATOM      2  C   UNL A   1      32.663  32.667  27.016  1.00  0.00     0.118 C 
BRANCH   2   3
ATOM      3  N   UNL A   1      32.414  34.001  27.549  1.00  0.00    -0.352 N 
ATOM      4  O   UNL A   1      32.528  35.787  28.906  1.00  0.00    -0.269 OA
ATOM      5  C   UNL A   1      33.015  34.713  28.558  1.00  0.00     0.251 C 
ATOM      6  H   UNL A   1      31.679  34.481  27.102  1.00  0.00     0.163 HD
BRANCH   5   7
ATOM      7  C   UNL A   1      34.210  34.199  29.266  1.00  0.00     0.039 A 
ATOM      8  C   UNL A   1      35.501  34.544  28.873  1.00  0.00     0.014 A 
ATOM      9  C   UNL A   1      34.031  33.368  30.379  1.00  0.00     0.014 A 
ATOM     10  C   UNL A   1      36.596  33.908  29.448  1.00  0.00     0.010 A 
ATOM     11  C   UNL A   1      35.140  32.815  31.032  1.00  0.00     0.010 A 
ATOM     12  C   UNL A   1      36.432  33.035  30.535  1.00  0.00    -0.014 A 
BRANCH  12  13
ATOM     13  C   UNL A   1      37.629  32.383  31.133  1.00  0.00     0.031 A 
ATOM     14  C   UNL A   1      38.078  32.719  32.530  1.00  0.00     0.074 A 
ATOM     15  C   UNL A   1      38.278  31.433  30.431  1.00  0.00     0.049 A 
ATOM     16  N   UNL A   1      39.058  32.198  33.228  1.00  0.00    -0.248 NA
ATOM     17  C   UNL A   1      37.341  33.776  33.237  1.00  0.00     0.031 C 
ATOM     18  C   UNL A   1      37.947  31.028  29.064  1.00  0.00     0.029 A 
ATOM     19  N   UNL A   1      39.325  30.615  30.777  1.00  0.00    -0.354 N 
ATOM     20  C   UNL A   1      39.064  32.873  34.443  1.00  0.00     0.074 A 
ATOM     21  C   UNL A   1      38.012  33.865  34.377  1.00  0.00     0.031 C 
ATOM     22  C   UNL A   1      38.728  29.997  28.712  1.00  0.00     0.029 A 
ATOM     23  C   UNL A   1      39.654  29.707  29.801  1.00  0.00     0.049 A 
ATOM     24  H   UNL A   1      39.793  30.674  31.641  1.00  0.00     0.167 HD
ATOM     25  C   UNL A   1      39.862  32.673  35.519  1.00  0.00     0.037 A 
ATOM     26  C   UNL A   1      40.596  28.746  29.780  1.00  0.00     0.037 A 
ATOM     27  C   UNL A   1      40.896  31.672  35.591  1.00  0.00     0.049 A 
ATOM     28  C   UNL A   1      41.473  28.549  30.983  1.00  0.00     0.074 A 
ATOM     29  C   UNL A   1      41.746  31.386  36.646  1.00  0.00     0.029 A 
ATOM     30  N   UNL A   1      41.218  30.792  34.568  1.00  0.00    -0.354 N 
ATOM     31  N   UNL A   1      41.455  29.185  32.128  1.00  0.00    -0.248 NA
ATOM     32  C   UNL A   1      42.500  27.502  30.892  1.00  0.00     0.031 C 
ATOM     33  C   UNL A   1      42.609  30.361  36.247  1.00  0.00     0.029 A 
ATOM     34  C   UNL A   1      42.263  29.971  34.963  1.00  0.00     0.049 A 
ATOM     35  H   UNL A   1      40.772  30.756  33.691  1.00  0.00     0.167 HD
ATOM     36  C   UNL A   1      42.454  28.608  32.900  1.00  0.00     0.074 A 
ATOM     37  C   UNL A   1      43.047  27.558  32.099  1.00  0.00     0.031 C 
ATOM     38  C   UNL A   1      42.842  28.924  34.159  1.00  0.00     0.037 A 
BRANCH  25  39
ATOM     39  C   UNL A   1      39.657  33.556  36.717  1.00  0.00     0.064 A 
ATOM     40  C   UNL A   1      38.787  33.167  37.748  1.00  0.00     0.173 A 
ATOM     41  C   UNL A   1      40.268  34.815  36.816  1.00  0.00     0.173 A 
ATOM     42  F   UNL A   1      38.171  31.976  37.700  1.00  0.00    -0.203 F 
ATOM     43  C   UNL A   1      38.530  34.010  38.827  1.00  0.00     0.198 A 
ATOM     44  C   UNL A   1      40.030  35.644  37.910  1.00  0.00     0.198 A 
ATOM     45  F   UNL A   1      41.117  35.230  35.863  1.00  0.00    -0.203 F 
ATOM     46  F   UNL A   1      37.673  33.629  39.784  1.00  0.00    -0.200 F 
ATOM     47  C   UNL A   1      39.154  35.244  38.909  1.00  0.00     0.200 A 
ATOM     48  F   UNL A   1      40.653  36.827  38.000  1.00  0.00    -0.200 F 
ATOM     49  F   UNL A   1      38.916  36.050  39.953  1.00  0.00    -0.200 F 
ENDBRANCH  25  39
BRANCH  26  50
ATOM     50  C   UNL A   1      40.730  27.885  28.577  1.00  0.00     0.064 A 
ATOM     51  C   UNL A   1      41.515  28.280  27.485  1.00  0.00     0.173 A 
ATOM     52  C   UNL A   1      40.027  26.677  28.475  1.00  0.00     0.173 A 
ATOM     53  F   UNL A   1      42.201  29.432  27.531  1.00  0.00    -0.203 F 
ATOM     54  C   UNL A   1      41.571  27.512  26.324  1.00  0.00     0.198 A 
ATOM     55  C   UNL A   1      40.106  25.896  27.324  1.00  0.00     0.198 A 
ATOM     56  F   UNL A   1      39.276  26.251  29.501  1.00  0.00    -0.203 F 
ATOM     57  F   UNL A   1      42.294  27.935  25.277  1.00  0.00    -0.200 F 
ATOM     58  C   UNL A   1      40.869  26.320  26.246  1.00  0.00     0.200 A 
ATOM     59  F   UNL A   1      39.442  24.734  27.260  1.00  0.00    -0.200 F 
ATOM     60  F   UNL A   1      40.926  25.579  25.131  1.00  0.00    -0.200 F 
ENDBRANCH  26  50
BRANCH  38  61
ATOM     61  C   UNL A   1      43.944  28.111  34.770  1.00  0.00     0.064 A 
ATOM     62  C   UNL A   1      45.283  28.498  34.610  1.00  0.00     0.173 A 
ATOM     63  C   UNL A   1      43.683  26.916  35.457  1.00  0.00     0.173 A 
ATOM     64  F   UNL A   1      45.586  29.628  33.954  1.00  0.00    -0.203 F 
ATOM     65  C   UNL A   1      46.320  27.713  35.105  1.00  0.00     0.198 A 
ATOM     66  C   UNL A   1      44.721  26.148  35.977  1.00  0.00     0.198 A 
ATOM     67  F   UNL A   1      42.418  26.511  35.648  1.00  0.00    -0.203 F 
ATOM     68  F   UNL A   1      47.592  28.088  34.914  1.00  0.00    -0.200 F 
ATOM     69  C   UNL A   1      46.039  26.542  35.792  1.00  0.00     0.200 A 
ATOM     70  F   UNL A   1      44.447  25.029  36.661  1.00  0.00    -0.200 F 
ATOM     71  F   UNL A   1      47.037  25.793  36.280  1.00  0.00    -0.200 F 
ENDBRANCH  38  61
ENDBRANCH  12  13
ENDBRANCH   5   7
ENDBRANCH   2   3
ENDBRANCH   1   2
BRANCH   1  72
ATOM     72  C   UNL A   1      31.551  30.450  26.364  1.00  0.00     0.118 C 
BRANCH  72  73
ATOM     73  N   UNL A   1      32.607  30.078  25.433  1.00  0.00    -0.352 N 
ATOM     74  C   UNL A   1      32.665  29.046  24.524  1.00  0.00     0.258 C 
ATOM     75  H   UNL A   1      33.404  30.654  25.458  1.00  0.00     0.163 HD
ATOM     76  O   UNL A   1      33.590  28.993  23.718  1.00  0.00    -0.269 OA
BRANCH  74  77
ATOM     77  C   UNL A   1      31.615  28.019  24.500  1.00  0.00     0.118 A 
ATOM     78  C   UNL A   1      31.597  27.132  25.585  1.00  0.00     0.139 A 
ATOM     79  C   UNL A   1      30.603  27.937  23.532  1.00  0.00     0.143 A 
ATOM     80  F   UNL A   1      32.523  27.216  26.552  1.00  0.00    -0.206 F 
ATOM     81  C   UNL A   1      30.640  26.127  25.692  1.00  0.00     0.040 A 
ATOM     82  C   UNL A   1      29.631  26.925  23.661  1.00  0.00     0.048 A 
ATOM     83  C   UNL A   1      29.654  26.019  24.722  1.00  0.00     0.007 A 
BRANCH  79  84
ATOM     84  O   UNL A   1      30.336  28.757  22.455  1.00  0.00    -0.456 OA
BRANCH  84  85
ATOM     85  C   UNL A   1      29.544  29.864  22.577  1.00  0.00     0.128 A 
ATOM     86  C   UNL A   1      29.310  30.469  23.812  1.00  0.00     0.047 A 
ATOM     87  C   UNL A   1      29.080  30.452  21.400  1.00  0.00     0.067 A 
ATOM     88  C   UNL A   1      28.534  31.628  23.876  1.00  0.00     0.005 A 
ATOM     89  C   UNL A   1      28.310  31.609  21.470  1.00  0.00     0.044 A 
ATOM     90  C   UNL A   1      28.027  32.194  22.704  1.00  0.00     0.021 A 
ATOM     91  Cl  UNL A   1      27.717  32.332  20.026  1.00  0.00    -0.084 Cl
ENDBRANCH  84  85
ENDBRANCH  79  84
ENDBRANCH  74  77
ENDBRANCH  72  73
ENDBRANCH   1  72
TORSDOF 12
ENDMDL
MODEL 3
REMARK VINA RESULT:     -13.1      1.825      2.984
REMARK SMILES O=C(NCCCNC(=O)c1c(F)cccc1Oc1cccc(Cl)c1)c1ccc(-c2c3nc(c(-c4c(F)c(F)c(F)c(F)c4F)c4ccc([nH]4)c(-c4c(F)c(F)c(F)c(F)c4F)c4nc(c(-c5c(F)c(F)c(F)c(F)c5F)c5ccc2[nH]5)C=C4)C=C3)cc1
REMARK SMILES IDX 5 1 4 2 3 3 1 4 2 5 25 7 26 8 87 9 27 10 86 11 28 12 29 13
REMARK SMILES IDX 30 14 80 15 31 16 85 17 79 18 81 19 32 20 84 21 78 22 77 23
REMARK SMILES IDX 33 25 65 26 45 27 64 28 46 29 49 30 63 31 82 32 47 33 48 34
REMARK SMILES IDX 62 36 83 37 50 38 34 39 35 40 43 41 36 42 37 43 41 44 44 45
REMARK SMILES IDX 38 46 39 47 42 48 40 49 66 50 67 51 75 52 68 53 69 54 73 55
REMARK SMILES IDX 76 56 70 57 71 58 74 59 72 60 51 61 52 62 60 63 53 64 54 65
REMARK SMILES IDX 58 66 61 67 55 68 56 69 59 70 57 71 6 72 7 73 8 74 9 76
REMARK SMILES IDX 10 77 11 78 16 79 12 80 13 81 15 82 14 83 17 84 18 85 19 86
REMARK SMILES IDX 24 87 20 88 22 89 21 90 23 91
REMARK H PARENT 3 6 81 24 49 35 7 75
REMARK Flexibility Score: inf
ROOT
ATOM      1  C   UNL A   1      33.907  29.061  24.579  1.00  0.00     0.042 C 
ENDROOT
BRANCH   1   2
ATOM      2  C   UNL A   1      32.819  29.055  25.645  1.00  0.00     0.118 C 
BRANCH   2   3
ATOM      3  N   UNL A   1      32.471  30.386  26.129  1.00  0.00    -0.352 N 
ATOM      4  O   UNL A   1      32.522  32.265  27.359  1.00  0.00    -0.269 OA
ATOM      5  C   UNL A   1      33.094  31.233  27.013  1.00  0.00     0.251 C 
ATOM      6  H   UNL A   1      31.635  30.744  25.751  1.00  0.00     0.163 HD
BRANCH   5   7
ATOM      7  C   UNL A   1      34.419  30.911  27.593  1.00  0.00     0.039 A 
ATOM      8  C   UNL A   1      34.743  29.624  28.013  1.00  0.00     0.014 A 
ATOM      9  C   UNL A   1      35.379  31.926  27.689  1.00  0.00     0.014 A 
ATOM     10  C   UNL A   1      35.926  29.397  28.709  1.00  0.00     0.010 A 
ATOM     11  C   UNL A   1      36.618  31.670  28.288  1.00  0.00     0.010 A 
ATOM     12  C   UNL A   1      36.881  30.416  28.856  1.00  0.00    -0.014 A 
BRANCH  12  13
ATOM     13  C   UNL A   1      38.141  30.132  29.595  1.00  0.00     0.031 A 
ATOM     14  C   UNL A   1      38.347  30.633  31.000  1.00  0.00     0.074 A 
ATOM     15  C   UNL A   1      39.081  29.360  29.015  1.00  0.00     0.049 A 
ATOM     16  N   UNL A   1      39.355  30.421  31.811  1.00  0.00    -0.248 NA
ATOM     17  C   UNL A   1      37.294  31.485  31.570  1.00  0.00     0.031 C 
ATOM     18  C   UNL A   1      39.004  28.825  27.655  1.00  0.00     0.029 A 
ATOM     19  N   UNL A   1      40.266  28.865  29.501  1.00  0.00    -0.354 N 
ATOM     20  C   UNL A   1      39.065  31.124  32.974  1.00  0.00     0.074 A 
ATOM     21  C   UNL A   1      37.803  31.797  32.754  1.00  0.00     0.031 C 
ATOM     22  C   UNL A   1      40.058  28.025  27.438  1.00  0.00     0.029 A 
ATOM     23  C   UNL A   1      40.916  28.037  28.618  1.00  0.00     0.049 A 
ATOM     24  H   UNL A   1      40.615  29.083  30.395  1.00  0.00     0.167 HD
ATOM     25  C   UNL A   1      39.778  31.188  34.124  1.00  0.00     0.037 A 
ATOM     26  C   UNL A   1      42.073  27.361  28.741  1.00  0.00     0.037 A 
ATOM     27  C   UNL A   1      41.024  30.502  34.349  1.00  0.00     0.049 A 
ATOM     28  C   UNL A   1      42.847  27.455  30.024  1.00  0.00     0.074 A 
ATOM     29  C   UNL A   1      41.811  30.496  35.488  1.00  0.00     0.029 A 
ATOM     30  N   UNL A   1      41.664  29.698  33.418  1.00  0.00    -0.354 N 
ATOM     31  N   UNL A   1      42.552  28.111  31.119  1.00  0.00    -0.248 NA
ATOM     32  C   UNL A   1      44.116  26.716  30.089  1.00  0.00     0.031 C 
ATOM     33  C   UNL A   1      42.947  29.722  35.232  1.00  0.00     0.029 A 
ATOM     34  C   UNL A   1      42.843  29.201  33.953  1.00  0.00     0.049 A 
ATOM     35  H   UNL A   1      41.332  29.508  32.511  1.00  0.00     0.167 HD
ATOM     36  C   UNL A   1      43.585  27.853  32.008  1.00  0.00     0.074 A 
ATOM     37  C   UNL A   1      44.508  26.966  31.331  1.00  0.00     0.031 C 
ATOM     38  C   UNL A   1      43.751  28.313  33.272  1.00  0.00     0.037 A 
BRANCH  25  39
ATOM     39  C   UNL A   1      39.232  32.034  35.239  1.00  0.00     0.064 A 
ATOM     40  C   UNL A   1      39.586  33.388  35.345  1.00  0.00     0.173 A 
ATOM     41  C   UNL A   1      38.413  31.492  36.241  1.00  0.00     0.173 A 
ATOM     42  F   UNL A   1      40.373  33.956  34.418  1.00  0.00    -0.203 F 
ATOM     43  C   UNL A   1      39.148  34.163  36.416  1.00  0.00     0.198 A 
ATOM     44  C   UNL A   1      37.955  32.277  37.296  1.00  0.00     0.198 A 
ATOM     45  F   UNL A   1      38.036  30.205  36.182  1.00  0.00    -0.203 F 
ATOM     46  F   UNL A   1      39.524  35.447  36.510  1.00  0.00    -0.200 F 
ATOM     47  C   UNL A   1      38.330  33.609  37.387  1.00  0.00     0.200 A 
ATOM     48  F   UNL A   1      37.143  31.746  38.221  1.00  0.00    -0.200 F 
ATOM     49  F   UNL A   1      37.899  34.359  38.411  1.00  0.00    -0.200 F 
ENDBRANCH  25  39
BRANCH  26  50
ATOM     50  C   UNL A   1      42.544  26.518  27.613  1.00  0.00     0.064 A 
ATOM     51  C   UNL A   1      42.096  25.198  27.455  1.00  0.00     0.173 A 
ATOM     52  C   UNL A   1      43.496  26.997  26.704  1.00  0.00     0.173 A 
ATOM     53  F   UNL A   1      41.190  24.691  28.305  1.00  0.00    -0.203 F 
ATOM     54  C   UNL A   1      42.602  24.382  26.447  1.00  0.00     0.198 A 
ATOM     55  C   UNL A   1      43.982  26.188  25.679  1.00  0.00     0.198 A 
ATOM     56  F   UNL A   1      43.943  28.258  26.805  1.00  0.00    -0.203 F 
ATOM     57  F   UNL A   1      42.190  23.110  26.347  1.00  0.00    -0.200 F 
ATOM     58  C   UNL A   1      43.543  24.878  25.559  1.00  0.00     0.200 A 
ATOM     59  F   UNL A   1      44.875  26.678  24.809  1.00  0.00    -0.200 F 
ATOM     60  F   UNL A   1      44.027  24.093  24.586  1.00  0.00    -0.200 F 
ENDBRANCH  26  50
BRANCH  38  61
ATOM     61  C   UNL A   1      44.962  27.848  34.025  1.00  0.00     0.064 A 
ATOM     62  C   UNL A   1      44.908  26.682  34.802  1.00  0.00     0.173 A 
ATOM     63  C   UNL A   1      46.153  28.588  34.032  1.00  0.00     0.173 A 
ATOM     64  F   UNL A   1      43.788  25.943  34.836  1.00  0.00    -0.203 F 
ATOM     65  C   UNL A   1      45.998  26.279  35.568  1.00  0.00     0.198 A 
ATOM     66  C   UNL A   1      47.252  28.167  34.776  1.00  0.00     0.198 A 
ATOM     67  F   UNL A   1      46.258  29.704  33.294  1.00  0.00    -0.203 F 
ATOM     68  F   UNL A   1      45.913  25.177  36.325  1.00  0.00    -0.200 F 
ATOM     69  C   UNL A   1      47.171  27.019  35.550  1.00  0.00     0.200 A 
ATOM     70  F   UNL A   1      48.392  28.871  34.739  1.00  0.00    -0.200 F 
ATOM     71  F   UNL A   1      48.225  26.624  36.277  1.00  0.00    -0.200 F 
ENDBRANCH  38  61
ENDBRANCH  12  13
ENDBRANCH   5   7
ENDBRANCH   2   3
ENDBRANCH   1   2
BRANCH   1  72
ATOM     72  C   UNL A   1      33.402  29.229  23.153  1.00  0.00     0.118 C 
BRANCH  72  73
ATOM     73  N   UNL A   1      33.660  28.076  22.302  1.00  0.00    -0.352 N 
ATOM     74  C   UNL A   1      32.889  26.962  22.060  1.00  0.00     0.258 C 
ATOM     75  H   UNL A   1      34.521  28.097  21.825  1.00  0.00     0.163 HD
ATOM     76  O   UNL A   1      33.221  26.168  21.184  1.00  0.00    -0.269 OA
BRANCH  74  77
ATOM     77  C   UNL A   1      31.661  26.729  22.831  1.00  0.00     0.118 A 
ATOM     78  C   UNL A   1      31.748  25.774  23.854  1.00  0.00     0.139 A 
ATOM     79  C   UNL A   1      30.470  27.452  22.670  1.00  0.00     0.143 A 
ATOM     80  F   UNL A   1      32.890  25.101  24.064  1.00  0.00    -0.206 F 
ATOM     81  C   UNL A   1      30.662  25.476  24.671  1.00  0.00     0.040 A 
ATOM     82  C   UNL A   1      29.382  27.151  23.513  1.00  0.00     0.048 A 
ATOM     83  C   UNL A   1      29.469  26.164  24.496  1.00  0.00     0.007 A 
BRANCH  79  84
ATOM     84  O   UNL A   1      30.179  28.509  21.832  1.00  0.00    -0.456 OA
BRANCH  84  85
ATOM     85  C   UNL A   1      29.636  29.670  22.306  1.00  0.00     0.128 A 
ATOM     86  C   UNL A   1      29.807  30.076  23.629  1.00  0.00     0.047 A 
ATOM     87  C   UNL A   1      29.011  30.507  21.382  1.00  0.00     0.067 A 
ATOM     88  C   UNL A   1      29.275  31.296  24.050  1.00  0.00     0.005 A 
ATOM     89  C   UNL A   1      28.485  31.724  21.807  1.00  0.00     0.044 A 
ATOM     90  C   UNL A   1      28.606  32.117  23.140  1.00  0.00     0.021 A 
ATOM     91  Cl  UNL A   1      27.696  32.757  20.680  1.00  0.00    -0.084 Cl
ENDBRANCH  84  85
ENDBRANCH  79  84
ENDBRANCH  74  77
ENDBRANCH  72  73
ENDBRANCH   1  72
TORSDOF 12
ENDMDL
