MODEL 1
REMARK VINA RESULT:     -14.2      0.000      0.000
REMARK SMILES Cc1cc(C)c(S(=O)(=O)n2cc([C@@H](C)[C@@H]([NH3+])C(=O)NCCCNC(=O)c3ccc(-c4c5nc(c(-c6c(F)c(F)c(F)c(F)c6F)c6ccc([nH]6)c(-c6c(F)c(F)c(F)c(F)c6F)c6nc(c(-c7c(F)c(F)c(F)c(F)c7F)c7ccc4[nH]7)C=C6)C=C5)cc3)c3ccccc32)c(C)c1
REMARK SMILES IDX 20 1 19 2 17 3 18 4 15 6 13 7 14 8 12 9 10 10 11 11 94 12
REMARK SMILES IDX 89 13 93 14 90 15 92 16 91 17 7 18 8 19 9 20 6 21 1 22 2 23
REMARK SMILES IDX 3 24 97 25 4 26 95 27 5 28 96 29 16 30 21 34 22 35 23 36
REMARK SMILES IDX 24 37 25 39 26 40 27 41 88 42 28 43 87 44 29 45 30 46 31 47
REMARK SMILES IDX 81 48 32 49 86 50 80 51 82 52 33 53 85 54 79 55 78 56 34 58
REMARK SMILES IDX 66 59 46 60 65 61 47 62 50 63 64 64 83 65 48 66 49 67 63 69
REMARK SMILES IDX 84 70 51 71 35 72 36 73 44 74 37 75 38 76 42 77 45 78 39 79
REMARK SMILES IDX 40 80 43 81 41 82 67 83 68 84 76 85 69 86 70 87 74 88 77 89
REMARK SMILES IDX 71 90 72 91 75 92 73 93 52 94 53 95 61 96 54 97 55 98 59 99
REMARK SMILES IDX 62 100 56 101 57 102 60 103 58 104
REMARK H PARENT 19 5 16 31 16 32 16 33 23 38 82 57 50 68
REMARK Flexibility Score: inf
ROOT
ATOM      1  C   UNL A   1      35.591  22.043  25.149  1.00  0.00     0.118 C 
ENDROOT
BRANCH   1   2
ATOM      2  N   UNL A   1      35.616  20.624  24.838  1.00  0.00    -0.351 N 
ATOM      3  C   UNL A   1      34.657  19.668  24.986  1.00  0.00     0.278 C 
ATOM      4  O   UNL A   1      34.921  18.529  24.584  1.00  0.00    -0.268 OA
ATOM      5  H   UNL A   1      36.466  20.301  24.459  1.00  0.00     0.163 HD
BRANCH   3   6
ATOM      6  C   UNL A   1      33.289  19.965  25.633  1.00  0.00     0.278 C 
BRANCH   6   7
ATOM      7  C   UNL A   1      32.213  20.359  24.586  1.00  0.00     0.086 C 
ATOM      8  C   UNL A   1      32.528  19.814  23.188  1.00  0.00     0.020 C 
BRANCH   7   9
ATOM      9  C   UNL A   1      31.962  21.852  24.548  1.00  0.00    -0.012 A 
ATOM     10  N   UNL A   1      32.091  23.980  23.899  1.00  0.00    -0.241 N 
ATOM     11  C   UNL A   1      32.547  22.715  23.640  1.00  0.00     0.109 A 
ATOM     12  C   UNL A   1      31.138  23.971  24.894  1.00  0.00     0.064 A 
ATOM     13  C   UNL A   1      31.099  22.652  25.375  1.00  0.00     0.004 A 
ATOM     14  C   UNL A   1      30.356  24.993  25.462  1.00  0.00     0.028 A 
ATOM     15  C   UNL A   1      30.283  22.370  26.491  1.00  0.00     0.010 A 
ATOM     16  C   UNL A   1      29.566  24.681  26.571  1.00  0.00     0.002 A 
ATOM     17  C   UNL A   1      29.539  23.391  27.088  1.00  0.00     0.001 A 
BRANCH  10  18
ATOM     18  S   UNL A   1      32.682  25.344  23.085  1.00  0.00     0.268 S 
ATOM     19  O   UNL A   1      31.646  25.636  22.098  1.00  0.00    -0.201 OA
ATOM     20  O   UNL A   1      34.029  24.999  22.688  1.00  0.00    -0.201 OA
BRANCH  18  21
ATOM     21  C   UNL A   1      32.814  26.777  24.159  1.00  0.00     0.094 A 
ATOM     22  C   UNL A   1      33.658  30.138  26.767  1.00  0.00     0.044 C 
ATOM     23  C   UNL A   1      33.352  28.973  25.876  1.00  0.00    -0.051 A 
ATOM     24  C   UNL A   1      33.917  27.728  26.127  1.00  0.00     0.008 A 
ATOM     25  C   UNL A   1      32.475  29.099  24.803  1.00  0.00     0.008 A 
ATOM     26  C   UNL A   1      33.663  26.623  25.293  1.00  0.00    -0.030 A 
ATOM     27  C   UNL A   1      32.153  28.013  23.958  1.00  0.00    -0.030 A 
ATOM     28  C   UNL A   1      34.317  25.331  25.727  1.00  0.00     0.046 C 
ATOM     29  C   UNL A   1      31.106  28.327  22.930  1.00  0.00     0.046 C 
ENDBRANCH  18  21
ENDBRANCH  10  18
ENDBRANCH   7   9
ENDBRANCH   6   7
BRANCH   6  30
ATOM     30  N   UNL A   1      32.903  18.823  26.502  1.00  0.00    -0.347 N 
ATOM     31  H   UNL A   1      32.576  18.050  25.921  1.00  0.00     0.345 HD
ATOM     32  H   UNL A   1      32.157  19.113  27.133  1.00  0.00     0.345 HD
ATOM     33  H   UNL A   1      33.712  18.521  27.045  1.00  0.00     0.345 HD
ENDBRANCH   6  30
ENDBRANCH   3   6
ENDBRANCH   1   2
BRANCH   1  34
ATOM     34  C   UNL A   1      36.787  22.470  26.002  1.00  0.00     0.042 C 
BRANCH  34  35
ATOM     35  C   UNL A   1      38.145  22.313  25.314  1.00  0.00     0.118 C 
BRANCH  35  36
ATOM     36  N   UNL A   1      39.187  21.780  26.170  1.00  0.00    -0.352 N 
ATOM     37  C   UNL A   1      40.030  22.291  27.118  1.00  0.00     0.251 C 
ATOM     38  H   UNL A   1      39.321  20.814  26.036  1.00  0.00     0.163 HD
ATOM     39  O   UNL A   1      40.696  21.461  27.744  1.00  0.00    -0.269 OA
BRANCH  37  40
ATOM     40  C   UNL A   1      40.240  23.735  27.416  1.00  0.00     0.039 A 
ATOM     41  C   UNL A   1      41.345  24.278  28.064  1.00  0.00     0.014 A 
ATOM     42  C   UNL A   1      39.184  24.603  27.059  1.00  0.00     0.014 A 
ATOM     43  C   UNL A   1      41.359  25.628  28.415  1.00  0.00     0.010 A 
ATOM     44  C   UNL A   1      39.200  25.957  27.394  1.00  0.00     0.010 A 
ATOM     45  C   UNL A   1      40.276  26.464  28.107  1.00  0.00    -0.014 A 
BRANCH  45  46
ATOM     46  C   UNL A   1      40.394  27.876  28.476  1.00  0.00     0.031 A 
ATOM     47  C   UNL A   1      41.602  28.556  27.935  1.00  0.00     0.074 A 
ATOM     48  C   UNL A   1      39.524  28.583  29.224  1.00  0.00     0.049 A 
ATOM     49  N   UNL A   1      42.647  28.936  28.594  1.00  0.00    -0.248 NA
ATOM     50  C   UNL A   1      41.706  28.737  26.483  1.00  0.00     0.031 C 
ATOM     51  C   UNL A   1      38.167  28.222  29.637  1.00  0.00     0.029 A 
ATOM     52  N   UNL A   1      39.685  29.838  29.747  1.00  0.00    -0.354 N 
ATOM     53  C   UNL A   1      43.486  29.551  27.669  1.00  0.00     0.074 A 
ATOM     54  C   UNL A   1      42.914  29.294  26.373  1.00  0.00     0.031 C 
ATOM     55  C   UNL A   1      37.562  29.303  30.185  1.00  0.00     0.029 A 
ATOM     56  C   UNL A   1      38.535  30.376  30.307  1.00  0.00     0.049 A 
ATOM     57  H   UNL A   1      40.545  30.319  29.727  1.00  0.00     0.167 HD
ATOM     58  C   UNL A   1      44.472  30.396  28.079  1.00  0.00     0.037 A 
ATOM     59  C   UNL A   1      38.395  31.621  30.826  1.00  0.00     0.037 A 
ATOM     60  C   UNL A   1      44.774  30.200  29.475  1.00  0.00     0.049 A 
ATOM     61  C   UNL A   1      39.738  32.086  31.239  1.00  0.00     0.074 A 
ATOM     62  C   UNL A   1      45.294  29.180  30.244  1.00  0.00     0.029 A 
ATOM     63  N   UNL A   1      44.215  31.093  30.350  1.00  0.00    -0.354 N 
ATOM     64  N   UNL A   1      40.413  31.587  32.235  1.00  0.00    -0.248 NA
ATOM     65  C   UNL A   1      40.493  32.947  30.341  1.00  0.00     0.031 C 
ATOM     66  C   UNL A   1      44.673  29.313  31.523  1.00  0.00     0.029 A 
ATOM     67  C   UNL A   1      43.828  30.423  31.477  1.00  0.00     0.049 A 
ATOM     68  H   UNL A   1      44.108  32.059  30.193  1.00  0.00     0.167 HD
ATOM     69  C   UNL A   1      41.736  31.712  31.852  1.00  0.00     0.074 A 
ATOM     70  C   UNL A   1      41.728  32.696  30.778  1.00  0.00     0.031 C 
ATOM     71  C   UNL A   1      42.661  30.791  32.246  1.00  0.00     0.037 A 
BRANCH  58  72
ATOM     72  C   UNL A   1      44.855  31.681  27.367  1.00  0.00     0.064 A 
ATOM     73  C   UNL A   1      46.143  31.781  26.794  1.00  0.00     0.173 A 
ATOM     74  C   UNL A   1      44.171  32.906  27.523  1.00  0.00     0.173 A 
ATOM     75  F   UNL A   1      46.891  30.685  26.592  1.00  0.00    -0.203 F 
ATOM     76  C   UNL A   1      46.742  33.015  26.523  1.00  0.00     0.198 A 
ATOM     77  C   UNL A   1      44.753  34.131  27.204  1.00  0.00     0.198 A 
ATOM     78  F   UNL A   1      42.962  32.984  28.089  1.00  0.00    -0.203 F 
ATOM     79  F   UNL A   1      48.021  33.061  26.126  1.00  0.00    -0.200 F 
ATOM     80  C   UNL A   1      46.051  34.190  26.743  1.00  0.00     0.200 A 
ATOM     81  F   UNL A   1      44.071  35.263  27.434  1.00  0.00    -0.200 F 
ATOM     82  F   UNL A   1      46.647  35.375  26.559  1.00  0.00    -0.200 F 
ENDBRANCH  58  72
BRANCH  59  83
ATOM     83  C   UNL A   1      37.231  32.538  30.780  1.00  0.00     0.064 A 
ATOM     84  C   UNL A   1      36.917  33.250  29.607  1.00  0.00     0.173 A 
ATOM     85  C   UNL A   1      36.230  32.489  31.767  1.00  0.00     0.173 A 
ATOM     86  F   UNL A   1      37.801  33.318  28.601  1.00  0.00    -0.203 F 
ATOM     87  C   UNL A   1      35.659  33.827  29.412  1.00  0.00     0.198 A 
ATOM     88  C   UNL A   1      34.976  33.073  31.573  1.00  0.00     0.198 A 
ATOM     89  F   UNL A   1      36.411  31.787  32.894  1.00  0.00    -0.203 F 
ATOM     90  F   UNL A   1      35.371  34.423  28.246  1.00  0.00    -0.200 F 
ATOM     91  C   UNL A   1      34.684  33.723  30.388  1.00  0.00     0.200 A 
ATOM     92  F   UNL A   1      34.028  32.936  32.512  1.00  0.00    -0.200 F 
ATOM     93  F   UNL A   1      33.453  34.207  30.172  1.00  0.00    -0.200 F 
ENDBRANCH  59  83
BRANCH  71  94
ATOM     94  C   UNL A   1      42.328  29.930  33.429  1.00  0.00     0.064 A 
ATOM     95  C   UNL A   1      41.718  28.668  33.346  1.00  0.00     0.173 A 
ATOM     96  C   UNL A   1      42.768  30.358  34.690  1.00  0.00     0.173 A 
ATOM     97  F   UNL A   1      41.347  28.155  32.166  1.00  0.00    -0.203 F 
ATOM     98  C   UNL A   1      41.529  27.887  34.486  1.00  0.00     0.198 A 
ATOM     99  C   UNL A   1      42.613  29.560  35.818  1.00  0.00     0.198 A 
ATOM    100  F   UNL A   1      43.397  31.538  34.818  1.00  0.00    -0.203 F 
ATOM    101  F   UNL A   1      40.930  26.691  34.389  1.00  0.00    -0.200 F 
ATOM    102  C   UNL A   1      41.985  28.329  35.718  1.00  0.00     0.200 A 
ATOM    103  F   UNL A   1      43.096  29.974  36.997  1.00  0.00    -0.200 F 
ATOM    104  F   UNL A   1      41.842  27.560  36.807  1.00  0.00    -0.200 F 
ENDBRANCH  71  94
ENDBRANCH  45  46
ENDBRANCH  37  40
ENDBRANCH  35  36
ENDBRANCH  34  35
ENDBRANCH   1  34
TORSDOF 15
ENDMDL
MODEL 2
REMARK VINA RESULT:     -13.9      3.338      8.972
REMARK SMILES Cc1cc(C)c(S(=O)(=O)n2cc([C@@H](C)[C@@H]([NH3+])C(=O)NCCCNC(=O)c3ccc(-c4c5nc(c(-c6c(F)c(F)c(F)c(F)c6F)c6ccc([nH]6)c(-c6c(F)c(F)c(F)c(F)c6F)c6nc(c(-c7c(F)c(F)c(F)c(F)c7F)c7ccc4[nH]7)C=C6)C=C5)cc3)c3ccccc32)c(C)c1
REMARK SMILES IDX 20 1 19 2 17 3 18 4 15 6 13 7 14 8 12 9 10 10 11 11 94 12
REMARK SMILES IDX 89 13 93 14 90 15 92 16 91 17 7 18 8 19 9 20 6 21 1 22 2 23
REMARK SMILES IDX 3 24 97 25 4 26 95 27 5 28 96 29 16 30 21 34 22 35 23 36
REMARK SMILES IDX 24 37 25 39 26 40 27 41 88 42 28 43 87 44 29 45 30 46 31 47
REMARK SMILES IDX 81 48 32 49 86 50 80 51 82 52 33 53 85 54 79 55 78 56 34 58
REMARK SMILES IDX 66 59 46 60 65 61 47 62 50 63 64 64 83 65 48 66 49 67 63 69
REMARK SMILES IDX 84 70 51 71 35 72 36 73 44 74 37 75 38 76 42 77 45 78 39 79
REMARK SMILES IDX 40 80 43 81 41 82 67 83 68 84 76 85 69 86 70 87 74 88 77 89
REMARK SMILES IDX 71 90 72 91 75 92 73 93 52 94 53 95 61 96 54 97 55 98 59 99
REMARK SMILES IDX 62 100 56 101 57 102 60 103 58 104
REMARK H PARENT 19 5 16 31 16 32 16 33 23 38 82 57 50 68
REMARK Flexibility Score: inf
ROOT
ATOM      1  C   UNL A   1      34.463  30.196  27.762  1.00  0.00     0.118 C 
ENDROOT
BRANCH   1   2
ATOM      2  N   UNL A   1      33.229  30.641  27.138  1.00  0.00    -0.351 N 
ATOM      3  C   UNL A   1      32.531  30.124  26.087  1.00  0.00     0.278 C 
ATOM      4  O   UNL A   1      31.464  30.672  25.787  1.00  0.00    -0.268 OA
ATOM      5  H   UNL A   1      32.833  31.448  27.539  1.00  0.00     0.163 HD
BRANCH   3   6
ATOM      6  C   UNL A   1      33.034  28.909  25.282  1.00  0.00     0.278 C 
BRANCH   6   7
ATOM      7  C   UNL A   1      32.087  27.685  25.406  1.00  0.00     0.086 C 
ATOM      8  C   UNL A   1      31.472  27.560  26.805  1.00  0.00     0.020 C 
BRANCH   7   9
ATOM      9  C   UNL A   1      32.755  26.392  24.985  1.00  0.00    -0.012 A 
ATOM     10  N   UNL A   1      33.878  24.473  25.129  1.00  0.00    -0.241 N 
ATOM     11  C   UNL A   1      33.400  25.532  25.854  1.00  0.00     0.109 A 
ATOM     12  C   UNL A   1      33.482  24.553  23.812  1.00  0.00     0.064 A 
ATOM     13  C   UNL A   1      32.841  25.796  23.679  1.00  0.00     0.004 A 
ATOM     14  C   UNL A   1      33.674  23.694  22.714  1.00  0.00     0.028 A 
ATOM     15  C   UNL A   1      32.428  26.202  22.393  1.00  0.00     0.010 A 
ATOM     16  C   UNL A   1      33.260  24.132  21.453  1.00  0.00     0.002 A 
ATOM     17  C   UNL A   1      32.658  25.374  21.291  1.00  0.00     0.001 A 
BRANCH  10  18
ATOM     18  S   UNL A   1      34.849  23.265  25.815  1.00  0.00     0.268 S 
ATOM     19  O   UNL A   1      34.654  23.438  27.252  1.00  0.00    -0.201 OA
ATOM     20  O   UNL A   1      36.149  23.427  25.203  1.00  0.00    -0.201 OA
BRANCH  18  21
ATOM     21  C   UNL A   1      34.284  21.613  25.396  1.00  0.00     0.094 A 
ATOM     22  C   UNL A   1      32.530  17.862  24.106  1.00  0.00     0.044 C 
ATOM     23  C   UNL A   1      33.138  19.152  24.568  1.00  0.00    -0.051 A 
ATOM     24  C   UNL A   1      32.333  20.174  25.057  1.00  0.00     0.008 A 
ATOM     25  C   UNL A   1      34.517  19.343  24.551  1.00  0.00     0.008 A 
ATOM     26  C   UNL A   1      32.878  21.402  25.476  1.00  0.00    -0.030 A 
ATOM     27  C   UNL A   1      35.119  20.541  24.999  1.00  0.00    -0.030 A 
ATOM     28  C   UNL A   1      31.874  22.393  26.022  1.00  0.00     0.046 C 
ATOM     29  C   UNL A   1      36.619  20.507  25.002  1.00  0.00     0.046 C 
ENDBRANCH  18  21
ENDBRANCH  10  18
ENDBRANCH   7   9
ENDBRANCH   6   7
BRANCH   6  30
ATOM     30  N   UNL A   1      33.302  29.329  23.882  1.00  0.00    -0.347 N 
ATOM     31  H   UNL A   1      32.989  28.599  23.242  1.00  0.00     0.345 HD
ATOM     32  H   UNL A   1      34.302  29.484  23.759  1.00  0.00     0.345 HD
ATOM     33  H   UNL A   1      32.797  30.193  23.685  1.00  0.00     0.345 HD
ENDBRANCH   6  30
ENDBRANCH   3   6
ENDBRANCH   1   2
BRANCH   1  34
ATOM     34  C   UNL A   1      35.585  31.227  27.625  1.00  0.00     0.042 C 
BRANCH  34  35
ATOM     35  C   UNL A   1      35.243  32.613  28.177  1.00  0.00     0.118 C 
BRANCH  35  36
ATOM     36  N   UNL A   1      35.005  32.641  29.608  1.00  0.00    -0.352 N 
ATOM     37  C   UNL A   1      35.674  32.207  30.719  1.00  0.00     0.251 C 
ATOM     38  H   UNL A   1      34.153  33.079  29.835  1.00  0.00     0.163 HD
ATOM     39  O   UNL A   1      35.194  32.558  31.802  1.00  0.00    -0.269 OA
BRANCH  37  40
ATOM     40  C   UNL A   1      36.875  31.327  30.730  1.00  0.00     0.039 A 
ATOM     41  C   UNL A   1      38.188  31.743  30.528  1.00  0.00     0.014 A 
ATOM     42  C   UNL A   1      36.632  29.946  30.897  1.00  0.00     0.014 A 
ATOM     43  C   UNL A   1      39.212  30.803  30.417  1.00  0.00     0.010 A 
ATOM     44  C   UNL A   1      37.655  29.003  30.802  1.00  0.00     0.010 A 
ATOM     45  C   UNL A   1      38.945  29.430  30.525  1.00  0.00    -0.014 A 
BRANCH  45  46
ATOM     46  C   UNL A   1      40.087  28.517  30.437  1.00  0.00     0.031 A 
ATOM     47  C   UNL A   1      40.832  28.337  31.711  1.00  0.00     0.074 A 
ATOM     48  C   UNL A   1      40.490  27.845  29.341  1.00  0.00     0.049 A 
ATOM     49  N   UNL A   1      42.007  28.790  32.002  1.00  0.00    -0.248 NA
ATOM     50  C   UNL A   1      40.151  27.671  32.827  1.00  0.00     0.031 C 
ATOM     51  C   UNL A   1      39.785  27.652  28.073  1.00  0.00     0.029 A 
ATOM     52  N   UNL A   1      41.649  27.137  29.164  1.00  0.00    -0.354 N 
ATOM     53  C   UNL A   1      42.292  28.336  33.286  1.00  0.00     0.074 A 
ATOM     54  C   UNL A   1      41.073  27.758  33.788  1.00  0.00     0.031 C 
ATOM     55  C   UNL A   1      40.443  26.731  27.329  1.00  0.00     0.029 A 
ATOM     56  C   UNL A   1      41.690  26.391  27.994  1.00  0.00     0.049 A 
ATOM     57  H   UNL A   1      42.390  27.155  29.812  1.00  0.00     0.167 HD
ATOM     58  C   UNL A   1      43.575  28.295  33.741  1.00  0.00     0.037 A 
ATOM     59  C   UNL A   1      42.678  25.548  27.607  1.00  0.00     0.037 A 
ATOM     60  C   UNL A   1      44.431  29.143  32.950  1.00  0.00     0.049 A 
ATOM     61  C   UNL A   1      43.922  25.976  28.287  1.00  0.00     0.074 A 
ATOM     62  C   UNL A   1      44.535  30.496  32.702  1.00  0.00     0.029 A 
ATOM     63  N   UNL A   1      45.189  28.520  31.994  1.00  0.00    -0.354 N 
ATOM     64  N   UNL A   1      44.559  27.081  28.021  1.00  0.00    -0.248 NA
ATOM     65  C   UNL A   1      44.327  25.299  29.509  1.00  0.00     0.031 C 
ATOM     66  C   UNL A   1      45.031  30.603  31.368  1.00  0.00     0.029 A 
ATOM     67  C   UNL A   1      45.230  29.311  30.879  1.00  0.00     0.049 A 
ATOM     68  H   UNL A   1      45.631  27.646  32.092  1.00  0.00     0.167 HD
ATOM     69  C   UNL A   1      45.119  27.456  29.228  1.00  0.00     0.074 A 
ATOM     70  C   UNL A   1      45.089  26.252  30.048  1.00  0.00     0.031 C 
ATOM     71  C   UNL A   1      45.281  28.774  29.538  1.00  0.00     0.037 A 
BRANCH  58  72
ATOM     72  C   UNL A   1      44.149  27.182  34.597  1.00  0.00     0.064 A 
ATOM     73  C   UNL A   1      44.058  25.851  34.131  1.00  0.00     0.173 A 
ATOM     74  C   UNL A   1      44.458  27.317  35.968  1.00  0.00     0.173 A 
ATOM     75  F   UNL A   1      43.774  25.593  32.845  1.00  0.00    -0.203 F 
ATOM     76  C   UNL A   1      44.140  24.754  34.993  1.00  0.00     0.198 A 
ATOM     77  C   UNL A   1      44.589  26.217  36.815  1.00  0.00     0.198 A 
ATOM     78  F   UNL A   1      44.536  28.508  36.571  1.00  0.00    -0.203 F 
ATOM     79  F   UNL A   1      43.893  23.522  34.528  1.00  0.00    -0.200 F 
ATOM     80  C   UNL A   1      44.390  24.939  36.338  1.00  0.00     0.200 A 
ATOM     81  F   UNL A   1      44.822  26.418  38.120  1.00  0.00    -0.200 F 
ATOM     82  F   UNL A   1      44.392  23.899  37.181  1.00  0.00    -0.200 F 
ENDBRANCH  58  72
BRANCH  59  83
ATOM     83  C   UNL A   1      42.590  24.257  26.883  1.00  0.00     0.064 A 
ATOM     84  C   UNL A   1      43.141  24.111  25.596  1.00  0.00     0.173 A 
ATOM     85  C   UNL A   1      42.257  23.069  27.558  1.00  0.00     0.173 A 
ATOM     86  F   UNL A   1      43.519  25.191  24.895  1.00  0.00    -0.203 F 
ATOM     87  C   UNL A   1      43.394  22.852  25.043  1.00  0.00     0.198 A 
ATOM     88  C   UNL A   1      42.504  21.812  27.000  1.00  0.00     0.198 A 
ATOM     89  F   UNL A   1      41.782  23.100  28.810  1.00  0.00    -0.203 F 
ATOM     90  F   UNL A   1      43.998  22.756  23.850  1.00  0.00    -0.200 F 
ATOM     91  C   UNL A   1      43.091  21.704  25.753  1.00  0.00     0.200 A 
ATOM     92  F   UNL A   1      42.238  20.707  27.712  1.00  0.00    -0.200 F 
ATOM     93  F   UNL A   1      43.405  20.499  25.259  1.00  0.00    -0.200 F 
ENDBRANCH  59  83
BRANCH  71  94
ATOM     94  C   UNL A   1      45.267  29.762  28.410  1.00  0.00     0.064 A 
ATOM     95  C   UNL A   1      44.104  30.320  27.857  1.00  0.00     0.173 A 
ATOM     96  C   UNL A   1      46.501  30.255  27.962  1.00  0.00     0.173 A 
ATOM     97  F   UNL A   1      42.889  29.961  28.294  1.00  0.00    -0.203 F 
ATOM     98  C   UNL A   1      44.178  31.306  26.873  1.00  0.00     0.198 A 
ATOM     99  C   UNL A   1      46.572  31.266  27.009  1.00  0.00     0.198 A 
ATOM    100  F   UNL A   1      47.644  29.787  28.489  1.00  0.00    -0.203 F 
ATOM    101  F   UNL A   1      43.055  31.816  26.346  1.00  0.00    -0.200 F 
ATOM    102  C   UNL A   1      45.411  31.784  26.458  1.00  0.00     0.200 A 
ATOM    103  F   UNL A   1      47.765  31.754  26.644  1.00  0.00    -0.200 F 
ATOM    104  F   UNL A   1      45.483  32.762  25.544  1.00  0.00    -0.200 F 
ENDBRANCH  71  94
ENDBRANCH  45  46
ENDBRANCH  37  40
ENDBRANCH  35  36
ENDBRANCH  34  35
ENDBRANCH   1  34
TORSDOF 15
ENDMDL
MODEL 3
REMARK VINA RESULT:     -13.6      1.741      2.808
REMARK SMILES Cc1cc(C)c(S(=O)(=O)n2cc([C@@H](C)[C@@H]([NH3+])C(=O)NCCCNC(=O)c3ccc(-c4c5nc(c(-c6c(F)c(F)c(F)c(F)c6F)c6ccc([nH]6)c(-c6c(F)c(F)c(F)c(F)c6F)c6nc(c(-c7c(F)c(F)c(F)c(F)c7F)c7ccc4[nH]7)C=C6)C=C5)cc3)c3ccccc32)c(C)c1
REMARK SMILES IDX 20 1 19 2 17 3 18 4 15 6 13 7 14 8 12 9 10 10 11 11 94 12
REMARK SMILES IDX 89 13 93 14 90 15 92 16 91 17 7 18 8 19 9 20 6 21 1 22 2 23
REMARK SMILES IDX 3 24 97 25 4 26 95 27 5 28 96 29 16 30 21 34 22 35 23 36
REMARK SMILES IDX 24 37 25 39 26 40 27 41 88 42 28 43 87 44 29 45 30 46 31 47
REMARK SMILES IDX 81 48 32 49 86 50 80 51 82 52 33 53 85 54 79 55 78 56 34 58
REMARK SMILES IDX 66 59 46 60 65 61 47 62 50 63 64 64 83 65 48 66 49 67 63 69
REMARK SMILES IDX 84 70 51 71 35 72 36 73 44 74 37 75 38 76 42 77 45 78 39 79
REMARK SMILES IDX 40 80 43 81 41 82 67 83 68 84 76 85 69 86 70 87 74 88 77 89
REMARK SMILES IDX 71 90 72 91 75 92 73 93 52 94 53 95 61 96 54 97 55 98 59 99
REMARK SMILES IDX 62 100 56 101 57 102 60 103 58 104
REMARK H PARENT 19 5 16 31 16 32 16 33 23 38 82 57 50 68
REMARK Flexibility Score: inf
ROOT
ATOM      1  C   UNL A   1      39.803  21.402  26.060  1.00  0.00     0.118 C 
ENDROOT
BRANCH   1   2
ATOM      2  N   UNL A   1      39.255  22.739  26.217  1.00  0.00    -0.351 N 
ATOM      3  C   UNL A   1      37.974  23.189  26.107  1.00  0.00     0.278 C 
ATOM      4  O   UNL A   1      37.767  24.383  26.348  1.00  0.00    -0.268 OA
ATOM      5  H   UNL A   1      39.918  23.432  26.439  1.00  0.00     0.163 HD
BRANCH   3   6
ATOM      6  C   UNL A   1      36.809  22.267  25.690  1.00  0.00     0.278 C 
BRANCH   6   7
ATOM      7  C   UNL A   1      35.434  22.794  26.182  1.00  0.00     0.086 C 
ATOM      8  C   UNL A   1      34.777  21.854  27.200  1.00  0.00     0.020 C 
BRANCH   7   9
ATOM      9  C   UNL A   1      34.492  23.105  25.038  1.00  0.00    -0.012 A 
ATOM     10  N   UNL A   1      33.383  24.275  23.499  1.00  0.00    -0.241 N 
ATOM     11  C   UNL A   1      34.294  24.370  24.516  1.00  0.00     0.109 A 
ATOM     12  C   UNL A   1      33.040  22.962  23.260  1.00  0.00     0.064 A 
ATOM     13  C   UNL A   1      33.664  22.213  24.271  1.00  0.00     0.004 A 
ATOM     14  C   UNL A   1      32.199  22.364  22.303  1.00  0.00     0.028 A 
ATOM     15  C   UNL A   1      33.392  20.831  24.346  1.00  0.00     0.010 A 
ATOM     16  C   UNL A   1      31.945  20.995  22.412  1.00  0.00     0.002 A 
ATOM     17  C   UNL A   1      32.522  20.239  23.426  1.00  0.00     0.001 A 
BRANCH  10  18
ATOM     18  S   UNL A   1      32.772  25.635  22.694  1.00  0.00     0.268 S 
ATOM     19  O   UNL A   1      31.447  25.211  22.251  1.00  0.00    -0.201 OA
ATOM     20  O   UNL A   1      33.800  26.014  21.750  1.00  0.00    -0.201 OA
BRANCH  18  21
ATOM     21  C   UNL A   1      32.543  27.035  23.794  1.00  0.00     0.094 A 
ATOM     22  C   UNL A   1      31.993  30.061  26.852  1.00  0.00     0.044 C 
ATOM     23  C   UNL A   1      32.170  29.024  25.785  1.00  0.00    -0.051 A 
ATOM     24  C   UNL A   1      31.421  27.853  25.811  1.00  0.00     0.008 A 
ATOM     25  C   UNL A   1      33.059  29.221  24.732  1.00  0.00     0.008 A 
ATOM     26  C   UNL A   1      31.586  26.854  24.833  1.00  0.00    -0.030 A 
ATOM     27  C   UNL A   1      33.233  28.268  23.702  1.00  0.00    -0.030 A 
ATOM     28  C   UNL A   1      30.666  25.663  24.977  1.00  0.00     0.046 C 
ATOM     29  C   UNL A   1      34.153  28.716  22.604  1.00  0.00     0.046 C 
ENDBRANCH  18  21
ENDBRANCH  10  18
ENDBRANCH   7   9
ENDBRANCH   6   7
BRANCH   6  30
ATOM     30  N   UNL A   1      36.879  22.027  24.226  1.00  0.00    -0.347 N 
ATOM     31  H   UNL A   1      35.995  21.631  23.904  1.00  0.00     0.345 HD
ATOM     32  H   UNL A   1      37.637  21.376  24.024  1.00  0.00     0.345 HD
ATOM     33  H   UNL A   1      37.050  22.910  23.744  1.00  0.00     0.345 HD
ENDBRANCH   6  30
ENDBRANCH   3   6
ENDBRANCH   1   2
BRANCH   1  34
ATOM     34  C   UNL A   1      40.587  20.950  27.294  1.00  0.00     0.042 C 
BRANCH  34  35
ATOM     35  C   UNL A   1      41.792  21.828  27.638  1.00  0.00     0.118 C 
BRANCH  35  36
ATOM     36  N   UNL A   1      42.496  22.350  26.482  1.00  0.00    -0.352 N 
ATOM     37  C   UNL A   1      42.859  23.591  26.037  1.00  0.00     0.251 C 
ATOM     38  H   UNL A   1      42.782  21.637  25.867  1.00  0.00     0.163 HD
ATOM     39  O   UNL A   1      43.597  23.609  25.047  1.00  0.00    -0.269 OA
BRANCH  37  40
ATOM     40  C   UNL A   1      42.410  24.892  26.607  1.00  0.00     0.039 A 
ATOM     41  C   UNL A   1      41.477  25.750  26.032  1.00  0.00     0.014 A 
ATOM     42  C   UNL A   1      43.044  25.300  27.800  1.00  0.00     0.014 A 
ATOM     43  C   UNL A   1      41.247  27.008  26.589  1.00  0.00     0.010 A 
ATOM     44  C   UNL A   1      42.806  26.551  28.370  1.00  0.00     0.010 A 
ATOM     45  C   UNL A   1      41.930  27.423  27.741  1.00  0.00    -0.014 A 
BRANCH  45  46
ATOM     46  C   UNL A   1      41.594  28.743  28.280  1.00  0.00     0.031 A 
ATOM     47  C   UNL A   1      42.636  29.782  28.061  1.00  0.00     0.074 A 
ATOM     48  C   UNL A   1      40.458  29.079  28.921  1.00  0.00     0.049 A 
ATOM     49  N   UNL A   1      43.421  30.303  28.946  1.00  0.00    -0.248 NA
ATOM     50  C   UNL A   1      42.911  30.210  26.685  1.00  0.00     0.031 C 
ATOM     51  C   UNL A   1      39.206  28.328  29.023  1.00  0.00     0.029 A 
ATOM     52  N   UNL A   1      40.183  30.236  29.601  1.00  0.00    -0.354 N 
ATOM     53  C   UNL A   1      44.190  31.248  28.274  1.00  0.00     0.074 A 
ATOM     54  C   UNL A   1      43.920  31.064  26.872  1.00  0.00     0.031 C 
ATOM     55  C   UNL A   1      38.249  29.121  29.561  1.00  0.00     0.029 A 
ATOM     56  C   UNL A   1      38.857  30.371  29.986  1.00  0.00     0.049 A 
ATOM     57  H   UNL A   1      40.869  30.914  29.800  1.00  0.00     0.167 HD
ATOM     58  C   UNL A   1      44.828  32.238  28.957  1.00  0.00     0.037 A 
ATOM     59  C   UNL A   1      38.299  31.442  30.604  1.00  0.00     0.037 A 
ATOM     60  C   UNL A   1      44.952  31.906  30.355  1.00  0.00     0.049 A 
ATOM     61  C   UNL A   1      39.381  32.159  31.316  1.00  0.00     0.074 A 
ATOM     62  C   UNL A   1      45.607  30.941  31.091  1.00  0.00     0.029 A 
ATOM     63  N   UNL A   1      44.039  32.479  31.200  1.00  0.00    -0.354 N 
ATOM     64  N   UNL A   1      40.004  31.695  32.361  1.00  0.00    -0.248 NA
ATOM     65  C   UNL A   1      39.998  33.313  30.681  1.00  0.00     0.031 C 
ATOM     66  C   UNL A   1      44.783  30.709  32.233  1.00  0.00     0.029 A 
ATOM     67  C   UNL A   1      43.682  31.563  32.150  1.00  0.00     0.049 A 
ATOM     68  H   UNL A   1      43.696  33.399  31.134  1.00  0.00     0.167 HD
ATOM     69  C   UNL A   1      41.284  32.207  32.257  1.00  0.00     0.074 A 
ATOM     70  C   UNL A   1      41.171  33.315  31.317  1.00  0.00     0.031 C 
ATOM     71  C   UNL A   1      42.354  31.499  32.716  1.00  0.00     0.037 A 
BRANCH  58  72
ATOM     72  C   UNL A   1      44.948  33.674  28.480  1.00  0.00     0.064 A 
ATOM     73  C   UNL A   1      46.230  34.267  28.428  1.00  0.00     0.173 A 
ATOM     74  C   UNL A   1      43.865  34.577  28.410  1.00  0.00     0.173 A 
ATOM     75  F   UNL A   1      47.338  33.512  28.482  1.00  0.00    -0.203 F 
ATOM     76  C   UNL A   1      46.407  35.654  28.438  1.00  0.00     0.198 A 
ATOM     77  C   UNL A   1      44.048  35.959  28.369  1.00  0.00     0.198 A 
ATOM     78  F   UNL A   1      42.592  34.177  28.491  1.00  0.00    -0.203 F 
ATOM     79  F   UNL A   1      47.641  36.166  28.544  1.00  0.00    -0.200 F 
ATOM     80  C   UNL A   1      45.315  36.499  28.423  1.00  0.00     0.200 A 
ATOM     81  F   UNL A   1      42.975  36.763  28.366  1.00  0.00    -0.200 F 
ATOM     82  F   UNL A   1      45.478  37.825  28.511  1.00  0.00    -0.200 F 
ENDBRANCH  58  72
BRANCH  59  83
ATOM     83  C   UNL A   1      36.950  32.032  30.437  1.00  0.00     0.064 A 
ATOM     84  C   UNL A   1      35.989  31.941  31.461  1.00  0.00     0.173 A 
ATOM     85  C   UNL A   1      36.687  32.964  29.416  1.00  0.00     0.173 A 
ATOM     86  F   UNL A   1      36.176  31.102  32.491  1.00  0.00    -0.203 F 
ATOM     87  C   UNL A   1      34.864  32.771  31.491  1.00  0.00     0.198 A 
ATOM     88  C   UNL A   1      35.559  33.787  29.444  1.00  0.00     0.198 A 
ATOM     89  F   UNL A   1      37.569  33.167  28.429  1.00  0.00    -0.203 F 
ATOM     90  F   UNL A   1      34.017  32.712  32.528  1.00  0.00    -0.200 F 
ATOM     91  C   UNL A   1      34.660  33.705  30.491  1.00  0.00     0.200 A 
ATOM     92  F   UNL A   1      35.390  34.712  28.488  1.00  0.00    -0.200 F 
ATOM     93  F   UNL A   1      33.626  34.555  30.558  1.00  0.00    -0.200 F 
ENDBRANCH  59  83
BRANCH  71  94
ATOM     94  C   UNL A   1      42.092  30.406  33.710  1.00  0.00     0.064 A 
ATOM     95  C   UNL A   1      41.692  29.103  33.371  1.00  0.00     0.173 A 
ATOM     96  C   UNL A   1      42.386  30.666  35.056  1.00  0.00     0.173 A 
ATOM     97  F   UNL A   1      41.475  28.756  32.095  1.00  0.00    -0.203 F 
ATOM     98  C   UNL A   1      41.562  28.116  34.347  1.00  0.00     0.198 A 
ATOM     99  C   UNL A   1      42.293  29.669  36.022  1.00  0.00     0.198 A 
ATOM    100  F   UNL A   1      42.814  31.883  35.428  1.00  0.00    -0.203 F 
ATOM    101  F   UNL A   1      41.164  26.881  34.005  1.00  0.00    -0.200 F 
ATOM    102  C   UNL A   1      41.872  28.397  35.669  1.00  0.00     0.200 A 
ATOM    103  F   UNL A   1      42.635  29.936  37.289  1.00  0.00    -0.200 F 
ATOM    104  F   UNL A   1      41.788  27.437  36.601  1.00  0.00    -0.200 F 
ENDBRANCH  71  94
ENDBRANCH  45  46
ENDBRANCH  37  40
ENDBRANCH  35  36
ENDBRANCH  34  35
ENDBRANCH   1  34
TORSDOF 15
ENDMDL
