MODEL 1
REMARK VINA RESULT:     -11.9      0.000      0.000
REMARK SMILES C[C@H]1[NH2+]CC[C@H]1C(=O)N1CC(C(=O)NCCCNC(=O)c2ccc(-c3c4nc(c(-c5c(F)c(F)c(F)c(F)c5F)c5ccc([nH]5)c(-c5c(F)c(F)c(F)c(F)c5F)c5nc(c(-c6c(F)c(F)c(F)c(F)c6F)c6ccc3[nH]6)C=C5)C=C4)cc2)C1
REMARK SMILES IDX 16 1 15 2 14 3 12 4 13 5 11 7 7 8 8 9 9 10 10 11 84 12 6 13
REMARK SMILES IDX 1 14 2 15 3 16 4 17 5 20 17 21 18 22 19 23 20 25 21 26 22 27
REMARK SMILES IDX 83 28 23 29 82 30 24 31 25 32 26 33 76 34 27 35 81 36 75 37
REMARK SMILES IDX 77 38 28 39 80 40 74 41 73 42 29 44 61 45 41 46 60 47 42 48
REMARK SMILES IDX 45 49 59 50 78 51 43 52 44 53 58 55 79 56 46 57 30 58 31 59
REMARK SMILES IDX 39 60 32 61 33 62 37 63 40 64 34 65 35 66 38 67 36 68 62 69
REMARK SMILES IDX 63 70 71 71 64 72 65 73 69 74 72 75 66 76 67 77 70 78 68 79
REMARK SMILES IDX 47 80 48 81 56 82 49 83 50 84 54 85 57 86 51 87 52 88 55 89
REMARK SMILES IDX 53 90
REMARK H PARENT 14 6 3 18 3 19 18 24 77 43 45 54
REMARK Flexibility Score: inf
ROOT
ATOM      1  C   UNL A   1      37.909  19.683  25.074  1.00  0.00     0.042 C 
ENDROOT
BRANCH   1   2
ATOM      2  C   UNL A   1      36.778  20.701  24.992  1.00  0.00     0.117 C 
BRANCH   2   3
ATOM      3  N   UNL A   1      36.943  21.635  23.894  1.00  0.00    -0.356 N 
ATOM      4  C   UNL A   1      36.293  22.806  23.591  1.00  0.00     0.226 C 
ATOM      5  O   UNL A   1      36.692  23.383  22.568  1.00  0.00    -0.275 OA
ATOM      6  H   UNL A   1      37.645  21.384  23.253  1.00  0.00     0.163 HD
BRANCH   4   7
ATOM      7  C   UNL A   1      35.138  23.360  24.431  1.00  0.00     0.117 C 
ATOM      8  C   UNL A   1      33.582  25.933  25.770  1.00  0.00     0.231 C 
ATOM      9  O   UNL A   1      32.584  25.341  26.180  1.00  0.00    -0.274 OA
ATOM     10  N   UNL A   1      34.538  25.304  24.990  1.00  0.00    -0.341 N 
ATOM     11  C   UNL A   1      34.156  24.384  23.891  1.00  0.00     0.134 C 
ATOM     12  C   UNL A   1      35.453  24.302  25.574  1.00  0.00     0.134 C 
BRANCH   8  13
ATOM     13  C   UNL A   1      33.818  27.405  26.079  1.00  0.00     0.142 C 
ATOM     14  C   UNL A   1      32.745  28.267  23.857  1.00  0.00     0.076 C 
ATOM     15  C   UNL A   1      33.831  28.400  24.919  1.00  0.00     0.192 C 
ATOM     16  N   UNL A   1      33.701  29.709  25.587  1.00  0.00    -0.343 N 
ATOM     17  C   UNL A   1      33.031  29.518  26.874  1.00  0.00     0.261 C 
ATOM     18  H   UNL A   1      33.150  30.338  25.004  1.00  0.00     0.346 HD
ATOM     19  H   UNL A   1      34.625  30.115  25.735  1.00  0.00     0.346 HD
ATOM     20  C   UNL A   1      32.840  28.022  27.065  1.00  0.00     0.081 C 
ENDBRANCH   8  13
ENDBRANCH   4   7
ENDBRANCH   2   3
ENDBRANCH   1   2
BRANCH   1  21
ATOM     21  C   UNL A   1      39.147  20.172  25.820  1.00  0.00     0.118 C 
BRANCH  21  22
ATOM     22  N   UNL A   1      40.210  19.178  25.870  1.00  0.00    -0.352 N 
ATOM     23  C   UNL A   1      41.555  19.322  26.097  1.00  0.00     0.251 C 
ATOM     24  H   UNL A   1      39.915  18.251  25.715  1.00  0.00     0.163 HD
ATOM     25  O   UNL A   1      42.304  18.360  25.923  1.00  0.00    -0.269 OA
BRANCH  23  26
ATOM     26  C   UNL A   1      42.122  20.620  26.522  1.00  0.00     0.039 A 
ATOM     27  C   UNL A   1      42.602  21.498  25.546  1.00  0.00     0.014 A 
ATOM     28  C   UNL A   1      42.209  20.969  27.872  1.00  0.00     0.014 A 
ATOM     29  C   UNL A   1      43.095  22.750  25.917  1.00  0.00     0.010 A 
ATOM     30  C   UNL A   1      42.621  22.249  28.234  1.00  0.00     0.010 A 
ATOM     31  C   UNL A   1      43.070  23.154  27.261  1.00  0.00    -0.014 A 
BRANCH  31  32
ATOM     32  C   UNL A   1      43.496  24.518  27.666  1.00  0.00     0.031 A 
ATOM     33  C   UNL A   1      42.472  25.566  28.005  1.00  0.00     0.074 A 
ATOM     34  C   UNL A   1      44.806  24.834  27.660  1.00  0.00     0.049 A 
ATOM     35  N   UNL A   1      42.648  26.828  28.309  1.00  0.00    -0.248 NA
ATOM     36  C   UNL A   1      41.062  25.149  27.969  1.00  0.00     0.031 C 
ATOM     37  C   UNL A   1      45.893  23.921  27.304  1.00  0.00     0.029 A 
ATOM     38  N   UNL A   1      45.445  26.014  27.952  1.00  0.00    -0.354 N 
ATOM     39  C   UNL A   1      41.375  27.356  28.485  1.00  0.00     0.074 A 
ATOM     40  C   UNL A   1      40.435  26.293  28.198  1.00  0.00     0.031 C 
ATOM     41  C   UNL A   1      47.064  24.566  27.420  1.00  0.00     0.029 A 
ATOM     42  C   UNL A   1      46.810  25.947  27.815  1.00  0.00     0.049 A 
ATOM     43  H   UNL A   1      44.970  26.829  28.231  1.00  0.00     0.167 HD
ATOM     44  C   UNL A   1      41.023  28.604  28.874  1.00  0.00     0.037 A 
ATOM     45  C   UNL A   1      47.752  26.897  27.979  1.00  0.00     0.037 A 
ATOM     46  C   UNL A   1      41.963  29.652  29.176  1.00  0.00     0.049 A 
ATOM     47  C   UNL A   1      47.334  28.280  28.399  1.00  0.00     0.074 A 
ATOM     48  C   UNL A   1      41.708  30.932  29.638  1.00  0.00     0.029 A 
ATOM     49  N   UNL A   1      43.340  29.544  29.040  1.00  0.00    -0.354 N 
ATOM     50  N   UNL A   1      46.132  28.747  28.634  1.00  0.00    -0.248 NA
ATOM     51  C   UNL A   1      48.407  29.269  28.581  1.00  0.00     0.031 C 
ATOM     52  C   UNL A   1      42.925  31.615  29.726  1.00  0.00     0.029 A 
ATOM     53  C   UNL A   1      43.945  30.744  29.380  1.00  0.00     0.049 A 
ATOM     54  H   UNL A   1      43.816  28.735  28.744  1.00  0.00     0.167 HD
ATOM     55  C   UNL A   1      46.305  30.069  29.021  1.00  0.00     0.074 A 
ATOM     56  C   UNL A   1      47.729  30.327  29.001  1.00  0.00     0.031 C 
ATOM     57  C   UNL A   1      45.366  30.986  29.362  1.00  0.00     0.037 A 
BRANCH  44  58
ATOM     58  C   UNL A   1      39.555  28.908  28.989  1.00  0.00     0.064 A 
ATOM     59  C   UNL A   1      38.875  28.814  30.213  1.00  0.00     0.173 A 
ATOM     60  C   UNL A   1      38.825  29.329  27.867  1.00  0.00     0.173 A 
ATOM     61  F   UNL A   1      39.522  28.408  31.316  1.00  0.00    -0.203 F 
ATOM     62  C   UNL A   1      37.514  29.094  30.301  1.00  0.00     0.198 A 
ATOM     63  C   UNL A   1      37.471  29.642  27.966  1.00  0.00     0.198 A 
ATOM     64  F   UNL A   1      39.425  29.444  26.673  1.00  0.00    -0.203 F 
ATOM     65  F   UNL A   1      36.875  28.940  31.470  1.00  0.00    -0.200 F 
ATOM     66  C   UNL A   1      36.814  29.513  29.180  1.00  0.00     0.200 A 
ATOM     67  F   UNL A   1      36.801  30.062  26.885  1.00  0.00    -0.200 F 
ATOM     68  F   UNL A   1      35.506  29.788  29.269  1.00  0.00    -0.200 F 
ENDBRANCH  44  58
BRANCH  45  69
ATOM     69  C   UNL A   1      49.185  26.561  27.769  1.00  0.00     0.064 A 
ATOM     70  C   UNL A   1      50.041  26.345  28.857  1.00  0.00     0.173 A 
ATOM     71  C   UNL A   1      49.727  26.446  26.480  1.00  0.00     0.173 A 
ATOM     72  F   UNL A   1      49.575  26.463  30.109  1.00  0.00    -0.203 F 
ATOM     73  C   UNL A   1      51.388  26.045  28.665  1.00  0.00     0.198 A 
ATOM     74  C   UNL A   1      51.066  26.115  26.289  1.00  0.00     0.198 A 
ATOM     75  F   UNL A   1      48.948  26.636  25.405  1.00  0.00    -0.203 F 
ATOM     76  F   UNL A   1      52.194  25.886  29.723  1.00  0.00    -0.200 F 
ATOM     77  C   UNL A   1      51.898  25.923  27.381  1.00  0.00     0.200 A 
ATOM     78  F   UNL A   1      51.550  25.981  25.046  1.00  0.00    -0.200 F 
ATOM     79  F   UNL A   1      53.191  25.626  27.197  1.00  0.00    -0.200 F 
ENDBRANCH  45  69
BRANCH  57  80
ATOM     80  C   UNL A   1      45.849  32.344  29.782  1.00  0.00     0.064 A 
ATOM     81  C   UNL A   1      46.192  32.629  31.113  1.00  0.00     0.173 A 
ATOM     82  C   UNL A   1      46.010  33.364  28.832  1.00  0.00     0.173 A 
ATOM     83  F   UNL A   1      46.041  31.694  32.063  1.00  0.00    -0.203 F 
ATOM     84  C   UNL A   1      46.652  33.890  31.480  1.00  0.00     0.198 A 
ATOM     85  C   UNL A   1      46.504  34.614  29.196  1.00  0.00     0.198 A 
ATOM     86  F   UNL A   1      45.704  33.144  27.545  1.00  0.00    -0.203 F 
ATOM     87  F   UNL A   1      46.925  34.154  32.765  1.00  0.00    -0.200 F 
ATOM     88  C   UNL A   1      46.816  34.879  30.521  1.00  0.00     0.200 A 
ATOM     89  F   UNL A   1      46.676  35.562  28.265  1.00  0.00    -0.200 F 
ATOM     90  F   UNL A   1      47.270  36.089  30.874  1.00  0.00    -0.200 F 
ENDBRANCH  57  80
ENDBRANCH  31  32
ENDBRANCH  23  26
ENDBRANCH  21  22
ENDBRANCH   1  21
TORSDOF 11
ENDMDL
MODEL 2
REMARK VINA RESULT:     -11.9      5.382     10.857
REMARK SMILES C[C@H]1[NH2+]CC[C@H]1C(=O)N1CC(C(=O)NCCCNC(=O)c2ccc(-c3c4nc(c(-c5c(F)c(F)c(F)c(F)c5F)c5ccc([nH]5)c(-c5c(F)c(F)c(F)c(F)c5F)c5nc(c(-c6c(F)c(F)c(F)c(F)c6F)c6ccc3[nH]6)C=C5)C=C4)cc2)C1
REMARK SMILES IDX 16 1 15 2 14 3 12 4 13 5 11 7 7 8 8 9 9 10 10 11 84 12 6 13
REMARK SMILES IDX 1 14 2 15 3 16 4 17 5 20 17 21 18 22 19 23 20 25 21 26 22 27
REMARK SMILES IDX 83 28 23 29 82 30 24 31 25 32 26 33 76 34 27 35 81 36 75 37
REMARK SMILES IDX 77 38 28 39 80 40 74 41 73 42 29 44 61 45 41 46 60 47 42 48
REMARK SMILES IDX 45 49 59 50 78 51 43 52 44 53 58 55 79 56 46 57 30 58 31 59
REMARK SMILES IDX 39 60 32 61 33 62 37 63 40 64 34 65 35 66 38 67 36 68 62 69
REMARK SMILES IDX 63 70 71 71 64 72 65 73 69 74 72 75 66 76 67 77 70 78 68 79
REMARK SMILES IDX 47 80 48 81 56 82 49 83 50 84 54 85 57 86 51 87 52 88 55 89
REMARK SMILES IDX 53 90
REMARK H PARENT 14 6 3 18 3 19 18 24 77 43 45 54
REMARK Flexibility Score: inf
ROOT
ATOM      1  C   UNL A   1      31.420  32.159  26.522  1.00  0.00     0.042 C 
ENDROOT
BRANCH   1   2
ATOM      2  C   UNL A   1      31.630  30.729  26.042  1.00  0.00     0.117 C 
BRANCH   2   3
ATOM      3  N   UNL A   1      31.461  29.752  27.102  1.00  0.00    -0.356 N 
ATOM      4  C   UNL A   1      31.779  28.417  27.168  1.00  0.00     0.226 C 
ATOM      5  O   UNL A   1      31.510  27.863  28.245  1.00  0.00    -0.275 OA
ATOM      6  H   UNL A   1      31.043  30.109  27.918  1.00  0.00     0.163 HD
BRANCH   4   7
ATOM      7  C   UNL A   1      32.396  27.648  25.997  1.00  0.00     0.117 C 
ATOM      8  C   UNL A   1      34.313  25.208  24.899  1.00  0.00     0.231 C 
ATOM      9  O   UNL A   1      34.053  25.306  23.699  1.00  0.00    -0.274 OA
ATOM     10  N   UNL A   1      33.648  25.955  25.855  1.00  0.00    -0.341 N 
ATOM     11  C   UNL A   1      32.180  26.159  25.795  1.00  0.00     0.134 C 
ATOM     12  C   UNL A   1      33.891  27.406  25.989  1.00  0.00     0.134 C 
BRANCH   8  13
ATOM     13  C   UNL A   1      35.372  24.240  25.408  1.00  0.00     0.142 C 
ATOM     14  C   UNL A   1      33.654  22.430  26.186  1.00  0.00     0.076 C 
ATOM     15  C   UNL A   1      34.960  23.179  26.428  1.00  0.00     0.192 C 
ATOM     16  N   UNL A   1      36.082  22.223  26.402  1.00  0.00    -0.343 N 
ATOM     17  C   UNL A   1      36.746  22.307  25.100  1.00  0.00     0.261 C 
ATOM     18  H   UNL A   1      35.730  21.277  26.547  1.00  0.00     0.346 HD
ATOM     19  H   UNL A   1      36.746  22.448  27.144  1.00  0.00     0.346 HD
ATOM     20  C   UNL A   1      36.084  23.438  24.330  1.00  0.00     0.081 C 
ENDBRANCH   8  13
ENDBRANCH   4   7
ENDBRANCH   2   3
ENDBRANCH   1   2
BRANCH   1  21
ATOM     21  C   UNL A   1      32.619  32.767  27.241  1.00  0.00     0.118 C 
BRANCH  21  22
ATOM     22  N   UNL A   1      32.401  34.150  27.643  1.00  0.00    -0.352 N 
ATOM     23  C   UNL A   1      33.004  34.901  28.620  1.00  0.00     0.251 C 
ATOM     24  H   UNL A   1      31.707  34.624  27.128  1.00  0.00     0.163 HD
ATOM     25  O   UNL A   1      32.541  36.006  28.905  1.00  0.00    -0.269 OA
BRANCH  23  26
ATOM     26  C   UNL A   1      34.183  34.393  29.353  1.00  0.00     0.039 A 
ATOM     27  C   UNL A   1      33.990  33.771  30.590  1.00  0.00     0.014 A 
ATOM     28  C   UNL A   1      35.476  34.546  28.847  1.00  0.00     0.014 A 
ATOM     29  C   UNL A   1      35.082  33.238  31.279  1.00  0.00     0.010 A 
ATOM     30  C   UNL A   1      36.551  33.940  29.492  1.00  0.00     0.010 A 
ATOM     31  C   UNL A   1      36.366  33.280  30.716  1.00  0.00    -0.014 A 
BRANCH  31  32
ATOM     32  C   UNL A   1      37.524  32.630  31.383  1.00  0.00     0.031 A 
ATOM     33  C   UNL A   1      38.227  31.472  30.733  1.00  0.00     0.074 A 
ATOM     34  C   UNL A   1      37.898  33.041  32.611  1.00  0.00     0.049 A 
ATOM     35  N   UNL A   1      39.206  30.733  31.192  1.00  0.00    -0.248 NA
ATOM     36  C   UNL A   1      37.747  31.070  29.401  1.00  0.00     0.031 C 
ATOM     37  C   UNL A   1      37.266  34.122  33.370  1.00  0.00     0.029 A 
ATOM     38  N   UNL A   1      38.893  32.590  33.443  1.00  0.00    -0.354 N 
ATOM     39  C   UNL A   1      39.447  29.775  30.215  1.00  0.00     0.074 A 
ATOM     40  C   UNL A   1      38.475  29.990  29.165  1.00  0.00     0.031 C 
ATOM     41  C   UNL A   1      37.902  34.265  34.543  1.00  0.00     0.029 A 
ATOM     42  C   UNL A   1      38.956  33.261  34.640  1.00  0.00     0.049 A 
ATOM     43  H   UNL A   1      39.503  31.855  33.205  1.00  0.00     0.167 HD
ATOM     44  C   UNL A   1      40.407  28.819  30.185  1.00  0.00     0.037 A 
ATOM     45  C   UNL A   1      39.765  33.080  35.702  1.00  0.00     0.037 A 
ATOM     46  C   UNL A   1      41.384  28.622  31.225  1.00  0.00     0.049 A 
ATOM     47  C   UNL A   1      40.814  32.003  35.650  1.00  0.00     0.074 A 
ATOM     48  C   UNL A   1      42.435  27.722  31.261  1.00  0.00     0.029 A 
ATOM     49  N   UNL A   1      41.425  29.331  32.417  1.00  0.00    -0.354 N 
ATOM     50  N   UNL A   1      41.081  31.152  34.690  1.00  0.00    -0.248 NA
ATOM     51  C   UNL A   1      41.681  31.866  36.830  1.00  0.00     0.031 C 
ATOM     52  C   UNL A   1      43.076  27.848  32.497  1.00  0.00     0.029 A 
ATOM     53  C   UNL A   1      42.465  28.868  33.208  1.00  0.00     0.049 A 
ATOM     54  H   UNL A   1      40.806  30.055  32.665  1.00  0.00     0.167 HD
ATOM     55  C   UNL A   1      42.161  30.401  35.134  1.00  0.00     0.074 A 
ATOM     56  C   UNL A   1      42.509  30.906  36.446  1.00  0.00     0.031 C 
ATOM     57  C   UNL A   1      42.806  29.384  34.510  1.00  0.00     0.037 A 
BRANCH  44  58
ATOM     58  C   UNL A   1      40.444  27.908  28.991  1.00  0.00     0.064 A 
ATOM     59  C   UNL A   1      39.696  26.721  28.942  1.00  0.00     0.173 A 
ATOM     60  C   UNL A   1      41.212  28.242  27.865  1.00  0.00     0.173 A 
ATOM     61  F   UNL A   1      38.951  26.350  29.994  1.00  0.00    -0.203 F 
ATOM     62  C   UNL A   1      39.745  25.886  27.830  1.00  0.00     0.198 A 
ATOM     63  C   UNL A   1      41.232  27.421  26.739  1.00  0.00     0.198 A 
ATOM     64  F   UNL A   1      41.941  29.368  27.851  1.00  0.00    -0.203 F 
ATOM     65  F   UNL A   1      39.068  24.730  27.832  1.00  0.00    -0.200 F 
ATOM     66  C   UNL A   1      40.508  26.239  26.727  1.00  0.00     0.200 A 
ATOM     67  F   UNL A   1      41.957  27.772  25.669  1.00  0.00    -0.200 F 
ATOM     68  F   UNL A   1      40.549  25.437  25.654  1.00  0.00    -0.200 F 
ENDBRANCH  44  58
BRANCH  45  69
ATOM     69  C   UNL A   1      39.628  33.958  36.894  1.00  0.00     0.064 A 
ATOM     70  C   UNL A   1      38.844  33.569  37.989  1.00  0.00     0.173 A 
ATOM     71  C   UNL A   1      40.278  35.198  36.966  1.00  0.00     0.173 A 
ATOM     72  F   UNL A   1      38.186  32.400  37.959  1.00  0.00    -0.203 F 
ATOM     73  C   UNL A   1      38.700  34.394  39.102  1.00  0.00     0.198 A 
ATOM     74  C   UNL A   1      40.159  36.009  38.093  1.00  0.00     0.198 A 
ATOM     75  F   UNL A   1      41.047  35.614  35.949  1.00  0.00    -0.203 F 
ATOM     76  F   UNL A   1      37.910  34.017  40.115  1.00  0.00    -0.200 F 
ATOM     77  C   UNL A   1      39.364  35.611  39.156  1.00  0.00     0.200 A 
ATOM     78  F   UNL A   1      40.817  37.176  38.148  1.00  0.00    -0.200 F 
ATOM     79  F   UNL A   1      39.233  36.400  40.230  1.00  0.00    -0.200 F 
ENDBRANCH  45  69
BRANCH  57  80
ATOM     80  C   UNL A   1      43.981  28.775  35.218  1.00  0.00     0.064 A 
ATOM     81  C   UNL A   1      43.838  27.676  36.078  1.00  0.00     0.173 A 
ATOM     82  C   UNL A   1      45.276  29.271  34.998  1.00  0.00     0.173 A 
ATOM     83  F   UNL A   1      42.621  27.173  36.334  1.00  0.00    -0.203 F 
ATOM     84  C   UNL A   1      44.943  27.115  36.713  1.00  0.00     0.198 A 
ATOM     85  C   UNL A   1      46.382  28.686  35.608  1.00  0.00     0.198 A 
ATOM     86  F   UNL A   1      45.470  30.315  34.180  1.00  0.00    -0.203 F 
ATOM     87  F   UNL A   1      44.776  26.099  37.570  1.00  0.00    -0.200 F 
ATOM     88  C   UNL A   1      46.214  27.614  36.471  1.00  0.00     0.200 A 
ATOM     89  F   UNL A   1      47.611  29.161  35.360  1.00  0.00    -0.200 F 
ATOM     90  F   UNL A   1      47.278  27.066  37.075  1.00  0.00    -0.200 F 
ENDBRANCH  57  80
ENDBRANCH  31  32
ENDBRANCH  23  26
ENDBRANCH  21  22
ENDBRANCH   1  21
TORSDOF 11
ENDMDL
MODEL 3
REMARK VINA RESULT:     -11.8      0.670      1.777
REMARK SMILES C[C@H]1[NH2+]CC[C@H]1C(=O)N1CC(C(=O)NCCCNC(=O)c2ccc(-c3c4nc(c(-c5c(F)c(F)c(F)c(F)c5F)c5ccc([nH]5)c(-c5c(F)c(F)c(F)c(F)c5F)c5nc(c(-c6c(F)c(F)c(F)c(F)c6F)c6ccc3[nH]6)C=C5)C=C4)cc2)C1
REMARK SMILES IDX 16 1 15 2 14 3 12 4 13 5 11 7 7 8 8 9 9 10 10 11 84 12 6 13
REMARK SMILES IDX 1 14 2 15 3 16 4 17 5 20 17 21 18 22 19 23 20 25 21 26 22 27
REMARK SMILES IDX 83 28 23 29 82 30 24 31 25 32 26 33 76 34 27 35 81 36 75 37
REMARK SMILES IDX 77 38 28 39 80 40 74 41 73 42 29 44 61 45 41 46 60 47 42 48
REMARK SMILES IDX 45 49 59 50 78 51 43 52 44 53 58 55 79 56 46 57 30 58 31 59
REMARK SMILES IDX 39 60 32 61 33 62 37 63 40 64 34 65 35 66 38 67 36 68 62 69
REMARK SMILES IDX 63 70 71 71 64 72 65 73 69 74 72 75 66 76 67 77 70 78 68 79
REMARK SMILES IDX 47 80 48 81 56 82 49 83 50 84 54 85 57 86 51 87 52 88 55 89
REMARK SMILES IDX 53 90
REMARK H PARENT 14 6 3 18 3 19 18 24 77 43 45 54
REMARK Flexibility Score: inf
ROOT
ATOM      1  C   UNL A   1      38.086  19.720  25.030  1.00  0.00     0.042 C 
ENDROOT
BRANCH   1   2
ATOM      2  C   UNL A   1      36.952  20.737  25.008  1.00  0.00     0.117 C 
BRANCH   2   3
ATOM      3  N   UNL A   1      37.040  21.650  23.883  1.00  0.00    -0.356 N 
ATOM      4  C   UNL A   1      36.340  22.794  23.583  1.00  0.00     0.226 C 
ATOM      5  O   UNL A   1      36.678  23.358  22.532  1.00  0.00    -0.275 OA
ATOM      6  H   UNL A   1      37.722  21.406  23.218  1.00  0.00     0.163 HD
BRANCH   4   7
ATOM      7  C   UNL A   1      35.206  23.331  24.460  1.00  0.00     0.117 C 
ATOM      8  C   UNL A   1      33.627  25.885  25.808  1.00  0.00     0.231 C 
ATOM      9  O   UNL A   1      32.667  25.272  26.274  1.00  0.00    -0.274 OA
ATOM     10  N   UNL A   1      34.568  25.268  25.002  1.00  0.00    -0.341 N 
ATOM     11  C   UNL A   1      34.170  24.311  23.941  1.00  0.00     0.134 C 
ATOM     12  C   UNL A   1      35.539  24.308  25.568  1.00  0.00     0.134 C 
BRANCH   8  13
ATOM     13  C   UNL A   1      33.829  27.371  26.075  1.00  0.00     0.142 C 
ATOM     14  C   UNL A   1      32.740  28.142  23.828  1.00  0.00     0.076 C 
ATOM     15  C   UNL A   1      33.821  28.331  24.887  1.00  0.00     0.192 C 
ATOM     16  N   UNL A   1      33.660  29.655  25.516  1.00  0.00    -0.343 N 
ATOM     17  C   UNL A   1      32.992  29.487  26.807  1.00  0.00     0.261 C 
ATOM     18  H   UNL A   1      33.095  30.255  24.914  1.00  0.00     0.346 HD
ATOM     19  H   UNL A   1      34.574  30.087  25.652  1.00  0.00     0.346 HD
ATOM     20  C   UNL A   1      32.835  27.993  27.042  1.00  0.00     0.081 C 
ENDBRANCH   8  13
ENDBRANCH   4   7
ENDBRANCH   2   3
ENDBRANCH   1   2
BRANCH   1  21
ATOM     21  C   UNL A   1      39.214  20.052  26.001  1.00  0.00     0.118 C 
BRANCH  21  22
ATOM     22  N   UNL A   1      40.301  19.083  25.963  1.00  0.00    -0.352 N 
ATOM     23  C   UNL A   1      41.659  19.262  26.049  1.00  0.00     0.251 C 
ATOM     24  H   UNL A   1      40.015  18.147  25.858  1.00  0.00     0.163 HD
ATOM     25  O   UNL A   1      42.409  18.313  25.820  1.00  0.00    -0.269 OA
BRANCH  23  26
ATOM     26  C   UNL A   1      42.234  20.581  26.388  1.00  0.00     0.039 A 
ATOM     27  C   UNL A   1      42.634  21.428  25.350  1.00  0.00     0.014 A 
ATOM     28  C   UNL A   1      42.406  20.981  27.715  1.00  0.00     0.014 A 
ATOM     29  C   UNL A   1      43.134  22.699  25.642  1.00  0.00     0.010 A 
ATOM     30  C   UNL A   1      42.824  22.278  28.002  1.00  0.00     0.010 A 
ATOM     31  C   UNL A   1      43.193  23.152  26.969  1.00  0.00    -0.014 A 
BRANCH  31  32
ATOM     32  C   UNL A   1      43.625  24.535  27.294  1.00  0.00     0.031 A 
ATOM     33  C   UNL A   1      42.622  25.561  27.744  1.00  0.00     0.074 A 
ATOM     34  C   UNL A   1      44.914  24.887  27.117  1.00  0.00     0.049 A 
ATOM     35  N   UNL A   1      42.797  26.833  28.003  1.00  0.00    -0.248 NA
ATOM     36  C   UNL A   1      41.232  25.104  27.894  1.00  0.00     0.031 C 
ATOM     37  C   UNL A   1      45.974  23.998  26.640  1.00  0.00     0.029 A 
ATOM     38  N   UNL A   1      45.549  26.090  27.306  1.00  0.00    -0.354 N 
ATOM     39  C   UNL A   1      41.541  27.328  28.331  1.00  0.00     0.074 A 
ATOM     40  C   UNL A   1      40.605  26.235  28.183  1.00  0.00     0.031 C 
ATOM     41  C   UNL A   1      47.131  24.678  26.595  1.00  0.00     0.029 A 
ATOM     42  C   UNL A   1      46.887  26.059  26.998  1.00  0.00     0.049 A 
ATOM     43  H   UNL A   1      45.089  26.897  27.630  1.00  0.00     0.167 HD
ATOM     44  C   UNL A   1      41.203  28.574  28.741  1.00  0.00     0.037 A 
ATOM     45  C   UNL A   1      47.813  27.037  27.025  1.00  0.00     0.037 A 
ATOM     46  C   UNL A   1      42.142  29.654  28.905  1.00  0.00     0.049 A 
ATOM     47  C   UNL A   1      47.411  28.416  27.472  1.00  0.00     0.074 A 
ATOM     48  C   UNL A   1      41.910  30.935  29.374  1.00  0.00     0.029 A 
ATOM     49  N   UNL A   1      43.493  29.581  28.596  1.00  0.00    -0.354 N 
ATOM     50  N   UNL A   1      46.235  28.854  27.851  1.00  0.00    -0.248 NA
ATOM     51  C   UNL A   1      48.468  29.437  27.501  1.00  0.00     0.031 C 
ATOM     52  C   UNL A   1      43.107  31.653  29.295  1.00  0.00     0.029 A 
ATOM     53  C   UNL A   1      44.101  30.804  28.837  1.00  0.00     0.049 A 
ATOM     54  H   UNL A   1      43.952  28.780  28.255  1.00  0.00     0.167 HD
ATOM     55  C   UNL A   1      46.415  30.187  28.191  1.00  0.00     0.074 A 
ATOM     56  C   UNL A   1      47.817  30.485  27.987  1.00  0.00     0.031 C 
ATOM     57  C   UNL A   1      45.500  31.085  28.635  1.00  0.00     0.037 A 
BRANCH  44  58
ATOM     58  C   UNL A   1      39.754  28.839  29.037  1.00  0.00     0.064 A 
ATOM     59  C   UNL A   1      39.212  28.639  30.317  1.00  0.00     0.173 A 
ATOM     60  C   UNL A   1      38.901  29.329  28.037  1.00  0.00     0.173 A 
ATOM     61  F   UNL A   1      39.980  28.163  31.308  1.00  0.00    -0.203 F 
ATOM     62  C   UNL A   1      37.866  28.884  30.573  1.00  0.00     0.198 A 
ATOM     63  C   UNL A   1      37.563  29.607  28.305  1.00  0.00     0.198 A 
ATOM     64  F   UNL A   1      39.366  29.547  26.797  1.00  0.00    -0.203 F 
ATOM     65  F   UNL A   1      37.360  28.630  31.788  1.00  0.00    -0.200 F 
ATOM     66  C   UNL A   1      37.044  29.374  29.570  1.00  0.00     0.200 A 
ATOM     67  F   UNL A   1      36.774  30.095  27.338  1.00  0.00    -0.200 F 
ATOM     68  F   UNL A   1      35.749  29.615  29.820  1.00  0.00    -0.200 F 
ENDBRANCH  44  58
BRANCH  45  69
ATOM     69  C   UNL A   1      49.217  26.737  26.640  1.00  0.00     0.064 A 
ATOM     70  C   UNL A   1      49.659  26.926  25.323  1.00  0.00     0.173 A 
ATOM     71  C   UNL A   1      50.147  26.262  27.576  1.00  0.00     0.173 A 
ATOM     72  F   UNL A   1      48.803  27.360  24.386  1.00  0.00    -0.203 F 
ATOM     73  C   UNL A   1      50.970  26.633  24.953  1.00  0.00     0.198 A 
ATOM     74  C   UNL A   1      51.465  25.999  27.213  1.00  0.00     0.198 A 
ATOM     75  F   UNL A   1      49.777  26.072  28.852  1.00  0.00    -0.203 F 
ATOM     76  F   UNL A   1      51.354  26.780  23.678  1.00  0.00    -0.200 F 
ATOM     77  C   UNL A   1      51.874  26.176  25.900  1.00  0.00     0.200 A 
ATOM     78  F   UNL A   1      52.340  25.575  28.136  1.00  0.00    -0.200 F 
ATOM     79  F   UNL A   1      53.137  25.902  25.547  1.00  0.00    -0.200 F 
ENDBRANCH  45  69
BRANCH  57  80
ATOM     80  C   UNL A   1      45.991  32.464  28.968  1.00  0.00     0.064 A 
ATOM     81  C   UNL A   1      45.986  33.500  28.023  1.00  0.00     0.173 A 
ATOM     82  C   UNL A   1      46.434  32.763  30.266  1.00  0.00     0.173 A 
ATOM     83  F   UNL A   1      45.586  33.263  26.764  1.00  0.00    -0.203 F 
ATOM     84  C   UNL A   1      46.430  34.777  28.356  1.00  0.00     0.198 A 
ATOM     85  C   UNL A   1      46.845  34.049  30.606  1.00  0.00     0.198 A 
ATOM     86  F   UNL A   1      46.453  31.812  31.211  1.00  0.00    -0.203 F 
ATOM     87  F   UNL A   1      46.464  35.738  27.423  1.00  0.00    -0.200 F 
ATOM     88  C   UNL A   1      46.851  35.053  29.649  1.00  0.00     0.200 A 
ATOM     89  F   UNL A   1      47.237  34.317  31.859  1.00  0.00    -0.200 F 
ATOM     90  F   UNL A   1      47.269  36.284  29.971  1.00  0.00    -0.200 F 
ENDBRANCH  57  80
ENDBRANCH  31  32
ENDBRANCH  23  26
ENDBRANCH  21  22
ENDBRANCH   1  21
TORSDOF 11
ENDMDL
