MODEL 1
REMARK VINA RESULT:     -13.3      0.000      0.000
REMARK SMILES Cc1ccnc(C(=O)c2[nH]c3ccc(C(C)(C)C)cc3c2CC(=O)NCCCNC(=O)c2ccc(-c3c4nc(c(-c5c(F)c(F)c(F)c(F)c5F)c5ccc([nH]5)c(-c5c(F)c(F)c(F)c(F)c5F)c5nc(c(-c6c(F)c(F)c(F)c(F)c6F)c6ccc3[nH]6)C=C5)C=C4)cc2)c1
REMARK SMILES IDX 26 1 25 2 23 3 24 4 22 6 21 7 9 8 10 9 11 10 20 12 12 13
REMARK SMILES IDX 19 14 13 15 14 16 7 17 8 18 6 19 1 20 2 21 3 22 95 23 4 24
REMARK SMILES IDX 5 25 15 26 16 27 17 28 18 29 27 30 28 31 29 32 30 33 31 35
REMARK SMILES IDX 32 36 33 37 94 38 34 39 93 40 35 41 36 42 37 43 87 44 38 45
REMARK SMILES IDX 92 46 86 47 88 48 39 49 91 50 85 51 84 52 40 54 72 55 52 56
REMARK SMILES IDX 71 57 53 58 56 59 70 60 89 61 54 62 55 63 69 65 90 66 57 67
REMARK SMILES IDX 41 68 42 69 50 70 43 71 44 72 48 73 51 74 45 75 46 76 49 77
REMARK SMILES IDX 47 78 73 79 74 80 82 81 75 82 76 83 80 84 83 85 77 86 78 87
REMARK SMILES IDX 81 88 79 89 58 90 59 91 67 92 60 93 61 94 65 95 68 96 62 97
REMARK SMILES IDX 63 98 66 99 64 100
REMARK H PARENT 25 5 10 11 29 34 88 53 56 64
REMARK Flexibility Score: inf
ROOT
ATOM      1  C   UNL A   1      33.770  26.781  25.571  1.00  0.00     0.117 C 
ENDROOT
BRANCH   1   2
ATOM      2  N   UNL A   1      33.322  25.616  26.307  1.00  0.00    -0.356 N 
ATOM      3  C   UNL A   1      33.550  24.292  26.066  1.00  0.00     0.224 C 
ATOM      4  O   UNL A   1      33.185  23.476  26.917  1.00  0.00    -0.275 OA
ATOM      5  H   UNL A   1      32.769  25.808  27.099  1.00  0.00     0.163 HD
BRANCH   3   6
ATOM      6  C   UNL A   1      34.323  23.842  24.839  1.00  0.00     0.138 C 
BRANCH   6   7
ATOM      7  C   UNL A   1      33.476  23.294  23.726  1.00  0.00    -0.002 A 
ATOM      8  C   UNL A   1      32.823  24.007  22.726  1.00  0.00     0.093 A 
ATOM      9  N   UNL A   1      32.207  23.094  21.901  1.00  0.00    -0.352 N 
ATOM     10  C   UNL A   1      32.372  21.821  22.378  1.00  0.00     0.046 A 
ATOM     11  H   UNL A   1      31.715  23.325  21.080  1.00  0.00     0.167 HD
ATOM     12  C   UNL A   1      33.155  21.909  23.523  1.00  0.00     0.004 A 
ATOM     13  C   UNL A   1      31.904  20.605  21.876  1.00  0.00     0.027 A 
ATOM     14  C   UNL A   1      33.485  20.712  24.197  1.00  0.00     0.015 A 
ATOM     15  C   UNL A   1      32.256  19.435  22.564  1.00  0.00     0.006 A 
ATOM     16  C   UNL A   1      33.047  19.455  23.723  1.00  0.00    -0.042 A 
BRANCH   8  17
ATOM     17  C   UNL A   1      32.804  25.435  22.458  1.00  0.00     0.227 C 
ATOM     18  O   UNL A   1      33.770  25.986  21.942  1.00  0.00    -0.285 OA
BRANCH  17  19
ATOM     19  C   UNL A   1      31.534  26.202  22.752  1.00  0.00     0.113 A 
ATOM     20  C   UNL A   1      29.922  29.602  22.238  1.00  0.00     0.044 C 
ATOM     21  C   UNL A   1      30.167  28.186  22.666  1.00  0.00    -0.047 A 
ATOM     22  C   UNL A   1      29.217  27.511  23.433  1.00  0.00     0.023 A 
ATOM     23  C   UNL A   1      31.337  27.510  22.302  1.00  0.00     0.036 A 
ATOM     24  C   UNL A   1      29.483  26.209  23.823  1.00  0.00     0.112 A 
ATOM     25  N   UNL A   1      30.618  25.551  23.514  1.00  0.00    -0.253 NA
ENDBRANCH  17  19
ENDBRANCH   8  17
BRANCH  16  26
ATOM     26  C   UNL A   1      33.465  18.173  24.466  1.00  0.00    -0.013 C 
ATOM     27  C   UNL A   1      32.719  18.103  25.816  1.00  0.00     0.016 C 
ATOM     28  C   UNL A   1      33.107  16.931  23.620  1.00  0.00     0.016 C 
ATOM     29  C   UNL A   1      34.978  18.092  24.770  1.00  0.00     0.016 C 
ENDBRANCH  16  26
ENDBRANCH   6   7
ENDBRANCH   3   6
ENDBRANCH   1   2
BRANCH   1  30
ATOM     30  C   UNL A   1      32.809  27.964  25.657  1.00  0.00     0.042 C 
BRANCH  30  31
ATOM     31  C   UNL A   1      33.345  29.274  25.086  1.00  0.00     0.118 C 
BRANCH  31  32
ATOM     32  N   UNL A   1      32.724  30.447  25.683  1.00  0.00    -0.352 N 
ATOM     33  C   UNL A   1      33.049  31.145  26.818  1.00  0.00     0.251 C 
ATOM     34  H   UNL A   1      31.942  30.795  25.194  1.00  0.00     0.163 HD
ATOM     35  O   UNL A   1      32.291  32.023  27.223  1.00  0.00    -0.269 OA
BRANCH  33  36
ATOM     36  C   UNL A   1      34.289  30.856  27.577  1.00  0.00     0.039 A 
ATOM     37  C   UNL A   1      35.253  31.866  27.680  1.00  0.00     0.014 A 
ATOM     38  C   UNL A   1      34.548  29.594  28.120  1.00  0.00     0.014 A 
ATOM     39  C   UNL A   1      36.447  31.633  28.369  1.00  0.00     0.010 A 
ATOM     40  C   UNL A   1      35.727  29.370  28.836  1.00  0.00     0.010 A 
ATOM     41  C   UNL A   1      36.683  30.388  28.968  1.00  0.00    -0.014 A 
BRANCH  41  42
ATOM     42  C   UNL A   1      37.929  30.133  29.731  1.00  0.00     0.031 A 
ATOM     43  C   UNL A   1      38.998  29.244  29.166  1.00  0.00     0.074 A 
ATOM     44  C   UNL A   1      38.079  30.662  30.960  1.00  0.00     0.049 A 
ATOM     45  N   UNL A   1      40.096  28.809  29.732  1.00  0.00    -0.248 NA
ATOM     46  C   UNL A   1      38.803  28.775  27.786  1.00  0.00     0.031 C 
ATOM     47  C   UNL A   1      37.115  31.534  31.629  1.00  0.00     0.029 A 
ATOM     48  N   UNL A   1      39.100  30.532  31.866  1.00  0.00    -0.354 N 
ATOM     49  C   UNL A   1      40.704  27.989  28.794  1.00  0.00     0.074 A 
ATOM     50  C   UNL A   1      39.860  27.993  27.616  1.00  0.00     0.031 C 
ATOM     51  C   UNL A   1      37.593  31.866  32.839  1.00  0.00     0.029 A 
ATOM     52  C   UNL A   1      38.882  31.208  33.040  1.00  0.00     0.049 A 
ATOM     53  H   UNL A   1      39.912  30.003  31.693  1.00  0.00     0.167 HD
ATOM     54  C   UNL A   1      41.859  27.292  28.905  1.00  0.00     0.037 A 
ATOM     55  C   UNL A   1      39.628  31.277  34.157  1.00  0.00     0.037 A 
ATOM     56  C   UNL A   1      42.726  27.312  30.052  1.00  0.00     0.049 A 
ATOM     57  C   UNL A   1      40.921  30.521  34.243  1.00  0.00     0.074 A 
ATOM     58  C   UNL A   1      43.935  26.661  30.233  1.00  0.00     0.029 A 
ATOM     59  N   UNL A   1      42.479  28.029  31.210  1.00  0.00    -0.354 N 
ATOM     60  N   UNL A   1      41.479  29.739  33.353  1.00  0.00    -0.248 NA
ATOM     61  C   UNL A   1      41.681  30.648  35.496  1.00  0.00     0.031 C 
ATOM     62  C   UNL A   1      44.417  26.982  31.509  1.00  0.00     0.029 A 
ATOM     63  C   UNL A   1      43.512  27.836  32.113  1.00  0.00     0.049 A 
ATOM     64  H   UNL A   1      41.687  28.593  31.368  1.00  0.00     0.167 HD
ATOM     65  C   UNL A   1      42.651  29.280  33.933  1.00  0.00     0.074 A 
ATOM     66  C   UNL A   1      42.732  29.877  35.251  1.00  0.00     0.031 C 
ATOM     67  C   UNL A   1      43.575  28.435  33.419  1.00  0.00     0.037 A 
BRANCH  54  68
ATOM     68  C   UNL A   1      42.247  26.430  27.748  1.00  0.00     0.064 A 
ATOM     69  C   UNL A   1      43.170  26.869  26.791  1.00  0.00     0.173 A 
ATOM     70  C   UNL A   1      41.714  25.139  27.617  1.00  0.00     0.173 A 
ATOM     71  F   UNL A   1      43.696  28.100  26.874  1.00  0.00    -0.203 F 
ATOM     72  C   UNL A   1      43.544  26.045  25.733  1.00  0.00     0.198 A 
ATOM     73  C   UNL A   1      42.095  24.316  26.562  1.00  0.00     0.198 A 
ATOM     74  F   UNL A   1      40.826  24.682  28.510  1.00  0.00    -0.203 F 
ATOM     75  F   UNL A   1      44.417  26.487  24.816  1.00  0.00    -0.200 F 
ATOM     76  C   UNL A   1      43.008  24.770  25.620  1.00  0.00     0.200 A 
ATOM     77  F   UNL A   1      41.578  23.085  26.453  1.00  0.00    -0.200 F 
ATOM     78  F   UNL A   1      43.369  23.978  24.601  1.00  0.00    -0.200 F 
ENDBRANCH  54  68
BRANCH  55  79
ATOM     79  C   UNL A   1      39.157  32.096  35.297  1.00  0.00     0.064 A 
ATOM     80  C   UNL A   1      38.414  31.517  36.333  1.00  0.00     0.173 A 
ATOM     81  C   UNL A   1      39.456  33.462  35.377  1.00  0.00     0.173 A 
ATOM     82  F   UNL A   1      38.094  30.216  36.283  1.00  0.00    -0.203 F 
ATOM     83  C   UNL A   1      37.984  32.280  37.415  1.00  0.00     0.198 A 
ATOM     84  C   UNL A   1      39.032  34.222  36.463  1.00  0.00     0.198 A 
ATOM     85  F   UNL A   1      40.161  34.053  34.402  1.00  0.00    -0.203 F 
ATOM     86  F   UNL A   1      37.261  31.711  38.390  1.00  0.00    -0.200 F 
ATOM     87  C   UNL A   1      38.295  33.631  37.480  1.00  0.00     0.200 A 
ATOM     88  F   UNL A   1      39.335  35.526  36.526  1.00  0.00    -0.200 F 
ATOM     89  F   UNL A   1      37.882  34.366  38.523  1.00  0.00    -0.200 F 
ENDBRANCH  55  79
BRANCH  67  90
ATOM     90  C   UNL A   1      44.749  28.106  34.282  1.00  0.00     0.064 A 
ATOM     91  C   UNL A   1      45.890  28.920  34.286  1.00  0.00     0.173 A 
ATOM     92  C   UNL A   1      44.723  26.992  35.133  1.00  0.00     0.173 A 
ATOM     93  F   UNL A   1      45.961  29.987  33.477  1.00  0.00    -0.203 F 
ATOM     94  C   UNL A   1      46.971  28.626  35.113  1.00  0.00     0.198 A 
ATOM     95  C   UNL A   1      45.804  26.705  35.961  1.00  0.00     0.198 A 
ATOM     96  F   UNL A   1      43.653  26.184  35.154  1.00  0.00    -0.203 F 
ATOM     97  F   UNL A   1      48.060  29.406  35.092  1.00  0.00    -0.200 F 
ATOM     98  C   UNL A   1      46.926  27.521  35.951  1.00  0.00     0.200 A 
ATOM     99  F   UNL A   1      45.762  25.634  36.768  1.00  0.00    -0.200 F 
ATOM    100  F   UNL A   1      47.969  27.237  36.743  1.00  0.00    -0.200 F 
ENDBRANCH  67  90
ENDBRANCH  41  42
ENDBRANCH  33  36
ENDBRANCH  31  32
ENDBRANCH  30  31
ENDBRANCH   1  30
TORSDOF 14
ENDMDL
MODEL 2
REMARK VINA RESULT:     -13.2      4.508     10.082
REMARK SMILES Cc1ccnc(C(=O)c2[nH]c3ccc(C(C)(C)C)cc3c2CC(=O)NCCCNC(=O)c2ccc(-c3c4nc(c(-c5c(F)c(F)c(F)c(F)c5F)c5ccc([nH]5)c(-c5c(F)c(F)c(F)c(F)c5F)c5nc(c(-c6c(F)c(F)c(F)c(F)c6F)c6ccc3[nH]6)C=C5)C=C4)cc2)c1
REMARK SMILES IDX 26 1 25 2 23 3 24 4 22 6 21 7 9 8 10 9 11 10 20 12 12 13
REMARK SMILES IDX 19 14 13 15 14 16 7 17 8 18 6 19 1 20 2 21 3 22 95 23 4 24
REMARK SMILES IDX 5 25 15 26 16 27 17 28 18 29 27 30 28 31 29 32 30 33 31 35
REMARK SMILES IDX 32 36 33 37 94 38 34 39 93 40 35 41 36 42 37 43 87 44 38 45
REMARK SMILES IDX 92 46 86 47 88 48 39 49 91 50 85 51 84 52 40 54 72 55 52 56
REMARK SMILES IDX 71 57 53 58 56 59 70 60 89 61 54 62 55 63 69 65 90 66 57 67
REMARK SMILES IDX 41 68 42 69 50 70 43 71 44 72 48 73 51 74 45 75 46 76 49 77
REMARK SMILES IDX 47 78 73 79 74 80 82 81 75 82 76 83 80 84 83 85 77 86 78 87
REMARK SMILES IDX 81 88 79 89 58 90 59 91 67 92 60 93 61 94 65 95 68 96 62 97
REMARK SMILES IDX 63 98 66 99 64 100
REMARK H PARENT 25 5 10 11 29 34 88 53 56 64
REMARK Flexibility Score: inf
ROOT
ATOM      1  C   UNL A   1      36.645  20.702  25.072  1.00  0.00     0.117 C 
ENDROOT
BRANCH   1   2
ATOM      2  N   UNL A   1      36.351  21.687  24.050  1.00  0.00    -0.356 N 
ATOM      3  C   UNL A   1      35.863  22.956  24.176  1.00  0.00     0.224 C 
ATOM      4  O   UNL A   1      35.829  23.667  23.169  1.00  0.00    -0.275 OA
ATOM      5  H   UNL A   1      36.529  21.398  23.126  1.00  0.00     0.163 HD
BRANCH   3   6
ATOM      6  C   UNL A   1      35.472  23.511  25.535  1.00  0.00     0.138 C 
BRANCH   6   7
ATOM      7  C   UNL A   1      33.993  23.637  25.763  1.00  0.00    -0.002 A 
ATOM      8  C   UNL A   1      33.083  22.616  26.018  1.00  0.00     0.093 A 
ATOM      9  N   UNL A   1      31.850  23.197  26.206  1.00  0.00    -0.352 N 
ATOM     10  C   UNL A   1      31.915  24.550  26.001  1.00  0.00     0.046 A 
ATOM     11  H   UNL A   1      31.034  22.707  26.454  1.00  0.00     0.167 HD
ATOM     12  C   UNL A   1      33.240  24.859  25.715  1.00  0.00     0.004 A 
ATOM     13  C   UNL A   1      30.912  25.518  26.065  1.00  0.00     0.027 A 
ATOM     14  C   UNL A   1      33.572  26.212  25.481  1.00  0.00     0.015 A 
ATOM     15  C   UNL A   1      31.276  26.852  25.835  1.00  0.00     0.006 A 
ATOM     16  C   UNL A   1      32.595  27.231  25.546  1.00  0.00    -0.042 A 
BRANCH   8  17
ATOM     17  C   UNL A   1      33.302  21.187  26.170  1.00  0.00     0.227 C 
ATOM     18  O   UNL A   1      33.653  20.721  27.248  1.00  0.00    -0.285 OA
BRANCH  17  19
ATOM     19  C   UNL A   1      33.002  20.288  24.992  1.00  0.00     0.113 A 
ATOM     20  C   UNL A   1      33.486  16.727  23.765  1.00  0.00     0.044 C 
ATOM     21  C   UNL A   1      33.103  18.175  23.836  1.00  0.00    -0.047 A 
ATOM     22  C   UNL A   1      32.479  18.789  22.750  1.00  0.00     0.023 A 
ATOM     23  C   UNL A   1      33.348  18.934  24.985  1.00  0.00     0.036 A 
ATOM     24  C   UNL A   1      32.153  20.132  22.845  1.00  0.00     0.112 A 
ATOM     25  N   UNL A   1      32.413  20.892  23.927  1.00  0.00    -0.253 NA
ENDBRANCH  17  19
ENDBRANCH   8  17
BRANCH  16  26
ATOM     26  C   UNL A   1      33.009  28.698  25.325  1.00  0.00    -0.013 C 
ATOM     27  C   UNL A   1      34.032  29.105  26.407  1.00  0.00     0.016 C 
ATOM     28  C   UNL A   1      33.650  28.862  23.929  1.00  0.00     0.016 C 
ATOM     29  C   UNL A   1      31.833  29.697  25.403  1.00  0.00     0.016 C 
ENDBRANCH  16  26
ENDBRANCH   6   7
ENDBRANCH   3   6
ENDBRANCH   1   2
BRANCH   1  30
ATOM     30  C   UNL A   1      38.001  20.024  24.893  1.00  0.00     0.042 C 
BRANCH  30  31
ATOM     31  C   UNL A   1      38.921  20.089  26.109  1.00  0.00     0.118 C 
BRANCH  31  32
ATOM     32  N   UNL A   1      40.068  19.202  25.998  1.00  0.00    -0.352 N 
ATOM     33  C   UNL A   1      41.412  19.474  26.046  1.00  0.00     0.251 C 
ATOM     34  H   UNL A   1      39.845  18.251  25.865  1.00  0.00     0.163 HD
ATOM     35  O   UNL A   1      42.217  18.586  25.776  1.00  0.00    -0.269 OA
BRANCH  33  36
ATOM     36  C   UNL A   1      41.917  20.821  26.403  1.00  0.00     0.039 A 
ATOM     37  C   UNL A   1      42.094  21.756  25.375  1.00  0.00     0.014 A 
ATOM     38  C   UNL A   1      42.288  21.152  27.710  1.00  0.00     0.014 A 
ATOM     39  C   UNL A   1      42.587  23.033  25.660  1.00  0.00     0.010 A 
ATOM     40  C   UNL A   1      42.750  22.438  28.002  1.00  0.00     0.010 A 
ATOM     41  C   UNL A   1      42.901  23.388  26.980  1.00  0.00    -0.014 A 
BRANCH  41  42
ATOM     42  C   UNL A   1      43.393  24.748  27.307  1.00  0.00     0.031 A 
ATOM     43  C   UNL A   1      42.471  25.763  27.917  1.00  0.00     0.074 A 
ATOM     44  C   UNL A   1      44.661  25.089  27.011  1.00  0.00     0.049 A 
ATOM     45  N   UNL A   1      42.684  27.032  28.160  1.00  0.00    -0.248 NA
ATOM     46  C   UNL A   1      41.130  25.292  28.292  1.00  0.00     0.031 C 
ATOM     47  C   UNL A   1      45.657  24.202  26.411  1.00  0.00     0.029 A 
ATOM     48  N   UNL A   1      45.322  26.280  27.168  1.00  0.00    -0.354 N 
ATOM     49  C   UNL A   1      41.496  27.520  28.683  1.00  0.00     0.074 A 
ATOM     50  C   UNL A   1      40.566  26.409  28.733  1.00  0.00     0.031 C 
ATOM     51  C   UNL A   1      46.807  24.879  26.255  1.00  0.00     0.029 A 
ATOM     52  C   UNL A   1      46.618  26.253  26.717  1.00  0.00     0.049 A 
ATOM     53  H   UNL A   1      44.907  27.080  27.564  1.00  0.00     0.167 HD
ATOM     54  C   UNL A   1      41.204  28.780  29.083  1.00  0.00     0.037 A 
ATOM     55  C   UNL A   1      47.544  27.226  26.668  1.00  0.00     0.037 A 
ATOM     56  C   UNL A   1      42.129  29.880  29.077  1.00  0.00     0.049 A 
ATOM     57  C   UNL A   1      47.206  28.607  27.147  1.00  0.00     0.074 A 
ATOM     58  C   UNL A   1      41.924  31.184  29.499  1.00  0.00     0.029 A 
ATOM     59  N   UNL A   1      43.439  29.803  28.635  1.00  0.00    -0.354 N 
ATOM     60  N   UNL A   1      46.075  29.059  27.629  1.00  0.00    -0.248 NA
ATOM     61  C   UNL A   1      48.272  29.617  27.063  1.00  0.00     0.031 C 
ATOM     62  C   UNL A   1      43.114  31.898  29.305  1.00  0.00     0.029 A 
ATOM     63  C   UNL A   1      44.056  31.036  28.771  1.00  0.00     0.049 A 
ATOM     64  H   UNL A   1      43.868  28.992  28.278  1.00  0.00     0.167 HD
ATOM     65  C   UNL A   1      46.289  30.400  27.905  1.00  0.00     0.074 A 
ATOM     66  C   UNL A   1      47.661  30.692  27.545  1.00  0.00     0.031 C 
ATOM     67  C   UNL A   1      45.420  31.309  28.407  1.00  0.00     0.037 A 
BRANCH  54  68
ATOM     68  C   UNL A   1      39.809  29.039  29.551  1.00  0.00     0.064 A 
ATOM     69  C   UNL A   1      38.813  29.471  28.667  1.00  0.00     0.173 A 
ATOM     70  C   UNL A   1      39.461  28.819  30.892  1.00  0.00     0.173 A 
ATOM     71  F   UNL A   1      39.107  29.703  27.380  1.00  0.00    -0.203 F 
ATOM     72  C   UNL A   1      37.510  29.682  29.113  1.00  0.00     0.198 A 
ATOM     73  C   UNL A   1      38.157  29.024  31.332  1.00  0.00     0.198 A 
ATOM     74  F   UNL A   1      40.386  28.408  31.771  1.00  0.00    -0.203 F 
ATOM     75  F   UNL A   1      36.572  30.110  28.257  1.00  0.00    -0.200 F 
ATOM     76  C   UNL A   1      37.183  29.456  30.442  1.00  0.00     0.200 A 
ATOM     77  F   UNL A   1      37.842  28.807  32.616  1.00  0.00    -0.200 F 
ATOM     78  F   UNL A   1      35.929  29.659  30.869  1.00  0.00    -0.200 F 
ENDBRANCH  54  68
BRANCH  55  79
ATOM     79  C   UNL A   1      48.890  26.924  26.131  1.00  0.00     0.064 A 
ATOM     80  C   UNL A   1      49.893  26.412  26.965  1.00  0.00     0.173 A 
ATOM     81  C   UNL A   1      49.190  27.126  24.779  1.00  0.00     0.173 A 
ATOM     82  F   UNL A   1      49.648  26.222  28.269  1.00  0.00    -0.203 F 
ATOM     83  C   UNL A   1      51.155  26.111  26.460  1.00  0.00     0.198 A 
ATOM     84  C   UNL A   1      50.451  26.817  24.274  1.00  0.00     0.198 A 
ATOM     85  F   UNL A   1      48.259  27.619  23.950  1.00  0.00    -0.203 F 
ATOM     86  F   UNL A   1      52.106  25.636  27.276  1.00  0.00    -0.200 F 
ATOM     87  C   UNL A   1      51.432  26.312  25.115  1.00  0.00     0.200 A 
ATOM     88  F   UNL A   1      50.716  27.009  22.974  1.00  0.00    -0.200 F 
ATOM     89  F   UNL A   1      52.647  26.020  24.629  1.00  0.00    -0.200 F 
ENDBRANCH  55  79
BRANCH  67  90
ATOM     90  C   UNL A   1      45.929  32.701  28.596  1.00  0.00     0.064 A 
ATOM     91  C   UNL A   1      45.803  33.658  27.580  1.00  0.00     0.173 A 
ATOM     92  C   UNL A   1      46.515  33.091  29.809  1.00  0.00     0.173 A 
ATOM     93  F   UNL A   1      45.261  33.322  26.400  1.00  0.00    -0.203 F 
ATOM     94  C   UNL A   1      46.252  34.961  27.771  1.00  0.00     0.198 A 
ATOM     95  C   UNL A   1      46.958  34.396  29.996  1.00  0.00     0.198 A 
ATOM     96  F   UNL A   1      46.660  32.203  30.804  1.00  0.00    -0.203 F 
ATOM     97  F   UNL A   1      46.138  35.859  26.783  1.00  0.00    -0.200 F 
ATOM     98  C   UNL A   1      46.826  35.330  28.979  1.00  0.00     0.200 A 
ATOM     99  F   UNL A   1      47.518  34.751  31.162  1.00  0.00    -0.200 F 
ATOM    100  F   UNL A   1      47.262  36.584  29.159  1.00  0.00    -0.200 F 
ENDBRANCH  67  90
ENDBRANCH  41  42
ENDBRANCH  33  36
ENDBRANCH  31  32
ENDBRANCH  30  31
ENDBRANCH   1  30
TORSDOF 14
ENDMDL
MODEL 3
REMARK VINA RESULT:     -13.1      4.616     10.173
REMARK SMILES Cc1ccnc(C(=O)c2[nH]c3ccc(C(C)(C)C)cc3c2CC(=O)NCCCNC(=O)c2ccc(-c3c4nc(c(-c5c(F)c(F)c(F)c(F)c5F)c5ccc([nH]5)c(-c5c(F)c(F)c(F)c(F)c5F)c5nc(c(-c6c(F)c(F)c(F)c(F)c6F)c6ccc3[nH]6)C=C5)C=C4)cc2)c1
REMARK SMILES IDX 26 1 25 2 23 3 24 4 22 6 21 7 9 8 10 9 11 10 20 12 12 13
REMARK SMILES IDX 19 14 13 15 14 16 7 17 8 18 6 19 1 20 2 21 3 22 95 23 4 24
REMARK SMILES IDX 5 25 15 26 16 27 17 28 18 29 27 30 28 31 29 32 30 33 31 35
REMARK SMILES IDX 32 36 33 37 94 38 34 39 93 40 35 41 36 42 37 43 87 44 38 45
REMARK SMILES IDX 92 46 86 47 88 48 39 49 91 50 85 51 84 52 40 54 72 55 52 56
REMARK SMILES IDX 71 57 53 58 56 59 70 60 89 61 54 62 55 63 69 65 90 66 57 67
REMARK SMILES IDX 41 68 42 69 50 70 43 71 44 72 48 73 51 74 45 75 46 76 49 77
REMARK SMILES IDX 47 78 73 79 74 80 82 81 75 82 76 83 80 84 83 85 77 86 78 87
REMARK SMILES IDX 81 88 79 89 58 90 59 91 67 92 60 93 61 94 65 95 68 96 62 97
REMARK SMILES IDX 63 98 66 99 64 100
REMARK H PARENT 25 5 10 11 29 34 88 53 56 64
REMARK Flexibility Score: inf
ROOT
ATOM      1  C   UNL A   1      37.402  21.100  24.524  1.00  0.00     0.117 C 
ENDROOT
BRANCH   1   2
ATOM      2  N   UNL A   1      37.611  22.216  25.425  1.00  0.00    -0.356 N 
ATOM      3  C   UNL A   1      36.934  23.396  25.523  1.00  0.00     0.224 C 
ATOM      4  O   UNL A   1      37.201  24.142  26.470  1.00  0.00    -0.275 OA
ATOM      5  H   UNL A   1      38.354  22.106  26.061  1.00  0.00     0.163 HD
BRANCH   3   6
ATOM      6  C   UNL A   1      35.811  23.736  24.558  1.00  0.00     0.138 C 
BRANCH   6   7
ATOM      7  C   UNL A   1      34.437  23.739  25.164  1.00  0.00    -0.002 A 
ATOM      8  C   UNL A   1      33.718  22.649  25.644  1.00  0.00     0.093 A 
ATOM      9  N   UNL A   1      32.530  23.125  26.148  1.00  0.00    -0.352 N 
ATOM     10  C   UNL A   1      32.421  24.475  25.939  1.00  0.00     0.046 A 
ATOM     11  H   UNL A   1      31.852  22.572  26.598  1.00  0.00     0.167 HD
ATOM     12  C   UNL A   1      33.593  24.891  25.319  1.00  0.00     0.004 A 
ATOM     13  C   UNL A   1      31.387  25.354  26.265  1.00  0.00     0.027 A 
ATOM     14  C   UNL A   1      33.733  26.263  25.012  1.00  0.00     0.015 A 
ATOM     15  C   UNL A   1      31.561  26.710  25.954  1.00  0.00     0.006 A 
ATOM     16  C   UNL A   1      32.721  27.195  25.332  1.00  0.00    -0.042 A 
BRANCH   8  17
ATOM     17  C   UNL A   1      34.093  21.247  25.728  1.00  0.00     0.227 C 
ATOM     18  O   UNL A   1      34.805  20.846  26.642  1.00  0.00    -0.285 OA
BRANCH  17  19
ATOM     19  C   UNL A   1      33.513  20.289  24.712  1.00  0.00     0.113 A 
ATOM     20  C   UNL A   1      33.845  16.721  23.456  1.00  0.00     0.044 C 
ATOM     21  C   UNL A   1      33.403  18.144  23.617  1.00  0.00    -0.047 A 
ATOM     22  C   UNL A   1      32.438  18.680  22.762  1.00  0.00     0.023 A 
ATOM     23  C   UNL A   1      33.933  18.959  24.623  1.00  0.00     0.036 A 
ATOM     24  C   UNL A   1      32.064  20.002  22.930  1.00  0.00     0.112 A 
ATOM     25  N   UNL A   1      32.588  20.816  23.869  1.00  0.00    -0.253 NA
ENDBRANCH  17  19
ENDBRANCH   8  17
BRANCH  16  26
ATOM     26  C   UNL A   1      32.933  28.688  25.017  1.00  0.00    -0.013 C 
ATOM     27  C   UNL A   1      33.694  29.350  26.186  1.00  0.00     0.016 C 
ATOM     28  C   UNL A   1      33.757  28.842  23.720  1.00  0.00     0.016 C 
ATOM     29  C   UNL A   1      31.619  29.476  24.816  1.00  0.00     0.016 C 
ENDBRANCH  16  26
ENDBRANCH   6   7
ENDBRANCH   3   6
ENDBRANCH   1   2
BRANCH   1  30
ATOM     30  C   UNL A   1      38.153  19.836  24.934  1.00  0.00     0.042 C 
BRANCH  30  31
ATOM     31  C   UNL A   1      39.165  20.022  26.061  1.00  0.00     0.118 C 
BRANCH  31  32
ATOM     32  N   UNL A   1      40.313  19.136  25.943  1.00  0.00    -0.352 N 
ATOM     33  C   UNL A   1      41.656  19.409  25.995  1.00  0.00     0.251 C 
ATOM     34  H   UNL A   1      40.089  18.187  25.800  1.00  0.00     0.163 HD
ATOM     35  O   UNL A   1      42.462  18.523  25.717  1.00  0.00    -0.269 OA
BRANCH  33  36
ATOM     36  C   UNL A   1      42.161  20.752  26.365  1.00  0.00     0.039 A 
ATOM     37  C   UNL A   1      42.373  21.685  25.342  1.00  0.00     0.014 A 
ATOM     38  C   UNL A   1      42.496  21.081  27.682  1.00  0.00     0.014 A 
ATOM     39  C   UNL A   1      42.868  22.958  25.640  1.00  0.00     0.010 A 
ATOM     40  C   UNL A   1      42.959  22.364  27.986  1.00  0.00     0.010 A 
ATOM     41  C   UNL A   1      43.146  23.312  26.968  1.00  0.00    -0.014 A 
BRANCH  41  42
ATOM     42  C   UNL A   1      43.639  24.669  27.308  1.00  0.00     0.031 A 
ATOM     43  C   UNL A   1      42.706  25.692  27.888  1.00  0.00     0.074 A 
ATOM     44  C   UNL A   1      44.918  24.999  27.050  1.00  0.00     0.049 A 
ATOM     45  N   UNL A   1      42.921  26.960  28.136  1.00  0.00    -0.248 NA
ATOM     46  C   UNL A   1      41.350  25.232  28.223  1.00  0.00     0.031 C 
ATOM     47  C   UNL A   1      45.924  24.104  26.481  1.00  0.00     0.029 A 
ATOM     48  N   UNL A   1      45.583  26.186  27.225  1.00  0.00    -0.354 N 
ATOM     49  C   UNL A   1      41.722  27.458  28.622  1.00  0.00     0.074 A 
ATOM     50  C   UNL A   1      40.782  26.354  28.645  1.00  0.00     0.031 C 
ATOM     51  C   UNL A   1      47.083  24.772  26.359  1.00  0.00     0.029 A 
ATOM     52  C   UNL A   1      46.891  26.148  26.814  1.00  0.00     0.049 A 
ATOM     53  H   UNL A   1      45.162  26.990  27.608  1.00  0.00     0.167 HD
ATOM     54  C   UNL A   1      41.428  28.721  29.010  1.00  0.00     0.037 A 
ATOM     55  C   UNL A   1      47.826  27.114  26.792  1.00  0.00     0.037 A 
ATOM     56  C   UNL A   1      42.361  29.814  29.032  1.00  0.00     0.049 A 
ATOM     57  C   UNL A   1      47.485  28.498  27.258  1.00  0.00     0.074 A 
ATOM     58  C   UNL A   1      42.154  31.119  29.445  1.00  0.00     0.029 A 
ATOM     59  N   UNL A   1      43.683  29.726  28.630  1.00  0.00    -0.354 N 
ATOM     60  N   UNL A   1      46.343  28.959  27.705  1.00  0.00    -0.248 NA
ATOM     61  C   UNL A   1      48.560  29.500  27.205  1.00  0.00     0.031 C 
ATOM     62  C   UNL A   1      43.354  31.824  29.286  1.00  0.00     0.029 A 
ATOM     63  C   UNL A   1      44.305  30.954  28.783  1.00  0.00     0.049 A 
ATOM     64  H   UNL A   1      44.116  28.910  28.287  1.00  0.00     0.167 HD
ATOM     65  C   UNL A   1      46.558  30.299  27.986  1.00  0.00     0.074 A 
ATOM     66  C   UNL A   1      47.943  30.580  27.667  1.00  0.00     0.031 C 
ATOM     67  C   UNL A   1      45.682  31.216  28.460  1.00  0.00     0.037 A 
BRANCH  54  68
ATOM     68  C   UNL A   1      40.021  28.991  29.436  1.00  0.00     0.064 A 
ATOM     69  C   UNL A   1      39.023  29.293  28.502  1.00  0.00     0.173 A 
ATOM     70  C   UNL A   1      39.665  28.912  30.790  1.00  0.00     0.173 A 
ATOM     71  F   UNL A   1      39.325  29.387  27.198  1.00  0.00    -0.203 F 
ATOM     72  C   UNL A   1      37.711  29.516  28.910  1.00  0.00     0.198 A 
ATOM     73  C   UNL A   1      38.351  29.128  31.194  1.00  0.00     0.198 A 
ATOM     74  F   UNL A   1      40.591  28.629  31.717  1.00  0.00    -0.203 F 
ATOM     75  F   UNL A   1      36.771  29.819  28.004  1.00  0.00    -0.200 F 
ATOM     76  C   UNL A   1      37.376  29.431  30.254  1.00  0.00     0.200 A 
ATOM     77  F   UNL A   1      38.027  29.047  32.492  1.00  0.00    -0.200 F 
ATOM     78  F   UNL A   1      36.111  29.645  30.645  1.00  0.00    -0.200 F 
ENDBRANCH  54  68
BRANCH  55  79
ATOM     79  C   UNL A   1      49.186  26.801  26.297  1.00  0.00     0.064 A 
ATOM     80  C   UNL A   1      49.531  27.039  24.960  1.00  0.00     0.173 A 
ATOM     81  C   UNL A   1      50.162  26.277  27.151  1.00  0.00     0.173 A 
ATOM     82  F   UNL A   1      48.617  27.524  24.108  1.00  0.00    -0.203 F 
ATOM     83  C   UNL A   1      50.812  26.761  24.494  1.00  0.00     0.198 A 
ATOM     84  C   UNL A   1      51.447  26.007  26.686  1.00  0.00     0.198 A 
ATOM     85  F   UNL A   1      49.870  26.031  28.436  1.00  0.00    -0.203 F 
ATOM     86  F   UNL A   1      51.119  26.982  23.208  1.00  0.00    -0.200 F 
ATOM     87  C   UNL A   1      51.770  26.248  25.358  1.00  0.00     0.200 A 
ATOM     88  F   UNL A   1      52.371  25.513  27.521  1.00  0.00    -0.200 F 
ATOM     89  F   UNL A   1      53.005  25.982  24.909  1.00  0.00    -0.200 F 
ENDBRANCH  55  79
BRANCH  67  90
ATOM     90  C   UNL A   1      46.195  32.604  28.662  1.00  0.00     0.064 A 
ATOM     91  C   UNL A   1      46.785  32.984  29.875  1.00  0.00     0.173 A 
ATOM     92  C   UNL A   1      46.126  33.551  27.630  1.00  0.00     0.173 A 
ATOM     93  F   UNL A   1      46.858  32.113  30.893  1.00  0.00    -0.203 F 
ATOM     94  C   UNL A   1      47.287  34.270  30.050  1.00  0.00     0.198 A 
ATOM     95  C   UNL A   1      46.634  34.834  27.808  1.00  0.00     0.198 A 
ATOM     96  F   UNL A   1      45.562  33.229  26.456  1.00  0.00    -0.203 F 
ATOM     97  F   UNL A   1      47.834  34.621  31.222  1.00  0.00    -0.200 F 
ATOM     98  C   UNL A   1      47.214  35.192  29.016  1.00  0.00     0.200 A 
ATOM     99  F   UNL A   1      46.558  35.727  26.810  1.00  0.00    -0.200 F 
ATOM    100  F   UNL A   1      47.694  36.432  29.187  1.00  0.00    -0.200 F 
ENDBRANCH  67  90
ENDBRANCH  41  42
ENDBRANCH  33  36
ENDBRANCH  31  32
ENDBRANCH  30  31
ENDBRANCH   1  30
TORSDOF 14
ENDMDL
