MODEL 1
REMARK VINA RESULT:     -14.4      0.000      0.000
REMARK SMILES O=C(NCCCNC(=O)[C@@H]1CCCC[C@H]1C(=O)Nc1cccc(-c2nnc(-c3ccccc3)o2)c1)c1ccc(-c2c3nc(c(-c4c(F)c(F)c(F)c(F)c4F)c4ccc([nH]4)c(-c4c(F)c(F)c(F)c(F)c4F)c4nc(c(-c5c(F)c(F)c(F)c(F)c5F)c5ccc2[nH]5)C=C4)C=C3)cc1
REMARK SMILES IDX 6 1 5 2 4 3 3 4 1 5 2 6 36 8 37 9 98 10 38 11 97 12 39 13
REMARK SMILES IDX 40 14 41 15 91 16 42 17 96 18 90 19 92 20 43 21 95 22 89 23
REMARK SMILES IDX 88 24 44 26 76 27 56 28 75 29 57 30 60 31 74 32 93 33 58 34
REMARK SMILES IDX 59 35 73 37 94 38 61 39 45 40 46 41 54 42 47 43 48 44 52 45
REMARK SMILES IDX 55 46 49 47 50 48 53 49 51 50 77 51 78 52 86 53 79 54 80 55
REMARK SMILES IDX 84 56 87 57 81 58 82 59 85 60 83 61 62 62 63 63 71 64 64 65
REMARK SMILES IDX 65 66 69 67 72 68 66 69 67 70 70 71 68 72 7 73 8 74 9 76
REMARK SMILES IDX 10 77 11 78 15 79 12 80 14 81 13 82 16 83 17 84 18 85 19 87
REMARK SMILES IDX 20 88 35 89 21 90 23 91 22 92 24 93 25 94 34 95 26 96 27 97
REMARK SMILES IDX 28 98 29 99 33 100 30 101 32 102 31 103
REMARK H PARENT 3 7 92 25 60 36 7 75 18 86
REMARK Flexibility Score: inf
ROOT
ATOM      1  C   UNL A   1      31.416  30.813  26.066  1.00  0.00     0.117 C 
ENDROOT
BRANCH   1   2
ATOM      2  C   UNL A   1      31.249  32.266  26.495  1.00  0.00     0.042 C 
BRANCH   2   3
ATOM      3  C   UNL A   1      32.490  32.830  27.169  1.00  0.00     0.118 C 
BRANCH   3   4
ATOM      4  N   UNL A   1      32.301  34.203  27.612  1.00  0.00    -0.352 N 
ATOM      5  O   UNL A   1      32.524  35.981  28.981  1.00  0.00    -0.269 OA
ATOM      6  C   UNL A   1      32.955  34.895  28.602  1.00  0.00     0.251 C 
ATOM      7  H   UNL A   1      31.604  34.708  27.133  1.00  0.00     0.163 HD
BRANCH   6   8
ATOM      8  C   UNL A   1      34.169  34.327  29.229  1.00  0.00     0.039 A 
ATOM      9  C   UNL A   1      34.066  33.446  30.306  1.00  0.00     0.014 A 
ATOM     10  C   UNL A   1      35.430  34.658  28.719  1.00  0.00     0.014 A 
ATOM     11  C   UNL A   1      35.210  33.027  30.969  1.00  0.00     0.010 A 
ATOM     12  C   UNL A   1      36.584  34.139  29.315  1.00  0.00     0.010 A 
ATOM     13  C   UNL A   1      36.484  33.335  30.460  1.00  0.00    -0.014 A 
BRANCH  13  14
ATOM     14  C   UNL A   1      37.664  32.698  31.097  1.00  0.00     0.031 A 
ATOM     15  C   UNL A   1      38.102  33.052  32.488  1.00  0.00     0.074 A 
ATOM     16  C   UNL A   1      38.294  31.723  30.410  1.00  0.00     0.049 A 
ATOM     17  N   UNL A   1      39.053  32.514  33.210  1.00  0.00    -0.248 NA
ATOM     18  C   UNL A   1      37.395  34.155  33.154  1.00  0.00     0.031 C 
ATOM     19  C   UNL A   1      37.971  31.325  29.037  1.00  0.00     0.029 A 
ATOM     20  N   UNL A   1      39.298  30.865  30.773  1.00  0.00    -0.354 N 
ATOM     21  C   UNL A   1      39.066  33.214  34.409  1.00  0.00     0.074 A 
ATOM     22  C   UNL A   1      38.047  34.238  34.307  1.00  0.00     0.031 C 
ATOM     23  C   UNL A   1      38.701  30.253  28.704  1.00  0.00     0.029 A 
ATOM     24  C   UNL A   1      39.596  29.933  29.809  1.00  0.00     0.049 A 
ATOM     25  H   UNL A   1      39.761  30.911  31.642  1.00  0.00     0.167 HD
ATOM     26  C   UNL A   1      39.850  33.009  35.495  1.00  0.00     0.037 A 
ATOM     27  C   UNL A   1      40.495  28.934  29.808  1.00  0.00     0.037 A 
ATOM     28  C   UNL A   1      40.858  31.981  35.585  1.00  0.00     0.049 A 
ATOM     29  C   UNL A   1      41.339  28.727  31.031  1.00  0.00     0.074 A 
ATOM     30  C   UNL A   1      41.707  31.691  36.639  1.00  0.00     0.029 A 
ATOM     31  N   UNL A   1      41.149  31.070  34.578  1.00  0.00    -0.354 N 
ATOM     32  N   UNL A   1      41.327  29.387  32.162  1.00  0.00    -0.248 NA
ATOM     33  C   UNL A   1      42.322  27.637  30.977  1.00  0.00     0.031 C 
ATOM     34  C   UNL A   1      42.536  30.630  36.257  1.00  0.00     0.029 A 
ATOM     35  C   UNL A   1      42.172  30.226  34.983  1.00  0.00     0.049 A 
ATOM     36  H   UNL A   1      40.696  31.029  33.704  1.00  0.00     0.167 HD
ATOM     37  C   UNL A   1      42.300  28.799  32.955  1.00  0.00     0.074 A 
ATOM     38  C   UNL A   1      42.851  27.698  32.189  1.00  0.00     0.031 C 
ATOM     39  C   UNL A   1      42.714  29.147  34.198  1.00  0.00     0.037 A 
BRANCH  26  40
ATOM     40  C   UNL A   1      39.661  33.917  36.677  1.00  0.00     0.064 A 
ATOM     41  C   UNL A   1      38.845  33.554  37.758  1.00  0.00     0.173 A 
ATOM     42  C   UNL A   1      40.352  35.136  36.758  1.00  0.00     0.173 A 
ATOM     43  F   UNL A   1      38.154  32.405  37.726  1.00  0.00    -0.203 F 
ATOM     44  C   UNL A   1      38.714  34.384  38.869  1.00  0.00     0.198 A 
ATOM     45  C   UNL A   1      40.239  35.952  37.881  1.00  0.00     0.198 A 
ATOM     46  F   UNL A   1      41.151  35.529  35.754  1.00  0.00    -0.203 F 
ATOM     47  F   UNL A   1      37.902  34.031  39.875  1.00  0.00    -0.200 F 
ATOM     48  C   UNL A   1      39.417  35.578  38.934  1.00  0.00     0.200 A 
ATOM     49  F   UNL A   1      40.929  37.099  37.947  1.00  0.00    -0.200 F 
ATOM     50  F   UNL A   1      39.301  36.370  40.009  1.00  0.00    -0.200 F 
ENDBRANCH  26  40
BRANCH  27  51
ATOM     51  C   UNL A   1      40.644  28.074  28.604  1.00  0.00     0.064 A 
ATOM     52  C   UNL A   1      41.485  28.442  27.545  1.00  0.00     0.173 A 
ATOM     53  C   UNL A   1      39.955  26.857  28.497  1.00  0.00     0.173 A 
ATOM     54  F   UNL A   1      42.153  29.603  27.593  1.00  0.00    -0.203 F 
ATOM     55  C   UNL A   1      41.616  27.634  26.417  1.00  0.00     0.198 A 
ATOM     56  C   UNL A   1      40.114  26.033  27.385  1.00  0.00     0.198 A 
ATOM     57  F   UNL A   1      39.144  26.454  29.486  1.00  0.00    -0.203 F 
ATOM     58  F   UNL A   1      42.391  28.031  25.399  1.00  0.00    -0.200 F 
ATOM     59  C   UNL A   1      40.937  26.427  26.342  1.00  0.00     0.200 A 
ATOM     60  F   UNL A   1      39.473  24.858  27.328  1.00  0.00    -0.200 F 
ATOM     61  F   UNL A   1      41.072  25.646  25.262  1.00  0.00    -0.200 F 
ENDBRANCH  27  51
BRANCH  39  62
ATOM     62  C   UNL A   1      43.814  28.320  34.794  1.00  0.00     0.064 A 
ATOM     63  C   UNL A   1      43.535  27.189  35.576  1.00  0.00     0.173 A 
ATOM     64  C   UNL A   1      45.158  28.664  34.586  1.00  0.00     0.173 A 
ATOM     65  F   UNL A   1      42.264  26.832  35.818  1.00  0.00    -0.203 F 
ATOM     66  C   UNL A   1      44.562  26.454  36.160  1.00  0.00     0.198 A 
ATOM     67  C   UNL A   1      46.183  27.908  35.147  1.00  0.00     0.198 A 
ATOM     68  F   UNL A   1      45.475  29.734  33.843  1.00  0.00    -0.203 F 
ATOM     69  F   UNL A   1      44.271  25.414  36.955  1.00  0.00    -0.200 F 
ATOM     70  C   UNL A   1      45.884  26.811  35.942  1.00  0.00     0.200 A 
ATOM     71  F   UNL A   1      47.460  28.249  34.929  1.00  0.00    -0.200 F 
ATOM     72  F   UNL A   1      46.872  26.105  36.510  1.00  0.00    -0.200 F 
ENDBRANCH  39  62
ENDBRANCH  13  14
ENDBRANCH   6   8
ENDBRANCH   3   4
ENDBRANCH   2   3
ENDBRANCH   1   2
BRANCH   1  73
ATOM     73  N   UNL A   1      32.782  30.379  26.261  1.00  0.00    -0.356 N 
ATOM     74  C   UNL A   1      33.419  29.257  25.834  1.00  0.00     0.223 C 
ATOM     75  H   UNL A   1      33.340  30.995  26.789  1.00  0.00     0.163 HD
ATOM     76  O   UNL A   1      34.505  29.019  26.359  1.00  0.00    -0.275 OA
BRANCH  74  77
ATOM     77  C   UNL A   1      32.840  28.396  24.705  1.00  0.00     0.091 C 
ATOM     78  C   UNL A   1      32.683  29.126  23.363  1.00  0.00     0.014 C 
ATOM     79  C   UNL A   1      31.506  27.764  25.164  1.00  0.00     0.091 C 
ATOM     80  C   UNL A   1      32.055  28.223  22.305  1.00  0.00     0.001 C 
ATOM     81  C   UNL A   1      30.764  26.993  24.059  1.00  0.00     0.014 C 
ATOM     82  C   UNL A   1      30.678  27.769  22.749  1.00  0.00     0.001 C 
BRANCH  79  83
ATOM     83  C   UNL A   1      31.511  26.929  26.467  1.00  0.00     0.228 C 
ATOM     84  O   UNL A   1      30.750  27.250  27.390  1.00  0.00    -0.274 OA
ATOM     85  N   UNL A   1      32.162  25.733  26.627  1.00  0.00    -0.326 N 
ATOM     86  H   UNL A   1      32.043  25.310  27.508  1.00  0.00     0.169 HD
BRANCH  85  87
ATOM     87  C   UNL A   1      32.966  25.020  25.736  1.00  0.00     0.041 A 
ATOM     88  C   UNL A   1      34.326  25.323  25.680  1.00  0.00     0.026 A 
ATOM     89  C   UNL A   1      32.448  24.004  24.938  1.00  0.00     0.040 A 
ATOM     90  C   UNL A   1      35.188  24.495  24.962  1.00  0.00     0.003 A 
ATOM     91  C   UNL A   1      33.310  23.103  24.303  1.00  0.00     0.041 A 
ATOM     92  C   UNL A   1      34.687  23.361  24.317  1.00  0.00     0.014 A 
BRANCH  91  93
ATOM     93  C   UNL A   1      32.822  21.804  23.870  1.00  0.00     0.248 A 
ATOM     94  N   UNL A   1      32.128  21.530  22.784  1.00  0.00    -0.107 NA
ATOM     95  O   UNL A   1      33.228  20.679  24.542  1.00  0.00    -0.416 OA
ATOM     96  N   UNL A   1      32.076  20.160  22.688  1.00  0.00    -0.107 NA
ATOM     97  C   UNL A   1      32.694  19.688  23.751  1.00  0.00     0.248 A 
BRANCH  97  98
ATOM     98  C   UNL A   1      32.955  18.305  24.114  1.00  0.00     0.039 A 
ATOM     99  C   UNL A   1      32.429  17.790  25.310  1.00  0.00     0.014 A 
ATOM    100  C   UNL A   1      33.763  17.481  23.321  1.00  0.00     0.014 A 
ATOM    101  C   UNL A   1      32.692  16.476  25.699  1.00  0.00     0.001 A 
ATOM    102  C   UNL A   1      34.049  16.174  23.727  1.00  0.00     0.001 A 
ATOM    103  C   UNL A   1      33.510  15.672  24.909  1.00  0.00     0.000 A 
ENDBRANCH  97  98
ENDBRANCH  91  93
ENDBRANCH  85  87
ENDBRANCH  79  83
ENDBRANCH  74  77
ENDBRANCH   1  73
TORSDOF 14
ENDMDL
MODEL 2
REMARK VINA RESULT:     -13.8      4.851     11.042
REMARK SMILES O=C(NCCCNC(=O)[C@@H]1CCCC[C@H]1C(=O)Nc1cccc(-c2nnc(-c3ccccc3)o2)c1)c1ccc(-c2c3nc(c(-c4c(F)c(F)c(F)c(F)c4F)c4ccc([nH]4)c(-c4c(F)c(F)c(F)c(F)c4F)c4nc(c(-c5c(F)c(F)c(F)c(F)c5F)c5ccc2[nH]5)C=C4)C=C3)cc1
REMARK SMILES IDX 6 1 5 2 4 3 3 4 1 5 2 6 36 8 37 9 98 10 38 11 97 12 39 13
REMARK SMILES IDX 40 14 41 15 91 16 42 17 96 18 90 19 92 20 43 21 95 22 89 23
REMARK SMILES IDX 88 24 44 26 76 27 56 28 75 29 57 30 60 31 74 32 93 33 58 34
REMARK SMILES IDX 59 35 73 37 94 38 61 39 45 40 46 41 54 42 47 43 48 44 52 45
REMARK SMILES IDX 55 46 49 47 50 48 53 49 51 50 77 51 78 52 86 53 79 54 80 55
REMARK SMILES IDX 84 56 87 57 81 58 82 59 85 60 83 61 62 62 63 63 71 64 64 65
REMARK SMILES IDX 65 66 69 67 72 68 66 69 67 70 70 71 68 72 7 73 8 74 9 76
REMARK SMILES IDX 10 77 11 78 15 79 12 80 14 81 13 82 16 83 17 84 18 85 19 87
REMARK SMILES IDX 20 88 35 89 21 90 23 91 22 92 24 93 25 94 34 95 26 96 27 97
REMARK SMILES IDX 28 98 29 99 33 100 30 101 32 102 31 103
REMARK H PARENT 3 7 92 25 60 36 7 75 18 86
REMARK Flexibility Score: inf
ROOT
ATOM      1  C   UNL A   1      33.946  34.219  29.878  1.00  0.00     0.117 C 
ENDROOT
BRANCH   1   2
ATOM      2  C   UNL A   1      33.747  33.676  28.468  1.00  0.00     0.042 C 
BRANCH   2   3
ATOM      3  C   UNL A   1      34.681  32.522  28.143  1.00  0.00     0.118 C 
BRANCH   3   4
ATOM      4  N   UNL A   1      33.962  31.277  27.918  1.00  0.00    -0.352 N 
ATOM      5  O   UNL A   1      33.724  29.086  27.440  1.00  0.00    -0.269 OA
ATOM      6  C   UNL A   1      34.447  29.994  27.843  1.00  0.00     0.251 C 
ATOM      7  H   UNL A   1      32.988  31.367  27.805  1.00  0.00     0.163 HD
BRANCH   6   8
ATOM      8  C   UNL A   1      35.847  29.704  28.225  1.00  0.00     0.039 A 
ATOM      9  C   UNL A   1      36.146  29.176  29.481  1.00  0.00     0.014 A 
ATOM     10  C   UNL A   1      36.876  29.938  27.306  1.00  0.00     0.014 A 
ATOM     11  C   UNL A   1      37.468  29.035  29.875  1.00  0.00     0.010 A 
ATOM     12  C   UNL A   1      38.205  29.681  27.663  1.00  0.00     0.010 A 
ATOM     13  C   UNL A   1      38.513  29.247  28.960  1.00  0.00    -0.014 A 
BRANCH  13  14
ATOM     14  C   UNL A   1      39.893  28.892  29.378  1.00  0.00     0.031 A 
ATOM     15  C   UNL A   1      40.587  27.665  28.864  1.00  0.00     0.074 A 
ATOM     16  C   UNL A   1      40.543  29.756  30.185  1.00  0.00     0.049 A 
ATOM     17  N   UNL A   1      41.821  27.276  29.064  1.00  0.00    -0.248 NA
ATOM     18  C   UNL A   1      39.798  26.749  28.027  1.00  0.00     0.031 C 
ATOM     19  C   UNL A   1      39.949  30.962  30.770  1.00  0.00     0.029 A 
ATOM     20  N   UNL A   1      41.841  29.786  30.618  1.00  0.00    -0.354 N 
ATOM     21  C   UNL A   1      41.957  26.070  28.389  1.00  0.00     0.074 A 
ATOM     22  C   UNL A   1      40.669  25.774  27.796  1.00  0.00     0.031 C 
ATOM     23  C   UNL A   1      40.897  31.652  31.416  1.00  0.00     0.029 A 
ATOM     24  C   UNL A   1      42.146  30.905  31.354  1.00  0.00     0.049 A 
ATOM     25  H   UNL A   1      42.494  29.074  30.422  1.00  0.00     0.167 HD
ATOM     26  C   UNL A   1      43.060  25.292  28.269  1.00  0.00     0.037 A 
ATOM     27  C   UNL A   1      43.302  31.288  31.925  1.00  0.00     0.037 A 
ATOM     28  C   UNL A   1      44.339  25.602  28.860  1.00  0.00     0.049 A 
ATOM     29  C   UNL A   1      44.508  30.410  31.762  1.00  0.00     0.074 A 
ATOM     30  C   UNL A   1      45.518  24.880  28.800  1.00  0.00     0.029 A 
ATOM     31  N   UNL A   1      44.604  26.733  29.620  1.00  0.00    -0.354 N 
ATOM     32  N   UNL A   1      44.624  29.281  31.106  1.00  0.00    -0.248 NA
ATOM     33  C   UNL A   1      45.742  30.857  32.419  1.00  0.00     0.031 C 
ATOM     34  C   UNL A   1      46.486  25.554  29.552  1.00  0.00     0.029 A 
ATOM     35  C   UNL A   1      45.925  26.722  30.043  1.00  0.00     0.049 A 
ATOM     36  H   UNL A   1      43.951  27.440  29.829  1.00  0.00     0.167 HD
ATOM     37  C   UNL A   1      45.939  28.880  31.272  1.00  0.00     0.074 A 
ATOM     38  C   UNL A   1      46.594  29.910  32.054  1.00  0.00     0.031 C 
ATOM     39  C   UNL A   1      46.550  27.751  30.833  1.00  0.00     0.037 A 
BRANCH  26  40
ATOM     40  C   UNL A   1      42.939  24.023  27.474  1.00  0.00     0.064 A 
ATOM     41  C   UNL A   1      43.248  23.981  26.107  1.00  0.00     0.173 A 
ATOM     42  C   UNL A   1      42.570  22.822  28.100  1.00  0.00     0.173 A 
ATOM     43  F   UNL A   1      43.595  25.103  25.458  1.00  0.00    -0.203 F 
ATOM     44  C   UNL A   1      43.176  22.788  25.391  1.00  0.00     0.198 A 
ATOM     45  C   UNL A   1      42.524  21.626  27.387  1.00  0.00     0.198 A 
ATOM     46  F   UNL A   1      42.270  22.804  29.407  1.00  0.00    -0.203 F 
ATOM     47  F   UNL A   1      43.444  22.779  24.078  1.00  0.00    -0.200 F 
ATOM     48  C   UNL A   1      42.823  21.610  26.033  1.00  0.00     0.200 A 
ATOM     49  F   UNL A   1      42.194  20.487  28.012  1.00  0.00    -0.200 F 
ATOM     50  F   UNL A   1      42.767  20.461  25.346  1.00  0.00    -0.200 F 
ENDBRANCH  26  40
BRANCH  27  51
ATOM     51  C   UNL A   1      43.358  32.550  32.708  1.00  0.00     0.064 A 
ATOM     52  C   UNL A   1      43.383  32.537  34.109  1.00  0.00     0.173 A 
ATOM     53  C   UNL A   1      43.401  33.797  32.066  1.00  0.00     0.173 A 
ATOM     54  F   UNL A   1      43.327  31.372  34.770  1.00  0.00    -0.203 F 
ATOM     55  C   UNL A   1      43.430  33.724  34.838  1.00  0.00     0.198 A 
ATOM     56  C   UNL A   1      43.485  34.980  32.795  1.00  0.00     0.198 A 
ATOM     57  F   UNL A   1      43.389  33.864  30.727  1.00  0.00    -0.203 F 
ATOM     58  F   UNL A   1      43.406  33.686  36.177  1.00  0.00    -0.200 F 
ATOM     59  C   UNL A   1      43.489  34.944  34.180  1.00  0.00     0.200 A 
ATOM     60  F   UNL A   1      43.563  36.154  32.154  1.00  0.00    -0.200 F 
ATOM     61  F   UNL A   1      43.545  36.084  34.881  1.00  0.00    -0.200 F 
ENDBRANCH  27  51
BRANCH  39  62
ATOM     62  C   UNL A   1      47.996  27.588  31.195  1.00  0.00     0.064 A 
ATOM     63  C   UNL A   1      48.384  26.931  32.373  1.00  0.00     0.173 A 
ATOM     64  C   UNL A   1      49.002  28.097  30.362  1.00  0.00     0.173 A 
ATOM     65  F   UNL A   1      47.455  26.444  33.212  1.00  0.00    -0.203 F 
ATOM     66  C   UNL A   1      49.726  26.822  32.722  1.00  0.00     0.198 A 
ATOM     67  C   UNL A   1      50.345  27.960  30.699  1.00  0.00     0.198 A 
ATOM     68  F   UNL A   1      48.682  28.729  29.223  1.00  0.00    -0.203 F 
ATOM     69  F   UNL A   1      50.071  26.246  33.882  1.00  0.00    -0.200 F 
ATOM     70  C   UNL A   1      50.705  27.333  31.883  1.00  0.00     0.200 A 
ATOM     71  F   UNL A   1      51.291  28.445  29.884  1.00  0.00    -0.200 F 
ATOM     72  F   UNL A   1      51.998  27.233  32.223  1.00  0.00    -0.200 F 
ENDBRANCH  39  62
ENDBRANCH  13  14
ENDBRANCH   6   8
ENDBRANCH   3   4
ENDBRANCH   2   3
ENDBRANCH   1   2
BRANCH   1  73
ATOM     73  N   UNL A   1      34.495  33.199  30.744  1.00  0.00    -0.356 N 
ATOM     74  C   UNL A   1      35.787  32.875  31.015  1.00  0.00     0.223 C 
ATOM     75  H   UNL A   1      33.825  32.649  31.212  1.00  0.00     0.163 HD
ATOM     76  O   UNL A   1      35.967  31.801  31.586  1.00  0.00    -0.275 OA
BRANCH  74  77
ATOM     77  C   UNL A   1      36.932  33.843  30.693  1.00  0.00     0.091 C 
ATOM     78  C   UNL A   1      37.808  33.421  29.504  1.00  0.00     0.014 C 
ATOM     79  C   UNL A   1      37.781  34.085  31.963  1.00  0.00     0.091 C 
ATOM     80  C   UNL A   1      38.953  34.404  29.277  1.00  0.00     0.001 C 
ATOM     81  C   UNL A   1      39.043  34.930  31.721  1.00  0.00     0.014 C 
ATOM     82  C   UNL A   1      39.841  34.472  30.505  1.00  0.00     0.001 C 
BRANCH  79  83
ATOM     83  C   UNL A   1      37.055  34.586  33.234  1.00  0.00     0.228 C 
ATOM     84  O   UNL A   1      35.954  35.142  33.119  1.00  0.00    -0.274 OA
ATOM     85  N   UNL A   1      37.441  34.300  34.518  1.00  0.00    -0.326 N 
ATOM     86  H   UNL A   1      36.855  34.668  35.219  1.00  0.00     0.169 HD
BRANCH  85  87
ATOM     87  C   UNL A   1      38.532  33.568  34.988  1.00  0.00     0.041 A 
ATOM     88  C   UNL A   1      39.161  33.990  36.159  1.00  0.00     0.026 A 
ATOM     89  C   UNL A   1      38.978  32.422  34.336  1.00  0.00     0.040 A 
ATOM     90  C   UNL A   1      40.111  33.170  36.765  1.00  0.00     0.003 A 
ATOM     91  C   UNL A   1      39.848  31.539  34.986  1.00  0.00     0.041 A 
ATOM     92  C   UNL A   1      40.416  31.927  36.206  1.00  0.00     0.014 A 
BRANCH  91  93
ATOM     93  C   UNL A   1      39.954  30.158  34.544  1.00  0.00     0.248 A 
ATOM     94  N   UNL A   1      39.128  29.504  33.755  1.00  0.00    -0.107 NA
ATOM     95  O   UNL A   1      41.099  29.454  34.821  1.00  0.00    -0.416 OA
ATOM     96  N   UNL A   1      39.739  28.311  33.451  1.00  0.00    -0.107 NA
ATOM     97  C   UNL A   1      40.873  28.292  34.120  1.00  0.00     0.248 A 
BRANCH  97  98
ATOM     98  C   UNL A   1      41.914  27.277  34.121  1.00  0.00     0.039 A 
ATOM     99  C   UNL A   1      41.855  26.224  35.049  1.00  0.00     0.014 A 
ATOM    100  C   UNL A   1      43.005  27.347  33.248  1.00  0.00     0.014 A 
ATOM    101  C   UNL A   1      42.858  25.255  35.094  1.00  0.00     0.001 A 
ATOM    102  C   UNL A   1      44.023  26.392  33.314  1.00  0.00     0.001 A 
ATOM    103  C   UNL A   1      43.947  25.346  34.231  1.00  0.00     0.000 A 
ENDBRANCH  97  98
ENDBRANCH  91  93
ENDBRANCH  85  87
ENDBRANCH  79  83
ENDBRANCH  74  77
ENDBRANCH   1  73
TORSDOF 14
ENDMDL
MODEL 3
REMARK VINA RESULT:     -13.7      3.874      8.286
REMARK SMILES O=C(NCCCNC(=O)[C@@H]1CCCC[C@H]1C(=O)Nc1cccc(-c2nnc(-c3ccccc3)o2)c1)c1ccc(-c2c3nc(c(-c4c(F)c(F)c(F)c(F)c4F)c4ccc([nH]4)c(-c4c(F)c(F)c(F)c(F)c4F)c4nc(c(-c5c(F)c(F)c(F)c(F)c5F)c5ccc2[nH]5)C=C4)C=C3)cc1
REMARK SMILES IDX 6 1 5 2 4 3 3 4 1 5 2 6 36 8 37 9 98 10 38 11 97 12 39 13
REMARK SMILES IDX 40 14 41 15 91 16 42 17 96 18 90 19 92 20 43 21 95 22 89 23
REMARK SMILES IDX 88 24 44 26 76 27 56 28 75 29 57 30 60 31 74 32 93 33 58 34
REMARK SMILES IDX 59 35 73 37 94 38 61 39 45 40 46 41 54 42 47 43 48 44 52 45
REMARK SMILES IDX 55 46 49 47 50 48 53 49 51 50 77 51 78 52 86 53 79 54 80 55
REMARK SMILES IDX 84 56 87 57 81 58 82 59 85 60 83 61 62 62 63 63 71 64 64 65
REMARK SMILES IDX 65 66 69 67 72 68 66 69 67 70 70 71 68 72 7 73 8 74 9 76
REMARK SMILES IDX 10 77 11 78 15 79 12 80 14 81 13 82 16 83 17 84 18 85 19 87
REMARK SMILES IDX 20 88 35 89 21 90 23 91 22 92 24 93 25 94 34 95 26 96 27 97
REMARK SMILES IDX 28 98 29 99 33 100 30 101 32 102 31 103
REMARK H PARENT 3 7 92 25 60 36 7 75 18 86
REMARK Flexibility Score: inf
ROOT
ATOM      1  C   UNL A   1      34.321  24.991  25.808  1.00  0.00     0.117 C 
ENDROOT
BRANCH   1   2
ATOM      2  C   UNL A   1      35.221  23.764  25.897  1.00  0.00     0.042 C 
BRANCH   2   3
ATOM      3  C   UNL A   1      36.598  23.995  25.296  1.00  0.00     0.118 C 
BRANCH   3   4
ATOM      4  N   UNL A   1      37.519  22.909  25.595  1.00  0.00    -0.352 N 
ATOM      5  O   UNL A   1      39.489  21.968  26.158  1.00  0.00    -0.269 OA
ATOM      6  C   UNL A   1      38.764  22.960  26.172  1.00  0.00     0.251 C 
ATOM      7  H   UNL A   1      37.204  22.010  25.349  1.00  0.00     0.163 HD
BRANCH   6   8
ATOM      8  C   UNL A   1      39.247  24.213  26.794  1.00  0.00     0.039 A 
ATOM      9  C   UNL A   1      38.988  24.486  28.137  1.00  0.00     0.014 A 
ATOM     10  C   UNL A   1      39.991  25.120  26.030  1.00  0.00     0.014 A 
ATOM     11  C   UNL A   1      39.329  25.720  28.670  1.00  0.00     0.010 A 
ATOM     12  C   UNL A   1      40.438  26.316  26.604  1.00  0.00     0.010 A 
ATOM     13  C   UNL A   1      40.092  26.635  27.925  1.00  0.00    -0.014 A 
BRANCH  13  14
ATOM     14  C   UNL A   1      40.592  27.852  28.611  1.00  0.00     0.031 A 
ATOM     15  C   UNL A   1      42.050  28.054  28.906  1.00  0.00     0.074 A 
ATOM     16  C   UNL A   1      39.697  28.820  28.898  1.00  0.00     0.049 A 
ATOM     17  N   UNL A   1      42.646  29.104  29.413  1.00  0.00    -0.248 NA
ATOM     18  C   UNL A   1      42.956  26.936  28.607  1.00  0.00     0.031 C 
ATOM     19  C   UNL A   1      38.251  28.711  28.685  1.00  0.00     0.029 A 
ATOM     20  N   UNL A   1      39.863  30.089  29.384  1.00  0.00    -0.354 N 
ATOM     21  C   UNL A   1      43.992  28.774  29.502  1.00  0.00     0.074 A 
ATOM     22  C   UNL A   1      44.122  27.413  29.025  1.00  0.00     0.031 C 
ATOM     23  C   UNL A   1      37.674  29.887  28.960  1.00  0.00     0.029 A 
ATOM     24  C   UNL A   1      38.695  30.811  29.439  1.00  0.00     0.049 A 
ATOM     25  H   UNL A   1      40.735  30.451  29.667  1.00  0.00     0.167 HD
ATOM     26  C   UNL A   1      45.020  29.544  29.933  1.00  0.00     0.037 A 
ATOM     27  C   UNL A   1      38.466  32.074  29.837  1.00  0.00     0.037 A 
ATOM     28  C   UNL A   1      44.877  30.902  30.400  1.00  0.00     0.049 A 
ATOM     29  C   UNL A   1      39.629  32.904  30.295  1.00  0.00     0.074 A 
ATOM     30  C   UNL A   1      45.855  31.766  30.859  1.00  0.00     0.029 A 
ATOM     31  N   UNL A   1      43.674  31.591  30.464  1.00  0.00    -0.354 N 
ATOM     32  N   UNL A   1      40.898  32.582  30.357  1.00  0.00    -0.248 NA
ATOM     33  C   UNL A   1      39.329  34.270  30.741  1.00  0.00     0.031 C 
ATOM     34  C   UNL A   1      45.240  32.966  31.235  1.00  0.00     0.029 A 
ATOM     35  C   UNL A   1      43.885  32.867  30.966  1.00  0.00     0.049 A 
ATOM     36  H   UNL A   1      42.799  31.229  30.194  1.00  0.00     0.167 HD
ATOM     37  C   UNL A   1      41.548  33.701  30.851  1.00  0.00     0.074 A 
ATOM     38  C   UNL A   1      40.539  34.726  31.029  1.00  0.00     0.031 C 
ATOM     39  C   UNL A   1      42.861  33.865  31.148  1.00  0.00     0.037 A 
BRANCH  26  40
ATOM     40  C   UNL A   1      46.397  28.941  29.928  1.00  0.00     0.064 A 
ATOM     41  C   UNL A   1      46.896  28.245  31.038  1.00  0.00     0.173 A 
ATOM     42  C   UNL A   1      47.201  29.008  28.780  1.00  0.00     0.173 A 
ATOM     43  F   UNL A   1      46.173  28.162  32.165  1.00  0.00    -0.203 F 
ATOM     44  C   UNL A   1      48.156  27.651  31.005  1.00  0.00     0.198 A 
ATOM     45  C   UNL A   1      48.449  28.391  28.741  1.00  0.00     0.198 A 
ATOM     46  F   UNL A   1      46.769  29.656  27.688  1.00  0.00    -0.203 F 
ATOM     47  F   UNL A   1      48.626  27.019  32.090  1.00  0.00    -0.200 F 
ATOM     48  C   UNL A   1      48.928  27.716  29.855  1.00  0.00     0.200 A 
ATOM     49  F   UNL A   1      49.188  28.445  27.624  1.00  0.00    -0.200 F 
ATOM     50  F   UNL A   1      50.134  27.134  29.820  1.00  0.00    -0.200 F 
ENDBRANCH  26  40
BRANCH  27  51
ATOM     51  C   UNL A   1      37.081  32.613  29.829  1.00  0.00     0.064 A 
ATOM     52  C   UNL A   1      36.233  32.460  30.935  1.00  0.00     0.173 A 
ATOM     53  C   UNL A   1      36.581  33.304  28.715  1.00  0.00     0.173 A 
ATOM     54  F   UNL A   1      36.657  31.792  32.017  1.00  0.00    -0.203 F 
ATOM     55  C   UNL A   1      34.933  32.962  30.918  1.00  0.00     0.198 A 
ATOM     56  C   UNL A   1      35.295  33.837  28.714  1.00  0.00     0.198 A 
ATOM     57  F   UNL A   1      37.354  33.486  27.635  1.00  0.00    -0.203 F 
ATOM     58  F   UNL A   1      34.128  32.762  31.971  1.00  0.00    -0.200 F 
ATOM     59  C   UNL A   1      34.469  33.657  29.812  1.00  0.00     0.200 A 
ATOM     60  F   UNL A   1      34.859  34.527  27.651  1.00  0.00    -0.200 F 
ATOM     61  F   UNL A   1      33.222  34.149  29.802  1.00  0.00    -0.200 F 
ENDBRANCH  27  51
BRANCH  39  62
ATOM     62  C   UNL A   1      43.264  35.202  31.693  1.00  0.00     0.064 A 
ATOM     63  C   UNL A   1      43.167  35.492  33.062  1.00  0.00     0.173 A 
ATOM     64  C   UNL A   1      43.745  36.205  30.839  1.00  0.00     0.173 A 
ATOM     65  F   UNL A   1      42.695  34.570  33.916  1.00  0.00    -0.203 F 
ATOM     66  C   UNL A   1      43.503  36.750  33.552  1.00  0.00     0.198 A 
ATOM     67  C   UNL A   1      44.108  37.453  31.336  1.00  0.00     0.198 A 
ATOM     68  F   UNL A   1      43.860  35.975  29.522  1.00  0.00    -0.203 F 
ATOM     69  F   UNL A   1      43.343  37.025  34.854  1.00  0.00    -0.200 F 
ATOM     70  C   UNL A   1      43.976  37.728  32.689  1.00  0.00     0.200 A 
ATOM     71  F   UNL A   1      44.574  38.394  30.505  1.00  0.00    -0.200 F 
ATOM     72  F   UNL A   1      44.293  38.942  33.162  1.00  0.00    -0.200 F 
ENDBRANCH  39  62
ENDBRANCH  13  14
ENDBRANCH   6   8
ENDBRANCH   3   4
ENDBRANCH   2   3
ENDBRANCH   1   2
BRANCH   1  73
ATOM     73  N   UNL A   1      34.302  25.510  24.458  1.00  0.00    -0.356 N 
ATOM     74  C   UNL A   1      33.798  26.674  23.969  1.00  0.00     0.223 C 
ATOM     75  H   UNL A   1      34.720  24.926  23.784  1.00  0.00     0.163 HD
ATOM     76  O   UNL A   1      33.689  26.744  22.746  1.00  0.00    -0.275 OA
BRANCH  74  77
ATOM     77  C   UNL A   1      33.468  27.848  24.897  1.00  0.00     0.091 C 
ATOM     78  C   UNL A   1      34.551  28.163  25.938  1.00  0.00     0.014 C 
ATOM     79  C   UNL A   1      32.093  27.613  25.565  1.00  0.00     0.091 C 
ATOM     80  C   UNL A   1      34.130  29.307  26.855  1.00  0.00     0.001 C 
ATOM     81  C   UNL A   1      31.725  28.662  26.628  1.00  0.00     0.014 C 
ATOM     82  C   UNL A   1      32.862  28.945  27.604  1.00  0.00     0.001 C 
BRANCH  79  83
ATOM     83  C   UNL A   1      30.876  27.353  24.646  1.00  0.00     0.228 C 
ATOM     84  O   UNL A   1      30.559  28.212  23.811  1.00  0.00    -0.274 OA
ATOM     85  N   UNL A   1      30.215  26.156  24.543  1.00  0.00    -0.326 N 
ATOM     86  H   UNL A   1      29.478  26.144  23.889  1.00  0.00     0.169 HD
BRANCH  85  87
ATOM     87  C   UNL A   1      30.423  24.953  25.218  1.00  0.00     0.041 A 
ATOM     88  C   UNL A   1      29.754  24.743  26.423  1.00  0.00     0.026 A 
ATOM     89  C   UNL A   1      31.248  23.959  24.700  1.00  0.00     0.040 A 
ATOM     90  C   UNL A   1      29.775  23.479  27.012  1.00  0.00     0.003 A 
ATOM     91  C   UNL A   1      31.191  22.660  25.218  1.00  0.00     0.041 A 
ATOM     92  C   UNL A   1      30.450  22.430  26.384  1.00  0.00     0.014 A 
BRANCH  91  93
ATOM     93  C   UNL A   1      31.666  21.535  24.428  1.00  0.00     0.248 A 
ATOM     94  N   UNL A   1      32.076  21.552  23.177  1.00  0.00    -0.107 NA
ATOM     95  O   UNL A   1      31.880  20.328  25.046  1.00  0.00    -0.416 OA
ATOM     96  N   UNL A   1      32.620  20.315  22.927  1.00  0.00    -0.107 NA
ATOM     97  C   UNL A   1      32.457  19.607  24.025  1.00  0.00     0.248 A 
BRANCH  97  98
ATOM     98  C   UNL A   1      32.888  18.247  24.306  1.00  0.00     0.039 A 
ATOM     99  C   UNL A   1      32.442  17.605  25.473  1.00  0.00     0.014 A 
ATOM    100  C   UNL A   1      33.780  17.574  23.463  1.00  0.00     0.014 A 
ATOM    101  C   UNL A   1      32.867  16.312  25.783  1.00  0.00     0.001 A 
ATOM    102  C   UNL A   1      34.227  16.291  23.790  1.00  0.00     0.001 A 
ATOM    103  C   UNL A   1      33.767  15.660  24.944  1.00  0.00     0.000 A 
ENDBRANCH  97  98
ENDBRANCH  91  93
ENDBRANCH  85  87
ENDBRANCH  79  83
ENDBRANCH  74  77
ENDBRANCH   1  73
TORSDOF 14
ENDMDL
