MODEL 1
REMARK VINA RESULT:     -14.5      0.000      0.000
REMARK SMILES CC1=C(C)C[C@@H](C(=O)NCCCNC(=O)c2ccc(-c3c4nc(c(-c5c(F)c(F)c(F)c(F)c5F)c5ccc([nH]5)c(-c5c(F)c(F)c(F)c(F)c5F)c5nc(c(-c6c(F)c(F)c(F)c(F)c6F)c6ccc3[nH]6)C=C5)C=C4)cc2)[C@@H](C(=O)N2CCN(c3cccc(C(F)(F)F)c3)CC2)C1
REMARK SMILES IDX 10 1 9 2 7 3 8 4 6 6 1 7 2 8 3 9 98 10 4 11 5 12 79 13 80 14
REMARK SMILES IDX 81 15 82 16 83 17 97 18 84 19 96 20 85 21 86 22 87 23 95 24
REMARK SMILES IDX 88 25 90 26 89 27 91 28 92 29 93 30 94 31 11 32 12 33 13 34
REMARK SMILES IDX 14 35 15 37 16 38 17 39 78 40 18 41 77 42 19 43 20 44 21 45
REMARK SMILES IDX 71 46 22 47 76 48 70 49 72 50 23 51 75 52 69 53 68 54 24 56
REMARK SMILES IDX 56 57 36 58 55 59 37 60 40 61 54 62 73 63 38 64 39 65 53 67
REMARK SMILES IDX 74 68 41 69 25 70 26 71 34 72 27 73 28 74 32 75 35 76 29 77
REMARK SMILES IDX 30 78 33 79 31 80 57 81 58 82 66 83 59 84 60 85 64 86 67 87
REMARK SMILES IDX 61 88 62 89 65 90 63 91 42 92 43 93 51 94 44 95 45 96 49 97
REMARK SMILES IDX 52 98 46 99 47 100 50 101 48 102
REMARK H PARENT 9 5 13 36 72 55 40 66
REMARK Flexibility Score: inf
ROOT
ATOM      1  C   UNL A   1      30.986  30.321  25.360  1.00  0.00     0.117 C 
ENDROOT
BRANCH   1   2
ATOM      2  N   UNL A   1      32.255  29.811  24.889  1.00  0.00    -0.356 N 
ATOM      3  C   UNL A   1      32.621  29.075  23.811  1.00  0.00     0.224 C 
ATOM      4  O   UNL A   1      33.838  29.007  23.589  1.00  0.00    -0.275 OA
ATOM      5  H   UNL A   1      33.010  30.050  25.473  1.00  0.00     0.163 HD
BRANCH   3   6
ATOM      6  C   UNL A   1      31.649  28.379  22.848  1.00  0.00     0.095 C 
ATOM      7  C   UNL A   1      27.303  29.131  23.279  1.00  0.00     0.039 C 
ATOM      8  C   UNL A   1      28.749  28.878  22.926  1.00  0.00    -0.074 C 
ATOM      9  C   UNL A   1      29.533  29.737  22.247  1.00  0.00    -0.074 C 
ATOM     10  C   UNL A   1      29.253  27.547  23.421  1.00  0.00     0.045 C 
ATOM     11  C   UNL A   1      29.116  31.113  21.788  1.00  0.00     0.039 C 
ATOM     12  C   UNL A   1      30.966  29.397  21.926  1.00  0.00     0.045 C 
ATOM     13  C   UNL A   1      30.762  27.213  23.354  1.00  0.00     0.095 C 
BRANCH  13  14
ATOM     14  C   UNL A   1      31.237  26.583  24.683  1.00  0.00     0.226 C 
ATOM     15  O   UNL A   1      30.876  27.004  25.781  1.00  0.00    -0.275 OA
ATOM     16  N   UNL A   1      32.028  25.453  24.640  1.00  0.00    -0.339 N 
ATOM     17  C   UNL A   1      31.866  24.461  25.708  1.00  0.00     0.141 C 
ATOM     18  C   UNL A   1      33.028  25.088  23.631  1.00  0.00     0.141 C 
ATOM     19  C   UNL A   1      31.401  23.138  25.083  1.00  0.00     0.138 C 
ATOM     20  C   UNL A   1      32.801  23.677  23.044  1.00  0.00     0.138 C 
ATOM     21  N   UNL A   1      32.357  22.711  24.056  1.00  0.00    -0.368 N 
BRANCH  21  22
ATOM     22  C   UNL A   1      33.074  21.564  24.311  1.00  0.00     0.037 A 
ATOM     23  C   UNL A   1      34.349  21.668  24.871  1.00  0.00     0.026 A 
ATOM     24  C   UNL A   1      32.595  20.302  23.946  1.00  0.00     0.039 A 
ATOM     25  C   UNL A   1      35.131  20.536  25.074  1.00  0.00     0.003 A 
ATOM     26  C   UNL A   1      33.382  19.152  24.121  1.00  0.00     0.058 A 
ATOM     27  C   UNL A   1      34.652  19.284  24.696  1.00  0.00     0.013 A 
BRANCH  26  28
ATOM     28  C   UNL A   1      32.895  17.797  23.680  1.00  0.00     0.416 C 
ATOM     29  F   UNL A   1      33.917  16.941  23.401  1.00  0.00    -0.166 F 
ATOM     30  F   UNL A   1      32.139  17.180  24.630  1.00  0.00    -0.166 F 
ATOM     31  F   UNL A   1      32.125  17.833  22.557  1.00  0.00    -0.166 F 
ENDBRANCH  26  28
ENDBRANCH  21  22
ENDBRANCH  13  14
ENDBRANCH   3   6
ENDBRANCH   1   2
BRANCH   1  32
ATOM     32  C   UNL A   1      31.045  31.720  25.959  1.00  0.00     0.042 C 
BRANCH  32  33
ATOM     33  C   UNL A   1      32.233  31.965  26.880  1.00  0.00     0.118 C 
BRANCH  33  34
ATOM     34  N   UNL A   1      32.382  33.374  27.210  1.00  0.00    -0.352 N 
ATOM     35  C   UNL A   1      33.262  34.001  28.049  1.00  0.00     0.251 C 
ATOM     36  H   UNL A   1      31.747  33.974  26.757  1.00  0.00     0.163 HD
ATOM     37  O   UNL A   1      33.057  35.178  28.363  1.00  0.00    -0.269 OA
BRANCH  35  38
ATOM     38  C   UNL A   1      34.455  33.310  28.591  1.00  0.00     0.039 A 
ATOM     39  C   UNL A   1      34.282  32.064  29.206  1.00  0.00     0.014 A 
ATOM     40  C   UNL A   1      35.718  33.909  28.592  1.00  0.00     0.014 A 
ATOM     41  C   UNL A   1      35.370  31.415  29.797  1.00  0.00     0.010 A 
ATOM     42  C   UNL A   1      36.817  33.233  29.127  1.00  0.00     0.010 A 
ATOM     43  C   UNL A   1      36.649  31.988  29.753  1.00  0.00    -0.014 A 
BRANCH  43  44
ATOM     44  C   UNL A   1      37.805  31.325  30.415  1.00  0.00     0.031 A 
ATOM     45  C   UNL A   1      38.147  31.656  31.845  1.00  0.00     0.074 A 
ATOM     46  C   UNL A   1      38.560  30.442  29.735  1.00  0.00     0.049 A 
ATOM     47  N   UNL A   1      39.154  31.243  32.574  1.00  0.00    -0.248 NA
ATOM     48  C   UNL A   1      37.251  32.594  32.538  1.00  0.00     0.031 C 
ATOM     49  C   UNL A   1      38.356  30.047  28.340  1.00  0.00     0.029 A 
ATOM     50  N   UNL A   1      39.656  29.715  30.128  1.00  0.00    -0.354 N 
ATOM     51  C   UNL A   1      39.024  31.884  33.800  1.00  0.00     0.074 A 
ATOM     52  C   UNL A   1      37.863  32.745  33.704  1.00  0.00     0.031 C 
ATOM     53  C   UNL A   1      39.281  29.134  28.002  1.00  0.00     0.029 A 
ATOM     54  C   UNL A   1      40.161  28.902  29.144  1.00  0.00     0.049 A 
ATOM     55  H   UNL A   1      40.043  29.772  31.031  1.00  0.00     0.167 HD
ATOM     56  C   UNL A   1      39.790  31.757  34.910  1.00  0.00     0.037 A 
ATOM     57  C   UNL A   1      41.222  28.075  29.158  1.00  0.00     0.037 A 
ATOM     58  C   UNL A   1      40.923  30.875  35.020  1.00  0.00     0.049 A 
ATOM     59  C   UNL A   1      42.065  27.965  30.393  1.00  0.00     0.074 A 
ATOM     60  C   UNL A   1      41.725  30.632  36.122  1.00  0.00     0.029 A 
ATOM     61  N   UNL A   1      41.416  30.090  33.988  1.00  0.00    -0.354 N 
ATOM     62  N   UNL A   1      41.929  28.573  31.543  1.00  0.00    -0.248 NA
ATOM     63  C   UNL A   1      43.218  27.055  30.321  1.00  0.00     0.031 C 
ATOM     64  C   UNL A   1      42.725  29.727  35.748  1.00  0.00     0.029 A 
ATOM     65  C   UNL A   1      42.519  29.373  34.425  1.00  0.00     0.049 A 
ATOM     66  H   UNL A   1      41.037  30.048  33.080  1.00  0.00     0.167 HD
ATOM     67  C   UNL A   1      42.971  28.116  32.338  1.00  0.00     0.074 A 
ATOM     68  C   UNL A   1      43.725  27.171  31.541  1.00  0.00     0.031 C 
ATOM     69  C   UNL A   1      43.270  28.449  33.616  1.00  0.00     0.037 A 
BRANCH  56  70
ATOM     70  C   UNL A   1      39.428  32.590  36.105  1.00  0.00     0.064 A 
ATOM     71  C   UNL A   1      38.501  32.144  37.060  1.00  0.00     0.173 A 
ATOM     72  C   UNL A   1      40.049  33.829  36.323  1.00  0.00     0.173 A 
ATOM     73  F   UNL A   1      37.873  30.970  36.893  1.00  0.00    -0.203 F 
ATOM     74  C   UNL A   1      38.191  32.920  38.174  1.00  0.00     0.198 A 
ATOM     75  C   UNL A   1      39.756  34.589  37.451  1.00  0.00     0.198 A 
ATOM     76  F   UNL A   1      40.947  34.300  35.444  1.00  0.00    -0.203 F 
ATOM     77  F   UNL A   1      37.270  32.493  39.050  1.00  0.00    -0.200 F 
ATOM     78  C   UNL A   1      38.823  34.138  38.373  1.00  0.00     0.200 A 
ATOM     79  F   UNL A   1      40.378  35.761  37.650  1.00  0.00    -0.200 F 
ATOM     80  F   UNL A   1      38.530  34.879  39.450  1.00  0.00    -0.200 F 
ENDBRANCH  56  70
BRANCH  57  81
ATOM     81  C   UNL A   1      41.575  27.305  27.943  1.00  0.00     0.064 A 
ATOM     82  C   UNL A   1      42.417  27.834  26.959  1.00  0.00     0.173 A 
ATOM     83  C   UNL A   1      41.055  26.022  27.741  1.00  0.00     0.173 A 
ATOM     84  F   UNL A   1      42.894  29.079  27.085  1.00  0.00    -0.203 F 
ATOM     85  C   UNL A   1      42.740  27.094  25.823  1.00  0.00     0.198 A 
ATOM     86  C   UNL A   1      41.402  25.270  26.624  1.00  0.00     0.198 A 
ATOM     87  F   UNL A   1      40.198  25.508  28.633  1.00  0.00    -0.203 F 
ATOM     88  F   UNL A   1      43.522  27.630  24.876  1.00  0.00    -0.200 F 
ATOM     89  C   UNL A   1      42.244  25.807  25.662  1.00  0.00     0.200 A 
ATOM     90  F   UNL A   1      40.920  24.028  26.480  1.00  0.00    -0.200 F 
ATOM     91  F   UNL A   1      42.566  25.091  24.577  1.00  0.00    -0.200 F 
ENDBRANCH  57  81
BRANCH  69  92
ATOM     92  C   UNL A   1      44.452  27.768  34.236  1.00  0.00     0.064 A 
ATOM     93  C   UNL A   1      45.727  28.348  34.218  1.00  0.00     0.173 A 
ATOM     94  C   UNL A   1      44.300  26.526  34.871  1.00  0.00     0.173 A 
ATOM     95  F   UNL A   1      45.925  29.524  33.603  1.00  0.00    -0.203 F 
ATOM     96  C   UNL A   1      46.816  27.698  34.793  1.00  0.00     0.198 A 
ATOM     97  C   UNL A   1      45.385  25.891  35.467  1.00  0.00     0.198 A 
ATOM     98  F   UNL A   1      43.098  25.931  34.913  1.00  0.00    -0.203 F 
ATOM     99  F   UNL A   1      48.036  28.248  34.723  1.00  0.00    -0.200 F 
ATOM    100  C   UNL A   1      46.643  26.473  35.421  1.00  0.00     0.200 A 
ATOM    101  F   UNL A   1      45.215  24.711  36.078  1.00  0.00    -0.200 F 
ATOM    102  F   UNL A   1      47.692  25.849  35.975  1.00  0.00    -0.200 F 
ENDBRANCH  69  92
ENDBRANCH  43  44
ENDBRANCH  35  38
ENDBRANCH  33  34
ENDBRANCH  32  33
ENDBRANCH   1  32
TORSDOF 13
ENDMDL
MODEL 2
REMARK VINA RESULT:     -14.5      0.590      7.065
REMARK SMILES CC1=C(C)C[C@@H](C(=O)NCCCNC(=O)c2ccc(-c3c4nc(c(-c5c(F)c(F)c(F)c(F)c5F)c5ccc([nH]5)c(-c5c(F)c(F)c(F)c(F)c5F)c5nc(c(-c6c(F)c(F)c(F)c(F)c6F)c6ccc3[nH]6)C=C5)C=C4)cc2)[C@@H](C(=O)N2CCN(c3cccc(C(F)(F)F)c3)CC2)C1
REMARK SMILES IDX 10 1 9 2 7 3 8 4 6 6 1 7 2 8 3 9 98 10 4 11 5 12 79 13 80 14
REMARK SMILES IDX 81 15 82 16 83 17 97 18 84 19 96 20 85 21 86 22 87 23 95 24
REMARK SMILES IDX 88 25 90 26 89 27 91 28 92 29 93 30 94 31 11 32 12 33 13 34
REMARK SMILES IDX 14 35 15 37 16 38 17 39 78 40 18 41 77 42 19 43 20 44 21 45
REMARK SMILES IDX 71 46 22 47 76 48 70 49 72 50 23 51 75 52 69 53 68 54 24 56
REMARK SMILES IDX 56 57 36 58 55 59 37 60 40 61 54 62 73 63 38 64 39 65 53 67
REMARK SMILES IDX 74 68 41 69 25 70 26 71 34 72 27 73 28 74 32 75 35 76 29 77
REMARK SMILES IDX 30 78 33 79 31 80 57 81 58 82 66 83 59 84 60 85 64 86 67 87
REMARK SMILES IDX 61 88 62 89 65 90 63 91 42 92 43 93 51 94 44 95 45 96 49 97
REMARK SMILES IDX 52 98 46 99 47 100 50 101 48 102
REMARK H PARENT 9 5 13 36 72 55 40 66
REMARK Flexibility Score: inf
ROOT
ATOM      1  C   UNL A   1      30.978  30.375  25.370  1.00  0.00     0.117 C 
ENDROOT
BRANCH   1   2
ATOM      2  N   UNL A   1      32.248  29.837  24.933  1.00  0.00    -0.356 N 
ATOM      3  C   UNL A   1      32.623  29.070  23.879  1.00  0.00     0.224 C 
ATOM      4  O   UNL A   1      33.842  28.981  23.680  1.00  0.00    -0.275 OA
ATOM      5  H   UNL A   1      32.996  30.079  25.524  1.00  0.00     0.163 HD
BRANCH   3   6
ATOM      6  C   UNL A   1      31.657  28.365  22.915  1.00  0.00     0.095 C 
ATOM      7  C   UNL A   1      27.300  28.998  23.404  1.00  0.00     0.039 C 
ATOM      8  C   UNL A   1      28.747  28.788  23.033  1.00  0.00    -0.074 C 
ATOM      9  C   UNL A   1      29.502  29.677  22.359  1.00  0.00    -0.074 C 
ATOM     10  C   UNL A   1      29.290  27.464  23.501  1.00  0.00     0.045 C 
ATOM     11  C   UNL A   1      29.045  31.049  21.926  1.00  0.00     0.039 C 
ATOM     12  C   UNL A   1      30.939  29.379  22.017  1.00  0.00     0.045 C 
ATOM     13  C   UNL A   1      30.806  27.169  23.413  1.00  0.00     0.095 C 
BRANCH  13  14
ATOM     14  C   UNL A   1      31.312  26.531  24.726  1.00  0.00     0.226 C 
ATOM     15  O   UNL A   1      30.982  26.950  25.835  1.00  0.00    -0.275 OA
ATOM     16  N   UNL A   1      32.094  25.396  24.659  1.00  0.00    -0.339 N 
ATOM     17  C   UNL A   1      31.953  24.401  25.727  1.00  0.00     0.141 C 
ATOM     18  C   UNL A   1      33.065  25.029  23.623  1.00  0.00     0.141 C 
ATOM     19  C   UNL A   1      31.464  23.083  25.109  1.00  0.00     0.138 C 
ATOM     20  C   UNL A   1      32.813  23.621  23.036  1.00  0.00     0.138 C 
ATOM     21  N   UNL A   1      32.390  22.655  24.056  1.00  0.00    -0.368 N 
BRANCH  21  22
ATOM     22  C   UNL A   1      33.106  21.502  24.288  1.00  0.00     0.037 A 
ATOM     23  C   UNL A   1      34.391  21.594  24.826  1.00  0.00     0.026 A 
ATOM     24  C   UNL A   1      32.615  20.245  23.921  1.00  0.00     0.039 A 
ATOM     25  C   UNL A   1      35.171  20.457  25.006  1.00  0.00     0.003 A 
ATOM     26  C   UNL A   1      33.399  19.091  24.071  1.00  0.00     0.058 A 
ATOM     27  C   UNL A   1      34.680  19.211  24.625  1.00  0.00     0.013 A 
BRANCH  26  28
ATOM     28  C   UNL A   1      32.898  17.742  23.626  1.00  0.00     0.416 C 
ATOM     29  F   UNL A   1      32.155  17.120  24.584  1.00  0.00    -0.166 F 
ATOM     30  F   UNL A   1      32.100  17.819  22.526  1.00  0.00    -0.166 F 
ATOM     31  F   UNL A   1      33.893  16.869  23.304  1.00  0.00    -0.166 F 
ENDBRANCH  26  28
ENDBRANCH  21  22
ENDBRANCH  13  14
ENDBRANCH   3   6
ENDBRANCH   1   2
BRANCH   1  32
ATOM     32  C   UNL A   1      31.029  31.822  25.842  1.00  0.00     0.042 C 
BRANCH  32  33
ATOM     33  C   UNL A   1      32.136  32.123  26.844  1.00  0.00     0.118 C 
BRANCH  33  34
ATOM     34  N   UNL A   1      32.190  33.536  27.183  1.00  0.00    -0.352 N 
ATOM     35  C   UNL A   1      32.984  34.205  28.075  1.00  0.00     0.251 C 
ATOM     36  H   UNL A   1      31.552  34.104  26.694  1.00  0.00     0.163 HD
ATOM     37  O   UNL A   1      32.698  35.369  28.377  1.00  0.00    -0.269 OA
BRANCH  35  38
ATOM     38  C   UNL A   1      34.176  33.575  28.687  1.00  0.00     0.039 A 
ATOM     39  C   UNL A   1      33.994  32.448  29.496  1.00  0.00     0.014 A 
ATOM     40  C   UNL A   1      35.453  34.132  28.558  1.00  0.00     0.014 A 
ATOM     41  C   UNL A   1      35.085  31.870  30.153  1.00  0.00     0.010 A 
ATOM     42  C   UNL A   1      36.552  33.518  29.164  1.00  0.00     0.010 A 
ATOM     43  C   UNL A   1      36.375  32.393  29.984  1.00  0.00    -0.014 A 
BRANCH  43  44
ATOM     44  C   UNL A   1      37.535  31.812  30.711  1.00  0.00     0.031 A 
ATOM     45  C   UNL A   1      38.405  30.779  30.043  1.00  0.00     0.074 A 
ATOM     46  C   UNL A   1      37.801  32.192  31.976  1.00  0.00     0.049 A 
ATOM     47  N   UNL A   1      39.414  30.101  30.531  1.00  0.00    -0.248 NA
ATOM     48  C   UNL A   1      38.081  30.447  28.647  1.00  0.00     0.031 C 
ATOM     49  C   UNL A   1      37.028  33.164  32.751  1.00  0.00     0.029 A 
ATOM     50  N   UNL A   1      38.800  31.802  32.833  1.00  0.00    -0.354 N 
ATOM     51  C   UNL A   1      39.830  29.253  29.513  1.00  0.00     0.074 A 
ATOM     52  C   UNL A   1      38.940  29.471  28.392  1.00  0.00     0.031 C 
ATOM     53  C   UNL A   1      37.595  33.312  33.960  1.00  0.00     0.029 A 
ATOM     54  C   UNL A   1      38.750  32.423  34.056  1.00  0.00     0.049 A 
ATOM     55  H   UNL A   1      39.488  31.141  32.593  1.00  0.00     0.167 HD
ATOM     56  C   UNL A   1      40.869  28.383  29.505  1.00  0.00     0.037 A 
ATOM     57  C   UNL A   1      39.538  32.281  35.138  1.00  0.00     0.037 A 
ATOM     58  C   UNL A   1      41.777  28.189  30.605  1.00  0.00     0.049 A 
ATOM     59  C   UNL A   1      40.670  31.299  35.111  1.00  0.00     0.074 A 
ATOM     60  C   UNL A   1      42.895  27.375  30.670  1.00  0.00     0.029 A 
ATOM     61  N   UNL A   1      41.672  28.820  31.836  1.00  0.00    -0.354 N 
ATOM     62  N   UNL A   1      41.054  30.507  34.142  1.00  0.00    -0.248 NA
ATOM     63  C   UNL A   1      41.473  31.188  36.337  1.00  0.00     0.031 C 
ATOM     64  C   UNL A   1      43.446  27.485  31.952  1.00  0.00     0.029 A 
ATOM     65  C   UNL A   1      42.697  28.402  32.671  1.00  0.00     0.049 A 
ATOM     66  H   UNL A   1      40.974  29.469  32.080  1.00  0.00     0.167 HD
ATOM     67  C   UNL A   1      42.147  29.808  34.635  1.00  0.00     0.074 A 
ATOM     68  C   UNL A   1      42.371  30.278  35.987  1.00  0.00     0.031 C 
ATOM     69  C   UNL A   1      42.898  28.865  34.019  1.00  0.00     0.037 A 
BRANCH  56  70
ATOM     70  C   UNL A   1      41.087  27.569  28.262  1.00  0.00     0.064 A 
ATOM     71  C   UNL A   1      40.483  26.314  28.089  1.00  0.00     0.173 A 
ATOM     72  C   UNL A   1      41.871  28.069  27.212  1.00  0.00     0.173 A 
ATOM     73  F   UNL A   1      39.731  25.787  29.068  1.00  0.00    -0.203 F 
ATOM     74  C   UNL A   1      40.678  25.580  26.922  1.00  0.00     0.198 A 
ATOM     75  C   UNL A   1      42.042  27.345  26.036  1.00  0.00     0.198 A 
ATOM     76  F   UNL A   1      42.466  29.267  27.323  1.00  0.00    -0.203 F 
ATOM     77  F   UNL A   1      40.125  24.365  26.798  1.00  0.00    -0.200 F 
ATOM     78  C   UNL A   1      41.450  26.098  25.894  1.00  0.00     0.200 A 
ATOM     79  F   UNL A   1      42.778  27.852  25.038  1.00  0.00    -0.200 F 
ATOM     80  F   UNL A   1      41.630  25.394  24.768  1.00  0.00    -0.200 F 
ENDBRANCH  56  70
BRANCH  57  81
ATOM     81  C   UNL A   1      39.263  33.068  36.362  1.00  0.00     0.064 A 
ATOM     82  C   UNL A   1      38.418  32.586  37.368  1.00  0.00     0.173 A 
ATOM     83  C   UNL A   1      39.835  34.333  36.535  1.00  0.00     0.173 A 
ATOM     84  F   UNL A   1      37.806  31.403  37.218  1.00  0.00    -0.203 F 
ATOM     85  C   UNL A   1      38.171  33.339  38.514  1.00  0.00     0.198 A 
ATOM     86  C   UNL A   1      39.616  35.071  37.693  1.00  0.00     0.198 A 
ATOM     87  F   UNL A   1      40.600  34.851  35.567  1.00  0.00    -0.203 F 
ATOM     88  F   UNL A   1      37.334  32.875  39.452  1.00  0.00    -0.200 F 
ATOM     89  C   UNL A   1      38.781  34.575  38.683  1.00  0.00     0.200 A 
ATOM     90  F   UNL A   1      40.211  36.261  37.847  1.00  0.00    -0.200 F 
ATOM     91  F   UNL A   1      38.556  35.292  39.792  1.00  0.00    -0.200 F 
ENDBRANCH  57  81
BRANCH  69  92
ATOM     92  C   UNL A   1      44.046  28.297  34.796  1.00  0.00     0.064 A 
ATOM     93  C   UNL A   1      43.912  27.123  35.552  1.00  0.00     0.173 A 
ATOM     94  C   UNL A   1      45.300  28.927  34.770  1.00  0.00     0.173 A 
ATOM     95  F   UNL A   1      42.728  26.499  35.625  1.00  0.00    -0.203 F 
ATOM     96  C   UNL A   1      44.988  26.613  36.273  1.00  0.00     0.198 A 
ATOM     97  C   UNL A   1      46.379  28.400  35.472  1.00  0.00     0.198 A 
ATOM     98  F   UNL A   1      45.475  30.052  34.062  1.00  0.00    -0.203 F 
ATOM     99  F   UNL A   1      44.827  25.517  37.027  1.00  0.00    -0.200 F 
ATOM    100  C   UNL A   1      46.221  27.248  36.229  1.00  0.00     0.200 A 
ATOM    101  F   UNL A   1      47.570  29.011  35.423  1.00  0.00    -0.200 F 
ATOM    102  F   UNL A   1      47.255  26.755  36.924  1.00  0.00    -0.200 F 
ENDBRANCH  69  92
ENDBRANCH  43  44
ENDBRANCH  35  38
ENDBRANCH  33  34
ENDBRANCH  32  33
ENDBRANCH   1  32
TORSDOF 13
ENDMDL
MODEL 3
REMARK VINA RESULT:     -14.5      0.543      7.053
REMARK SMILES CC1=C(C)C[C@@H](C(=O)NCCCNC(=O)c2ccc(-c3c4nc(c(-c5c(F)c(F)c(F)c(F)c5F)c5ccc([nH]5)c(-c5c(F)c(F)c(F)c(F)c5F)c5nc(c(-c6c(F)c(F)c(F)c(F)c6F)c6ccc3[nH]6)C=C5)C=C4)cc2)[C@@H](C(=O)N2CCN(c3cccc(C(F)(F)F)c3)CC2)C1
REMARK SMILES IDX 10 1 9 2 7 3 8 4 6 6 1 7 2 8 3 9 98 10 4 11 5 12 79 13 80 14
REMARK SMILES IDX 81 15 82 16 83 17 97 18 84 19 96 20 85 21 86 22 87 23 95 24
REMARK SMILES IDX 88 25 90 26 89 27 91 28 92 29 93 30 94 31 11 32 12 33 13 34
REMARK SMILES IDX 14 35 15 37 16 38 17 39 78 40 18 41 77 42 19 43 20 44 21 45
REMARK SMILES IDX 71 46 22 47 76 48 70 49 72 50 23 51 75 52 69 53 68 54 24 56
REMARK SMILES IDX 56 57 36 58 55 59 37 60 40 61 54 62 73 63 38 64 39 65 53 67
REMARK SMILES IDX 74 68 41 69 25 70 26 71 34 72 27 73 28 74 32 75 35 76 29 77
REMARK SMILES IDX 30 78 33 79 31 80 57 81 58 82 66 83 59 84 60 85 64 86 67 87
REMARK SMILES IDX 61 88 62 89 65 90 63 91 42 92 43 93 51 94 44 95 45 96 49 97
REMARK SMILES IDX 52 98 46 99 47 100 50 101 48 102
REMARK H PARENT 9 5 13 36 72 55 40 66
REMARK Flexibility Score: inf
ROOT
ATOM      1  C   UNL A   1      31.000  30.285  25.394  1.00  0.00     0.117 C 
ENDROOT
BRANCH   1   2
ATOM      2  N   UNL A   1      32.263  29.779  24.901  1.00  0.00    -0.356 N 
ATOM      3  C   UNL A   1      32.612  29.034  23.824  1.00  0.00     0.224 C 
ATOM      4  O   UNL A   1      33.825  28.973  23.577  1.00  0.00    -0.275 OA
ATOM      5  H   UNL A   1      33.029  30.030  25.466  1.00  0.00     0.163 HD
BRANCH   3   6
ATOM      6  C   UNL A   1      31.625  28.320  22.889  1.00  0.00     0.095 C 
ATOM      7  C   UNL A   1      27.280  28.968  23.466  1.00  0.00     0.039 C 
ATOM      8  C   UNL A   1      28.719  28.751  23.065  1.00  0.00    -0.074 C 
ATOM      9  C   UNL A   1      29.460  29.631  22.365  1.00  0.00    -0.074 C 
ATOM     10  C   UNL A   1      29.269  27.430  23.535  1.00  0.00     0.045 C 
ATOM     11  C   UNL A   1      28.996  31.000  21.928  1.00  0.00     0.039 C 
ATOM     12  C   UNL A   1      30.889  29.327  21.996  1.00  0.00     0.045 C 
ATOM     13  C   UNL A   1      30.783  27.131  23.417  1.00  0.00     0.095 C 
BRANCH  13  14
ATOM     14  C   UNL A   1      31.316  26.507  24.726  1.00  0.00     0.226 C 
ATOM     15  O   UNL A   1      31.008  26.936  25.837  1.00  0.00    -0.275 OA
ATOM     16  N   UNL A   1      32.097  25.372  24.654  1.00  0.00    -0.339 N 
ATOM     17  C   UNL A   1      31.979  24.387  25.734  1.00  0.00     0.141 C 
ATOM     18  C   UNL A   1      33.047  24.995  23.601  1.00  0.00     0.141 C 
ATOM     19  C   UNL A   1      31.479  23.063  25.138  1.00  0.00     0.138 C 
ATOM     20  C   UNL A   1      32.784  23.582  23.033  1.00  0.00     0.138 C 
ATOM     21  N   UNL A   1      32.383  22.625  24.070  1.00  0.00    -0.368 N 
BRANCH  21  22
ATOM     22  C   UNL A   1      33.104  21.474  24.299  1.00  0.00     0.037 A 
ATOM     23  C   UNL A   1      34.395  21.572  24.824  1.00  0.00     0.026 A 
ATOM     24  C   UNL A   1      32.614  20.216  23.939  1.00  0.00     0.039 A 
ATOM     25  C   UNL A   1      35.180  20.438  24.999  1.00  0.00     0.003 A 
ATOM     26  C   UNL A   1      33.403  19.064  24.085  1.00  0.00     0.058 A 
ATOM     27  C   UNL A   1      34.689  19.189  24.626  1.00  0.00     0.013 A 
BRANCH  26  28
ATOM     28  C   UNL A   1      32.901  17.712  23.649  1.00  0.00     0.416 C 
ATOM     29  F   UNL A   1      33.913  16.833  23.408  1.00  0.00    -0.166 F 
ATOM     30  F   UNL A   1      32.109  17.122  24.587  1.00  0.00    -0.166 F 
ATOM     31  F   UNL A   1      32.161  17.747  22.506  1.00  0.00    -0.166 F 
ENDBRANCH  26  28
ENDBRANCH  21  22
ENDBRANCH  13  14
ENDBRANCH   3   6
ENDBRANCH   1   2
BRANCH   1  32
ATOM     32  C   UNL A   1      31.037  31.730  25.872  1.00  0.00     0.042 C 
BRANCH  32  33
ATOM     33  C   UNL A   1      32.168  32.049  26.841  1.00  0.00     0.118 C 
BRANCH  33  34
ATOM     34  N   UNL A   1      32.207  33.463  27.182  1.00  0.00    -0.352 N 
ATOM     35  C   UNL A   1      32.995  34.139  28.074  1.00  0.00     0.251 C 
ATOM     36  H   UNL A   1      31.563  34.024  26.694  1.00  0.00     0.163 HD
ATOM     37  O   UNL A   1      32.697  35.299  28.378  1.00  0.00    -0.269 OA
BRANCH  35  38
ATOM     38  C   UNL A   1      34.195  33.521  28.683  1.00  0.00     0.039 A 
ATOM     39  C   UNL A   1      34.037  32.343  29.423  1.00  0.00     0.014 A 
ATOM     40  C   UNL A   1      35.451  34.133  28.622  1.00  0.00     0.014 A 
ATOM     41  C   UNL A   1      35.132  31.771  30.077  1.00  0.00     0.010 A 
ATOM     42  C   UNL A   1      36.558  33.528  29.224  1.00  0.00     0.010 A 
ATOM     43  C   UNL A   1      36.404  32.352  29.974  1.00  0.00    -0.014 A 
BRANCH  43  44
ATOM     44  C   UNL A   1      37.567  31.775  30.700  1.00  0.00     0.031 A 
ATOM     45  C   UNL A   1      38.448  30.755  30.026  1.00  0.00     0.074 A 
ATOM     46  C   UNL A   1      37.825  32.147  31.969  1.00  0.00     0.049 A 
ATOM     47  N   UNL A   1      39.462  30.083  30.513  1.00  0.00    -0.248 NA
ATOM     48  C   UNL A   1      38.132  30.433  28.626  1.00  0.00     0.031 C 
ATOM     49  C   UNL A   1      37.041  33.105  32.750  1.00  0.00     0.029 A 
ATOM     50  N   UNL A   1      38.825  31.759  32.827  1.00  0.00    -0.354 N 
ATOM     51  C   UNL A   1      39.889  29.247  29.489  1.00  0.00     0.074 A 
ATOM     52  C   UNL A   1      39.001  29.466  28.367  1.00  0.00     0.031 C 
ATOM     53  C   UNL A   1      37.602  33.248  33.962  1.00  0.00     0.029 A 
ATOM     54  C   UNL A   1      38.765  32.369  34.055  1.00  0.00     0.049 A 
ATOM     55  H   UNL A   1      39.519  31.105  32.584  1.00  0.00     0.167 HD
ATOM     56  C   UNL A   1      40.936  28.386  29.477  1.00  0.00     0.037 A 
ATOM     57  C   UNL A   1      39.551  32.225  35.138  1.00  0.00     0.037 A 
ATOM     58  C   UNL A   1      41.841  28.191  30.579  1.00  0.00     0.049 A 
ATOM     59  C   UNL A   1      40.692  31.252  35.106  1.00  0.00     0.074 A 
ATOM     60  C   UNL A   1      42.967  27.387  30.641  1.00  0.00     0.029 A 
ATOM     61  N   UNL A   1      41.727  28.811  31.815  1.00  0.00    -0.354 N 
ATOM     62  N   UNL A   1      41.086  30.472  34.132  1.00  0.00    -0.248 NA
ATOM     63  C   UNL A   1      41.491  31.139  36.335  1.00  0.00     0.031 C 
ATOM     64  C   UNL A   1      43.512  27.491  31.925  1.00  0.00     0.029 A 
ATOM     65  C   UNL A   1      42.752  28.394  32.650  1.00  0.00     0.049 A 
ATOM     66  H   UNL A   1      41.021  29.452  32.062  1.00  0.00     0.167 HD
ATOM     67  C   UNL A   1      42.183  29.779  34.624  1.00  0.00     0.074 A 
ATOM     68  C   UNL A   1      42.398  30.240  35.980  1.00  0.00     0.031 C 
ATOM     69  C   UNL A   1      42.945  28.848  34.002  1.00  0.00     0.037 A 
BRANCH  56  70
ATOM     70  C   UNL A   1      41.164  27.585  28.228  1.00  0.00     0.064 A 
ATOM     71  C   UNL A   1      41.993  28.051  27.196  1.00  0.00     0.173 A 
ATOM     72  C   UNL A   1      40.584  26.316  28.081  1.00  0.00     0.173 A 
ATOM     73  F   UNL A   1      42.564  29.262  27.285  1.00  0.00    -0.203 F 
ATOM     74  C   UNL A   1      42.212  27.287  26.052  1.00  0.00     0.198 A 
ATOM     75  C   UNL A   1      40.826  25.544  26.948  1.00  0.00     0.198 A 
ATOM     76  F   UNL A   1      39.788  25.820  29.040  1.00  0.00    -0.203 F 
ATOM     77  F   UNL A   1      42.973  27.772  25.061  1.00  0.00    -0.200 F 
ATOM     78  C   UNL A   1      41.635  26.032  25.932  1.00  0.00     0.200 A 
ATOM     79  F   UNL A   1      40.278  24.325  26.838  1.00  0.00    -0.200 F 
ATOM     80  F   UNL A   1      41.853  25.296  24.834  1.00  0.00    -0.200 F 
ENDBRANCH  56  70
BRANCH  57  81
ATOM     81  C   UNL A   1      39.264  32.999  36.367  1.00  0.00     0.064 A 
ATOM     82  C   UNL A   1      38.407  32.508  37.359  1.00  0.00     0.173 A 
ATOM     83  C   UNL A   1      39.838  34.260  36.561  1.00  0.00     0.173 A 
ATOM     84  F   UNL A   1      37.794  31.329  37.190  1.00  0.00    -0.203 F 
ATOM     85  C   UNL A   1      38.150  33.249  38.511  1.00  0.00     0.198 A 
ATOM     86  C   UNL A   1      39.608  34.986  37.724  1.00  0.00     0.198 A 
ATOM     87  F   UNL A   1      40.615  34.786  35.607  1.00  0.00    -0.203 F 
ATOM     88  F   UNL A   1      37.302  32.777  39.435  1.00  0.00    -0.200 F 
ATOM     89  C   UNL A   1      38.762  34.481  38.700  1.00  0.00     0.200 A 
ATOM     90  F   UNL A   1      40.205  36.172  37.898  1.00  0.00    -0.200 F 
ATOM     91  F   UNL A   1      38.526  35.187  39.814  1.00  0.00    -0.200 F 
ENDBRANCH  57  81
BRANCH  69  92
ATOM     92  C   UNL A   1      44.095  28.283  34.778  1.00  0.00     0.064 A 
ATOM     93  C   UNL A   1      45.350  28.908  34.790  1.00  0.00     0.173 A 
ATOM     94  C   UNL A   1      43.934  27.111  35.532  1.00  0.00     0.173 A 
ATOM     95  F   UNL A   1      45.558  30.018  34.067  1.00  0.00    -0.203 F 
ATOM     96  C   UNL A   1      46.410  28.366  35.512  1.00  0.00     0.198 A 
ATOM     97  C   UNL A   1      44.989  26.586  36.271  1.00  0.00     0.198 A 
ATOM     98  F   UNL A   1      42.751  26.477  35.550  1.00  0.00    -0.203 F 
ATOM     99  F   UNL A   1      47.615  28.952  35.472  1.00  0.00    -0.200 F 
ATOM    100  C   UNL A   1      46.228  27.209  36.255  1.00  0.00     0.200 A 
ATOM    101  F   UNL A   1      44.808  25.471  36.993  1.00  0.00    -0.200 F 
ATOM    102  F   UNL A   1      47.249  26.688  36.949  1.00  0.00    -0.200 F 
ENDBRANCH  69  92
ENDBRANCH  43  44
ENDBRANCH  35  38
ENDBRANCH  33  34
ENDBRANCH  32  33
ENDBRANCH   1  32
TORSDOF 13
ENDMDL
