MODEL 1
REMARK VINA RESULT:     -11.9      0.000      0.000
REMARK SMILES O=C(NCCCNC(=O)C1CCN(C(=O)c2cc(S(=O)(=O)N3CCOCC3)c(Cl)cc2Cl)CC1)c1ccc(-c2c3nc(c(-c4c(F)c(F)c(F)c(F)c4F)c4ccc([nH]4)c(-c4c(F)c(F)c(F)c(F)c4F)c4nc(c(-c5c(F)c(F)c(F)c(F)c5F)c5ccc2[nH]5)C=C4)C=C3)cc1
REMARK SMILES IDX 5 1 4 2 3 3 1 4 2 5 35 7 36 8 97 9 37 10 96 11 38 12 39 13
REMARK SMILES IDX 40 14 90 15 41 16 95 17 89 18 91 19 42 20 94 21 88 22 87 23
REMARK SMILES IDX 43 25 75 26 55 27 74 28 56 29 59 30 73 31 92 32 57 33 58 34
REMARK SMILES IDX 72 36 93 37 60 38 44 39 45 40 53 41 46 42 47 43 51 44 54 45
REMARK SMILES IDX 48 46 49 47 52 48 50 49 76 50 77 51 85 52 78 53 79 54 83 55
REMARK SMILES IDX 86 56 80 57 81 58 84 59 82 60 61 61 62 62 70 63 63 64 64 65
REMARK SMILES IDX 68 66 71 67 65 68 66 69 69 70 67 71 6 72 7 73 8 74 9 76
REMARK SMILES IDX 10 77 11 78 34 79 12 80 33 81 13 82 14 83 15 84 16 85 17 86
REMARK SMILES IDX 31 87 18 88 30 89 32 90 28 91 29 92 19 93 20 94 21 95 22 96
REMARK SMILES IDX 23 97 27 98 24 99 26 100 25 101
REMARK H PARENT 3 6 91 24 59 35 7 75
REMARK Flexibility Score: inf
ROOT
ATOM      1  C   UNL A   1      34.044  34.367  28.289  1.00  0.00     0.042 C 
ENDROOT
BRANCH   1   2
ATOM      2  C   UNL A   1      34.908  33.112  28.228  1.00  0.00     0.118 C 
BRANCH   2   3
ATOM      3  N   UNL A   1      34.159  31.929  27.828  1.00  0.00    -0.352 N 
ATOM      4  O   UNL A   1      33.814  29.793  27.216  1.00  0.00    -0.269 OA
ATOM      5  C   UNL A   1      34.552  30.617  27.746  1.00  0.00     0.251 C 
ATOM      6  H   UNL A   1      33.221  32.097  27.577  1.00  0.00     0.163 HD
BRANCH   5   7
ATOM      7  C   UNL A   1      35.870  30.190  28.270  1.00  0.00     0.039 A 
ATOM      8  C   UNL A   1      37.031  30.319  27.504  1.00  0.00     0.014 A 
ATOM      9  C   UNL A   1      35.946  29.685  29.571  1.00  0.00     0.014 A 
ATOM     10  C   UNL A   1      38.235  29.810  27.979  1.00  0.00     0.010 A 
ATOM     11  C   UNL A   1      37.175  29.255  30.081  1.00  0.00     0.010 A 
ATOM     12  C   UNL A   1      38.324  29.283  29.276  1.00  0.00    -0.014 A 
BRANCH  12  13
ATOM     13  C   UNL A   1      39.634  28.813  29.795  1.00  0.00     0.031 A 
ATOM     14  C   UNL A   1      40.333  29.543  30.907  1.00  0.00     0.074 A 
ATOM     15  C   UNL A   1      40.193  27.713  29.256  1.00  0.00     0.049 A 
ATOM     16  N   UNL A   1      41.492  29.290  31.464  1.00  0.00    -0.248 NA
ATOM     17  C   UNL A   1      39.645  30.719  31.462  1.00  0.00     0.031 C 
ATOM     18  C   UNL A   1      39.614  26.923  28.167  1.00  0.00     0.029 A 
ATOM     19  N   UNL A   1      41.366  27.066  29.547  1.00  0.00    -0.354 N 
ATOM     20  C   UNL A   1      41.680  30.280  32.418  1.00  0.00     0.074 A 
ATOM     21  C   UNL A   1      40.530  31.158  32.346  1.00  0.00     0.031 C 
ATOM     22  C   UNL A   1      40.417  25.884  27.902  1.00  0.00     0.029 A 
ATOM     23  C   UNL A   1      41.597  25.967  28.758  1.00  0.00     0.049 A 
ATOM     24  H   UNL A   1      41.984  27.362  30.254  1.00  0.00     0.167 HD
ATOM     25  C   UNL A   1      42.715  30.436  33.280  1.00  0.00     0.037 A 
ATOM     26  C   UNL A   1      42.650  25.131  28.709  1.00  0.00     0.037 A 
ATOM     27  C   UNL A   1      43.851  29.553  33.352  1.00  0.00     0.049 A 
ATOM     28  C   UNL A   1      43.799  25.347  29.651  1.00  0.00     0.074 A 
ATOM     29  C   UNL A   1      44.933  29.605  34.215  1.00  0.00     0.029 A 
ATOM     30  N   UNL A   1      44.058  28.460  32.522  1.00  0.00    -0.354 N 
ATOM     31  N   UNL A   1      43.950  26.265  30.573  1.00  0.00    -0.248 NA
ATOM     32  C   UNL A   1      44.926  24.411  29.544  1.00  0.00     0.031 C 
ATOM     33  C   UNL A   1      45.818  28.577  33.873  1.00  0.00     0.029 A 
ATOM     34  C   UNL A   1      45.261  27.847  32.835  1.00  0.00     0.049 A 
ATOM     35  H   UNL A   1      43.440  28.163  31.814  1.00  0.00     0.167 HD
ATOM     36  C   UNL A   1      45.174  26.006  31.173  1.00  0.00     0.074 A 
ATOM     37  C   UNL A   1      45.718  24.833  30.519  1.00  0.00     0.031 C 
ATOM     38  C   UNL A   1      45.790  26.677  32.177  1.00  0.00     0.037 A 
BRANCH  25  39
ATOM     39  C   UNL A   1      42.680  31.622  34.203  1.00  0.00     0.064 A 
ATOM     40  C   UNL A   1      42.113  31.547  35.484  1.00  0.00     0.173 A 
ATOM     41  C   UNL A   1      43.254  32.842  33.813  1.00  0.00     0.173 A 
ATOM     42  F   UNL A   1      41.540  30.408  35.904  1.00  0.00    -0.203 F 
ATOM     43  C   UNL A   1      42.094  32.656  36.327  1.00  0.00     0.198 A 
ATOM     44  C   UNL A   1      43.262  33.940  34.670  1.00  0.00     0.198 A 
ATOM     45  F   UNL A   1      43.817  32.969  32.603  1.00  0.00    -0.203 F 
ATOM     46  F   UNL A   1      41.500  32.573  37.526  1.00  0.00    -0.200 F 
ATOM     47  C   UNL A   1      42.674  33.848  35.923  1.00  0.00     0.200 A 
ATOM     48  F   UNL A   1      43.835  35.087  34.283  1.00  0.00    -0.200 F 
ATOM     49  F   UNL A   1      42.659  34.913  36.736  1.00  0.00    -0.200 F 
ENDBRANCH  25  39
BRANCH  26  50
ATOM     50  C   UNL A   1      42.655  24.017  27.727  1.00  0.00     0.064 A 
ATOM     51  C   UNL A   1      43.114  24.211  26.418  1.00  0.00     0.173 A 
ATOM     52  C   UNL A   1      42.225  22.730  28.086  1.00  0.00     0.173 A 
ATOM     53  F   UNL A   1      43.518  25.428  26.023  1.00  0.00    -0.203 F 
ATOM     54  C   UNL A   1      43.131  23.163  25.500  1.00  0.00     0.198 A 
ATOM     55  C   UNL A   1      42.271  21.677  27.176  1.00  0.00     0.198 A 
ATOM     56  F   UNL A   1      41.783  22.491  29.329  1.00  0.00    -0.203 F 
ATOM     57  F   UNL A   1      43.540  23.384  24.243  1.00  0.00    -0.200 F 
ATOM     58  C   UNL A   1      42.718  21.896  25.881  1.00  0.00     0.200 A 
ATOM     59  F   UNL A   1      41.888  20.450  27.555  1.00  0.00    -0.200 F 
ATOM     60  F   UNL A   1      42.747  20.886  25.001  1.00  0.00    -0.200 F 
ENDBRANCH  26  50
BRANCH  38  61
ATOM     61  C   UNL A   1      47.106  26.138  32.657  1.00  0.00     0.064 A 
ATOM     62  C   UNL A   1      47.183  25.181  33.679  1.00  0.00     0.173 A 
ATOM     63  C   UNL A   1      48.304  26.561  32.061  1.00  0.00     0.173 A 
ATOM     64  F   UNL A   1      46.068  24.757  34.292  1.00  0.00    -0.203 F 
ATOM     65  C   UNL A   1      48.414  24.684  34.102  1.00  0.00     0.198 A 
ATOM     66  C   UNL A   1      49.530  26.041  32.466  1.00  0.00     0.198 A 
ATOM     67  F   UNL A   1      48.284  27.473  31.077  1.00  0.00    -0.203 F 
ATOM     68  F   UNL A   1      48.467  23.805  35.113  1.00  0.00    -0.200 F 
ATOM     69  C   UNL A   1      49.583  25.108  33.490  1.00  0.00     0.200 A 
ATOM     70  F   UNL A   1      50.658  26.442  31.865  1.00  0.00    -0.200 F 
ATOM     71  F   UNL A   1      50.766  24.623  33.895  1.00  0.00    -0.200 F 
ENDBRANCH  38  61
ENDBRANCH  12  13
ENDBRANCH   5   7
ENDBRANCH   2   3
ENDBRANCH   1   2
BRANCH   1  72
ATOM     72  C   UNL A   1      34.068  35.080  29.637  1.00  0.00     0.117 C 
BRANCH  72  73
ATOM     73  N   UNL A   1      33.653  34.210  30.723  1.00  0.00    -0.356 N 
ATOM     74  C   UNL A   1      34.374  33.654  31.735  1.00  0.00     0.223 C 
ATOM     75  H   UNL A   1      32.694  33.985  30.728  1.00  0.00     0.163 HD
ATOM     76  O   UNL A   1      33.768  32.967  32.555  1.00  0.00    -0.275 OA
BRANCH  74  77
ATOM     77  C   UNL A   1      35.879  33.893  31.817  1.00  0.00     0.082 C 
ATOM     78  C   UNL A   1      36.663  32.577  31.868  1.00  0.00     0.035 C 
ATOM     79  C   UNL A   1      36.242  34.779  33.018  1.00  0.00     0.035 C 
ATOM     80  C   UNL A   1      36.531  31.878  33.219  1.00  0.00     0.120 C 
ATOM     81  C   UNL A   1      36.188  34.043  34.355  1.00  0.00     0.120 C 
ATOM     82  N   UNL A   1      36.915  32.773  34.305  1.00  0.00    -0.339 N 
ATOM     83  C   UNL A   1      37.840  32.322  35.244  1.00  0.00     0.255 C 
ATOM     84  O   UNL A   1      38.360  31.210  35.230  1.00  0.00    -0.269 OA
BRANCH  83  85
ATOM     85  C   UNL A   1      38.230  33.226  36.337  1.00  0.00     0.060 A 
ATOM     86  C   UNL A   1      37.798  32.957  37.624  1.00  0.00     0.038 A 
ATOM     87  C   UNL A   1      39.039  34.327  36.110  1.00  0.00     0.055 A 
ATOM     88  C   UNL A   1      38.116  33.849  38.672  1.00  0.00     0.102 A 
ATOM     89  C   UNL A   1      39.379  35.208  37.172  1.00  0.00     0.043 A 
ATOM     90  Cl  UNL A   1      39.619  34.719  34.525  1.00  0.00    -0.083 Cl
ATOM     91  C   UNL A   1      38.921  35.093  38.577  1.00  0.00     0.062 A 
ATOM     92  Cl  UNL A   1      39.343  36.633  40.354  1.00  0.00    -0.083 Cl
BRANCH  88  93
ATOM     93  S   UNL A   1      37.423  33.413  40.196  1.00  0.00     0.244 S 
ATOM     94  O   UNL A   1      37.927  34.311  41.208  1.00  0.00    -0.207 OA
ATOM     95  O   UNL A   1      36.037  33.075  40.009  1.00  0.00    -0.207 OA
BRANCH  93  96
ATOM     96  N   UNL A   1      38.397  32.081  40.040  1.00  0.00    -0.193 NA
ATOM     97  C   UNL A   1      37.388  30.640  40.884  1.00  0.00     0.131 C 
ATOM     98  C   UNL A   1      40.086  32.630  40.851  1.00  0.00     0.131 C 
ATOM     99  C   UNL A   1      38.155  29.756  42.424  1.00  0.00     0.177 C 
ATOM    100  C   UNL A   1      40.728  31.654  42.393  1.00  0.00     0.177 C 
ATOM    101  O   UNL A   1      39.814  30.209  43.027  1.00  0.00    -0.379 OA
ENDBRANCH  93  96
ENDBRANCH  88  93
ENDBRANCH  83  85
ENDBRANCH  74  77
ENDBRANCH  72  73
ENDBRANCH   1  72
TORSDOF 13
ENDMDL
MODEL 2
REMARK VINA RESULT:     -11.8      0.309      7.092
REMARK SMILES O=C(NCCCNC(=O)C1CCN(C(=O)c2cc(S(=O)(=O)N3CCOCC3)c(Cl)cc2Cl)CC1)c1ccc(-c2c3nc(c(-c4c(F)c(F)c(F)c(F)c4F)c4ccc([nH]4)c(-c4c(F)c(F)c(F)c(F)c4F)c4nc(c(-c5c(F)c(F)c(F)c(F)c5F)c5ccc2[nH]5)C=C4)C=C3)cc1
REMARK SMILES IDX 5 1 4 2 3 3 1 4 2 5 35 7 36 8 97 9 37 10 96 11 38 12 39 13
REMARK SMILES IDX 40 14 90 15 41 16 95 17 89 18 91 19 42 20 94 21 88 22 87 23
REMARK SMILES IDX 43 25 75 26 55 27 74 28 56 29 59 30 73 31 92 32 57 33 58 34
REMARK SMILES IDX 72 36 93 37 60 38 44 39 45 40 53 41 46 42 47 43 51 44 54 45
REMARK SMILES IDX 48 46 49 47 52 48 50 49 76 50 77 51 85 52 78 53 79 54 83 55
REMARK SMILES IDX 86 56 80 57 81 58 84 59 82 60 61 61 62 62 70 63 63 64 64 65
REMARK SMILES IDX 68 66 71 67 65 68 66 69 69 70 67 71 6 72 7 73 8 74 9 76
REMARK SMILES IDX 10 77 11 78 34 79 12 80 33 81 13 82 14 83 15 84 16 85 17 86
REMARK SMILES IDX 31 87 18 88 30 89 32 90 28 91 29 92 19 93 20 94 21 95 22 96
REMARK SMILES IDX 23 97 27 98 24 99 26 100 25 101
REMARK H PARENT 3 6 91 24 59 35 7 75
REMARK Flexibility Score: inf
ROOT
ATOM      1  C   UNL A   1      33.974  34.156  28.191  1.00  0.00     0.042 C 
ENDROOT
BRANCH   1   2
ATOM      2  C   UNL A   1      34.884  32.936  28.101  1.00  0.00     0.118 C 
BRANCH   2   3
ATOM      3  N   UNL A   1      34.161  31.711  27.790  1.00  0.00    -0.352 N 
ATOM      4  O   UNL A   1      33.863  29.534  27.314  1.00  0.00    -0.269 OA
ATOM      5  C   UNL A   1      34.589  30.408  27.778  1.00  0.00     0.251 C 
ATOM      6  H   UNL A   1      33.214  31.839  27.550  1.00  0.00     0.163 HD
BRANCH   5   7
ATOM      7  C   UNL A   1      35.928  30.048  28.296  1.00  0.00     0.039 A 
ATOM      8  C   UNL A   1      37.079  30.243  27.529  1.00  0.00     0.014 A 
ATOM      9  C   UNL A   1      36.034  29.541  29.594  1.00  0.00     0.014 A 
ATOM     10  C   UNL A   1      38.310  29.796  27.998  1.00  0.00     0.010 A 
ATOM     11  C   UNL A   1      37.285  29.174  30.099  1.00  0.00     0.010 A 
ATOM     12  C   UNL A   1      38.430  29.268  29.292  1.00  0.00    -0.014 A 
BRANCH  12  13
ATOM     13  C   UNL A   1      39.764  28.864  29.806  1.00  0.00     0.031 A 
ATOM     14  C   UNL A   1      40.482  27.672  29.239  1.00  0.00     0.074 A 
ATOM     15  C   UNL A   1      40.330  29.585  30.792  1.00  0.00     0.049 A 
ATOM     16  N   UNL A   1      41.637  27.160  29.584  1.00  0.00    -0.248 NA
ATOM     17  C   UNL A   1      39.811  26.952  28.145  1.00  0.00     0.031 C 
ATOM     18  C   UNL A   1      39.728  30.758  31.427  1.00  0.00     0.029 A 
ATOM     19  N   UNL A   1      41.534  29.444  31.431  1.00  0.00    -0.354 N 
ATOM     20  C   UNL A   1      41.824  26.053  28.767  1.00  0.00     0.074 A 
ATOM     21  C   UNL A   1      40.648  25.948  27.928  1.00  0.00     0.031 C 
ATOM     22  C   UNL A   1      40.575  31.246  32.343  1.00  0.00     0.029 A 
ATOM     23  C   UNL A   1      41.753  30.387  32.404  1.00  0.00     0.049 A 
ATOM     24  H   UNL A   1      42.181  28.733  31.213  1.00  0.00     0.167 HD
ATOM     25  C   UNL A   1      42.883  25.208  28.718  1.00  0.00     0.037 A 
ATOM     26  C   UNL A   1      42.775  30.532  33.267  1.00  0.00     0.037 A 
ATOM     27  C   UNL A   1      44.052  25.325  29.551  1.00  0.00     0.049 A 
ATOM     28  C   UNL A   1      43.919  29.562  33.215  1.00  0.00     0.074 A 
ATOM     29  C   UNL A   1      45.194  24.541  29.552  1.00  0.00     0.029 A 
ATOM     30  N   UNL A   1      44.229  26.284  30.540  1.00  0.00    -0.354 N 
ATOM     31  N   UNL A   1      44.101  28.540  32.415  1.00  0.00    -0.248 NA
ATOM     32  C   UNL A   1      45.000  29.762  34.189  1.00  0.00     0.031 C 
ATOM     33  C   UNL A   1      46.036  24.992  30.575  1.00  0.00     0.029 A 
ATOM     34  C   UNL A   1      45.447  26.095  31.173  1.00  0.00     0.049 A 
ATOM     35  H   UNL A   1      43.583  26.995  30.758  1.00  0.00     0.167 HD
ATOM     36  C   UNL A   1      45.325  27.991  32.769  1.00  0.00     0.074 A 
ATOM     37  C   UNL A   1      45.849  28.803  33.849  1.00  0.00     0.031 C 
ATOM     38  C   UNL A   1      45.958  26.913  32.246  1.00  0.00     0.037 A 
BRANCH  25  39
ATOM     39  C   UNL A   1      42.817  24.064  27.746  1.00  0.00     0.064 A 
ATOM     40  C   UNL A   1      43.258  24.192  26.421  1.00  0.00     0.173 A 
ATOM     41  C   UNL A   1      42.337  22.811  28.157  1.00  0.00     0.173 A 
ATOM     42  F   UNL A   1      43.717  25.370  25.972  1.00  0.00    -0.203 F 
ATOM     43  C   UNL A   1      43.193  23.118  25.536  1.00  0.00     0.198 A 
ATOM     44  C   UNL A   1      42.302  21.730  27.278  1.00  0.00     0.198 A 
ATOM     45  F   UNL A   1      41.908  22.629  29.415  1.00  0.00    -0.203 F 
ATOM     46  F   UNL A   1      43.574  23.280  24.260  1.00  0.00    -0.200 F 
ATOM     47  C   UNL A   1      42.722  21.887  25.967  1.00  0.00     0.200 A 
ATOM     48  F   UNL A   1      41.858  20.539  27.700  1.00  0.00    -0.200 F 
ATOM     49  F   UNL A   1      42.664  20.854  25.115  1.00  0.00    -0.200 F 
ENDBRANCH  25  39
BRANCH  26  50
ATOM     50  C   UNL A   1      42.750  31.645  34.251  1.00  0.00     0.064 A 
ATOM     51  C   UNL A   1      42.107  31.500  35.486  1.00  0.00     0.173 A 
ATOM     52  C   UNL A   1      43.389  32.865  33.984  1.00  0.00     0.173 A 
ATOM     53  F   UNL A   1      41.466  30.359  35.779  1.00  0.00    -0.203 F 
ATOM     54  C   UNL A   1      42.094  32.539  36.415  1.00  0.00     0.198 A 
ATOM     55  C   UNL A   1      43.402  33.892  34.925  1.00  0.00     0.198 A 
ATOM     56  F   UNL A   1      44.025  33.050  32.818  1.00  0.00    -0.203 F 
ATOM     57  F   UNL A   1      41.440  32.389  37.575  1.00  0.00    -0.200 F 
ATOM     58  C   UNL A   1      42.748  33.730  36.138  1.00  0.00     0.200 A 
ATOM     59  F   UNL A   1      44.051  35.033  34.659  1.00  0.00    -0.200 F 
ATOM     60  F   UNL A   1      42.745  34.724  37.036  1.00  0.00    -0.200 F 
ENDBRANCH  26  50
BRANCH  38  61
ATOM     61  C   UNL A   1      47.307  26.569  32.806  1.00  0.00     0.064 A 
ATOM     62  C   UNL A   1      47.458  25.656  33.860  1.00  0.00     0.173 A 
ATOM     63  C   UNL A   1      48.467  27.136  32.257  1.00  0.00     0.173 A 
ATOM     64  F   UNL A   1      46.379  25.099  34.430  1.00  0.00    -0.203 F 
ATOM     65  C   UNL A   1      48.720  25.341  34.358  1.00  0.00     0.198 A 
ATOM     66  C   UNL A   1      49.729  26.796  32.737  1.00  0.00     0.198 A 
ATOM     67  F   UNL A   1      48.378  28.013  31.245  1.00  0.00    -0.203 F 
ATOM     68  F   UNL A   1      48.837  24.501  35.397  1.00  0.00    -0.200 F 
ATOM     69  C   UNL A   1      49.853  25.904  33.792  1.00  0.00     0.200 A 
ATOM     70  F   UNL A   1      50.823  27.331  32.180  1.00  0.00    -0.200 F 
ATOM     71  F   UNL A   1      51.067  25.594  34.268  1.00  0.00    -0.200 F 
ENDBRANCH  38  61
ENDBRANCH  12  13
ENDBRANCH   5   7
ENDBRANCH   2   3
ENDBRANCH   1   2
BRANCH   1  72
ATOM     72  C   UNL A   1      34.060  34.906  29.516  1.00  0.00     0.117 C 
BRANCH  72  73
ATOM     73  N   UNL A   1      33.655  34.080  30.639  1.00  0.00    -0.356 N 
ATOM     74  C   UNL A   1      34.382  33.579  31.675  1.00  0.00     0.223 C 
ATOM     75  H   UNL A   1      32.699  33.844  30.654  1.00  0.00     0.163 HD
ATOM     76  O   UNL A   1      33.784  32.922  32.525  1.00  0.00    -0.275 OA
BRANCH  74  77
ATOM     77  C   UNL A   1      35.883  33.840  31.747  1.00  0.00     0.082 C 
ATOM     78  C   UNL A   1      36.687  32.536  31.788  1.00  0.00     0.035 C 
ATOM     79  C   UNL A   1      36.241  34.728  32.948  1.00  0.00     0.035 C 
ATOM     80  C   UNL A   1      36.576  31.831  33.138  1.00  0.00     0.120 C 
ATOM     81  C   UNL A   1      36.209  33.988  34.283  1.00  0.00     0.120 C 
ATOM     82  N   UNL A   1      36.954  32.728  34.223  1.00  0.00    -0.339 N 
ATOM     83  C   UNL A   1      37.892  32.289  35.154  1.00  0.00     0.255 C 
ATOM     84  O   UNL A   1      38.430  31.185  35.133  1.00  0.00    -0.269 OA
BRANCH  83  85
ATOM     85  C   UNL A   1      38.278  33.196  36.247  1.00  0.00     0.060 A 
ATOM     86  C   UNL A   1      37.824  32.938  37.530  1.00  0.00     0.038 A 
ATOM     87  C   UNL A   1      39.100  34.287  36.025  1.00  0.00     0.055 A 
ATOM     88  C   UNL A   1      38.138  33.833  38.577  1.00  0.00     0.102 A 
ATOM     89  C   UNL A   1      39.435  35.170  37.087  1.00  0.00     0.043 A 
ATOM     90  Cl  UNL A   1      39.706  34.663  34.446  1.00  0.00    -0.083 Cl
ATOM     91  C   UNL A   1      38.956  35.069  38.485  1.00  0.00     0.062 A 
ATOM     92  Cl  UNL A   1      39.370  36.614  40.259  1.00  0.00    -0.083 Cl
BRANCH  88  93
ATOM     93  S   UNL A   1      37.419  33.414  40.093  1.00  0.00     0.244 S 
ATOM     94  O   UNL A   1      37.898  34.329  41.103  1.00  0.00    -0.207 OA
ATOM     95  O   UNL A   1      36.039  33.062  39.886  1.00  0.00    -0.207 OA
BRANCH  93  96
ATOM     96  N   UNL A   1      38.406  32.087  39.975  1.00  0.00    -0.193 NA
ATOM     97  C   UNL A   1      37.405  30.657  40.849  1.00  0.00     0.131 C 
ATOM     98  C   UNL A   1      40.086  32.670  40.780  1.00  0.00     0.131 C 
ATOM     99  C   UNL A   1      38.172  29.818  42.413  1.00  0.00     0.177 C 
ATOM    100  C   UNL A   1      40.728  31.737  42.348  1.00  0.00     0.177 C 
ATOM    101  O   UNL A   1      39.824  30.300  43.013  1.00  0.00    -0.379 OA
ENDBRANCH  93  96
ENDBRANCH  88  93
ENDBRANCH  83  85
ENDBRANCH  74  77
ENDBRANCH  72  73
ENDBRANCH   1  72
TORSDOF 13
ENDMDL
MODEL 3
REMARK VINA RESULT:     -11.5      5.132     11.499
REMARK SMILES O=C(NCCCNC(=O)C1CCN(C(=O)c2cc(S(=O)(=O)N3CCOCC3)c(Cl)cc2Cl)CC1)c1ccc(-c2c3nc(c(-c4c(F)c(F)c(F)c(F)c4F)c4ccc([nH]4)c(-c4c(F)c(F)c(F)c(F)c4F)c4nc(c(-c5c(F)c(F)c(F)c(F)c5F)c5ccc2[nH]5)C=C4)C=C3)cc1
REMARK SMILES IDX 5 1 4 2 3 3 1 4 2 5 35 7 36 8 97 9 37 10 96 11 38 12 39 13
REMARK SMILES IDX 40 14 90 15 41 16 95 17 89 18 91 19 42 20 94 21 88 22 87 23
REMARK SMILES IDX 43 25 75 26 55 27 74 28 56 29 59 30 73 31 92 32 57 33 58 34
REMARK SMILES IDX 72 36 93 37 60 38 44 39 45 40 53 41 46 42 47 43 51 44 54 45
REMARK SMILES IDX 48 46 49 47 52 48 50 49 76 50 77 51 85 52 78 53 79 54 83 55
REMARK SMILES IDX 86 56 80 57 81 58 84 59 82 60 61 61 62 62 70 63 63 64 64 65
REMARK SMILES IDX 68 66 71 67 65 68 66 69 69 70 67 71 6 72 7 73 8 74 9 76
REMARK SMILES IDX 10 77 11 78 34 79 12 80 33 81 13 82 14 83 15 84 16 85 17 86
REMARK SMILES IDX 31 87 18 88 30 89 32 90 28 91 29 92 19 93 20 94 21 95 22 96
REMARK SMILES IDX 23 97 27 98 24 99 26 100 25 101
REMARK H PARENT 3 6 91 24 59 35 7 75
REMARK Flexibility Score: inf
ROOT
ATOM      1  C   UNL A   1      41.651  21.159  26.156  1.00  0.00     0.042 C 
ENDROOT
BRANCH   1   2
ATOM      2  C   UNL A   1      40.698  22.068  26.924  1.00  0.00     0.118 C 
BRANCH   2   3
ATOM      3  N   UNL A   1      39.557  22.495  26.126  1.00  0.00    -0.352 N 
ATOM      4  O   UNL A   1      37.778  23.739  25.537  1.00  0.00    -0.269 OA
ATOM      5  C   UNL A   1      38.815  23.648  26.187  1.00  0.00     0.251 C 
ATOM      6  H   UNL A   1      39.273  21.856  25.433  1.00  0.00     0.163 HD
BRANCH   5   7
ATOM      7  C   UNL A   1      39.240  24.775  27.048  1.00  0.00     0.039 A 
ATOM      8  C   UNL A   1      38.887  24.829  28.398  1.00  0.00     0.014 A 
ATOM      9  C   UNL A   1      40.043  25.778  26.497  1.00  0.00     0.014 A 
ATOM     10  C   UNL A   1      39.208  25.951  29.155  1.00  0.00     0.010 A 
ATOM     11  C   UNL A   1      40.440  26.863  27.284  1.00  0.00     0.010 A 
ATOM     12  C   UNL A   1      39.998  26.976  28.611  1.00  0.00    -0.014 A 
BRANCH  12  13
ATOM     13  C   UNL A   1      40.394  28.131  29.455  1.00  0.00     0.031 A 
ATOM     14  C   UNL A   1      41.754  28.193  30.093  1.00  0.00     0.074 A 
ATOM     15  C   UNL A   1      39.516  29.134  29.643  1.00  0.00     0.049 A 
ATOM     16  N   UNL A   1      42.257  29.111  30.881  1.00  0.00    -0.248 NA
ATOM     17  C   UNL A   1      42.666  27.073  29.818  1.00  0.00     0.031 C 
ATOM     18  C   UNL A   1      38.164  29.185  29.082  1.00  0.00     0.029 A 
ATOM     19  N   UNL A   1      39.624  30.303  30.352  1.00  0.00    -0.354 N 
ATOM     20  C   UNL A   1      43.533  28.673  31.210  1.00  0.00     0.074 A 
ATOM     21  C   UNL A   1      43.717  27.391  30.560  1.00  0.00     0.031 C 
ATOM     22  C   UNL A   1      37.581  30.336  29.443  1.00  0.00     0.029 A 
ATOM     23  C   UNL A   1      38.491  31.077  30.310  1.00  0.00     0.049 A 
ATOM     24  H   UNL A   1      40.437  30.563  30.844  1.00  0.00     0.167 HD
ATOM     25  C   UNL A   1      44.466  29.288  31.977  1.00  0.00     0.037 A 
ATOM     26  C   UNL A   1      38.204  32.241  30.920  1.00  0.00     0.037 A 
ATOM     27  C   UNL A   1      44.278  30.567  32.612  1.00  0.00     0.049 A 
ATOM     28  C   UNL A   1      39.243  32.885  31.793  1.00  0.00     0.074 A 
ATOM     29  C   UNL A   1      45.175  31.292  33.379  1.00  0.00     0.029 A 
ATOM     30  N   UNL A   1      43.107  31.312  32.562  1.00  0.00    -0.354 N 
ATOM     31  N   UNL A   1      40.458  32.479  32.068  1.00  0.00    -0.248 NA
ATOM     32  C   UNL A   1      38.869  34.147  32.443  1.00  0.00     0.031 C 
ATOM     33  C   UNL A   1      44.531  32.447  33.836  1.00  0.00     0.029 A 
ATOM     34  C   UNL A   1      43.251  32.473  33.305  1.00  0.00     0.049 A 
ATOM     35  H   UNL A   1      42.294  31.053  32.071  1.00  0.00     0.167 HD
ATOM     36  C   UNL A   1      41.004  33.445  32.900  1.00  0.00     0.074 A 
ATOM     37  C   UNL A   1      39.990  34.466  33.074  1.00  0.00     0.031 C 
ATOM     38  C   UNL A   1      42.234  33.483  33.467  1.00  0.00     0.037 A 
BRANCH  25  39
ATOM     39  C   UNL A   1      45.771  28.575  32.193  1.00  0.00     0.064 A 
ATOM     40  C   UNL A   1      46.862  28.749  31.330  1.00  0.00     0.173 A 
ATOM     41  C   UNL A   1      45.943  27.731  33.301  1.00  0.00     0.173 A 
ATOM     42  F   UNL A   1      46.749  29.537  30.249  1.00  0.00    -0.203 F 
ATOM     43  C   UNL A   1      48.065  28.082  31.550  1.00  0.00     0.198 A 
ATOM     44  C   UNL A   1      47.157  27.090  33.536  1.00  0.00     0.198 A 
ATOM     45  F   UNL A   1      44.935  27.533  34.164  1.00  0.00    -0.203 F 
ATOM     46  F   UNL A   1      49.077  28.226  30.681  1.00  0.00    -0.200 F 
ATOM     47  C   UNL A   1      48.214  27.260  32.655  1.00  0.00     0.200 A 
ATOM     48  F   UNL A   1      47.303  26.306  34.612  1.00  0.00    -0.200 F 
ATOM     49  F   UNL A   1      49.373  26.622  32.868  1.00  0.00    -0.200 F 
ENDBRANCH  25  39
BRANCH  26  50
ATOM     50  C   UNL A   1      36.870  32.863  30.721  1.00  0.00     0.064 A 
ATOM     51  C   UNL A   1      35.865  32.740  31.688  1.00  0.00     0.173 A 
ATOM     52  C   UNL A   1      36.583  33.613  29.570  1.00  0.00     0.173 A 
ATOM     53  F   UNL A   1      36.086  32.018  32.797  1.00  0.00    -0.203 F 
ATOM     54  C   UNL A   1      34.617  33.334  31.508  1.00  0.00     0.198 A 
ATOM     55  C   UNL A   1      35.346  34.231  29.404  1.00  0.00     0.198 A 
ATOM     56  F   UNL A   1      37.514  33.765  28.618  1.00  0.00    -0.203 F 
ATOM     57  F   UNL A   1      33.661  33.171  32.431  1.00  0.00    -0.200 F 
ATOM     58  C   UNL A   1      34.362  34.086  30.371  1.00  0.00     0.200 A 
ATOM     59  F   UNL A   1      35.111  34.971  28.312  1.00  0.00    -0.200 F 
ATOM     60  F   UNL A   1      33.166  34.667  30.203  1.00  0.00    -0.200 F 
ENDBRANCH  26  50
BRANCH  38  61
ATOM     61  C   UNL A   1      42.569  34.687  34.300  1.00  0.00     0.064 A 
ATOM     62  C   UNL A   1      43.021  35.882  33.721  1.00  0.00     0.173 A 
ATOM     63  C   UNL A   1      42.401  34.653  35.692  1.00  0.00     0.173 A 
ATOM     64  F   UNL A   1      43.214  35.960  32.396  1.00  0.00    -0.203 F 
ATOM     65  C   UNL A   1      43.315  36.992  34.510  1.00  0.00     0.198 A 
ATOM     66  C   UNL A   1      42.667  35.774  36.475  1.00  0.00     0.198 A 
ATOM     67  F   UNL A   1      41.968  33.535  36.295  1.00  0.00    -0.203 F 
ATOM     68  F   UNL A   1      43.791  38.109  33.941  1.00  0.00    -0.200 F 
ATOM     69  C   UNL A   1      43.130  36.939  35.883  1.00  0.00     0.200 A 
ATOM     70  F   UNL A   1      42.476  35.725  37.799  1.00  0.00    -0.200 F 
ATOM     71  F   UNL A   1      43.407  38.011  36.639  1.00  0.00    -0.200 F 
ENDBRANCH  38  61
ENDBRANCH  12  13
ENDBRANCH   5   7
ENDBRANCH   2   3
ENDBRANCH   1   2
BRANCH   1  72
ATOM     72  C   UNL A   1      42.914  21.853  25.657  1.00  0.00     0.117 C 
BRANCH  72  73
ATOM     73  N   UNL A   1      43.883  22.054  26.720  1.00  0.00    -0.356 N 
ATOM     74  C   UNL A   1      44.363  23.202  27.272  1.00  0.00     0.223 C 
ATOM     75  H   UNL A   1      44.253  21.226  27.103  1.00  0.00     0.163 HD
ATOM     76  O   UNL A   1      45.170  23.096  28.194  1.00  0.00    -0.275 OA
BRANCH  74  77
ATOM     77  C   UNL A   1      43.898  24.554  26.740  1.00  0.00     0.082 C 
ATOM     78  C   UNL A   1      44.216  24.720  25.250  1.00  0.00     0.035 C 
ATOM     79  C   UNL A   1      44.501  25.712  27.549  1.00  0.00     0.035 C 
ATOM     80  C   UNL A   1      45.705  24.945  24.999  1.00  0.00     0.120 C 
ATOM     81  C   UNL A   1      45.970  25.981  27.224  1.00  0.00     0.120 C 
ATOM     82  N   UNL A   1      46.198  26.073  25.781  1.00  0.00    -0.339 N 
ATOM     83  C   UNL A   1      46.919  27.070  25.130  1.00  0.00     0.255 C 
ATOM     84  O   UNL A   1      47.180  27.070  23.930  1.00  0.00    -0.269 OA
BRANCH  83  85
ATOM     85  C   UNL A   1      47.414  28.210  25.918  1.00  0.00     0.060 A 
ATOM     86  C   UNL A   1      46.680  29.384  25.941  1.00  0.00     0.038 A 
ATOM     87  C   UNL A   1      48.583  28.127  26.653  1.00  0.00     0.055 A 
ATOM     88  C   UNL A   1      47.172  30.505  26.645  1.00  0.00     0.102 A 
ATOM     89  C   UNL A   1      49.062  29.250  27.382  1.00  0.00     0.043 A 
ATOM     90  Cl  UNL A   1      49.546  26.687  26.673  1.00  0.00    -0.083 Cl
ATOM     91  C   UNL A   1      48.431  30.589  27.430  1.00  0.00     0.062 A 
ATOM     92  Cl  UNL A   1      49.282  32.539  28.515  1.00  0.00    -0.083 Cl
BRANCH  88  93
ATOM     93  S   UNL A   1      46.181  31.915  26.497  1.00  0.00     0.244 S 
ATOM     94  O   UNL A   1      47.034  33.061  26.283  1.00  0.00    -0.207 OA
ATOM     95  O   UNL A   1      45.015  31.597  25.716  1.00  0.00    -0.207 OA
BRANCH  93  96
ATOM     96  N   UNL A   1      45.915  31.662  28.113  1.00  0.00    -0.193 NA
ATOM     97  C   UNL A   1      44.153  30.826  28.191  1.00  0.00     0.131 C 
ATOM     98  C   UNL A   1      46.140  33.429  28.915  1.00  0.00     0.131 C 
ATOM     99  C   UNL A   1      42.740  31.739  29.143  1.00  0.00     0.177 C 
ATOM    100  C   UNL A   1      44.633  34.222  29.833  1.00  0.00     0.177 C 
ATOM    101  O   UNL A   1      43.065  33.309  30.010  1.00  0.00    -0.379 OA
ENDBRANCH  93  96
ENDBRANCH  88  93
ENDBRANCH  83  85
ENDBRANCH  74  77
ENDBRANCH  72  73
ENDBRANCH   1  72
TORSDOF 13
ENDMDL
