MODEL 1
REMARK VINA RESULT:     -11.9      0.000      0.000
REMARK SMILES Cc1nn(C)c(=O)c(C(=O)N2CCCC[C@H]2C(=O)NCCCNC(=O)c2ccc(-c3c4nc(c(-c5c(F)c(F)c(F)c(F)c5F)c5ccc([nH]5)c(-c5c(F)c(F)c(F)c(F)c5F)c5nc(c(-c6c(F)c(F)c(F)c(F)c6F)c6ccc3[nH]6)C=C5)C=C4)cc2)c1C
REMARK SMILES IDX 21 1 20 2 19 3 17 4 18 5 16 7 11 8 12 9 13 10 15 11 14 12
REMARK SMILES IDX 9 13 10 14 8 15 1 16 2 17 3 18 89 19 4 20 90 21 5 22 6 23
REMARK SMILES IDX 7 24 22 25 23 26 24 27 25 29 26 30 27 31 88 32 28 33 87 34
REMARK SMILES IDX 29 35 30 36 31 37 81 38 32 39 86 40 80 41 82 42 33 43 85 44
REMARK SMILES IDX 79 45 78 46 34 48 66 49 46 50 65 51 47 52 50 53 64 54 83 55
REMARK SMILES IDX 48 56 49 57 63 59 84 60 51 61 35 62 36 63 44 64 37 65 38 66
REMARK SMILES IDX 42 67 45 68 39 69 40 70 43 71 41 72 67 73 68 74 76 75 69 76
REMARK SMILES IDX 70 77 74 78 77 79 71 80 72 81 75 82 73 83 52 84 53 85 61 86
REMARK SMILES IDX 54 87 55 88 59 89 62 90 56 91 57 92 60 93 58 94
REMARK H PARENT 19 6 23 28 82 47 50 58
REMARK Flexibility Score: inf
ROOT
ATOM      1  C   UNL A   1      33.864  33.864  28.167  1.00  0.00     0.042 C 
ENDROOT
BRANCH   1   2
ATOM      2  C   UNL A   1      34.617  35.188  28.165  1.00  0.00     0.117 C 
BRANCH   2   3
ATOM      3  N   UNL A   1      33.941  36.268  28.877  1.00  0.00    -0.354 N 
ATOM      4  C   UNL A   1      33.403  36.420  30.120  1.00  0.00     0.242 C 
ATOM      5  O   UNL A   1      32.874  37.523  30.320  1.00  0.00    -0.273 OA
ATOM      6  H   UNL A   1      33.854  37.082  28.329  1.00  0.00     0.163 HD
BRANCH   4   7
ATOM      7  C   UNL A   1      33.287  35.300  31.217  1.00  0.00     0.174 C 
ATOM      8  N   UNL A   1      34.512  34.911  31.915  1.00  0.00    -0.326 N 
ATOM      9  C   UNL A   1      34.988  35.901  32.923  1.00  0.00     0.120 C 
ATOM     10  C   UNL A   1      33.914  36.517  33.817  1.00  0.00     0.022 C 
ATOM     11  C   UNL A   1      32.197  35.752  32.213  1.00  0.00     0.035 C 
ATOM     12  C   UNL A   1      32.681  36.938  33.037  1.00  0.00     0.004 C 
BRANCH   8  13
ATOM     13  C   UNL A   1      35.395  33.876  31.577  1.00  0.00     0.260 C 
ATOM     14  O   UNL A   1      34.887  32.808  31.190  1.00  0.00    -0.269 OA
BRANCH  13  15
ATOM     15  C   UNL A   1      36.931  33.826  31.683  1.00  0.00     0.111 A 
ATOM     16  C   UNL A   1      40.365  34.774  30.262  1.00  0.00     0.069 C 
ATOM     17  C   UNL A   1      39.266  34.418  31.251  1.00  0.00     0.062 A 
ATOM     18  N   UNL A   1      39.579  34.603  32.487  1.00  0.00    -0.175 NA
ATOM     19  C   UNL A   1      37.903  34.005  30.753  1.00  0.00    -0.010 A 
ATOM     20  N   UNL A   1      38.648  34.310  33.423  1.00  0.00    -0.232 N 
ATOM     21  C   UNL A   1      37.792  34.053  29.270  1.00  0.00     0.047 C 
ATOM     22  C   UNL A   1      39.092  34.504  34.794  1.00  0.00     0.178 C 
ATOM     23  C   UNL A   1      37.404  33.767  33.133  1.00  0.00     0.279 A 
ATOM     24  O   UNL A   1      36.704  33.240  33.998  1.00  0.00    -0.267 OA
ENDBRANCH  13  15
ENDBRANCH   8  13
ENDBRANCH   4   7
ENDBRANCH   2   3
ENDBRANCH   1   2
BRANCH   1  25
ATOM     25  C   UNL A   1      34.759  32.670  27.905  1.00  0.00     0.118 C 
BRANCH  25  26
ATOM     26  N   UNL A   1      33.998  31.431  27.839  1.00  0.00    -0.352 N 
ATOM     27  C   UNL A   1      34.426  30.125  27.807  1.00  0.00     0.251 C 
ATOM     28  H   UNL A   1      33.021  31.546  27.813  1.00  0.00     0.163 HD
ATOM     29  O   UNL A   1      33.654  29.244  27.447  1.00  0.00    -0.269 OA
BRANCH  27  30
ATOM     30  C   UNL A   1      35.811  29.780  28.191  1.00  0.00     0.039 A 
ATOM     31  C   UNL A   1      36.079  29.359  29.497  1.00  0.00     0.014 A 
ATOM     32  C   UNL A   1      36.859  29.917  27.280  1.00  0.00     0.014 A 
ATOM     33  C   UNL A   1      37.384  29.027  29.865  1.00  0.00     0.010 A 
ATOM     34  C   UNL A   1      38.130  29.465  27.607  1.00  0.00     0.010 A 
ATOM     35  C   UNL A   1      38.416  29.048  28.912  1.00  0.00    -0.014 A 
BRANCH  35  36
ATOM     36  C   UNL A   1      39.815  28.705  29.262  1.00  0.00     0.031 A 
ATOM     37  C   UNL A   1      40.596  29.609  30.178  1.00  0.00     0.074 A 
ATOM     38  C   UNL A   1      40.398  27.621  28.720  1.00  0.00     0.049 A 
ATOM     39  N   UNL A   1      41.851  29.539  30.543  1.00  0.00    -0.248 NA
ATOM     40  C   UNL A   1      39.878  30.772  30.729  1.00  0.00     0.031 C 
ATOM     41  C   UNL A   1      39.755  26.687  27.794  1.00  0.00     0.029 A 
ATOM     42  N   UNL A   1      41.665  27.117  28.873  1.00  0.00    -0.354 N 
ATOM     43  C   UNL A   1      42.068  30.645  31.354  1.00  0.00     0.074 A 
ATOM     44  C   UNL A   1      40.847  31.418  31.356  1.00  0.00     0.031 C 
ATOM     45  C   UNL A   1      40.612  25.696  27.505  1.00  0.00     0.029 A 
ATOM     46  C   UNL A   1      41.878  25.946  28.187  1.00  0.00     0.049 A 
ATOM     47  H   UNL A   1      42.357  27.553  29.422  1.00  0.00     0.167 HD
ATOM     48  C   UNL A   1      43.169  30.964  32.073  1.00  0.00     0.037 A 
ATOM     49  C   UNL A   1      42.970  25.162  28.126  1.00  0.00     0.037 A 
ATOM     50  C   UNL A   1      44.373  30.178  32.088  1.00  0.00     0.049 A 
ATOM     51  C   UNL A   1      44.200  25.560  28.894  1.00  0.00     0.074 A 
ATOM     52  C   UNL A   1      45.540  30.398  32.795  1.00  0.00     0.029 A 
ATOM     53  N   UNL A   1      44.557  29.010  31.359  1.00  0.00    -0.354 N 
ATOM     54  N   UNL A   1      44.385  26.590  29.685  1.00  0.00    -0.248 NA
ATOM     55  C   UNL A   1      45.375  24.688  28.759  1.00  0.00     0.031 C 
ATOM     56  C   UNL A   1      46.446  29.385  32.463  1.00  0.00     0.029 A 
ATOM     57  C   UNL A   1      45.827  28.508  31.587  1.00  0.00     0.049 A 
ATOM     58  H   UNL A   1      43.885  28.600  30.767  1.00  0.00     0.167 HD
ATOM     59  C   UNL A   1      45.685  26.478  30.161  1.00  0.00     0.074 A 
ATOM     60  C   UNL A   1      46.238  25.271  29.579  1.00  0.00     0.031 C 
ATOM     61  C   UNL A   1      46.357  27.302  31.001  1.00  0.00     0.037 A 
BRANCH  48  62
ATOM     62  C   UNL A   1      43.104  32.204  32.920  1.00  0.00     0.064 A 
ATOM     63  C   UNL A   1      43.371  33.472  32.378  1.00  0.00     0.173 A 
ATOM     64  C   UNL A   1      42.760  32.132  34.277  1.00  0.00     0.173 A 
ATOM     65  F   UNL A   1      43.720  33.595  31.088  1.00  0.00    -0.203 F 
ATOM     66  C   UNL A   1      43.334  34.615  33.172  1.00  0.00     0.198 A 
ATOM     67  C   UNL A   1      42.689  33.281  35.060  1.00  0.00     0.198 A 
ATOM     68  F   UNL A   1      42.491  30.947  34.846  1.00  0.00    -0.203 F 
ATOM     69  F   UNL A   1      43.657  35.804  32.646  1.00  0.00    -0.200 F 
ATOM     70  C   UNL A   1      42.987  34.519  34.511  1.00  0.00     0.200 A 
ATOM     71  F   UNL A   1      42.341  33.190  36.351  1.00  0.00    -0.200 F 
ATOM     72  F   UNL A   1      42.949  35.621  35.274  1.00  0.00    -0.200 F 
ENDBRANCH  48  62
BRANCH  49  73
ATOM     73  C   UNL A   1      42.914  23.889  27.363  1.00  0.00     0.064 A 
ATOM     74  C   UNL A   1      43.316  23.849  26.021  1.00  0.00     0.173 A 
ATOM     75  C   UNL A   1      42.511  22.685  27.959  1.00  0.00     0.173 A 
ATOM     76  F   UNL A   1      43.692  24.978  25.402  1.00  0.00    -0.203 F 
ATOM     77  C   UNL A   1      43.316  22.655  25.303  1.00  0.00     0.198 A 
ATOM     78  C   UNL A   1      42.534  21.487  27.248  1.00  0.00     0.198 A 
ATOM     79  F   UNL A   1      42.122  22.669  29.243  1.00  0.00    -0.203 F 
ATOM     80  F   UNL A   1      43.682  22.650  24.014  1.00  0.00    -0.200 F 
ATOM     81  C   UNL A   1      42.934  21.473  25.920  1.00  0.00     0.200 A 
ATOM     82  F   UNL A   1      42.178  20.344  27.851  1.00  0.00    -0.200 F 
ATOM     83  F   UNL A   1      42.950  20.322  25.234  1.00  0.00    -0.200 F 
ENDBRANCH  49  73
BRANCH  61  84
ATOM     84  C   UNL A   1      47.765  26.925  31.362  1.00  0.00     0.064 A 
ATOM     85  C   UNL A   1      48.036  25.994  32.375  1.00  0.00     0.173 A 
ATOM     86  C   UNL A   1      48.847  27.437  30.630  1.00  0.00     0.173 A 
ATOM     87  F   UNL A   1      47.035  25.486  33.111  1.00  0.00    -0.203 F 
ATOM     88  C   UNL A   1      49.341  25.598  32.650  1.00  0.00     0.198 A 
ATOM     89  C   UNL A   1      50.148  27.016  30.888  1.00  0.00     0.198 A 
ATOM     90  F   UNL A   1      48.639  28.322  29.645  1.00  0.00    -0.203 F 
ATOM     91  F   UNL A   1      49.580  24.732  33.644  1.00  0.00    -0.200 F 
ATOM     92  C   UNL A   1      50.394  26.100  31.900  1.00  0.00     0.200 A 
ATOM     93  F   UNL A   1      51.162  27.487  30.151  1.00  0.00    -0.200 F 
ATOM     94  F   UNL A   1      51.648  25.701  32.154  1.00  0.00    -0.200 F 
ENDBRANCH  61  84
ENDBRANCH  35  36
ENDBRANCH  27  30
ENDBRANCH  25  26
ENDBRANCH   1  25
TORSDOF 12
ENDMDL
MODEL 2
REMARK VINA RESULT:     -11.8      4.315      7.725
REMARK SMILES Cc1nn(C)c(=O)c(C(=O)N2CCCC[C@H]2C(=O)NCCCNC(=O)c2ccc(-c3c4nc(c(-c5c(F)c(F)c(F)c(F)c5F)c5ccc([nH]5)c(-c5c(F)c(F)c(F)c(F)c5F)c5nc(c(-c6c(F)c(F)c(F)c(F)c6F)c6ccc3[nH]6)C=C5)C=C4)cc2)c1C
REMARK SMILES IDX 21 1 20 2 19 3 17 4 18 5 16 7 11 8 12 9 13 10 15 11 14 12
REMARK SMILES IDX 9 13 10 14 8 15 1 16 2 17 3 18 89 19 4 20 90 21 5 22 6 23
REMARK SMILES IDX 7 24 22 25 23 26 24 27 25 29 26 30 27 31 88 32 28 33 87 34
REMARK SMILES IDX 29 35 30 36 31 37 81 38 32 39 86 40 80 41 82 42 33 43 85 44
REMARK SMILES IDX 79 45 78 46 34 48 66 49 46 50 65 51 47 52 50 53 64 54 83 55
REMARK SMILES IDX 48 56 49 57 63 59 84 60 51 61 35 62 36 63 44 64 37 65 38 66
REMARK SMILES IDX 42 67 45 68 39 69 40 70 43 71 41 72 67 73 68 74 76 75 69 76
REMARK SMILES IDX 70 77 74 78 77 79 71 80 72 81 75 82 73 83 52 84 53 85 61 86
REMARK SMILES IDX 54 87 55 88 59 89 62 90 56 91 57 92 60 93 58 94
REMARK H PARENT 19 6 23 28 82 47 50 58
REMARK Flexibility Score: inf
ROOT
ATOM      1  C   UNL A   1      31.776  29.094  26.134  1.00  0.00     0.042 C 
ENDROOT
BRANCH   1   2
ATOM      2  C   UNL A   1      31.973  28.042  27.218  1.00  0.00     0.117 C 
BRANCH   2   3
ATOM      3  N   UNL A   1      31.053  26.911  27.137  1.00  0.00    -0.354 N 
ATOM      4  C   UNL A   1      31.041  25.719  26.477  1.00  0.00     0.242 C 
ATOM      5  O   UNL A   1      30.019  25.041  26.660  1.00  0.00    -0.273 OA
ATOM      6  H   UNL A   1      30.250  27.042  27.691  1.00  0.00     0.163 HD
BRANCH   4   7
ATOM      7  C   UNL A   1      32.116  25.228  25.441  1.00  0.00     0.174 C 
ATOM      8  N   UNL A   1      32.145  23.800  25.125  1.00  0.00    -0.326 N 
ATOM      9  C   UNL A   1      31.032  23.342  24.245  1.00  0.00     0.120 C 
ATOM     10  C   UNL A   1      30.694  24.248  23.063  1.00  0.00     0.022 C 
ATOM     11  C   UNL A   1      31.937  26.078  24.165  1.00  0.00     0.035 C 
ATOM     12  C   UNL A   1      30.640  25.715  23.454  1.00  0.00     0.004 C 
BRANCH   8  13
ATOM     13  C   UNL A   1      32.919  22.805  25.738  1.00  0.00     0.260 C 
ATOM     14  O   UNL A   1      32.610  22.489  26.901  1.00  0.00    -0.269 OA
BRANCH  13  15
ATOM     15  C   UNL A   1      34.169  22.075  25.212  1.00  0.00     0.111 A 
ATOM     16  C   UNL A   1      37.964  21.533  25.331  1.00  0.00     0.069 C 
ATOM     17  C   UNL A   1      36.479  21.267  25.146  1.00  0.00     0.062 A 
ATOM     18  N   UNL A   1      36.172  20.025  25.000  1.00  0.00    -0.175 NA
ATOM     19  C   UNL A   1      35.487  22.398  25.259  1.00  0.00    -0.010 A 
ATOM     20  N   UNL A   1      34.866  19.713  24.833  1.00  0.00    -0.232 N 
ATOM     21  C   UNL A   1      36.127  23.694  25.609  1.00  0.00     0.047 C 
ATOM     22  C   UNL A   1      34.607  18.296  24.630  1.00  0.00     0.178 C 
ATOM     23  C   UNL A   1      33.851  20.655  24.749  1.00  0.00     0.279 A 
ATOM     24  O   UNL A   1      32.736  20.377  24.307  1.00  0.00    -0.267 OA
ENDBRANCH  13  15
ENDBRANCH   8  13
ENDBRANCH   4   7
ENDBRANCH   2   3
ENDBRANCH   1   2
BRANCH   1  25
ATOM     25  C   UNL A   1      33.021  29.918  25.872  1.00  0.00     0.118 C 
BRANCH  25  26
ATOM     26  N   UNL A   1      32.831  31.313  26.243  1.00  0.00    -0.352 N 
ATOM     27  C   UNL A   1      33.404  32.050  27.252  1.00  0.00     0.251 C 
ATOM     28  H   UNL A   1      32.190  31.806  25.683  1.00  0.00     0.163 HD
ATOM     29  O   UNL A   1      32.893  33.112  27.589  1.00  0.00    -0.269 OA
BRANCH  27  30
ATOM     30  C   UNL A   1      34.620  31.566  27.938  1.00  0.00     0.039 A 
ATOM     31  C   UNL A   1      35.711  32.427  28.095  1.00  0.00     0.014 A 
ATOM     32  C   UNL A   1      34.710  30.247  28.383  1.00  0.00     0.014 A 
ATOM     33  C   UNL A   1      36.861  31.977  28.746  1.00  0.00     0.010 A 
ATOM     34  C   UNL A   1      35.799  29.841  29.142  1.00  0.00     0.010 A 
ATOM     35  C   UNL A   1      36.902  30.689  29.303  1.00  0.00    -0.014 A 
BRANCH  35  36
ATOM     36  C   UNL A   1      38.104  30.172  29.999  1.00  0.00     0.031 A 
ATOM     37  C   UNL A   1      38.409  30.630  31.400  1.00  0.00     0.074 A 
ATOM     38  C   UNL A   1      38.947  29.340  29.360  1.00  0.00     0.049 A 
ATOM     39  N   UNL A   1      39.445  30.368  32.154  1.00  0.00    -0.248 NA
ATOM     40  C   UNL A   1      37.431  31.538  32.026  1.00  0.00     0.031 C 
ATOM     41  C   UNL A   1      38.776  28.851  27.991  1.00  0.00     0.029 A 
ATOM     42  N   UNL A   1      40.113  28.754  29.780  1.00  0.00    -0.354 N 
ATOM     43  C   UNL A   1      39.245  31.080  33.329  1.00  0.00     0.074 A 
ATOM     44  C   UNL A   1      38.039  31.857  33.156  1.00  0.00     0.031 C 
ATOM     45  C   UNL A   1      39.772  27.998  27.703  1.00  0.00     0.029 A 
ATOM     46  C   UNL A   1      40.673  27.913  28.848  1.00  0.00     0.049 A 
ATOM     47  H   UNL A   1      40.513  28.919  30.665  1.00  0.00     0.167 HD
ATOM     48  C   UNL A   1      39.974  31.053  34.469  1.00  0.00     0.037 A 
ATOM     49  C   UNL A   1      41.783  27.155  28.918  1.00  0.00     0.037 A 
ATOM     50  C   UNL A   1      41.160  30.261  34.645  1.00  0.00     0.049 A 
ATOM     51  C   UNL A   1      42.606  27.178  30.177  1.00  0.00     0.074 A 
ATOM     52  C   UNL A   1      41.963  30.144  35.763  1.00  0.00     0.029 A 
ATOM     53  N   UNL A   1      41.708  29.440  33.667  1.00  0.00    -0.354 N 
ATOM     54  N   UNL A   1      42.390  27.829  31.295  1.00  0.00    -0.248 NA
ATOM     55  C   UNL A   1      43.828  26.362  30.183  1.00  0.00     0.031 C 
ATOM     56  C   UNL A   1      43.022  29.284  35.451  1.00  0.00     0.029 A 
ATOM     57  C   UNL A   1      42.850  28.827  34.153  1.00  0.00     0.049 A 
ATOM     58  H   UNL A   1      41.340  29.314  32.763  1.00  0.00     0.167 HD
ATOM     59  C   UNL A   1      43.433  27.484  32.145  1.00  0.00     0.074 A 
ATOM     60  C   UNL A   1      44.273  26.555  31.417  1.00  0.00     0.031 C 
ATOM     61  C   UNL A   1      43.671  27.902  33.412  1.00  0.00     0.037 A 
BRANCH  48  62
ATOM     62  C   UNL A   1      39.486  31.891  35.618  1.00  0.00     0.064 A 
ATOM     63  C   UNL A   1      39.940  33.207  35.805  1.00  0.00     0.173 A 
ATOM     64  C   UNL A   1      38.550  31.385  36.531  1.00  0.00     0.173 A 
ATOM     65  F   UNL A   1      40.847  33.735  34.969  1.00  0.00    -0.203 F 
ATOM     66  C   UNL A   1      39.504  33.970  36.886  1.00  0.00     0.198 A 
ATOM     67  C   UNL A   1      38.090  32.164  37.590  1.00  0.00     0.198 A 
ATOM     68  F   UNL A   1      38.080  30.136  36.399  1.00  0.00    -0.203 F 
ATOM     69  F   UNL A   1      40.002  35.199  37.079  1.00  0.00    -0.200 F 
ATOM     70  C   UNL A   1      38.575  33.450  37.774  1.00  0.00     0.200 A 
ATOM     71  F   UNL A   1      37.183  31.665  38.442  1.00  0.00    -0.200 F 
ATOM     72  F   UNL A   1      38.154  34.187  38.811  1.00  0.00    -0.200 F 
ENDBRANCH  48  62
BRANCH  49  73
ATOM     73  C   UNL A   1      42.131  26.262  27.784  1.00  0.00     0.064 A 
ATOM     74  C   UNL A   1      43.126  26.633  26.869  1.00  0.00     0.173 A 
ATOM     75  C   UNL A   1      41.524  25.009  27.614  1.00  0.00     0.173 A 
ATOM     76  F   UNL A   1      43.722  27.830  26.980  1.00  0.00    -0.203 F 
ATOM     77  C   UNL A   1      43.500  25.788  25.827  1.00  0.00     0.198 A 
ATOM     78  C   UNL A   1      41.915  24.154  26.586  1.00  0.00     0.198 A 
ATOM     79  F   UNL A   1      40.569  24.605  28.466  1.00  0.00    -0.203 F 
ATOM     80  F   UNL A   1      44.437  26.179  24.953  1.00  0.00    -0.200 F 
ATOM     81  C   UNL A   1      42.900  24.545  25.692  1.00  0.00     0.200 A 
ATOM     82  F   UNL A   1      41.344  22.947  26.466  1.00  0.00    -0.200 F 
ATOM     83  F   UNL A   1      43.272  23.725  24.699  1.00  0.00    -0.200 F 
ENDBRANCH  49  73
BRANCH  61  84
ATOM     84  C   UNL A   1      44.881  27.349  34.109  1.00  0.00     0.064 A 
ATOM     85  C   UNL A   1      44.829  26.139  34.815  1.00  0.00     0.173 A 
ATOM     86  C   UNL A   1      46.122  27.993  33.995  1.00  0.00     0.173 A 
ATOM     87  F   UNL A   1      43.662  25.492  34.962  1.00  0.00    -0.203 F 
ATOM     88  C   UNL A   1      45.974  25.600  35.394  1.00  0.00     0.198 A 
ATOM     89  C   UNL A   1      47.270  27.435  34.549  1.00  0.00     0.198 A 
ATOM     90  F   UNL A   1      46.226  29.147  33.320  1.00  0.00    -0.203 F 
ATOM     91  F   UNL A   1      45.895  24.459  36.093  1.00  0.00    -0.200 F 
ATOM     92  C   UNL A   1      47.195  26.242  35.250  1.00  0.00     0.200 A 
ATOM     93  F   UNL A   1      48.453  28.047  34.394  1.00  0.00    -0.200 F 
ATOM     94  F   UNL A   1      48.300  25.709  35.791  1.00  0.00    -0.200 F 
ENDBRANCH  61  84
ENDBRANCH  35  36
ENDBRANCH  27  30
ENDBRANCH  25  26
ENDBRANCH   1  25
TORSDOF 12
ENDMDL
MODEL 3
REMARK VINA RESULT:     -11.7      3.793      7.363
REMARK SMILES Cc1nn(C)c(=O)c(C(=O)N2CCCC[C@H]2C(=O)NCCCNC(=O)c2ccc(-c3c4nc(c(-c5c(F)c(F)c(F)c(F)c5F)c5ccc([nH]5)c(-c5c(F)c(F)c(F)c(F)c5F)c5nc(c(-c6c(F)c(F)c(F)c(F)c6F)c6ccc3[nH]6)C=C5)C=C4)cc2)c1C
REMARK SMILES IDX 21 1 20 2 19 3 17 4 18 5 16 7 11 8 12 9 13 10 15 11 14 12
REMARK SMILES IDX 9 13 10 14 8 15 1 16 2 17 3 18 89 19 4 20 90 21 5 22 6 23
REMARK SMILES IDX 7 24 22 25 23 26 24 27 25 29 26 30 27 31 88 32 28 33 87 34
REMARK SMILES IDX 29 35 30 36 31 37 81 38 32 39 86 40 80 41 82 42 33 43 85 44
REMARK SMILES IDX 79 45 78 46 34 48 66 49 46 50 65 51 47 52 50 53 64 54 83 55
REMARK SMILES IDX 48 56 49 57 63 59 84 60 51 61 35 62 36 63 44 64 37 65 38 66
REMARK SMILES IDX 42 67 45 68 39 69 40 70 43 71 41 72 67 73 68 74 76 75 69 76
REMARK SMILES IDX 70 77 74 78 77 79 71 80 72 81 75 82 73 83 52 84 53 85 61 86
REMARK SMILES IDX 54 87 55 88 59 89 62 90 56 91 57 92 60 93 58 94
REMARK H PARENT 19 6 23 28 82 47 50 58
REMARK Flexibility Score: inf
ROOT
ATOM      1  C   UNL A   1      31.376  33.044  26.127  1.00  0.00     0.042 C 
ENDROOT
BRANCH   1   2
ATOM      2  C   UNL A   1      30.679  31.690  26.110  1.00  0.00     0.117 C 
BRANCH   2   3
ATOM      3  N   UNL A   1      31.085  30.815  25.014  1.00  0.00    -0.354 N 
ATOM      4  C   UNL A   1      31.445  29.506  24.905  1.00  0.00     0.242 C 
ATOM      5  O   UNL A   1      31.763  29.154  23.759  1.00  0.00    -0.273 OA
ATOM      6  H   UNL A   1      31.104  31.283  24.148  1.00  0.00     0.163 HD
BRANCH   4   7
ATOM      7  C   UNL A   1      31.611  28.492  26.095  1.00  0.00     0.174 C 
ATOM      8  N   UNL A   1      32.362  27.265  25.836  1.00  0.00    -0.326 N 
ATOM      9  C   UNL A   1      33.838  27.453  25.741  1.00  0.00     0.120 C 
ATOM     10  C   UNL A   1      34.465  28.374  26.787  1.00  0.00     0.022 C 
ATOM     11  C   UNL A   1      32.218  29.278  27.278  1.00  0.00     0.035 C 
ATOM     12  C   UNL A   1      33.667  29.650  26.989  1.00  0.00     0.004 C 
BRANCH   8  13
ATOM     13  C   UNL A   1      31.854  26.023  25.427  1.00  0.00     0.260 C 
ATOM     14  O   UNL A   1      30.629  25.959  25.219  1.00  0.00    -0.269 OA
BRANCH  13  15
ATOM     15  C   UNL A   1      32.581  24.675  25.261  1.00  0.00     0.111 A 
ATOM     16  C   UNL A   1      35.408  22.627  23.673  1.00  0.00     0.069 C 
ATOM     17  C   UNL A   1      34.357  23.101  24.665  1.00  0.00     0.062 A 
ATOM     18  N   UNL A   1      34.435  22.554  25.829  1.00  0.00    -0.175 NA
ATOM     19  C   UNL A   1      33.408  24.212  24.290  1.00  0.00    -0.010 A 
ATOM     20  N   UNL A   1      33.533  22.930  26.764  1.00  0.00    -0.232 N 
ATOM     21  C   UNL A   1      33.675  24.767  22.936  1.00  0.00     0.047 C 
ATOM     22  C   UNL A   1      33.661  22.237  28.036  1.00  0.00     0.178 C 
ATOM     23  C   UNL A   1      32.496  23.820  26.523  1.00  0.00     0.279 A 
ATOM     24  O   UNL A   1      31.530  23.918  27.280  1.00  0.00    -0.267 OA
ENDBRANCH  13  15
ENDBRANCH   8  13
ENDBRANCH   4   7
ENDBRANCH   2   3
ENDBRANCH   1   2
BRANCH   1  25
ATOM     25  C   UNL A   1      32.383  33.181  27.251  1.00  0.00     0.118 C 
BRANCH  25  26
ATOM     26  N   UNL A   1      32.383  34.523  27.814  1.00  0.00    -0.352 N 
ATOM     27  C   UNL A   1      33.075  35.038  28.886  1.00  0.00     0.251 C 
ATOM     28  H   UNL A   1      31.794  35.164  27.356  1.00  0.00     0.163 HD
ATOM     29  O   UNL A   1      32.713  36.097  29.385  1.00  0.00    -0.269 OA
BRANCH  27  30
ATOM     30  C   UNL A   1      34.239  34.318  29.443  1.00  0.00     0.039 A 
ATOM     31  C   UNL A   1      35.521  34.613  28.969  1.00  0.00     0.014 A 
ATOM     32  C   UNL A   1      34.068  33.316  30.398  1.00  0.00     0.014 A 
ATOM     33  C   UNL A   1      36.626  33.941  29.495  1.00  0.00     0.010 A 
ATOM     34  C   UNL A   1      35.173  32.742  31.011  1.00  0.00     0.010 A 
ATOM     35  C   UNL A   1      36.462  33.021  30.544  1.00  0.00    -0.014 A 
BRANCH  35  36
ATOM     36  C   UNL A   1      37.609  32.284  31.127  1.00  0.00     0.031 A 
ATOM     37  C   UNL A   1      38.083  32.622  32.515  1.00  0.00     0.074 A 
ATOM     38  C   UNL A   1      38.254  31.356  30.397  1.00  0.00     0.049 A 
ATOM     39  N   UNL A   1      39.112  32.159  33.177  1.00  0.00    -0.248 NA
ATOM     40  C   UNL A   1      37.315  33.647  33.245  1.00  0.00     0.031 C 
ATOM     41  C   UNL A   1      37.910  30.965  29.030  1.00  0.00     0.029 A 
ATOM     42  N   UNL A   1      39.334  30.569  30.706  1.00  0.00    -0.354 N 
ATOM     43  C   UNL A   1      39.116  32.839  34.388  1.00  0.00     0.074 A 
ATOM     44  C   UNL A   1      38.046  33.810  34.335  1.00  0.00     0.031 C 
ATOM     45  C   UNL A   1      38.727  29.975  28.638  1.00  0.00     0.029 A 
ATOM     46  C   UNL A   1      39.680  29.692  29.706  1.00  0.00     0.049 A 
ATOM     47  H   UNL A   1      39.817  30.626  31.563  1.00  0.00     0.167 HD
ATOM     48  C   UNL A   1      39.909  32.643  35.467  1.00  0.00     0.037 A 
ATOM     49  C   UNL A   1      40.651  28.761  29.665  1.00  0.00     0.037 A 
ATOM     50  C   UNL A   1      40.956  31.660  35.524  1.00  0.00     0.049 A 
ATOM     51  C   UNL A   1      41.553  28.591  30.857  1.00  0.00     0.074 A 
ATOM     52  C   UNL A   1      41.805  31.362  36.573  1.00  0.00     0.029 A 
ATOM     53  N   UNL A   1      41.290  30.807  34.480  1.00  0.00    -0.354 N 
ATOM     54  N   UNL A   1      41.527  29.217  32.009  1.00  0.00    -0.248 NA
ATOM     55  C   UNL A   1      42.619  27.588  30.742  1.00  0.00     0.031 C 
ATOM     56  C   UNL A   1      42.682  30.357  36.151  1.00  0.00     0.029 A 
ATOM     57  C   UNL A   1      42.346  29.995  34.855  1.00  0.00     0.049 A 
ATOM     58  H   UNL A   1      40.843  30.784  33.603  1.00  0.00     0.167 HD
ATOM     59  C   UNL A   1      42.555  28.668  32.765  1.00  0.00     0.074 A 
ATOM     60  C   UNL A   1      43.177  27.649  31.943  1.00  0.00     0.031 C 
ATOM     61  C   UNL A   1      42.948  28.983  34.023  1.00  0.00     0.037 A 
BRANCH  48  62
ATOM     62  C   UNL A   1      39.648  33.495  36.678  1.00  0.00     0.064 A 
ATOM     63  C   UNL A   1      40.325  34.710  36.874  1.00  0.00     0.173 A 
ATOM     64  C   UNL A   1      38.709  33.106  37.643  1.00  0.00     0.173 A 
ATOM     65  F   UNL A   1      41.246  35.121  35.988  1.00  0.00    -0.203 F 
ATOM     66  C   UNL A   1      40.099  35.483  38.010  1.00  0.00     0.198 A 
ATOM     67  C   UNL A   1      38.460  33.900  38.760  1.00  0.00     0.198 A 
ATOM     68  F   UNL A   1      38.031  31.957  37.506  1.00  0.00    -0.203 F 
ATOM     69  F   UNL A   1      40.806  36.605  38.205  1.00  0.00    -0.200 F 
ATOM     70  C   UNL A   1      39.163  35.081  38.949  1.00  0.00     0.200 A 
ATOM     71  F   UNL A   1      37.545  33.517  39.662  1.00  0.00    -0.200 F 
ATOM     72  F   UNL A   1      38.944  35.827  40.040  1.00  0.00    -0.200 F 
ENDBRANCH  48  62
BRANCH  49  73
ATOM     73  C   UNL A   1      40.766  27.876  28.478  1.00  0.00     0.064 A 
ATOM     74  C   UNL A   1      40.088  26.650  28.441  1.00  0.00     0.173 A 
ATOM     75  C   UNL A   1      41.505  28.247  27.346  1.00  0.00     0.173 A 
ATOM     76  F   UNL A   1      39.382  26.244  29.508  1.00  0.00    -0.203 F 
ATOM     77  C   UNL A   1      40.144  25.828  27.318  1.00  0.00     0.198 A 
ATOM     78  C   UNL A   1      41.542  27.436  26.213  1.00  0.00     0.198 A 
ATOM     79  F   UNL A   1      42.169  29.413  27.330  1.00  0.00    -0.203 F 
ATOM     80  F   UNL A   1      39.505  24.650  27.319  1.00  0.00    -0.200 F 
ATOM     81  C   UNL A   1      40.864  26.226  26.201  1.00  0.00     0.200 A 
ATOM     82  F   UNL A   1      42.226  27.829  25.130  1.00  0.00    -0.200 F 
ATOM     83  F   UNL A   1      40.904  25.443  25.114  1.00  0.00    -0.200 F 
ENDBRANCH  49  73
BRANCH  61  84
ATOM     84  C   UNL A   1      44.095  28.209  34.605  1.00  0.00     0.064 A 
ATOM     85  C   UNL A   1      45.408  28.699  34.555  1.00  0.00     0.173 A 
ATOM     86  C   UNL A   1      43.865  27.008  35.294  1.00  0.00     0.173 A 
ATOM     87  F   UNL A   1      45.680  29.836  33.897  1.00  0.00    -0.203 F 
ATOM     88  C   UNL A   1      46.452  28.007  35.163  1.00  0.00     0.198 A 
ATOM     89  C   UNL A   1      44.907  26.336  35.926  1.00  0.00     0.198 A 
ATOM     90  F   UNL A   1      42.626  26.504  35.379  1.00  0.00    -0.203 F 
ATOM     91  F   UNL A   1      47.704  28.476  35.074  1.00  0.00    -0.200 F 
ATOM     92  C   UNL A   1      46.199  26.833  35.858  1.00  0.00     0.200 A 
ATOM     93  F   UNL A   1      44.658  25.212  36.613  1.00  0.00    -0.200 F 
ATOM     94  F   UNL A   1      47.203  26.181  36.459  1.00  0.00    -0.200 F 
ENDBRANCH  61  84
ENDBRANCH  35  36
ENDBRANCH  27  30
ENDBRANCH  25  26
ENDBRANCH   1  25
TORSDOF 12
ENDMDL
