MODEL 1
REMARK VINA RESULT:     -13.4      0.000      0.000
REMARK SMILES N#Cc1cccnc1N1CC[NH+]([C@@H](C(=O)NCCCNC(=O)c2ccc(-c3c4nc(c(-c5c(F)c(F)c(F)c(F)c5F)c5ccc([nH]5)c(-c5c(F)c(F)c(F)c(F)c5F)c5nc(c(-c6c(F)c(F)c(F)c(F)c6F)c6ccc3[nH]6)C=C5)C=C4)cc2)c2c[nH]c3cc(CO)ccc23)CC1
REMARK SMILES IDX 17 1 16 2 14 3 15 4 13 6 12 7 9 8 10 9 98 10 11 11 97 12
REMARK SMILES IDX 8 14 3 15 4 16 5 17 7 18 6 19 2 20 1 21 86 22 87 23 96 24
REMARK SMILES IDX 88 25 89 26 95 27 90 29 94 30 91 31 92 32 93 33 18 35 19 36
REMARK SMILES IDX 20 37 21 38 22 40 23 41 24 42 85 43 25 44 84 45 26 46 27 47
REMARK SMILES IDX 28 48 78 49 29 50 83 51 77 52 79 53 30 54 82 55 76 56 75 57
REMARK SMILES IDX 31 59 63 60 43 61 62 62 44 63 47 64 61 65 80 66 45 67 46 68
REMARK SMILES IDX 60 70 81 71 48 72 32 73 33 74 41 75 34 76 35 77 39 78 42 79
REMARK SMILES IDX 36 80 37 81 40 82 38 83 64 84 65 85 73 86 66 87 67 88 71 89
REMARK SMILES IDX 74 90 68 91 69 92 72 93 70 94 49 95 50 96 58 97 51 98 52 99
REMARK SMILES IDX 56 100 59 101 53 102 54 103 57 104 55 105
REMARK H PARENT 16 5 12 13 88 28 93 34 20 39 79 58 47 69
REMARK Flexibility Score: inf
ROOT
ATOM      1  C   UNL A   1      32.118  27.992  27.538  1.00  0.00     0.118 C 
ENDROOT
BRANCH   1   2
ATOM      2  N   UNL A   1      32.768  27.179  26.506  1.00  0.00    -0.351 N 
ATOM      3  C   UNL A   1      32.404  26.428  25.408  1.00  0.00     0.283 C 
ATOM      4  O   UNL A   1      33.386  26.033  24.765  1.00  0.00    -0.268 OA
ATOM      5  H   UNL A   1      33.745  27.163  26.634  1.00  0.00     0.163 HD
BRANCH   3   6
ATOM      6  C   UNL A   1      30.932  26.140  24.949  1.00  0.00     0.307 C 
BRANCH   6   7
ATOM      7  N   UNL A   1      30.410  24.716  25.112  1.00  0.00    -0.318 N 
ATOM      8  N   UNL A   1      32.541  22.649  25.125  1.00  0.00    -0.344 N 
ATOM      9  C   UNL A   1      32.122  23.313  23.886  1.00  0.00     0.179 C 
ATOM     10  C   UNL A   1      32.199  23.371  26.357  1.00  0.00     0.179 C 
ATOM     11  C   UNL A   1      30.653  23.722  24.043  1.00  0.00     0.284 C 
ATOM     12  C   UNL A   1      30.775  24.002  26.337  1.00  0.00     0.284 C 
ATOM     13  H   UNL A   1      29.432  25.007  25.103  1.00  0.00     0.349 HD
BRANCH   8  14
ATOM     14  C   UNL A   1      33.845  22.142  25.097  1.00  0.00     0.146 A 
ATOM     15  C   UNL A   1      34.088  20.768  25.048  1.00  0.00     0.095 A 
ATOM     16  C   UNL A   1      35.408  20.312  25.001  1.00  0.00     0.025 A 
ATOM     17  C   UNL A   1      36.455  21.225  25.056  1.00  0.00     0.022 A 
ATOM     18  N   UNL A   1      34.870  23.031  25.130  1.00  0.00    -0.238 NA
ATOM     19  C   UNL A   1      36.138  22.567  25.124  1.00  0.00     0.113 A 
BRANCH  15  20
ATOM     20  C   UNL A   1      33.011  19.814  25.056  1.00  0.00     0.103 C 
ATOM     21  N   UNL A   1      32.153  19.049  24.994  1.00  0.00    -0.192 NA
ENDBRANCH  15  20
ENDBRANCH   8  14
ENDBRANCH   6   7
BRANCH   6  22
ATOM     22  C   UNL A   1      30.573  26.621  23.498  1.00  0.00     0.044 A 
ATOM     23  C   UNL A   1      31.420  26.608  22.393  1.00  0.00     0.094 A 
ATOM     24  C   UNL A   1      29.550  27.535  23.050  1.00  0.00     0.009 A 
ATOM     25  N   UNL A   1      31.445  27.936  22.001  1.00  0.00    -0.361 N 
ATOM     26  C   UNL A   1      30.273  28.539  22.395  1.00  0.00     0.046 A 
ATOM     27  C   UNL A   1      28.192  27.779  23.305  1.00  0.00     0.011 A 
ATOM     28  H   UNL A   1      32.182  28.376  21.520  1.00  0.00     0.166 HD
ATOM     29  C   UNL A   1      29.843  29.874  22.365  1.00  0.00     0.032 A 
ATOM     30  C   UNL A   1      27.686  29.070  23.126  1.00  0.00     0.007 A 
ATOM     31  C   UNL A   1      28.544  30.136  22.830  1.00  0.00    -0.021 A 
BRANCH  31  32
ATOM     32  C   UNL A   1      28.087  31.553  23.077  1.00  0.00     0.191 C 
BRANCH  32  33
ATOM     33  O   UNL A   1      26.903  31.580  23.876  1.00  0.00    -0.392 OA
ATOM     34  H   UNL A   1      26.388  30.773  23.719  1.00  0.00     0.211 HD
ENDBRANCH  32  33
ENDBRANCH  31  32
ENDBRANCH   6  22
ENDBRANCH   3   6
ENDBRANCH   1   2
BRANCH   1  35
ATOM     35  C   UNL A   1      31.594  29.397  27.106  1.00  0.00     0.042 C 
BRANCH  35  36
ATOM     36  C   UNL A   1      32.455  30.250  26.151  1.00  0.00     0.118 C 
BRANCH  36  37
ATOM     37  N   UNL A   1      32.421  31.661  26.491  1.00  0.00    -0.352 N 
ATOM     38  C   UNL A   1      33.200  32.401  27.349  1.00  0.00     0.251 C 
ATOM     39  H   UNL A   1      31.720  32.175  26.030  1.00  0.00     0.163 HD
ATOM     40  O   UNL A   1      32.842  33.545  27.626  1.00  0.00    -0.269 OA
BRANCH  38  41
ATOM     41  C   UNL A   1      34.464  31.889  27.947  1.00  0.00     0.039 A 
ATOM     42  C   UNL A   1      34.451  30.615  28.534  1.00  0.00     0.014 A 
ATOM     43  C   UNL A   1      35.598  32.689  28.097  1.00  0.00     0.014 A 
ATOM     44  C   UNL A   1      35.567  30.136  29.238  1.00  0.00     0.010 A 
ATOM     45  C   UNL A   1      36.717  32.199  28.794  1.00  0.00     0.010 A 
ATOM     46  C   UNL A   1      36.725  30.916  29.367  1.00  0.00    -0.014 A 
BRANCH  46  47
ATOM     47  C   UNL A   1      37.928  30.401  30.100  1.00  0.00     0.031 A 
ATOM     48  C   UNL A   1      38.218  30.820  31.521  1.00  0.00     0.074 A 
ATOM     49  C   UNL A   1      38.792  29.568  29.484  1.00  0.00     0.049 A 
ATOM     50  N   UNL A   1      39.233  30.508  32.291  1.00  0.00    -0.248 NA
ATOM     51  C   UNL A   1      37.252  31.730  32.151  1.00  0.00     0.031 C 
ATOM     52  C   UNL A   1      38.672  29.099  28.105  1.00  0.00     0.029 A 
ATOM     53  N   UNL A   1      39.949  28.972  29.935  1.00  0.00    -0.354 N 
ATOM     54  C   UNL A   1      39.034  31.186  33.487  1.00  0.00     0.074 A 
ATOM     55  C   UNL A   1      37.827  31.970  33.322  1.00  0.00     0.031 C 
ATOM     56  C   UNL A   1      39.691  28.270  27.829  1.00  0.00     0.029 A 
ATOM     57  C   UNL A   1      40.566  28.178  28.996  1.00  0.00     0.049 A 
ATOM     58  H   UNL A   1      40.302  29.102  30.845  1.00  0.00     0.167 HD
ATOM     59  C   UNL A   1      39.771  31.147  34.627  1.00  0.00     0.037 A 
ATOM     60  C   UNL A   1      41.707  27.463  29.056  1.00  0.00     0.037 A 
ATOM     61  C   UNL A   1      40.959  30.352  34.813  1.00  0.00     0.049 A 
ATOM     62  C   UNL A   1      42.520  27.453  30.325  1.00  0.00     0.074 A 
ATOM     63  C   UNL A   1      41.736  30.214  35.952  1.00  0.00     0.029 A 
ATOM     64  N   UNL A   1      41.546  29.560  33.836  1.00  0.00    -0.354 N 
ATOM     65  N   UNL A   1      42.285  28.056  31.464  1.00  0.00    -0.248 NA
ATOM     66  C   UNL A   1      43.758  26.658  30.315  1.00  0.00     0.031 C 
ATOM     67  C   UNL A   1      42.822  29.385  35.650  1.00  0.00     0.029 A 
ATOM     68  C   UNL A   1      42.689  28.956  34.340  1.00  0.00     0.049 A 
ATOM     69  H   UNL A   1      41.203  29.445  32.922  1.00  0.00     0.167 HD
ATOM     70  C   UNL A   1      43.324  27.690  32.313  1.00  0.00     0.074 A 
ATOM     71  C   UNL A   1      44.184  26.800  31.562  1.00  0.00     0.031 C 
ATOM     72  C   UNL A   1      43.541  28.061  33.598  1.00  0.00     0.037 A 
BRANCH  59  73
ATOM     73  C   UNL A   1      39.316  32.000  35.780  1.00  0.00     0.064 A 
ATOM     74  C   UNL A   1      38.369  31.542  36.709  1.00  0.00     0.173 A 
ATOM     75  C   UNL A   1      39.871  33.273  35.988  1.00  0.00     0.173 A 
ATOM     76  F   UNL A   1      37.804  30.335  36.556  1.00  0.00    -0.203 F 
ATOM     77  C   UNL A   1      37.968  32.338  37.779  1.00  0.00     0.198 A 
ATOM     78  C   UNL A   1      39.494  34.053  37.080  1.00  0.00     0.198 A 
ATOM     79  F   UNL A   1      40.791  33.757  35.140  1.00  0.00    -0.203 F 
ATOM     80  F   UNL A   1      37.023  31.899  38.621  1.00  0.00    -0.200 F 
ATOM     81  C   UNL A   1      38.535  33.590  37.968  1.00  0.00     0.200 A 
ATOM     82  F   UNL A   1      40.055  35.255  37.269  1.00  0.00    -0.200 F 
ATOM     83  F   UNL A   1      38.153  34.352  39.001  1.00  0.00    -0.200 F 
ENDBRANCH  59  73
BRANCH  60  84
ATOM     84  C   UNL A   1      42.155  26.675  27.874  1.00  0.00     0.064 A 
ATOM     85  C   UNL A   1      41.668  25.380  27.645  1.00  0.00     0.173 A 
ATOM     86  C   UNL A   1      43.089  27.190  26.965  1.00  0.00     0.173 A 
ATOM     87  F   UNL A   1      40.798  24.830  28.504  1.00  0.00    -0.203 F 
ATOM     88  C   UNL A   1      42.113  24.624  26.562  1.00  0.00     0.198 A 
ATOM     89  C   UNL A   1      43.509  26.445  25.864  1.00  0.00     0.198 A 
ATOM     90  F   UNL A   1      43.594  28.419  27.145  1.00  0.00    -0.203 F 
ATOM     91  F   UNL A   1      41.673  23.369  26.398  1.00  0.00    -0.200 F 
ATOM     92  C   UNL A   1      43.028  25.161  25.668  1.00  0.00     0.200 A 
ATOM     93  F   UNL A   1      44.387  26.969  24.998  1.00  0.00    -0.200 F 
ATOM     94  F   UNL A   1      43.453  24.433  24.626  1.00  0.00    -0.200 F 
ENDBRANCH  60  84
BRANCH  72  95
ATOM     95  C   UNL A   1      44.734  27.474  34.301  1.00  0.00     0.064 A 
ATOM     96  C   UNL A   1      45.975  28.129  34.326  1.00  0.00     0.173 A 
ATOM     97  C   UNL A   1      44.622  26.258  34.992  1.00  0.00     0.173 A 
ATOM     98  F   UNL A   1      46.141  29.287  33.670  1.00  0.00    -0.203 F 
ATOM     99  C   UNL A   1      47.065  27.575  34.995  1.00  0.00     0.198 A 
ATOM    100  C   UNL A   1      45.705  25.723  35.686  1.00  0.00     0.198 A 
ATOM    101  F   UNL A   1      43.458  25.593  35.007  1.00  0.00    -0.203 F 
ATOM    102  F   UNL A   1      48.253  28.195  34.964  1.00  0.00    -0.200 F 
ATOM    103  C   UNL A   1      46.927  26.377  35.680  1.00  0.00     0.200 A 
ATOM    104  F   UNL A   1      45.565  24.573  36.361  1.00  0.00    -0.200 F 
ATOM    105  F   UNL A   1      47.975  25.850  36.329  1.00  0.00    -0.200 F 
ENDBRANCH  72  95
ENDBRANCH  46  47
ENDBRANCH  38  41
ENDBRANCH  36  37
ENDBRANCH  35  36
ENDBRANCH   1  35
TORSDOF 16
ENDMDL
MODEL 2
REMARK VINA RESULT:     -13.3      1.257      2.021
REMARK SMILES N#Cc1cccnc1N1CC[NH+]([C@@H](C(=O)NCCCNC(=O)c2ccc(-c3c4nc(c(-c5c(F)c(F)c(F)c(F)c5F)c5ccc([nH]5)c(-c5c(F)c(F)c(F)c(F)c5F)c5nc(c(-c6c(F)c(F)c(F)c(F)c6F)c6ccc3[nH]6)C=C5)C=C4)cc2)c2c[nH]c3cc(CO)ccc23)CC1
REMARK SMILES IDX 17 1 16 2 14 3 15 4 13 6 12 7 9 8 10 9 98 10 11 11 97 12
REMARK SMILES IDX 8 14 3 15 4 16 5 17 7 18 6 19 2 20 1 21 86 22 87 23 96 24
REMARK SMILES IDX 88 25 89 26 95 27 90 29 94 30 91 31 92 32 93 33 18 35 19 36
REMARK SMILES IDX 20 37 21 38 22 40 23 41 24 42 85 43 25 44 84 45 26 46 27 47
REMARK SMILES IDX 28 48 78 49 29 50 83 51 77 52 79 53 30 54 82 55 76 56 75 57
REMARK SMILES IDX 31 59 63 60 43 61 62 62 44 63 47 64 61 65 80 66 45 67 46 68
REMARK SMILES IDX 60 70 81 71 48 72 32 73 33 74 41 75 34 76 35 77 39 78 42 79
REMARK SMILES IDX 36 80 37 81 40 82 38 83 64 84 65 85 73 86 66 87 67 88 71 89
REMARK SMILES IDX 74 90 68 91 69 92 72 93 70 94 49 95 50 96 58 97 51 98 52 99
REMARK SMILES IDX 56 100 59 101 53 102 54 103 57 104 55 105
REMARK H PARENT 16 5 12 13 88 28 93 34 20 39 79 58 47 69
REMARK Flexibility Score: inf
ROOT
ATOM      1  C   UNL A   1      34.066  27.754  22.499  1.00  0.00     0.118 C 
ENDROOT
BRANCH   1   2
ATOM      2  N   UNL A   1      32.968  27.127  21.757  1.00  0.00    -0.351 N 
ATOM      3  C   UNL A   1      31.841  26.379  22.025  1.00  0.00     0.283 C 
ATOM      4  O   UNL A   1      31.145  26.205  21.016  1.00  0.00    -0.268 OA
ATOM      5  H   UNL A   1      33.063  27.284  20.789  1.00  0.00     0.163 HD
BRANCH   3   6
ATOM      6  C   UNL A   1      31.415  25.849  23.439  1.00  0.00     0.307 C 
BRANCH   6   7
ATOM      7  N   UNL A   1      31.212  24.345  23.595  1.00  0.00    -0.318 N 
ATOM      8  N   UNL A   1      33.660  22.880  24.416  1.00  0.00    -0.344 N 
ATOM      9  C   UNL A   1      33.485  23.379  23.048  1.00  0.00     0.179 C 
ATOM     10  C   UNL A   1      32.811  23.532  25.423  1.00  0.00     0.179 C 
ATOM     11  C   UNL A   1      31.984  23.411  22.745  1.00  0.00     0.284 C 
ATOM     12  C   UNL A   1      31.352  23.784  24.940  1.00  0.00     0.284 C 
ATOM     13  H   UNL A   1      30.242  24.381  23.282  1.00  0.00     0.349 HD
BRANCH   8  14
ATOM     14  C   UNL A   1      34.993  22.716  24.806  1.00  0.00     0.146 A 
ATOM     15  C   UNL A   1      35.540  21.446  25.005  1.00  0.00     0.095 A 
ATOM     16  C   UNL A   1      36.883  21.335  25.375  1.00  0.00     0.025 A 
ATOM     17  C   UNL A   1      37.637  22.482  25.589  1.00  0.00     0.022 A 
ATOM     18  N   UNL A   1      35.740  23.834  24.997  1.00  0.00    -0.238 NA
ATOM     19  C   UNL A   1      37.024  23.703  25.393  1.00  0.00     0.113 A 
BRANCH  15  20
ATOM     20  C   UNL A   1      34.749  20.255  24.848  1.00  0.00     0.103 C 
ATOM     21  N   UNL A   1      34.102  19.322  24.659  1.00  0.00    -0.192 NA
ENDBRANCH  15  20
ENDBRANCH   8  14
ENDBRANCH   6   7
BRANCH   6  22
ATOM     22  C   UNL A   1      30.178  26.571  24.084  1.00  0.00     0.044 A 
ATOM     23  C   UNL A   1      29.050  25.953  24.615  1.00  0.00     0.094 A 
ATOM     24  C   UNL A   1      29.698  27.921  23.911  1.00  0.00     0.009 A 
ATOM     25  N   UNL A   1      28.015  26.500  23.876  1.00  0.00    -0.361 N 
ATOM     26  C   UNL A   1      28.395  27.745  23.430  1.00  0.00     0.046 A 
ATOM     27  C   UNL A   1      30.236  29.215  23.860  1.00  0.00     0.011 A 
ATOM     28  H   UNL A   1      27.148  26.068  23.698  1.00  0.00     0.166 HD
ATOM     29  C   UNL A   1      27.791  28.657  22.552  1.00  0.00     0.032 A 
ATOM     30  C   UNL A   1      29.570  30.201  23.125  1.00  0.00     0.007 A 
ATOM     31  C   UNL A   1      28.457  29.875  22.340  1.00  0.00    -0.021 A 
BRANCH  31  32
ATOM     32  C   UNL A   1      28.028  30.804  21.232  1.00  0.00     0.191 C 
BRANCH  32  33
ATOM     33  O   UNL A   1      28.878  31.950  21.162  1.00  0.00    -0.392 OA
ATOM     34  H   UNL A   1      29.741  31.692  20.802  1.00  0.00     0.211 HD
ENDBRANCH  32  33
ENDBRANCH  31  32
ENDBRANCH   6  22
ENDBRANCH   3   6
ENDBRANCH   1   2
BRANCH   1  35
ATOM     35  C   UNL A   1      33.735  29.061  23.283  1.00  0.00     0.042 C 
BRANCH  35  36
ATOM     36  C   UNL A   1      33.648  29.002  24.823  1.00  0.00     0.118 C 
BRANCH  36  37
ATOM     37  N   UNL A   1      33.060  30.203  25.388  1.00  0.00    -0.352 N 
ATOM     38  C   UNL A   1      33.286  30.840  26.585  1.00  0.00     0.251 C 
ATOM     39  H   UNL A   1      32.384  30.634  24.818  1.00  0.00     0.163 HD
ATOM     40  O   UNL A   1      32.510  31.731  26.931  1.00  0.00    -0.269 OA
BRANCH  38  41
ATOM     41  C   UNL A   1      34.432  30.515  27.477  1.00  0.00     0.039 A 
ATOM     42  C   UNL A   1      35.449  31.471  27.626  1.00  0.00     0.014 A 
ATOM     43  C   UNL A   1      34.617  29.244  28.025  1.00  0.00     0.014 A 
ATOM     44  C   UNL A   1      36.621  31.170  28.336  1.00  0.00     0.010 A 
ATOM     45  C   UNL A   1      35.789  28.953  28.745  1.00  0.00     0.010 A 
ATOM     46  C   UNL A   1      36.805  29.909  28.921  1.00  0.00    -0.014 A 
BRANCH  46  47
ATOM     47  C   UNL A   1      38.045  29.589  29.699  1.00  0.00     0.031 A 
ATOM     48  C   UNL A   1      38.282  30.173  31.071  1.00  0.00     0.074 A 
ATOM     49  C   UNL A   1      38.993  28.789  29.167  1.00  0.00     0.049 A 
ATOM     50  N   UNL A   1      39.316  30.040  31.867  1.00  0.00    -0.248 NA
ATOM     51  C   UNL A   1      37.226  31.041  31.610  1.00  0.00     0.031 C 
ATOM     52  C   UNL A   1      38.930  28.177  27.842  1.00  0.00     0.029 A 
ATOM     53  N   UNL A   1      40.198  28.357  29.673  1.00  0.00    -0.354 N 
ATOM     54  C   UNL A   1      39.042  30.809  32.990  1.00  0.00     0.074 A 
ATOM     55  C   UNL A   1      37.765  31.451  32.751  1.00  0.00     0.031 C 
ATOM     56  C   UNL A   1      40.028  27.429  27.648  1.00  0.00     0.029 A 
ATOM     57  C   UNL A   1      40.898  27.538  28.817  1.00  0.00     0.049 A 
ATOM     58  H   UNL A   1      40.530  28.610  30.565  1.00  0.00     0.167 HD
ATOM     59  C   UNL A   1      39.770  30.956  34.128  1.00  0.00     0.037 A 
ATOM     60  C   UNL A   1      42.103  26.949  28.945  1.00  0.00     0.037 A 
ATOM     61  C   UNL A   1      41.029  30.304  34.389  1.00  0.00     0.049 A 
ATOM     62  C   UNL A   1      42.903  27.144  30.207  1.00  0.00     0.074 A 
ATOM     63  C   UNL A   1      41.806  30.356  35.535  1.00  0.00     0.029 A 
ATOM     64  N   UNL A   1      41.699  29.481  33.495  1.00  0.00    -0.354 N 
ATOM     65  N   UNL A   1      42.601  27.831  31.281  1.00  0.00    -0.248 NA
ATOM     66  C   UNL A   1      44.213  26.478  30.274  1.00  0.00     0.031 C 
ATOM     67  C   UNL A   1      42.971  29.612  35.315  1.00  0.00     0.029 A 
ATOM     68  C   UNL A   1      42.891  29.045  34.054  1.00  0.00     0.049 A 
ATOM     69  H   UNL A   1      41.376  29.243  32.597  1.00  0.00     0.167 HD
ATOM     70  C   UNL A   1      43.663  27.654  32.161  1.00  0.00     0.074 A 
ATOM     71  C   UNL A   1      44.613  26.784  31.501  1.00  0.00     0.031 C 
ATOM     72  C   UNL A   1      43.832  28.169  33.403  1.00  0.00     0.037 A 
BRANCH  59  73
ATOM     73  C   UNL A   1      39.224  31.870  35.191  1.00  0.00     0.064 A 
ATOM     74  C   UNL A   1      38.459  31.382  36.262  1.00  0.00     0.173 A 
ATOM     75  C   UNL A   1      39.512  33.244  35.167  1.00  0.00     0.173 A 
ATOM     76  F   UNL A   1      38.152  30.078  36.333  1.00  0.00    -0.203 F 
ATOM     77  C   UNL A   1      37.973  32.239  37.246  1.00  0.00     0.198 A 
ATOM     78  C   UNL A   1      39.053  34.093  36.173  1.00  0.00     0.198 A 
ATOM     79  F   UNL A   1      40.250  33.764  34.175  1.00  0.00    -0.203 F 
ATOM     80  F   UNL A   1      37.199  31.757  38.229  1.00  0.00    -0.200 F 
ATOM     81  C   UNL A   1      38.275  33.591  37.205  1.00  0.00     0.200 A 
ATOM     82  F   UNL A   1      39.361  35.396  36.140  1.00  0.00    -0.200 F 
ATOM     83  F   UNL A   1      37.811  34.413  38.157  1.00  0.00    -0.200 F 
ENDBRANCH  59  73
BRANCH  60  84
ATOM     84  C   UNL A   1      42.636  26.096  27.847  1.00  0.00     0.064 A 
ATOM     85  C   UNL A   1      43.509  26.623  26.883  1.00  0.00     0.173 A 
ATOM     86  C   UNL A   1      42.267  24.749  27.725  1.00  0.00     0.173 A 
ATOM     87  F   UNL A   1      43.864  27.914  26.937  1.00  0.00    -0.203 F 
ATOM     88  C   UNL A   1      43.978  25.838  25.831  1.00  0.00     0.198 A 
ATOM     89  C   UNL A   1      42.764  23.957  26.691  1.00  0.00     0.198 A 
ATOM     90  F   UNL A   1      41.427  24.200  28.614  1.00  0.00    -0.203 F 
ATOM     91  F   UNL A   1      44.767  26.381  24.894  1.00  0.00    -0.200 F 
ATOM     92  C   UNL A   1      43.611  24.504  25.741  1.00  0.00     0.200 A 
ATOM     93  F   UNL A   1      42.413  22.666  26.610  1.00  0.00    -0.200 F 
ATOM     94  F   UNL A   1      44.066  23.750  24.730  1.00  0.00    -0.200 F 
ENDBRANCH  60  84
BRANCH  72  95
ATOM     95  C   UNL A   1      45.071  27.775  34.159  1.00  0.00     0.064 A 
ATOM     96  C   UNL A   1      46.254  28.528  34.088  1.00  0.00     0.173 A 
ATOM     97  C   UNL A   1      45.063  26.649  34.996  1.00  0.00     0.173 A 
ATOM     98  F   UNL A   1      46.321  29.605  33.291  1.00  0.00    -0.203 F 
ATOM     99  C   UNL A   1      47.387  28.153  34.806  1.00  0.00     0.198 A 
ATOM    100  C   UNL A   1      46.188  26.295  35.737  1.00  0.00     0.198 A 
ATOM    101  F   UNL A   1      43.958  25.897  35.107  1.00  0.00    -0.203 F 
ATOM    102  F   UNL A   1      48.519  28.860  34.685  1.00  0.00    -0.200 F 
ATOM    103  C   UNL A   1      47.351  27.042  35.636  1.00  0.00     0.200 A 
ATOM    104  F   UNL A   1      46.145  25.230  36.551  1.00  0.00    -0.200 F 
ATOM    105  F   UNL A   1      48.440  26.688  36.333  1.00  0.00    -0.200 F 
ENDBRANCH  72  95
ENDBRANCH  46  47
ENDBRANCH  38  41
ENDBRANCH  36  37
ENDBRANCH  35  36
ENDBRANCH   1  35
TORSDOF 16
ENDMDL
MODEL 3
REMARK VINA RESULT:     -13.3      0.219      1.870
REMARK SMILES N#Cc1cccnc1N1CC[NH+]([C@@H](C(=O)NCCCNC(=O)c2ccc(-c3c4nc(c(-c5c(F)c(F)c(F)c(F)c5F)c5ccc([nH]5)c(-c5c(F)c(F)c(F)c(F)c5F)c5nc(c(-c6c(F)c(F)c(F)c(F)c6F)c6ccc3[nH]6)C=C5)C=C4)cc2)c2c[nH]c3cc(CO)ccc23)CC1
REMARK SMILES IDX 17 1 16 2 14 3 15 4 13 6 12 7 9 8 10 9 98 10 11 11 97 12
REMARK SMILES IDX 8 14 3 15 4 16 5 17 7 18 6 19 2 20 1 21 86 22 87 23 96 24
REMARK SMILES IDX 88 25 89 26 95 27 90 29 94 30 91 31 92 32 93 33 18 35 19 36
REMARK SMILES IDX 20 37 21 38 22 40 23 41 24 42 85 43 25 44 84 45 26 46 27 47
REMARK SMILES IDX 28 48 78 49 29 50 83 51 77 52 79 53 30 54 82 55 76 56 75 57
REMARK SMILES IDX 31 59 63 60 43 61 62 62 44 63 47 64 61 65 80 66 45 67 46 68
REMARK SMILES IDX 60 70 81 71 48 72 32 73 33 74 41 75 34 76 35 77 39 78 42 79
REMARK SMILES IDX 36 80 37 81 40 82 38 83 64 84 65 85 73 86 66 87 67 88 71 89
REMARK SMILES IDX 74 90 68 91 69 92 72 93 70 94 49 95 50 96 58 97 51 98 52 99
REMARK SMILES IDX 56 100 59 101 53 102 54 103 57 104 55 105
REMARK H PARENT 16 5 12 13 88 28 93 34 20 39 79 58 47 69
REMARK Flexibility Score: inf
ROOT
ATOM      1  C   UNL A   1      31.966  28.026  27.574  1.00  0.00     0.118 C 
ENDROOT
BRANCH   1   2
ATOM      2  N   UNL A   1      32.658  27.243  26.546  1.00  0.00    -0.351 N 
ATOM      3  C   UNL A   1      32.339  26.508  25.424  1.00  0.00     0.283 C 
ATOM      4  O   UNL A   1      33.346  26.142  24.803  1.00  0.00    -0.268 OA
ATOM      5  H   UNL A   1      33.631  27.240  26.702  1.00  0.00     0.163 HD
BRANCH   3   6
ATOM      6  C   UNL A   1      30.886  26.206  24.917  1.00  0.00     0.307 C 
BRANCH   6   7
ATOM      7  N   UNL A   1      30.377  24.774  25.052  1.00  0.00    -0.318 N 
ATOM      8  N   UNL A   1      32.531  22.731  25.092  1.00  0.00    -0.344 N 
ATOM      9  C   UNL A   1      32.133  23.404  23.852  1.00  0.00     0.179 C 
ATOM     10  C   UNL A   1      32.153  23.437  26.324  1.00  0.00     0.179 C 
ATOM     11  C   UNL A   1      30.656  23.794  23.979  1.00  0.00     0.284 C 
ATOM     12  C   UNL A   1      30.722  24.050  26.278  1.00  0.00     0.284 C 
ATOM     13  H   UNL A   1      29.396  25.054  25.023  1.00  0.00     0.349 HD
BRANCH   8  14
ATOM     14  C   UNL A   1      33.841  22.240  25.089  1.00  0.00     0.146 A 
ATOM     15  C   UNL A   1      34.101  20.869  25.021  1.00  0.00     0.095 A 
ATOM     16  C   UNL A   1      35.428  20.430  25.000  1.00  0.00     0.025 A 
ATOM     17  C   UNL A   1      36.462  21.353  25.100  1.00  0.00     0.022 A 
ATOM     18  N   UNL A   1      34.855  23.139  25.166  1.00  0.00    -0.238 NA
ATOM     19  C   UNL A   1      36.128  22.690  25.185  1.00  0.00     0.113 A 
BRANCH  15  20
ATOM     20  C   UNL A   1      33.036  19.903  24.982  1.00  0.00     0.103 C 
ATOM     21  N   UNL A   1      32.153  19.165  25.000  1.00  0.00    -0.192 NA
ENDBRANCH  15  20
ENDBRANCH   8  14
ENDBRANCH   6   7
BRANCH   6  22
ATOM     22  C   UNL A   1      30.566  26.694  23.458  1.00  0.00     0.044 A 
ATOM     23  C   UNL A   1      31.448  26.701  22.381  1.00  0.00     0.094 A 
ATOM     24  C   UNL A   1      29.546  27.598  22.985  1.00  0.00     0.009 A 
ATOM     25  N   UNL A   1      31.468  28.032  22.001  1.00  0.00    -0.361 N 
ATOM     26  C   UNL A   1      30.275  28.616  22.361  1.00  0.00     0.046 A 
ATOM     27  C   UNL A   1      28.177  27.821  23.198  1.00  0.00     0.011 A 
ATOM     28  H   UNL A   1      32.213  28.487  21.546  1.00  0.00     0.166 HD
ATOM     29  C   UNL A   1      29.828  29.945  22.328  1.00  0.00     0.032 A 
ATOM     30  C   UNL A   1      27.659  29.106  23.014  1.00  0.00     0.007 A 
ATOM     31  C   UNL A   1      28.511  30.186  22.753  1.00  0.00    -0.021 A 
BRANCH  31  32
ATOM     32  C   UNL A   1      28.027  31.594  22.997  1.00  0.00     0.191 C 
BRANCH  32  33
ATOM     33  O   UNL A   1      26.902  31.607  23.878  1.00  0.00    -0.392 OA
ATOM     34  H   UNL A   1      27.065  31.003  24.619  1.00  0.00     0.211 HD
ENDBRANCH  32  33
ENDBRANCH  31  32
ENDBRANCH   6  22
ENDBRANCH   3   6
ENDBRANCH   1   2
BRANCH   1  35
ATOM     35  C   UNL A   1      31.646  29.514  27.235  1.00  0.00     0.042 C 
BRANCH  35  36
ATOM     36  C   UNL A   1      32.590  30.278  26.282  1.00  0.00     0.118 C 
BRANCH  36  37
ATOM     37  N   UNL A   1      32.627  31.701  26.567  1.00  0.00    -0.352 N 
ATOM     38  C   UNL A   1      33.452  32.436  27.386  1.00  0.00     0.251 C 
ATOM     39  H   UNL A   1      31.945  32.230  26.095  1.00  0.00     0.163 HD
ATOM     40  O   UNL A   1      33.152  33.605  27.623  1.00  0.00    -0.269 OA
BRANCH  38  41
ATOM     41  C   UNL A   1      34.698  31.888  27.989  1.00  0.00     0.039 A 
ATOM     42  C   UNL A   1      34.641  30.626  28.598  1.00  0.00     0.014 A 
ATOM     43  C   UNL A   1      35.861  32.648  28.121  1.00  0.00     0.014 A 
ATOM     44  C   UNL A   1      35.741  30.118  29.307  1.00  0.00     0.010 A 
ATOM     45  C   UNL A   1      36.964  32.129  28.823  1.00  0.00     0.010 A 
ATOM     46  C   UNL A   1      36.928  30.856  29.418  1.00  0.00    -0.014 A 
BRANCH  46  47
ATOM     47  C   UNL A   1      38.113  30.310  30.156  1.00  0.00     0.031 A 
ATOM     48  C   UNL A   1      38.413  30.728  31.575  1.00  0.00     0.074 A 
ATOM     49  C   UNL A   1      38.954  29.449  29.545  1.00  0.00     0.049 A 
ATOM     50  N   UNL A   1      39.418  30.390  32.348  1.00  0.00    -0.248 NA
ATOM     51  C   UNL A   1      37.474  31.670  32.199  1.00  0.00     0.031 C 
ATOM     52  C   UNL A   1      38.822  28.976  28.169  1.00  0.00     0.029 A 
ATOM     53  N   UNL A   1      40.091  28.821  30.001  1.00  0.00    -0.354 N 
ATOM     54  C   UNL A   1      39.237  31.080  33.541  1.00  0.00     0.074 A 
ATOM     55  C   UNL A   1      38.054  31.898  33.369  1.00  0.00     0.031 C 
ATOM     56  C   UNL A   1      39.816  28.117  27.899  1.00  0.00     0.029 A 
ATOM     57  C   UNL A   1      40.686  28.004  29.068  1.00  0.00     0.049 A 
ATOM     58  H   UNL A   1      40.447  28.946  30.912  1.00  0.00     0.167 HD
ATOM     59  C   UNL A   1      39.971  31.026  34.682  1.00  0.00     0.037 A 
ATOM     60  C   UNL A   1      41.806  27.257  29.134  1.00  0.00     0.037 A 
ATOM     61  C   UNL A   1      41.134  30.197  34.874  1.00  0.00     0.049 A 
ATOM     62  C   UNL A   1      42.616  27.229  30.404  1.00  0.00     0.074 A 
ATOM     63  C   UNL A   1      41.905  30.042  36.015  1.00  0.00     0.029 A 
ATOM     64  N   UNL A   1      41.700  29.383  33.903  1.00  0.00    -0.354 N 
ATOM     65  N   UNL A   1      42.398  27.845  31.539  1.00  0.00    -0.248 NA
ATOM     66  C   UNL A   1      43.830  26.398  30.401  1.00  0.00     0.031 C 
ATOM     67  C   UNL A   1      42.967  29.180  35.719  1.00  0.00     0.029 A 
ATOM     68  C   UNL A   1      42.824  28.747  34.411  1.00  0.00     0.049 A 
ATOM     69  H   UNL A   1      41.355  29.273  32.988  1.00  0.00     0.167 HD
ATOM     70  C   UNL A   1      43.423  27.453  32.392  1.00  0.00     0.074 A 
ATOM     71  C   UNL A   1      44.258  26.534  31.648  1.00  0.00     0.031 C 
ATOM     72  C   UNL A   1      43.649  27.824  33.676  1.00  0.00     0.037 A 
BRANCH  59  73
ATOM     73  C   UNL A   1      39.539  31.898  35.830  1.00  0.00     0.064 A 
ATOM     74  C   UNL A   1      40.121  33.154  36.061  1.00  0.00     0.173 A 
ATOM     75  C   UNL A   1      38.495  31.496  36.678  1.00  0.00     0.173 A 
ATOM     76  F   UNL A   1      41.124  33.587  35.283  1.00  0.00    -0.203 F 
ATOM     77  C   UNL A   1      39.701  33.956  37.120  1.00  0.00     0.198 A 
ATOM     78  C   UNL A   1      38.054  32.316  37.715  1.00  0.00     0.198 A 
ATOM     79  F   UNL A   1      37.893  30.311  36.495  1.00  0.00    -0.203 F 
ATOM     80  F   UNL A   1      40.309  35.127  37.353  1.00  0.00    -0.200 F 
ATOM     81  C   UNL A   1      38.664  33.540  37.941  1.00  0.00     0.200 A 
ATOM     82  F   UNL A   1      37.040  31.919  38.496  1.00  0.00    -0.200 F 
ATOM     83  F   UNL A   1      38.257  34.316  38.955  1.00  0.00    -0.200 F 
ENDBRANCH  59  73
BRANCH  60  84
ATOM     84  C   UNL A   1      42.232  26.449  27.957  1.00  0.00     0.064 A 
ATOM     85  C   UNL A   1      43.149  26.959  27.026  1.00  0.00     0.173 A 
ATOM     86  C   UNL A   1      41.717  25.166  27.728  1.00  0.00     0.173 A 
ATOM     87  F   UNL A   1      43.644  28.195  27.183  1.00  0.00    -0.203 F 
ATOM     88  C   UNL A   1      43.520  26.223  25.903  1.00  0.00     0.198 A 
ATOM     89  C   UNL A   1      42.115  24.417  26.622  1.00  0.00     0.198 A 
ATOM     90  F   UNL A   1      40.829  24.636  28.582  1.00  0.00    -0.203 F 
ATOM     91  F   UNL A   1      44.356  26.756  25.001  1.00  0.00    -0.200 F 
ATOM     92  C   UNL A   1      43.009  24.949  25.706  1.00  0.00     0.200 A 
ATOM     93  F   UNL A   1      41.624  23.183  26.438  1.00  0.00    -0.200 F 
ATOM     94  F   UNL A   1      43.369  24.241  24.626  1.00  0.00    -0.200 F 
ENDBRANCH  60  84
BRANCH  72  95
ATOM     95  C   UNL A   1      44.823  27.206  34.384  1.00  0.00     0.064 A 
ATOM     96  C   UNL A   1      44.712  25.997  35.087  1.00  0.00     0.173 A 
ATOM     97  C   UNL A   1      46.087  27.814  34.325  1.00  0.00     0.173 A 
ATOM     98  F   UNL A   1      43.525  25.381  35.187  1.00  0.00    -0.203 F 
ATOM     99  C   UNL A   1      45.815  25.435  35.726  1.00  0.00     0.198 A 
ATOM    100  C   UNL A   1      47.194  27.233  34.938  1.00  0.00     0.198 A 
ATOM    101  F   UNL A   1      46.252  28.968  33.661  1.00  0.00    -0.203 F 
ATOM    102  F   UNL A   1      45.673  24.304  36.432  1.00  0.00    -0.200 F 
ATOM    103  C   UNL A   1      47.056  26.048  35.645  1.00  0.00     0.200 A 
ATOM    104  F   UNL A   1      48.396  27.820  34.845  1.00  0.00    -0.200 F 
ATOM    105  F   UNL A   1      48.118  25.500  36.253  1.00  0.00    -0.200 F 
ENDBRANCH  72  95
ENDBRANCH  46  47
ENDBRANCH  38  41
ENDBRANCH  36  37
ENDBRANCH  35  36
ENDBRANCH   1  35
TORSDOF 16
ENDMDL
