MODEL 1
REMARK VINA RESULT:     -13.8      0.000      0.000
REMARK SMILES CS(=O)(=O)c1ccc(-n2nc(C(F)(F)F)cc2-c2ccc(CC(=O)NCCCNC(=O)c3ccc(-c4c5nc(c(-c6c(F)c(F)c(F)c(F)c6F)c6ccc([nH]6)c(-c6c(F)c(F)c(F)c(F)c6F)c6nc(c(-c7c(F)c(F)c(F)c(F)c7F)c7ccc4[nH]7)C=C6)C=C5)cc3)cc2)cc1
REMARK SMILES IDX 26 1 25 2 23 3 24 4 22 6 21 7 18 8 19 9 96 10 20 11 95 12
REMARK SMILES IDX 17 13 9 14 10 15 11 16 16 17 8 18 5 19 6 20 98 21 7 22 97 23
REMARK SMILES IDX 2 24 1 25 3 26 4 27 12 28 13 29 14 30 15 31 27 32 28 33
REMARK SMILES IDX 29 34 30 35 31 37 32 38 33 39 94 40 34 41 93 42 35 43 36 44
REMARK SMILES IDX 37 45 87 46 38 47 92 48 86 49 88 50 39 51 91 52 85 53 84 54
REMARK SMILES IDX 40 56 72 57 52 58 71 59 53 60 56 61 70 62 89 63 54 64 55 65
REMARK SMILES IDX 69 67 90 68 57 69 41 70 42 71 50 72 43 73 44 74 48 75 51 76
REMARK SMILES IDX 45 77 46 78 49 79 47 80 73 81 74 82 82 83 75 84 76 85 80 86
REMARK SMILES IDX 83 87 77 88 78 89 81 90 79 91 58 92 59 93 67 94 60 95 61 96
REMARK SMILES IDX 65 97 68 98 62 99 63 100 66 101 64 102
REMARK H PARENT 25 5 29 36 88 55 56 66
REMARK Flexibility Score: inf
ROOT
ATOM      1  C   UNL A   1      40.735  20.560  27.250  1.00  0.00     0.117 C 
ENDROOT
BRANCH   1   2
ATOM      2  N   UNL A   1      40.507  21.979  27.030  1.00  0.00    -0.356 N 
ATOM      3  C   UNL A   1      39.542  22.591  26.281  1.00  0.00     0.224 C 
ATOM      4  O   UNL A   1      39.531  23.822  26.230  1.00  0.00    -0.275 OA
ATOM      5  H   UNL A   1      41.136  22.583  27.485  1.00  0.00     0.163 HD
BRANCH   3   6
ATOM      6  C   UNL A   1      38.490  21.760  25.566  1.00  0.00     0.135 C 
BRANCH   6   7
ATOM      7  C   UNL A   1      37.272  22.548  25.145  1.00  0.00    -0.039 A 
ATOM      8  C   UNL A   1      34.924  23.918  24.385  1.00  0.00     0.000 A 
ATOM      9  C   UNL A   1      35.708  23.250  23.432  1.00  0.00     0.010 A 
ATOM     10  C   UNL A   1      35.359  23.941  25.713  1.00  0.00     0.010 A 
ATOM     11  C   UNL A   1      36.861  22.558  23.809  1.00  0.00     0.005 A 
ATOM     12  C   UNL A   1      36.528  23.273  26.086  1.00  0.00     0.005 A 
BRANCH   8  13
ATOM     13  C   UNL A   1      33.671  24.585  24.007  1.00  0.00     0.075 A 
ATOM     14  N   UNL A   1      32.500  23.946  23.613  1.00  0.00    -0.233 N 
ATOM     15  N   UNL A   1      31.604  24.802  23.068  1.00  0.00    -0.163 NA
ATOM     16  C   UNL A   1      32.108  26.027  23.312  1.00  0.00     0.167 A 
ATOM     17  C   UNL A   1      33.404  25.934  23.876  1.00  0.00     0.064 A 
BRANCH  14  18
ATOM     18  C   UNL A   1      32.231  22.558  23.659  1.00  0.00     0.065 A 
ATOM     19  C   UNL A   1      32.315  19.799  23.724  1.00  0.00     0.067 A 
ATOM     20  C   UNL A   1      32.242  20.512  24.924  1.00  0.00     0.022 A 
ATOM     21  C   UNL A   1      32.229  20.450  22.491  1.00  0.00     0.022 A 
ATOM     22  C   UNL A   1      32.215  21.900  24.894  1.00  0.00     0.030 A 
ATOM     23  C   UNL A   1      32.155  21.844  22.458  1.00  0.00     0.030 A 
BRANCH  19  24
ATOM     24  S   UNL A   1      32.610  18.054  23.819  1.00  0.00     0.175 S 
ATOM     25  C   UNL A   1      34.316  17.866  24.246  1.00  0.00     0.163 C 
ATOM     26  O   UNL A   1      32.431  17.543  22.470  1.00  0.00    -0.224 OA
ATOM     27  O   UNL A   1      31.804  17.554  24.907  1.00  0.00    -0.224 OA
ENDBRANCH  19  24
ENDBRANCH  14  18
BRANCH  16  28
ATOM     28  C   UNL A   1      31.365  27.295  22.989  1.00  0.00     0.435 C 
ATOM     29  F   UNL A   1      32.170  28.388  22.958  1.00  0.00    -0.164 F 
ATOM     30  F   UNL A   1      30.737  27.223  21.784  1.00  0.00    -0.164 F 
ATOM     31  F   UNL A   1      30.395  27.556  23.909  1.00  0.00    -0.164 F 
ENDBRANCH  16  28
ENDBRANCH   8  13
ENDBRANCH   6   7
ENDBRANCH   3   6
ENDBRANCH   1   2
BRANCH   1  32
ATOM     32  C   UNL A   1      41.576  19.914  26.146  1.00  0.00     0.042 C 
BRANCH  32  33
ATOM     33  C   UNL A   1      43.016  19.684  26.573  1.00  0.00     0.118 C 
BRANCH  33  34
ATOM     34  N   UNL A   1      43.955  19.666  25.448  1.00  0.00    -0.352 N 
ATOM     35  C   UNL A   1      44.410  20.733  24.696  1.00  0.00     0.251 C 
ATOM     36  H   UNL A   1      44.306  18.783  25.196  1.00  0.00     0.163 HD
ATOM     37  O   UNL A   1      44.892  20.554  23.584  1.00  0.00    -0.269 OA
BRANCH  35  38
ATOM     38  C   UNL A   1      44.313  22.095  25.251  1.00  0.00     0.039 A 
ATOM     39  C   UNL A   1      43.326  22.995  24.839  1.00  0.00     0.014 A 
ATOM     40  C   UNL A   1      45.244  22.465  26.213  1.00  0.00     0.014 A 
ATOM     41  C   UNL A   1      43.255  24.247  25.450  1.00  0.00     0.010 A 
ATOM     42  C   UNL A   1      45.038  23.593  26.955  1.00  0.00     0.010 A 
ATOM     43  C   UNL A   1      44.110  24.533  26.524  1.00  0.00    -0.014 A 
BRANCH  43  44
ATOM     44  C   UNL A   1      43.992  25.757  27.317  1.00  0.00     0.031 A 
ATOM     45  C   UNL A   1      44.977  26.834  26.961  1.00  0.00     0.074 A 
ATOM     46  C   UNL A   1      42.891  25.949  28.094  1.00  0.00     0.049 A 
ATOM     47  N   UNL A   1      45.565  27.671  27.752  1.00  0.00    -0.248 NA
ATOM     48  C   UNL A   1      45.419  26.981  25.559  1.00  0.00     0.031 C 
ATOM     49  C   UNL A   1      41.738  25.050  28.277  1.00  0.00     0.029 A 
ATOM     50  N   UNL A   1      42.487  27.050  28.786  1.00  0.00    -0.354 N 
ATOM     51  C   UNL A   1      46.321  28.531  26.951  1.00  0.00     0.074 A 
ATOM     52  C   UNL A   1      46.214  28.050  25.604  1.00  0.00     0.031 C 
ATOM     53  C   UNL A   1      40.690  25.733  28.786  1.00  0.00     0.029 A 
ATOM     54  C   UNL A   1      41.130  27.070  29.127  1.00  0.00     0.049 A 
ATOM     55  H   UNL A   1      43.104  27.778  29.029  1.00  0.00     0.167 HD
ATOM     56  C   UNL A   1      46.865  29.663  27.470  1.00  0.00     0.037 A 
ATOM     57  C   UNL A   1      40.428  28.130  29.611  1.00  0.00     0.037 A 
ATOM     58  C   UNL A   1      47.102  29.491  28.879  1.00  0.00     0.049 A 
ATOM     59  C   UNL A   1      41.429  29.119  30.090  1.00  0.00     0.074 A 
ATOM     60  C   UNL A   1      47.861  28.582  29.594  1.00  0.00     0.029 A 
ATOM     61  N   UNL A   1      46.189  29.999  29.768  1.00  0.00    -0.354 N 
ATOM     62  N   UNL A   1      42.189  28.929  31.131  1.00  0.00    -0.248 NA
ATOM     63  C   UNL A   1      41.919  30.079  29.111  1.00  0.00     0.031 C 
ATOM     64  C   UNL A   1      47.024  28.194  30.678  1.00  0.00     0.029 A 
ATOM     65  C   UNL A   1      45.874  28.983  30.635  1.00  0.00     0.049 A 
ATOM     66  H   UNL A   1      45.829  30.915  29.782  1.00  0.00     0.167 HD
ATOM     67  C   UNL A   1      43.436  29.379  30.730  1.00  0.00     0.074 A 
ATOM     68  C   UNL A   1      43.199  30.120  29.490  1.00  0.00     0.031 C 
ATOM     69  C   UNL A   1      44.581  28.857  31.255  1.00  0.00     0.037 A 
BRANCH  56  70
ATOM     70  C   UNL A   1      46.786  31.019  26.813  1.00  0.00     0.064 A 
ATOM     71  C   UNL A   1      47.935  31.837  26.804  1.00  0.00     0.173 A 
ATOM     72  C   UNL A   1      45.571  31.674  26.529  1.00  0.00     0.173 A 
ATOM     73  F   UNL A   1      49.150  31.315  27.032  1.00  0.00    -0.203 F 
ATOM     74  C   UNL A   1      47.850  33.226  26.674  1.00  0.00     0.198 A 
ATOM     75  C   UNL A   1      45.493  33.057  26.369  1.00  0.00     0.198 A 
ATOM     76  F   UNL A   1      44.406  31.020  26.488  1.00  0.00    -0.203 F 
ATOM     77  F   UNL A   1      48.952  33.974  26.818  1.00  0.00    -0.200 F 
ATOM     78  C   UNL A   1      46.625  33.836  26.482  1.00  0.00     0.200 A 
ATOM     79  F   UNL A   1      44.293  33.630  26.188  1.00  0.00    -0.200 F 
ATOM     80  F   UNL A   1      46.529  35.172  26.445  1.00  0.00    -0.200 F 
ENDBRANCH  56  70
BRANCH  57  81
ATOM     81  C   UNL A   1      38.999  28.509  29.437  1.00  0.00     0.064 A 
ATOM     82  C   UNL A   1      38.166  28.703  30.557  1.00  0.00     0.173 A 
ATOM     83  C   UNL A   1      38.501  28.986  28.209  1.00  0.00     0.173 A 
ATOM     84  F   UNL A   1      38.568  28.305  31.773  1.00  0.00    -0.203 F 
ATOM     85  C   UNL A   1      36.944  29.380  30.463  1.00  0.00     0.198 A 
ATOM     86  C   UNL A   1      37.277  29.657  28.117  1.00  0.00     0.198 A 
ATOM     87  F   UNL A   1      39.234  28.898  27.090  1.00  0.00    -0.203 F 
ATOM     88  F   UNL A   1      36.220  29.610  31.568  1.00  0.00    -0.200 F 
ATOM     89  C   UNL A   1      36.509  29.872  29.245  1.00  0.00     0.200 A 
ATOM     90  F   UNL A   1      36.878  30.154  26.937  1.00  0.00    -0.200 F 
ATOM     91  F   UNL A   1      35.377  30.585  29.168  1.00  0.00    -0.200 F 
ENDBRANCH  57  81
BRANCH  69  92
ATOM     92  C   UNL A   1      44.483  27.930  32.434  1.00  0.00     0.064 A 
ATOM     93  C   UNL A   1      44.302  26.537  32.352  1.00  0.00     0.173 A 
ATOM     94  C   UNL A   1      44.752  28.466  33.701  1.00  0.00     0.173 A 
ATOM     95  F   UNL A   1      44.154  25.924  31.172  1.00  0.00    -0.203 F 
ATOM     96  C   UNL A   1      44.338  25.735  33.492  1.00  0.00     0.198 A 
ATOM     97  C   UNL A   1      44.832  27.659  34.829  1.00  0.00     0.198 A 
ATOM     98  F   UNL A   1      44.991  29.780  33.838  1.00  0.00    -0.203 F 
ATOM     99  F   UNL A   1      44.145  24.411  33.391  1.00  0.00    -0.200 F 
ATOM    100  C   UNL A   1      44.610  26.296  34.728  1.00  0.00     0.200 A 
ATOM    101  F   UNL A   1      45.155  28.201  36.011  1.00  0.00    -0.200 F 
ATOM    102  F   UNL A   1      44.686  25.520  35.819  1.00  0.00    -0.200 F 
ENDBRANCH  69  92
ENDBRANCH  43  44
ENDBRANCH  35  38
ENDBRANCH  33  34
ENDBRANCH  32  33
ENDBRANCH   1  32
TORSDOF 15
ENDMDL
MODEL 2
REMARK VINA RESULT:     -13.5      4.933      9.937
REMARK SMILES CS(=O)(=O)c1ccc(-n2nc(C(F)(F)F)cc2-c2ccc(CC(=O)NCCCNC(=O)c3ccc(-c4c5nc(c(-c6c(F)c(F)c(F)c(F)c6F)c6ccc([nH]6)c(-c6c(F)c(F)c(F)c(F)c6F)c6nc(c(-c7c(F)c(F)c(F)c(F)c7F)c7ccc4[nH]7)C=C6)C=C5)cc3)cc2)cc1
REMARK SMILES IDX 26 1 25 2 23 3 24 4 22 6 21 7 18 8 19 9 96 10 20 11 95 12
REMARK SMILES IDX 17 13 9 14 10 15 11 16 16 17 8 18 5 19 6 20 98 21 7 22 97 23
REMARK SMILES IDX 2 24 1 25 3 26 4 27 12 28 13 29 14 30 15 31 27 32 28 33
REMARK SMILES IDX 29 34 30 35 31 37 32 38 33 39 94 40 34 41 93 42 35 43 36 44
REMARK SMILES IDX 37 45 87 46 38 47 92 48 86 49 88 50 39 51 91 52 85 53 84 54
REMARK SMILES IDX 40 56 72 57 52 58 71 59 53 60 56 61 70 62 89 63 54 64 55 65
REMARK SMILES IDX 69 67 90 68 57 69 41 70 42 71 50 72 43 73 44 74 48 75 51 76
REMARK SMILES IDX 45 77 46 78 49 79 47 80 73 81 74 82 82 83 75 84 76 85 80 86
REMARK SMILES IDX 83 87 77 88 78 89 81 90 79 91 58 92 59 93 67 94 60 95 61 96
REMARK SMILES IDX 65 97 68 98 62 99 63 100 66 101 64 102
REMARK H PARENT 25 5 29 36 88 55 56 66
REMARK Flexibility Score: inf
ROOT
ATOM      1  C   UNL A   1      33.235  33.947  28.185  1.00  0.00     0.117 C 
ENDROOT
BRANCH   1   2
ATOM      2  N   UNL A   1      32.328  33.277  27.267  1.00  0.00    -0.356 N 
ATOM      3  C   UNL A   1      32.259  31.952  26.937  1.00  0.00     0.224 C 
ATOM      4  O   UNL A   1      31.403  31.594  26.126  1.00  0.00    -0.275 OA
ATOM      5  H   UNL A   1      31.671  33.859  26.822  1.00  0.00     0.163 HD
BRANCH   3   6
ATOM      6  C   UNL A   1      33.196  30.953  27.593  1.00  0.00     0.135 C 
BRANCH   6   7
ATOM      7  C   UNL A   1      33.052  29.545  27.067  1.00  0.00    -0.039 A 
ATOM      8  C   UNL A   1      32.728  26.960  25.979  1.00  0.00     0.000 A 
ATOM      9  C   UNL A   1      31.787  27.486  26.878  1.00  0.00     0.010 A 
ATOM     10  C   UNL A   1      33.861  27.719  25.676  1.00  0.00     0.010 A 
ATOM     11  C   UNL A   1      31.938  28.772  27.405  1.00  0.00     0.005 A 
ATOM     12  C   UNL A   1      34.028  28.993  26.225  1.00  0.00     0.005 A 
BRANCH   8  13
ATOM     13  C   UNL A   1      32.537  25.640  25.366  1.00  0.00     0.075 A 
ATOM     14  N   UNL A   1      31.563  25.316  24.427  1.00  0.00    -0.233 N 
ATOM     15  N   UNL A   1      31.448  23.980  24.242  1.00  0.00    -0.163 NA
ATOM     16  C   UNL A   1      32.499  23.452  24.898  1.00  0.00     0.167 A 
ATOM     17  C   UNL A   1      33.189  24.451  25.629  1.00  0.00     0.064 A 
BRANCH  14  18
ATOM     18  C   UNL A   1      30.691  26.209  23.763  1.00  0.00     0.065 A 
ATOM     19  C   UNL A   1      29.118  28.323  22.936  1.00  0.00     0.067 A 
ATOM     20  C   UNL A   1      30.418  28.200  22.438  1.00  0.00     0.022 A 
ATOM     21  C   UNL A   1      28.560  27.336  23.752  1.00  0.00     0.022 A 
ATOM     22  C   UNL A   1      31.216  27.146  22.865  1.00  0.00     0.030 A 
ATOM     23  C   UNL A   1      29.345  26.250  24.145  1.00  0.00     0.030 A 
BRANCH  19  24
ATOM     24  S   UNL A   1      28.235  29.816  22.571  1.00  0.00     0.175 S 
ATOM     25  C   UNL A   1      29.037  31.099  23.488  1.00  0.00     0.163 C 
ATOM     26  O   UNL A   1      26.903  29.640  23.126  1.00  0.00    -0.224 OA
ATOM     27  O   UNL A   1      28.416  30.073  21.162  1.00  0.00    -0.224 OA
ENDBRANCH  19  24
ENDBRANCH  14  18
BRANCH  16  28
ATOM     28  C   UNL A   1      32.840  21.987  24.851  1.00  0.00     0.435 C 
ATOM     29  F   UNL A   1      33.292  21.586  23.635  1.00  0.00    -0.164 F 
ATOM     30  F   UNL A   1      33.794  21.658  25.764  1.00  0.00    -0.164 F 
ATOM     31  F   UNL A   1      31.757  21.211  25.136  1.00  0.00    -0.164 F 
ENDBRANCH  16  28
ENDBRANCH   8  13
ENDBRANCH   6   7
ENDBRANCH   3   6
ENDBRANCH   1   2
BRANCH   1  32
ATOM     32  C   UNL A   1      32.769  35.358  28.557  1.00  0.00     0.042 C 
BRANCH  32  33
ATOM     33  C   UNL A   1      33.603  35.969  29.670  1.00  0.00     0.118 C 
BRANCH  33  34
ATOM     34  N   UNL A   1      32.945  35.917  30.978  1.00  0.00    -0.352 N 
ATOM     35  C   UNL A   1      33.148  35.012  32.003  1.00  0.00     0.251 C 
ATOM     36  H   UNL A   1      32.272  36.614  31.148  1.00  0.00     0.163 HD
ATOM     37  O   UNL A   1      32.302  34.856  32.876  1.00  0.00    -0.269 OA
BRANCH  35  38
ATOM     38  C   UNL A   1      34.402  34.239  32.039  1.00  0.00     0.039 A 
ATOM     39  C   UNL A   1      34.440  32.875  31.731  1.00  0.00     0.014 A 
ATOM     40  C   UNL A   1      35.564  34.913  32.389  1.00  0.00     0.014 A 
ATOM     41  C   UNL A   1      35.670  32.218  31.726  1.00  0.00     0.010 A 
ATOM     42  C   UNL A   1      36.778  34.327  32.171  1.00  0.00     0.010 A 
ATOM     43  C   UNL A   1      36.842  32.960  31.932  1.00  0.00    -0.014 A 
BRANCH  43  44
ATOM     44  C   UNL A   1      38.176  32.377  31.785  1.00  0.00     0.031 A 
ATOM     45  C   UNL A   1      38.931  32.199  33.072  1.00  0.00     0.074 A 
ATOM     46  C   UNL A   1      38.532  31.806  30.601  1.00  0.00     0.049 A 
ATOM     47  N   UNL A   1      40.199  32.336  33.279  1.00  0.00    -0.248 NA
ATOM     48  C   UNL A   1      38.190  31.882  34.311  1.00  0.00     0.031 C 
ATOM     49  C   UNL A   1      37.732  31.691  29.369  1.00  0.00     0.029 A 
ATOM     50  N   UNL A   1      39.635  31.075  30.276  1.00  0.00    -0.354 N 
ATOM     51  C   UNL A   1      40.438  31.985  34.610  1.00  0.00     0.074 A 
ATOM     52  C   UNL A   1      39.161  31.731  35.212  1.00  0.00     0.031 C 
ATOM     53  C   UNL A   1      38.249  30.738  28.564  1.00  0.00     0.029 A 
ATOM     54  C   UNL A   1      39.504  30.286  29.128  1.00  0.00     0.049 A 
ATOM     55  H   UNL A   1      40.462  31.101  30.808  1.00  0.00     0.167 HD
ATOM     56  C   UNL A   1      41.707  31.801  35.062  1.00  0.00     0.037 A 
ATOM     57  C   UNL A   1      40.353  29.308  28.712  1.00  0.00     0.037 A 
ATOM     58  C   UNL A   1      42.624  32.588  34.281  1.00  0.00     0.049 A 
ATOM     59  C   UNL A   1      41.625  29.505  29.455  1.00  0.00     0.074 A 
ATOM     60  C   UNL A   1      42.715  33.947  34.037  1.00  0.00     0.029 A 
ATOM     61  N   UNL A   1      43.321  31.978  33.269  1.00  0.00    -0.354 N 
ATOM     62  N   UNL A   1      42.423  30.517  29.261  1.00  0.00    -0.248 NA
ATOM     63  C   UNL A   1      41.735  28.847  30.749  1.00  0.00     0.031 C 
ATOM     64  C   UNL A   1      42.965  34.041  32.639  1.00  0.00     0.029 A 
ATOM     65  C   UNL A   1      43.145  32.748  32.148  1.00  0.00     0.049 A 
ATOM     66  H   UNL A   1      43.846  31.148  33.334  1.00  0.00     0.167 HD
ATOM     67  C   UNL A   1      42.798  30.905  30.537  1.00  0.00     0.074 A 
ATOM     68  C   UNL A   1      42.379  29.810  31.413  1.00  0.00     0.031 C 
ATOM     69  C   UNL A   1      43.125  32.199  30.817  1.00  0.00     0.037 A 
BRANCH  56  70
ATOM     70  C   UNL A   1      42.145  30.625  35.899  1.00  0.00     0.064 A 
ATOM     71  C   UNL A   1      43.153  30.818  36.867  1.00  0.00     0.173 A 
ATOM     72  C   UNL A   1      41.889  29.284  35.548  1.00  0.00     0.173 A 
ATOM     73  F   UNL A   1      43.461  32.051  37.299  1.00  0.00    -0.203 F 
ATOM     74  C   UNL A   1      43.944  29.763  37.329  1.00  0.00     0.198 A 
ATOM     75  C   UNL A   1      42.660  28.229  36.034  1.00  0.00     0.198 A 
ATOM     76  F   UNL A   1      40.951  28.952  34.656  1.00  0.00    -0.203 F 
ATOM     77  F   UNL A   1      44.982  30.016  38.137  1.00  0.00    -0.200 F 
ATOM     78  C   UNL A   1      43.712  28.472  36.892  1.00  0.00     0.200 A 
ATOM     79  F   UNL A   1      42.421  26.984  35.594  1.00  0.00    -0.200 F 
ATOM     80  F   UNL A   1      44.522  27.472  37.264  1.00  0.00    -0.200 F 
ENDBRANCH  56  70
BRANCH  57  81
ATOM     81  C   UNL A   1      40.090  28.048  27.964  1.00  0.00     0.064 A 
ATOM     82  C   UNL A   1      40.753  27.783  26.749  1.00  0.00     0.173 A 
ATOM     83  C   UNL A   1      39.435  26.953  28.560  1.00  0.00     0.173 A 
ATOM     84  F   UNL A   1      41.426  28.758  26.121  1.00  0.00    -0.203 F 
ATOM     85  C   UNL A   1      40.804  26.496  26.198  1.00  0.00     0.198 A 
ATOM     86  C   UNL A   1      39.483  25.670  28.005  1.00  0.00     0.198 A 
ATOM     87  F   UNL A   1      38.817  27.083  29.742  1.00  0.00    -0.203 F 
ATOM     88  F   UNL A   1      41.511  26.275  25.080  1.00  0.00    -0.200 F 
ATOM     89  C   UNL A   1      40.183  25.437  26.837  1.00  0.00     0.200 A 
ATOM     90  F   UNL A   1      38.903  24.645  28.646  1.00  0.00    -0.200 F 
ATOM     91  F   UNL A   1      40.296  24.194  26.351  1.00  0.00    -0.200 F 
ENDBRANCH  57  81
BRANCH  69  92
ATOM     92  C   UNL A   1      43.285  33.171  29.681  1.00  0.00     0.064 A 
ATOM     93  C   UNL A   1      42.291  34.064  29.239  1.00  0.00     0.173 A 
ATOM     94  C   UNL A   1      44.564  33.312  29.126  1.00  0.00     0.173 A 
ATOM     95  F   UNL A   1      41.073  34.079  29.794  1.00  0.00    -0.203 F 
ATOM     96  C   UNL A   1      42.559  35.013  28.254  1.00  0.00     0.198 A 
ATOM     97  C   UNL A   1      44.840  34.289  28.176  1.00  0.00     0.198 A 
ATOM     98  F   UNL A   1      45.569  32.529  29.547  1.00  0.00    -0.203 F 
ATOM     99  F   UNL A   1      41.591  35.843  27.836  1.00  0.00    -0.200 F 
ATOM    100  C   UNL A   1      43.835  35.129  27.729  1.00  0.00     0.200 A 
ATOM    101  F   UNL A   1      46.090  34.433  27.718  1.00  0.00    -0.200 F 
ATOM    102  F   UNL A   1      44.104  36.069  26.811  1.00  0.00    -0.200 F 
ENDBRANCH  69  92
ENDBRANCH  43  44
ENDBRANCH  35  38
ENDBRANCH  33  34
ENDBRANCH  32  33
ENDBRANCH   1  32
TORSDOF 15
ENDMDL
MODEL 3
REMARK VINA RESULT:     -13.3      5.109     10.009
REMARK SMILES CS(=O)(=O)c1ccc(-n2nc(C(F)(F)F)cc2-c2ccc(CC(=O)NCCCNC(=O)c3ccc(-c4c5nc(c(-c6c(F)c(F)c(F)c(F)c6F)c6ccc([nH]6)c(-c6c(F)c(F)c(F)c(F)c6F)c6nc(c(-c7c(F)c(F)c(F)c(F)c7F)c7ccc4[nH]7)C=C6)C=C5)cc3)cc2)cc1
REMARK SMILES IDX 26 1 25 2 23 3 24 4 22 6 21 7 18 8 19 9 96 10 20 11 95 12
REMARK SMILES IDX 17 13 9 14 10 15 11 16 16 17 8 18 5 19 6 20 98 21 7 22 97 23
REMARK SMILES IDX 2 24 1 25 3 26 4 27 12 28 13 29 14 30 15 31 27 32 28 33
REMARK SMILES IDX 29 34 30 35 31 37 32 38 33 39 94 40 34 41 93 42 35 43 36 44
REMARK SMILES IDX 37 45 87 46 38 47 92 48 86 49 88 50 39 51 91 52 85 53 84 54
REMARK SMILES IDX 40 56 72 57 52 58 71 59 53 60 56 61 70 62 89 63 54 64 55 65
REMARK SMILES IDX 69 67 90 68 57 69 41 70 42 71 50 72 43 73 44 74 48 75 51 76
REMARK SMILES IDX 45 77 46 78 49 79 47 80 73 81 74 82 82 83 75 84 76 85 80 86
REMARK SMILES IDX 83 87 77 88 78 89 81 90 79 91 58 92 59 93 67 94 60 95 61 96
REMARK SMILES IDX 65 97 68 98 62 99 63 100 66 101 64 102
REMARK H PARENT 25 5 29 36 88 55 56 66
REMARK Flexibility Score: inf
ROOT
ATOM      1  C   UNL A   1      34.287  34.096  27.994  1.00  0.00     0.117 C 
ENDROOT
BRANCH   1   2
ATOM      2  N   UNL A   1      34.873  32.843  28.440  1.00  0.00    -0.356 N 
ATOM      3  C   UNL A   1      34.453  31.563  28.209  1.00  0.00     0.224 C 
ATOM      4  O   UNL A   1      35.106  30.635  28.689  1.00  0.00    -0.275 OA
ATOM      5  H   UNL A   1      35.688  32.929  28.987  1.00  0.00     0.163 HD
BRANCH   3   6
ATOM      6  C   UNL A   1      33.230  31.306  27.345  1.00  0.00     0.135 C 
BRANCH   6   7
ATOM      7  C   UNL A   1      33.091  29.871  26.896  1.00  0.00    -0.039 A 
ATOM      8  C   UNL A   1      32.762  27.229  25.956  1.00  0.00     0.000 A 
ATOM      9  C   UNL A   1      31.886  27.768  26.912  1.00  0.00     0.010 A 
ATOM     10  C   UNL A   1      33.836  28.008  25.519  1.00  0.00     0.010 A 
ATOM     11  C   UNL A   1      32.038  29.080  27.366  1.00  0.00     0.005 A 
ATOM     12  C   UNL A   1      34.006  29.311  25.994  1.00  0.00     0.005 A 
BRANCH   8  13
ATOM     13  C   UNL A   1      32.563  25.877  25.420  1.00  0.00     0.075 A 
ATOM     14  N   UNL A   1      31.583  25.503  24.507  1.00  0.00    -0.233 N 
ATOM     15  N   UNL A   1      31.464  24.158  24.400  1.00  0.00    -0.163 NA
ATOM     16  C   UNL A   1      32.517  23.666  25.080  1.00  0.00     0.167 A 
ATOM     17  C   UNL A   1      33.214  24.703  25.748  1.00  0.00     0.064 A 
BRANCH  14  18
ATOM     18  C   UNL A   1      30.711  26.359  23.797  1.00  0.00     0.065 A 
ATOM     19  C   UNL A   1      29.058  28.385  22.906  1.00  0.00     0.067 A 
ATOM     20  C   UNL A   1      30.407  28.389  22.540  1.00  0.00     0.022 A 
ATOM     21  C   UNL A   1      28.506  27.317  23.617  1.00  0.00     0.022 A 
ATOM     22  C   UNL A   1      31.244  27.379  22.999  1.00  0.00     0.030 A 
ATOM     23  C   UNL A   1      29.335  26.276  24.040  1.00  0.00     0.030 A 
BRANCH  19  24
ATOM     24  S   UNL A   1      28.096  29.822  22.519  1.00  0.00     0.175 S 
ATOM     25  C   UNL A   1      28.965  31.198  23.212  1.00  0.00     0.163 C 
ATOM     26  O   UNL A   1      26.846  29.675  23.246  1.00  0.00    -0.224 OA
ATOM     27  O   UNL A   1      28.099  29.950  21.081  1.00  0.00    -0.224 OA
ENDBRANCH  19  24
ENDBRANCH  14  18
BRANCH  16  28
ATOM     28  C   UNL A   1      32.853  22.199  25.116  1.00  0.00     0.435 C 
ATOM     29  F   UNL A   1      32.706  21.651  26.349  1.00  0.00    -0.164 F 
ATOM     30  F   UNL A   1      32.077  21.479  24.261  1.00  0.00    -0.164 F 
ATOM     31  F   UNL A   1      34.143  21.971  24.743  1.00  0.00    -0.164 F 
ENDBRANCH  16  28
ENDBRANCH   8  13
ENDBRANCH   6   7
ENDBRANCH   3   6
ENDBRANCH   1   2
BRANCH   1  32
ATOM     32  C   UNL A   1      33.089  34.529  28.844  1.00  0.00     0.042 C 
BRANCH  32  33
ATOM     33  C   UNL A   1      33.362  35.804  29.623  1.00  0.00     0.118 C 
BRANCH  33  34
ATOM     34  N   UNL A   1      32.707  35.831  30.933  1.00  0.00    -0.352 N 
ATOM     35  C   UNL A   1      33.005  35.079  32.054  1.00  0.00     0.251 C 
ATOM     36  H   UNL A   1      31.961  36.465  31.027  1.00  0.00     0.163 HD
ATOM     37  O   UNL A   1      32.177  34.932  32.946  1.00  0.00    -0.269 OA
BRANCH  35  38
ATOM     38  C   UNL A   1      34.336  34.457  32.169  1.00  0.00     0.039 A 
ATOM     39  C   UNL A   1      34.538  33.092  31.946  1.00  0.00     0.014 A 
ATOM     40  C   UNL A   1      35.402  35.280  32.506  1.00  0.00     0.014 A 
ATOM     41  C   UNL A   1      35.834  32.581  32.012  1.00  0.00     0.010 A 
ATOM     42  C   UNL A   1      36.681  34.825  32.355  1.00  0.00     0.010 A 
ATOM     43  C   UNL A   1      36.907  33.463  32.202  1.00  0.00    -0.014 A 
BRANCH  43  44
ATOM     44  C   UNL A   1      38.303  33.029  32.124  1.00  0.00     0.031 A 
ATOM     45  C   UNL A   1      39.055  33.095  33.424  1.00  0.00     0.074 A 
ATOM     46  C   UNL A   1      38.739  32.370  31.017  1.00  0.00     0.049 A 
ATOM     47  N   UNL A   1      40.295  33.405  33.613  1.00  0.00    -0.248 NA
ATOM     48  C   UNL A   1      38.340  32.840  34.691  1.00  0.00     0.031 C 
ATOM     49  C   UNL A   1      37.976  32.017  29.807  1.00  0.00     0.029 A 
ATOM     50  N   UNL A   1      39.925  31.742  30.780  1.00  0.00    -0.354 N 
ATOM     51  C   UNL A   1      40.555  33.243  34.976  1.00  0.00     0.074 A 
ATOM     52  C   UNL A   1      39.309  32.912  35.604  1.00  0.00     0.031 C 
ATOM     53  C   UNL A   1      38.613  31.043  29.120  1.00  0.00     0.029 A 
ATOM     54  C   UNL A   1      39.904  30.814  29.733  1.00  0.00     0.049 A 
ATOM     55  H   UNL A   1      40.736  31.928  31.305  1.00  0.00     0.167 HD
ATOM     56  C   UNL A   1      41.831  33.266  35.446  1.00  0.00     0.037 A 
ATOM     57  C   UNL A   1      40.869  29.901  29.436  1.00  0.00     0.037 A 
ATOM     58  C   UNL A   1      42.659  34.059  34.578  1.00  0.00     0.049 A 
ATOM     59  C   UNL A   1      42.098  30.334  30.150  1.00  0.00     0.074 A 
ATOM     60  C   UNL A   1      42.593  35.381  34.175  1.00  0.00     0.029 A 
ATOM     61  N   UNL A   1      43.438  33.421  33.644  1.00  0.00    -0.354 N 
ATOM     62  N   UNL A   1      42.774  31.404  29.838  1.00  0.00    -0.248 NA
ATOM     63  C   UNL A   1      42.267  29.850  31.513  1.00  0.00     0.031 C 
ATOM     64  C   UNL A   1      42.849  35.339  32.775  1.00  0.00     0.029 A 
ATOM     65  C   UNL A   1      43.187  34.028  32.440  1.00  0.00     0.049 A 
ATOM     66  H   UNL A   1      44.056  32.673  33.808  1.00  0.00     0.167 HD
ATOM     67  C   UNL A   1      43.082  31.981  31.059  1.00  0.00     0.074 A 
ATOM     68  C   UNL A   1      42.783  30.954  32.058  1.00  0.00     0.031 C 
ATOM     69  C   UNL A   1      43.251  33.328  31.184  1.00  0.00     0.037 A 
BRANCH  56  70
ATOM     70  C   UNL A   1      42.393  32.257  36.416  1.00  0.00     0.064 A 
ATOM     71  C   UNL A   1      43.178  32.715  37.495  1.00  0.00     0.173 A 
ATOM     72  C   UNL A   1      42.497  30.880  36.131  1.00  0.00     0.173 A 
ATOM     73  F   UNL A   1      43.136  34.001  37.874  1.00  0.00    -0.203 F 
ATOM     74  C   UNL A   1      44.108  31.890  38.133  1.00  0.00     0.198 A 
ATOM     75  C   UNL A   1      43.405  30.052  36.791  1.00  0.00     0.198 A 
ATOM     76  F   UNL A   1      41.799  30.306  35.147  1.00  0.00    -0.203 F 
ATOM     77  F   UNL A   1      44.934  32.408  39.053  1.00  0.00    -0.200 F 
ATOM     78  C   UNL A   1      44.238  30.565  37.762  1.00  0.00     0.200 A 
ATOM     79  F   UNL A   1      43.517  28.770  36.412  1.00  0.00    -0.200 F 
ATOM     80  F   UNL A   1      45.187  29.795  38.310  1.00  0.00    -0.200 F 
ENDBRANCH  56  70
BRANCH  57  81
ATOM     81  C   UNL A   1      40.767  28.540  28.843  1.00  0.00     0.064 A 
ATOM     82  C   UNL A   1      40.018  27.532  29.483  1.00  0.00     0.173 A 
ATOM     83  C   UNL A   1      41.131  28.282  27.507  1.00  0.00     0.173 A 
ATOM     84  F   UNL A   1      39.603  27.700  30.747  1.00  0.00    -0.203 F 
ATOM     85  C   UNL A   1      39.612  26.371  28.812  1.00  0.00     0.198 A 
ATOM     86  C   UNL A   1      40.729  27.119  26.841  1.00  0.00     0.198 A 
ATOM     87  F   UNL A   1      41.800  29.195  26.789  1.00  0.00    -0.203 F 
ATOM     88  F   UNL A   1      38.835  25.475  29.438  1.00  0.00    -0.200 F 
ATOM     89  C   UNL A   1      39.953  26.174  27.486  1.00  0.00     0.200 A 
ATOM     90  F   UNL A   1      41.040  26.951  25.548  1.00  0.00    -0.200 F 
ATOM     91  F   UNL A   1      39.502  25.101  26.822  1.00  0.00    -0.200 F 
ENDBRANCH  57  81
BRANCH  69  92
ATOM     92  C   UNL A   1      43.310  34.172  29.941  1.00  0.00     0.064 A 
ATOM     93  C   UNL A   1      44.464  34.382  29.164  1.00  0.00     0.173 A 
ATOM     94  C   UNL A   1      42.097  34.653  29.429  1.00  0.00     0.173 A 
ATOM     95  F   UNL A   1      45.645  33.860  29.517  1.00  0.00    -0.203 F 
ATOM     96  C   UNL A   1      44.407  35.085  27.961  1.00  0.00     0.198 A 
ATOM     97  C   UNL A   1      42.036  35.314  28.208  1.00  0.00     0.198 A 
ATOM     98  F   UNL A   1      40.952  34.435  30.094  1.00  0.00    -0.203 F 
ATOM     99  F   UNL A   1      45.524  35.288  27.245  1.00  0.00    -0.200 F 
ATOM    100  C   UNL A   1      43.192  35.544  27.481  1.00  0.00     0.200 A 
ATOM    101  F   UNL A   1      40.849  35.702  27.722  1.00  0.00    -0.200 F 
ATOM    102  F   UNL A   1      43.130  36.184  26.304  1.00  0.00    -0.200 F 
ENDBRANCH  69  92
ENDBRANCH  43  44
ENDBRANCH  35  38
ENDBRANCH  33  34
ENDBRANCH  32  33
ENDBRANCH   1  32
TORSDOF 15
ENDMDL
