MODEL 1
REMARK VINA RESULT:     -12.5      0.000      0.000
REMARK SMILES CC(C)c1ocnc1C(=O)N[C@H](CC(=O)NCCCNC(=O)c1ccc(-c2c3nc(c(-c4c(F)c(F)c(F)c(F)c4F)c4ccc([nH]4)c(-c4c(F)c(F)c(F)c(F)c4F)c4nc(c(-c5c(F)c(F)c(F)c(F)c5F)c5ccc2[nH]5)C=C4)C=C3)cc1)c1ccccc1Cl
REMARK SMILES IDX 17 1 16 2 14 3 15 4 13 6 12 7 11 8 9 9 10 10 8 12 4 13 5 14
REMARK SMILES IDX 6 15 7 16 2 17 1 18 3 19 86 20 87 21 91 22 88 23 90 24 92 25
REMARK SMILES IDX 89 26 18 27 19 28 20 29 21 30 22 32 23 33 24 34 85 35 25 36
REMARK SMILES IDX 84 37 26 38 27 39 28 40 78 41 29 42 83 43 77 44 79 45 30 46
REMARK SMILES IDX 82 47 76 48 75 49 31 51 63 52 43 53 62 54 44 55 47 56 61 57
REMARK SMILES IDX 80 58 45 59 46 60 60 62 81 63 48 64 32 65 33 66 41 67 34 68
REMARK SMILES IDX 35 69 39 70 42 71 36 72 37 73 40 74 38 75 64 76 65 77 73 78
REMARK SMILES IDX 66 79 67 80 71 81 74 82 68 83 69 84 72 85 70 86 49 87 50 88
REMARK SMILES IDX 58 89 51 90 52 91 56 92 59 93 53 94 54 95 57 96 55 97
REMARK H PARENT 16 5 11 11 20 31 79 50 47 61
REMARK Flexibility Score: inf
ROOT
ATOM      1  C   UNL A   1      31.535  30.851  26.128  1.00  0.00     0.117 C 
ENDROOT
BRANCH   1   2
ATOM      2  N   UNL A   1      32.824  30.352  26.558  1.00  0.00    -0.356 N 
ATOM      3  C   UNL A   1      33.138  29.222  27.238  1.00  0.00     0.222 C 
ATOM      4  O   UNL A   1      34.290  29.114  27.662  1.00  0.00    -0.275 OA
ATOM      5  H   UNL A   1      33.592  30.922  26.320  1.00  0.00     0.163 HD
BRANCH   3   6
ATOM      6  C   UNL A   1      32.120  28.121  27.410  1.00  0.00     0.129 C 
BRANCH   6   7
ATOM      7  C   UNL A   1      32.137  26.969  26.374  1.00  0.00     0.123 C 
BRANCH   7   8
ATOM      8  N   UNL A   1      31.575  25.747  26.959  1.00  0.00    -0.343 N 
ATOM      9  C   UNL A   1      31.812  24.406  26.751  1.00  0.00     0.274 C 
ATOM     10  O   UNL A   1      31.026  23.628  27.293  1.00  0.00    -0.267 OA
ATOM     11  H   UNL A   1      30.885  25.921  27.639  1.00  0.00     0.164 HD
BRANCH   9  12
ATOM     12  C   UNL A   1      32.965  23.944  25.975  1.00  0.00     0.170 A 
ATOM     13  C   UNL A   1      33.073  23.886  24.590  1.00  0.00     0.139 A 
ATOM     14  O   UNL A   1      34.282  23.312  24.285  1.00  0.00    -0.447 OA
ATOM     15  C   UNL A   1      34.834  23.035  25.489  1.00  0.00     0.309 A 
ATOM     16  N   UNL A   1      34.107  23.385  26.519  1.00  0.00    -0.211 NA
BRANCH  13  17
ATOM     17  C   UNL A   1      32.213  24.202  23.412  1.00  0.00     0.052 C 
ATOM     18  C   UNL A   1      33.021  24.243  22.118  1.00  0.00     0.016 C 
ATOM     19  C   UNL A   1      31.008  23.274  23.311  1.00  0.00     0.016 C 
ENDBRANCH  13  17
ENDBRANCH   9  12
ENDBRANCH   7   8
BRANCH   7  20
ATOM     20  C   UNL A   1      31.716  27.357  24.953  1.00  0.00    -0.006 A 
ATOM     21  C   UNL A   1      30.326  27.292  24.684  1.00  0.00     0.007 A 
ATOM     22  C   UNL A   1      32.527  27.757  23.876  1.00  0.00     0.046 A 
ATOM     23  C   UNL A   1      29.800  27.438  23.399  1.00  0.00     0.000 A 
ATOM     24  C   UNL A   1      32.006  27.837  22.573  1.00  0.00     0.021 A 
ATOM     25  Cl  UNL A   1      34.147  28.342  24.013  1.00  0.00    -0.084 Cl
ATOM     26  C   UNL A   1      30.650  27.655  22.330  1.00  0.00     0.002 A 
ENDBRANCH   7  20
ENDBRANCH   6   7
ENDBRANCH   3   6
ENDBRANCH   1   2
BRANCH   1  27
ATOM     27  C   UNL A   1      31.372  32.318  26.513  1.00  0.00     0.042 C 
BRANCH  27  28
ATOM     28  C   UNL A   1      32.570  32.900  27.257  1.00  0.00     0.118 C 
BRANCH  28  29
ATOM     29  N   UNL A   1      32.383  34.297  27.615  1.00  0.00    -0.352 N 
ATOM     30  C   UNL A   1      32.999  35.031  28.595  1.00  0.00     0.251 C 
ATOM     31  H   UNL A   1      31.720  34.786  27.076  1.00  0.00     0.163 HD
ATOM     32  O   UNL A   1      32.580  36.149  28.883  1.00  0.00    -0.269 OA
BRANCH  30  33
ATOM     33  C   UNL A   1      34.155  34.466  29.323  1.00  0.00     0.039 A 
ATOM     34  C   UNL A   1      33.931  33.806  30.533  1.00  0.00     0.014 A 
ATOM     35  C   UNL A   1      35.452  34.593  28.819  1.00  0.00     0.014 A 
ATOM     36  C   UNL A   1      35.004  33.224  31.209  1.00  0.00     0.010 A 
ATOM     37  C   UNL A   1      36.507  33.942  29.450  1.00  0.00     0.010 A 
ATOM     38  C   UNL A   1      36.296  33.260  30.657  1.00  0.00    -0.014 A 
BRANCH  38  39
ATOM     39  C   UNL A   1      37.437  32.597  31.336  1.00  0.00     0.031 A 
ATOM     40  C   UNL A   1      38.159  31.463  30.665  1.00  0.00     0.074 A 
ATOM     41  C   UNL A   1      37.789  32.986  32.577  1.00  0.00     0.049 A 
ATOM     42  N   UNL A   1      39.145  30.727  31.114  1.00  0.00    -0.248 NA
ATOM     43  C   UNL A   1      37.694  31.084  29.322  1.00  0.00     0.031 C 
ATOM     44  C   UNL A   1      37.133  34.041  33.351  1.00  0.00     0.029 A 
ATOM     45  N   UNL A   1      38.781  32.533  33.409  1.00  0.00    -0.354 N 
ATOM     46  C   UNL A   1      39.408  29.799  30.116  1.00  0.00     0.074 A 
ATOM     47  C   UNL A   1      38.440  30.021  29.065  1.00  0.00     0.031 C 
ATOM     48  C   UNL A   1      37.758  34.174  34.531  1.00  0.00     0.029 A 
ATOM     49  C   UNL A   1      38.832  33.189  34.614  1.00  0.00     0.049 A 
ATOM     50  H   UNL A   1      39.399  31.805  33.165  1.00  0.00     0.167 HD
ATOM     51  C   UNL A   1      40.388  28.864  30.068  1.00  0.00     0.037 A 
ATOM     52  C   UNL A   1      39.651  33.013  35.669  1.00  0.00     0.037 A 
ATOM     53  C   UNL A   1      41.361  28.660  31.108  1.00  0.00     0.049 A 
ATOM     54  C   UNL A   1      40.725  31.961  35.594  1.00  0.00     0.074 A 
ATOM     55  C   UNL A   1      42.424  27.775  31.135  1.00  0.00     0.029 A 
ATOM     56  N   UNL A   1      41.388  29.354  32.309  1.00  0.00    -0.354 N 
ATOM     57  N   UNL A   1      41.006  31.133  34.617  1.00  0.00    -0.248 NA
ATOM     58  C   UNL A   1      41.599  31.826  36.766  1.00  0.00     0.031 C 
ATOM     59  C   UNL A   1      43.064  27.898  32.373  1.00  0.00     0.029 A 
ATOM     60  C   UNL A   1      42.437  28.900  33.094  1.00  0.00     0.049 A 
ATOM     61  H   UNL A   1      40.756  30.063  32.567  1.00  0.00     0.167 HD
ATOM     62  C   UNL A   1      42.105  30.400  35.043  1.00  0.00     0.074 A 
ATOM     63  C   UNL A   1      42.449  30.894  36.360  1.00  0.00     0.031 C 
ATOM     64  C   UNL A   1      42.769  29.407  34.401  1.00  0.00     0.037 A 
BRANCH  51  65
ATOM     65  C   UNL A   1      40.454  27.992  28.846  1.00  0.00     0.064 A 
ATOM     66  C   UNL A   1      39.754  26.778  28.770  1.00  0.00     0.173 A 
ATOM     67  C   UNL A   1      41.198  28.389  27.725  1.00  0.00     0.173 A 
ATOM     68  F   UNL A   1      39.037  26.345  29.819  1.00  0.00    -0.203 F 
ATOM     69  C   UNL A   1      39.824  25.978  27.632  1.00  0.00     0.198 A 
ATOM     70  C   UNL A   1      41.239  27.604  26.576  1.00  0.00     0.198 A 
ATOM     71  F   UNL A   1      41.883  29.543  27.740  1.00  0.00    -0.203 F 
ATOM     72  F   UNL A   1      39.192  24.797  27.605  1.00  0.00    -0.200 F 
ATOM     73  C   UNL A   1      40.560  26.395  26.534  1.00  0.00     0.200 A 
ATOM     74  F   UNL A   1      41.940  28.014  25.510  1.00  0.00    -0.200 F 
ATOM     75  F   UNL A   1      40.621  25.628  25.436  1.00  0.00    -0.200 F 
ENDBRANCH  51  65
BRANCH  52  76
ATOM     76  C   UNL A   1      39.506  33.872  36.872  1.00  0.00     0.064 A 
ATOM     77  C   UNL A   1      40.110  35.135  36.932  1.00  0.00     0.173 A 
ATOM     78  C   UNL A   1      38.763  33.452  37.985  1.00  0.00     0.173 A 
ATOM     79  F   UNL A   1      40.845  35.575  35.900  1.00  0.00    -0.203 F 
ATOM     80  C   UNL A   1      39.995  35.937  38.067  1.00  0.00     0.198 A 
ATOM     81  C   UNL A   1      38.624  34.266  39.108  1.00  0.00     0.198 A 
ATOM     82  F   UNL A   1      38.159  32.255  37.977  1.00  0.00    -0.203 F 
ATOM     83  F   UNL A   1      40.622  37.120  38.114  1.00  0.00    -0.200 F 
ATOM     84  C   UNL A   1      39.247  35.504  39.151  1.00  0.00     0.200 A 
ATOM     85  F   UNL A   1      37.886  33.851  40.147  1.00  0.00    -0.200 F 
ATOM     86  F   UNL A   1      39.132  36.277  40.240  1.00  0.00    -0.200 F 
ENDBRANCH  52  76
BRANCH  64  87
ATOM     87  C   UNL A   1      43.959  28.814  35.099  1.00  0.00     0.064 A 
ATOM     88  C   UNL A   1      45.247  29.350  34.946  1.00  0.00     0.173 A 
ATOM     89  C   UNL A   1      43.802  27.717  35.959  1.00  0.00     0.173 A 
ATOM     90  F   UNL A   1      45.452  30.389  34.124  1.00  0.00    -0.203 F 
ATOM     91  C   UNL A   1      46.337  28.789  35.607  1.00  0.00     0.198 A 
ATOM     92  C   UNL A   1      44.890  27.180  36.643  1.00  0.00     0.198 A 
ATOM     93  F   UNL A   1      42.591  27.172  36.147  1.00  0.00    -0.203 F 
ATOM     94  F   UNL A   1      47.566  29.284  35.404  1.00  0.00    -0.200 F 
ATOM     95  C   UNL A   1      46.157  27.712  36.460  1.00  0.00     0.200 A 
ATOM     96  F   UNL A   1      44.710  26.149  37.480  1.00  0.00    -0.200 F 
ATOM     97  F   UNL A   1      47.207  27.179  37.100  1.00  0.00    -0.200 F 
ENDBRANCH  64  87
ENDBRANCH  38  39
ENDBRANCH  30  33
ENDBRANCH  28  29
ENDBRANCH  27  28
ENDBRANCH   1  27
TORSDOF 15
ENDMDL
MODEL 2
REMARK VINA RESULT:     -12.4      0.204      1.579
REMARK SMILES CC(C)c1ocnc1C(=O)N[C@H](CC(=O)NCCCNC(=O)c1ccc(-c2c3nc(c(-c4c(F)c(F)c(F)c(F)c4F)c4ccc([nH]4)c(-c4c(F)c(F)c(F)c(F)c4F)c4nc(c(-c5c(F)c(F)c(F)c(F)c5F)c5ccc2[nH]5)C=C4)C=C3)cc1)c1ccccc1Cl
REMARK SMILES IDX 17 1 16 2 14 3 15 4 13 6 12 7 11 8 9 9 10 10 8 12 4 13 5 14
REMARK SMILES IDX 6 15 7 16 2 17 1 18 3 19 86 20 87 21 91 22 88 23 90 24 92 25
REMARK SMILES IDX 89 26 18 27 19 28 20 29 21 30 22 32 23 33 24 34 85 35 25 36
REMARK SMILES IDX 84 37 26 38 27 39 28 40 78 41 29 42 83 43 77 44 79 45 30 46
REMARK SMILES IDX 82 47 76 48 75 49 31 51 63 52 43 53 62 54 44 55 47 56 61 57
REMARK SMILES IDX 80 58 45 59 46 60 60 62 81 63 48 64 32 65 33 66 41 67 34 68
REMARK SMILES IDX 35 69 39 70 42 71 36 72 37 73 40 74 38 75 64 76 65 77 73 78
REMARK SMILES IDX 66 79 67 80 71 81 74 82 68 83 69 84 72 85 70 86 49 87 50 88
REMARK SMILES IDX 58 89 51 90 52 91 56 92 59 93 53 94 54 95 57 96 55 97
REMARK H PARENT 16 5 11 11 20 31 79 50 47 61
REMARK Flexibility Score: inf
ROOT
ATOM      1  C   UNL A   1      31.639  30.866  26.120  1.00  0.00     0.117 C 
ENDROOT
BRANCH   1   2
ATOM      2  N   UNL A   1      32.893  30.270  26.531  1.00  0.00    -0.356 N 
ATOM      3  C   UNL A   1      33.132  29.102  27.177  1.00  0.00     0.222 C 
ATOM      4  O   UNL A   1      34.275  28.906  27.592  1.00  0.00    -0.275 OA
ATOM      5  H   UNL A   1      33.696  30.794  26.306  1.00  0.00     0.163 HD
BRANCH   3   6
ATOM      6  C   UNL A   1      32.043  28.067  27.322  1.00  0.00     0.129 C 
BRANCH   6   7
ATOM      7  C   UNL A   1      32.018  26.912  26.290  1.00  0.00     0.123 C 
BRANCH   7   8
ATOM      8  N   UNL A   1      31.386  25.722  26.869  1.00  0.00    -0.343 N 
ATOM      9  C   UNL A   1      31.630  24.372  26.749  1.00  0.00     0.274 C 
ATOM     10  O   UNL A   1      30.785  23.624  27.243  1.00  0.00    -0.267 OA
ATOM     11  H   UNL A   1      30.631  25.932  27.465  1.00  0.00     0.164 HD
BRANCH   9  12
ATOM     12  C   UNL A   1      32.853  23.868  26.119  1.00  0.00     0.170 A 
ATOM     13  C   UNL A   1      33.094  23.722  24.758  1.00  0.00     0.139 A 
ATOM     14  O   UNL A   1      34.327  23.137  24.609  1.00  0.00    -0.447 OA
ATOM     15  C   UNL A   1      34.760  22.940  25.876  1.00  0.00     0.309 A 
ATOM     16  N   UNL A   1      33.938  23.352  26.806  1.00  0.00    -0.211 NA
BRANCH  13  17
ATOM     17  C   UNL A   1      32.352  23.956  23.485  1.00  0.00     0.052 C 
ATOM     18  C   UNL A   1      32.950  23.159  22.328  1.00  0.00     0.016 C 
ATOM     19  C   UNL A   1      30.854  23.720  23.637  1.00  0.00     0.016 C 
ENDBRANCH  13  17
ENDBRANCH   9  12
ENDBRANCH   7   8
BRANCH   7  20
ATOM     20  C   UNL A   1      31.638  27.316  24.861  1.00  0.00    -0.006 A 
ATOM     21  C   UNL A   1      30.251  27.323  24.573  1.00  0.00     0.007 A 
ATOM     22  C   UNL A   1      32.485  27.668  23.795  1.00  0.00     0.046 A 
ATOM     23  C   UNL A   1      29.751  27.492  23.279  1.00  0.00     0.000 A 
ATOM     24  C   UNL A   1      31.987  27.770  22.484  1.00  0.00     0.021 A 
ATOM     25  Cl  UNL A   1      34.131  28.168  23.953  1.00  0.00    -0.084 Cl
ATOM     26  C   UNL A   1      30.628  27.658  22.222  1.00  0.00     0.002 A 
ENDBRANCH   7  20
ENDBRANCH   6   7
ENDBRANCH   3   6
ENDBRANCH   1   2
BRANCH   1  27
ATOM     27  C   UNL A   1      31.402  32.180  26.859  1.00  0.00     0.042 C 
BRANCH  27  28
ATOM     28  C   UNL A   1      32.684  32.916  27.239  1.00  0.00     0.118 C 
BRANCH  28  29
ATOM     29  N   UNL A   1      32.440  34.289  27.652  1.00  0.00    -0.352 N 
ATOM     30  C   UNL A   1      33.005  34.998  28.681  1.00  0.00     0.251 C 
ATOM     31  H   UNL A   1      31.775  34.779  27.117  1.00  0.00     0.163 HD
ATOM     32  O   UNL A   1      32.540  36.087  29.005  1.00  0.00    -0.269 OA
BRANCH  30  33
ATOM     33  C   UNL A   1      34.159  34.440  29.415  1.00  0.00     0.039 A 
ATOM     34  C   UNL A   1      33.929  33.744  30.603  1.00  0.00     0.014 A 
ATOM     35  C   UNL A   1      35.462  34.606  28.937  1.00  0.00     0.014 A 
ATOM     36  C   UNL A   1      35.002  33.168  31.284  1.00  0.00     0.010 A 
ATOM     37  C   UNL A   1      36.520  33.962  29.571  1.00  0.00     0.010 A 
ATOM     38  C   UNL A   1      36.302  33.245  30.757  1.00  0.00    -0.014 A 
BRANCH  38  39
ATOM     39  C   UNL A   1      37.445  32.590  31.440  1.00  0.00     0.031 A 
ATOM     40  C   UNL A   1      38.162  31.445  30.781  1.00  0.00     0.074 A 
ATOM     41  C   UNL A   1      37.804  32.995  32.673  1.00  0.00     0.049 A 
ATOM     42  N   UNL A   1      39.149  30.714  31.235  1.00  0.00    -0.248 NA
ATOM     43  C   UNL A   1      37.689  31.048  29.446  1.00  0.00     0.031 C 
ATOM     44  C   UNL A   1      37.154  34.062  33.435  1.00  0.00     0.029 A 
ATOM     45  N   UNL A   1      38.799  32.551  33.507  1.00  0.00    -0.354 N 
ATOM     46  C   UNL A   1      39.405  29.771  30.249  1.00  0.00     0.074 A 
ATOM     47  C   UNL A   1      38.432  29.980  29.200  1.00  0.00     0.031 C 
ATOM     48  C   UNL A   1      37.784  34.210  34.610  1.00  0.00     0.029 A 
ATOM     49  C   UNL A   1      38.857  33.224  34.702  1.00  0.00     0.049 A 
ATOM     50  H   UNL A   1      39.415  31.819  33.270  1.00  0.00     0.167 HD
ATOM     51  C   UNL A   1      40.382  28.833  30.209  1.00  0.00     0.037 A 
ATOM     52  C   UNL A   1      39.681  33.062  35.755  1.00  0.00     0.037 A 
ATOM     53  C   UNL A   1      41.361  28.642  31.248  1.00  0.00     0.049 A 
ATOM     54  C   UNL A   1      40.752  32.006  35.690  1.00  0.00     0.074 A 
ATOM     55  C   UNL A   1      42.422  27.755  31.282  1.00  0.00     0.029 A 
ATOM     56  N   UNL A   1      41.395  29.353  32.439  1.00  0.00    -0.354 N 
ATOM     57  N   UNL A   1      41.026  31.165  34.723  1.00  0.00    -0.248 NA
ATOM     58  C   UNL A   1      41.632  31.886  36.860  1.00  0.00     0.031 C 
ATOM     59  C   UNL A   1      43.068  27.894  32.515  1.00  0.00     0.029 A 
ATOM     60  C   UNL A   1      42.446  28.908  33.225  1.00  0.00     0.049 A 
ATOM     61  H   UNL A   1      40.765  30.067  32.690  1.00  0.00     0.167 HD
ATOM     62  C   UNL A   1      42.126  30.434  35.154  1.00  0.00     0.074 A 
ATOM     63  C   UNL A   1      42.478  30.946  36.463  1.00  0.00     0.031 C 
ATOM     64  C   UNL A   1      42.786  29.431  34.523  1.00  0.00     0.037 A 
BRANCH  51  65
ATOM     65  C   UNL A   1      40.442  27.945  29.000  1.00  0.00     0.064 A 
ATOM     66  C   UNL A   1      39.715  26.745  28.932  1.00  0.00     0.173 A 
ATOM     67  C   UNL A   1      41.206  28.310  27.882  1.00  0.00     0.173 A 
ATOM     68  F   UNL A   1      38.978  26.343  29.978  1.00  0.00    -0.203 F 
ATOM     69  C   UNL A   1      39.778  25.929  27.805  1.00  0.00     0.198 A 
ATOM     70  C   UNL A   1      41.240  27.509  26.743  1.00  0.00     0.198 A 
ATOM     71  F   UNL A   1      41.916  29.448  27.889  1.00  0.00    -0.203 F 
ATOM     72  F   UNL A   1      39.120  24.763  27.787  1.00  0.00    -0.200 F 
ATOM     73  C   UNL A   1      40.534  26.316  26.709  1.00  0.00     0.200 A 
ATOM     74  F   UNL A   1      41.961  27.890  25.679  1.00  0.00    -0.200 F 
ATOM     75  F   UNL A   1      40.589  25.534  25.622  1.00  0.00    -0.200 F 
ENDBRANCH  51  65
BRANCH  52  76
ATOM     76  C   UNL A   1      39.543  33.938  36.947  1.00  0.00     0.064 A 
ATOM     77  C   UNL A   1      38.799  33.525  38.062  1.00  0.00     0.173 A 
ATOM     78  C   UNL A   1      40.147  35.202  37.000  1.00  0.00     0.173 A 
ATOM     79  F   UNL A   1      38.188  32.331  38.053  1.00  0.00    -0.203 F 
ATOM     80  C   UNL A   1      38.648  34.351  39.174  1.00  0.00     0.198 A 
ATOM     81  C   UNL A   1      40.019  36.016  38.124  1.00  0.00     0.198 A 
ATOM     82  F   UNL A   1      40.874  35.643  35.963  1.00  0.00    -0.203 F 
ATOM     83  F   UNL A   1      37.893  33.949  40.205  1.00  0.00    -0.200 F 
ATOM     84  C   UNL A   1      39.263  35.593  39.207  1.00  0.00     0.200 A 
ATOM     85  F   UNL A   1      40.630  37.208  38.158  1.00  0.00    -0.200 F 
ATOM     86  F   UNL A   1      39.122  36.385  40.278  1.00  0.00    -0.200 F 
ENDBRANCH  52  76
BRANCH  64  87
ATOM     87  C   UNL A   1      43.978  28.846  35.224  1.00  0.00     0.064 A 
ATOM     88  C   UNL A   1      43.858  27.752  36.094  1.00  0.00     0.173 A 
ATOM     89  C   UNL A   1      45.261  29.364  34.992  1.00  0.00     0.173 A 
ATOM     90  F   UNL A   1      42.652  27.229  36.360  1.00  0.00    -0.203 F 
ATOM     91  C   UNL A   1      44.977  27.219  36.730  1.00  0.00     0.198 A 
ATOM     92  C   UNL A   1      46.380  28.808  35.605  1.00  0.00     0.198 A 
ATOM     93  F   UNL A   1      45.431  30.405  34.163  1.00  0.00    -0.203 F 
ATOM     94  F   UNL A   1      44.833  26.209  37.598  1.00  0.00    -0.200 F 
ATOM     95  C   UNL A   1      46.237  27.741  36.478  1.00  0.00     0.200 A 
ATOM     96  F   UNL A   1      47.599  29.304  35.348  1.00  0.00    -0.200 F 
ATOM     97  F   UNL A   1      47.312  27.222  37.086  1.00  0.00    -0.200 F 
ENDBRANCH  64  87
ENDBRANCH  38  39
ENDBRANCH  30  33
ENDBRANCH  28  29
ENDBRANCH  27  28
ENDBRANCH   1  27
TORSDOF 15
ENDMDL
MODEL 3
REMARK VINA RESULT:     -12.4      0.619      7.132
REMARK SMILES CC(C)c1ocnc1C(=O)N[C@H](CC(=O)NCCCNC(=O)c1ccc(-c2c3nc(c(-c4c(F)c(F)c(F)c(F)c4F)c4ccc([nH]4)c(-c4c(F)c(F)c(F)c(F)c4F)c4nc(c(-c5c(F)c(F)c(F)c(F)c5F)c5ccc2[nH]5)C=C4)C=C3)cc1)c1ccccc1Cl
REMARK SMILES IDX 17 1 16 2 14 3 15 4 13 6 12 7 11 8 9 9 10 10 8 12 4 13 5 14
REMARK SMILES IDX 6 15 7 16 2 17 1 18 3 19 86 20 87 21 91 22 88 23 90 24 92 25
REMARK SMILES IDX 89 26 18 27 19 28 20 29 21 30 22 32 23 33 24 34 85 35 25 36
REMARK SMILES IDX 84 37 26 38 27 39 28 40 78 41 29 42 83 43 77 44 79 45 30 46
REMARK SMILES IDX 82 47 76 48 75 49 31 51 63 52 43 53 62 54 44 55 47 56 61 57
REMARK SMILES IDX 80 58 45 59 46 60 60 62 81 63 48 64 32 65 33 66 41 67 34 68
REMARK SMILES IDX 35 69 39 70 42 71 36 72 37 73 40 74 38 75 64 76 65 77 73 78
REMARK SMILES IDX 66 79 67 80 71 81 74 82 68 83 69 84 72 85 70 86 49 87 50 88
REMARK SMILES IDX 58 89 51 90 52 91 56 92 59 93 53 94 54 95 57 96 55 97
REMARK H PARENT 16 5 11 11 20 31 79 50 47 61
REMARK Flexibility Score: inf
ROOT
ATOM      1  C   UNL A   1      31.497  30.842  26.098  1.00  0.00     0.117 C 
ENDROOT
BRANCH   1   2
ATOM      2  N   UNL A   1      32.758  30.279  26.531  1.00  0.00    -0.356 N 
ATOM      3  C   UNL A   1      33.017  29.120  27.185  1.00  0.00     0.222 C 
ATOM      4  O   UNL A   1      34.157  28.954  27.620  1.00  0.00    -0.275 OA
ATOM      5  H   UNL A   1      33.552  30.823  26.318  1.00  0.00     0.163 HD
BRANCH   3   6
ATOM      6  C   UNL A   1      31.952  28.058  27.315  1.00  0.00     0.129 C 
BRANCH   6   7
ATOM      7  C   UNL A   1      31.983  26.892  26.296  1.00  0.00     0.123 C 
BRANCH   7   8
ATOM      8  N   UNL A   1      31.377  25.689  26.876  1.00  0.00    -0.343 N 
ATOM      9  C   UNL A   1      31.647  24.344  26.754  1.00  0.00     0.274 C 
ATOM     10  O   UNL A   1      30.818  23.578  27.251  1.00  0.00    -0.267 OA
ATOM     11  H   UNL A   1      30.620  25.883  27.476  1.00  0.00     0.164 HD
BRANCH   9  12
ATOM     12  C   UNL A   1      32.877  23.865  26.119  1.00  0.00     0.170 A 
ATOM     13  C   UNL A   1      33.142  23.797  24.756  1.00  0.00     0.139 A 
ATOM     14  O   UNL A   1      34.372  23.208  24.595  1.00  0.00    -0.447 OA
ATOM     15  C   UNL A   1      34.778  22.933  25.856  1.00  0.00     0.309 A 
ATOM     16  N   UNL A   1      33.942  23.298  26.794  1.00  0.00    -0.211 NA
BRANCH  13  17
ATOM     17  C   UNL A   1      32.427  24.113  23.485  1.00  0.00     0.052 C 
ATOM     18  C   UNL A   1      33.206  23.630  22.264  1.00  0.00     0.016 C 
ATOM     19  C   UNL A   1      30.989  23.609  23.490  1.00  0.00     0.016 C 
ENDBRANCH  13  17
ENDBRANCH   9  12
ENDBRANCH   7   8
BRANCH   7  20
ATOM     20  C   UNL A   1      31.618  27.269  24.856  1.00  0.00    -0.006 A 
ATOM     21  C   UNL A   1      30.239  27.217  24.537  1.00  0.00     0.007 A 
ATOM     22  C   UNL A   1      32.473  27.646  23.805  1.00  0.00     0.046 A 
ATOM     23  C   UNL A   1      29.761  27.354  23.232  1.00  0.00     0.000 A 
ATOM     24  C   UNL A   1      32.001  27.717  22.483  1.00  0.00     0.021 A 
ATOM     25  Cl  UNL A   1      34.094  28.215  23.995  1.00  0.00    -0.084 Cl
ATOM     26  C   UNL A   1      30.654  27.548  22.192  1.00  0.00     0.002 A 
ENDBRANCH   7  20
ENDBRANCH   6   7
ENDBRANCH   3   6
ENDBRANCH   1   2
BRANCH   1  27
ATOM     27  C   UNL A   1      31.393  32.307  26.511  1.00  0.00     0.042 C 
BRANCH  27  28
ATOM     28  C   UNL A   1      32.656  32.856  27.167  1.00  0.00     0.118 C 
BRANCH  28  29
ATOM     29  N   UNL A   1      32.490  34.219  27.648  1.00  0.00    -0.352 N 
ATOM     30  C   UNL A   1      33.121  34.854  28.686  1.00  0.00     0.251 C 
ATOM     31  H   UNL A   1      31.832  34.763  27.158  1.00  0.00     0.163 HD
ATOM     32  O   UNL A   1      32.718  35.948  29.073  1.00  0.00    -0.269 OA
BRANCH  30  33
ATOM     33  C   UNL A   1      34.271  34.212  29.355  1.00  0.00     0.039 A 
ATOM     34  C   UNL A   1      34.028  33.303  30.387  1.00  0.00     0.014 A 
ATOM     35  C   UNL A   1      35.582  34.508  28.971  1.00  0.00     0.014 A 
ATOM     36  C   UNL A   1      35.100  32.650  30.997  1.00  0.00     0.010 A 
ATOM     37  C   UNL A   1      36.643  33.796  29.521  1.00  0.00     0.010 A 
ATOM     38  C   UNL A   1      36.414  32.867  30.547  1.00  0.00    -0.014 A 
BRANCH  38  39
ATOM     39  C   UNL A   1      37.558  32.138  31.148  1.00  0.00     0.031 A 
ATOM     40  C   UNL A   1      38.030  32.484  32.532  1.00  0.00     0.074 A 
ATOM     41  C   UNL A   1      38.201  31.200  30.427  1.00  0.00     0.049 A 
ATOM     42  N   UNL A   1      39.039  31.997  33.210  1.00  0.00    -0.248 NA
ATOM     43  C   UNL A   1      37.289  33.540  33.240  1.00  0.00     0.031 C 
ATOM     44  C   UNL A   1      37.867  30.811  29.056  1.00  0.00     0.029 A 
ATOM     45  N   UNL A   1      39.275  30.408  30.744  1.00  0.00    -0.354 N 
ATOM     46  C   UNL A   1      39.057  32.690  34.413  1.00  0.00     0.074 A 
ATOM     47  C   UNL A   1      38.000  33.675  34.349  1.00  0.00     0.031 C 
ATOM     48  C   UNL A   1      38.699  29.835  28.661  1.00  0.00     0.029 A 
ATOM     49  C   UNL A   1      39.649  29.557  29.733  1.00  0.00     0.049 A 
ATOM     50  H   UNL A   1      39.735  30.446  31.615  1.00  0.00     0.167 HD
ATOM     51  C   UNL A   1      39.864  32.503  35.484  1.00  0.00     0.037 A 
ATOM     52  C   UNL A   1      40.649  28.655  29.678  1.00  0.00     0.037 A 
ATOM     53  C   UNL A   1      40.903  31.508  35.549  1.00  0.00     0.049 A 
ATOM     54  C   UNL A   1      41.538  28.474  30.878  1.00  0.00     0.074 A 
ATOM     55  C   UNL A   1      41.742  31.203  36.606  1.00  0.00     0.029 A 
ATOM     56  N   UNL A   1      41.243  30.655  34.509  1.00  0.00    -0.354 N 
ATOM     57  N   UNL A   1      41.503  29.090  32.035  1.00  0.00    -0.248 NA
ATOM     58  C   UNL A   1      42.600  27.465  30.767  1.00  0.00     0.031 C 
ATOM     59  C   UNL A   1      42.624  30.201  36.189  1.00  0.00     0.029 A 
ATOM     60  C   UNL A   1      42.296  29.839  34.892  1.00  0.00     0.049 A 
ATOM     61  H   UNL A   1      40.803  30.633  33.628  1.00  0.00     0.167 HD
ATOM     62  C   UNL A   1      42.516  28.526  32.799  1.00  0.00     0.074 A 
ATOM     63  C   UNL A   1      43.136  27.505  31.978  1.00  0.00     0.031 C 
ATOM     64  C   UNL A   1      42.898  28.825  34.065  1.00  0.00     0.037 A 
BRANCH  51  65
ATOM     65  C   UNL A   1      39.653  33.393  36.675  1.00  0.00     0.064 A 
ATOM     66  C   UNL A   1      38.786  33.031  37.719  1.00  0.00     0.173 A 
ATOM     67  C   UNL A   1      40.347  34.606  36.793  1.00  0.00     0.173 A 
ATOM     68  F   UNL A   1      38.088  31.887  37.651  1.00  0.00    -0.203 F 
ATOM     69  C   UNL A   1      38.598  33.865  38.819  1.00  0.00     0.198 A 
ATOM     70  C   UNL A   1      40.183  35.421  37.910  1.00  0.00     0.198 A 
ATOM     71  F   UNL A   1      41.192  34.999  35.828  1.00  0.00    -0.203 F 
ATOM     72  F   UNL A   1      37.725  33.523  39.775  1.00  0.00    -0.200 F 
ATOM     73  C   UNL A   1      39.302  35.055  38.917  1.00  0.00     0.200 A 
ATOM     74  F   UNL A   1      40.874  36.565  38.010  1.00  0.00    -0.200 F 
ATOM     75  F   UNL A   1      39.126  35.853  39.979  1.00  0.00    -0.200 F 
ENDBRANCH  51  65
BRANCH  52  76
ATOM     76  C   UNL A   1      40.843  27.838  28.453  1.00  0.00     0.064 A 
ATOM     77  C   UNL A   1      41.659  28.290  27.407  1.00  0.00     0.173 A 
ATOM     78  C   UNL A   1      40.219  26.591  28.299  1.00  0.00     0.173 A 
ATOM     79  F   UNL A   1      42.263  29.484  27.498  1.00  0.00    -0.203 F 
ATOM     80  C   UNL A   1      41.827  27.538  26.245  1.00  0.00     0.198 A 
ATOM     81  C   UNL A   1      40.411  25.826  27.150  1.00  0.00     0.198 A 
ATOM     82  F   UNL A   1      39.433  26.109  29.273  1.00  0.00    -0.203 F 
ATOM     83  F   UNL A   1      42.575  28.017  25.243  1.00  0.00    -0.200 F 
ATOM     84  C   UNL A   1      41.208  26.303  26.121  1.00  0.00     0.200 A 
ATOM     85  F   UNL A   1      39.824  24.625  27.041  1.00  0.00    -0.200 F 
ATOM     86  F   UNL A   1      41.374  25.578  25.007  1.00  0.00    -0.200 F 
ENDBRANCH  52  76
BRANCH  64  87
ATOM     87  C   UNL A   1      44.016  28.014  34.655  1.00  0.00     0.064 A 
ATOM     88  C   UNL A   1      45.352  28.435  34.581  1.00  0.00     0.173 A 
ATOM     89  C   UNL A   1      43.741  26.817  35.333  1.00  0.00     0.173 A 
ATOM     90  F   UNL A   1      45.668  29.564  33.931  1.00  0.00    -0.203 F 
ATOM     91  C   UNL A   1      46.374  27.671  35.140  1.00  0.00     0.198 A 
ATOM     92  C   UNL A   1      44.762  26.073  35.919  1.00  0.00     0.198 A 
ATOM     93  F   UNL A   1      42.479  26.373  35.439  1.00  0.00    -0.203 F 
ATOM     94  F   UNL A   1      47.648  28.067  35.012  1.00  0.00    -0.200 F 
ATOM     95  C   UNL A   1      46.078  26.497  35.815  1.00  0.00     0.200 A 
ATOM     96  F   UNL A   1      44.472  24.947  36.584  1.00  0.00    -0.200 F 
ATOM     97  F   UNL A   1      47.063  25.768  36.358  1.00  0.00    -0.200 F 
ENDBRANCH  64  87
ENDBRANCH  38  39
ENDBRANCH  30  33
ENDBRANCH  28  29
ENDBRANCH  27  28
ENDBRANCH   1  27
TORSDOF 15
ENDMDL
