MODEL 1
REMARK VINA RESULT:     -10.4      0.000      0.000
REMARK SMILES Cc1ccc(NC(=O)c2cccn2CC(=O)NCCCNC(=O)c2ccc(-c3c4nc(c(-c5c(F)c(F)c(F)c(F)c5F)c5ccc([nH]5)c(-c5c(F)c(F)c(F)c(F)c5F)c5nc(c(-c6c(F)c(F)c(F)c(F)c6F)c6ccc3[nH]6)C=C5)C=C4)cc2)cc1
REMARK SMILES IDX 18 1 17 2 15 3 16 4 14 6 13 7 9 8 10 9 11 10 12 11 7 12 6 13
REMARK SMILES IDX 8 15 5 16 1 17 2 18 3 19 88 20 4 21 87 22 19 23 20 24 21 25
REMARK SMILES IDX 22 26 23 28 24 29 25 30 86 31 26 32 85 33 27 34 28 35 29 36
REMARK SMILES IDX 79 37 30 38 84 39 78 40 80 41 31 42 83 43 77 44 76 45 32 47
REMARK SMILES IDX 64 48 44 49 63 50 45 51 48 52 62 53 81 54 46 55 47 56 61 58
REMARK SMILES IDX 82 59 49 60 33 61 34 62 42 63 35 64 36 65 40 66 43 67 37 68
REMARK SMILES IDX 38 69 41 70 39 71 65 72 66 73 74 74 67 75 68 76 72 77 75 78
REMARK SMILES IDX 69 79 70 80 73 81 71 82 50 83 51 84 59 85 52 86 53 87 57 88
REMARK SMILES IDX 60 89 54 90 55 91 58 92 56 93
REMARK H PARENT 17 5 6 14 21 27 80 46 48 57
REMARK Flexibility Score: inf
ROOT
ATOM      1  C   UNL A   1      39.852  34.283  35.100  1.00  0.00     0.117 C 
ENDROOT
BRANCH   1   2
ATOM      2  N   UNL A   1      38.502  34.729  34.779  1.00  0.00    -0.354 N 
ATOM      3  C   UNL A   1      37.598  34.301  33.845  1.00  0.00     0.239 C 
ATOM      4  O   UNL A   1      36.503  34.873  33.824  1.00  0.00    -0.273 OA
ATOM      5  H   UNL A   1      38.182  35.475  35.338  1.00  0.00     0.163 HD
BRANCH   3   6
ATOM      6  C   UNL A   1      37.882  33.152  32.893  1.00  0.00     0.222 C 
BRANCH   6   7
ATOM      7  N   UNL A   1      37.919  33.522  31.481  1.00  0.00    -0.334 N 
ATOM      8  C   UNL A   1      36.896  33.312  30.574  1.00  0.00     0.107 A 
ATOM      9  C   UNL A   1      37.266  33.936  29.390  1.00  0.00     0.033 A 
ATOM     10  C   UNL A   1      38.569  34.455  29.560  1.00  0.00     0.020 A 
ATOM     11  C   UNL A   1      38.941  34.200  30.861  1.00  0.00     0.087 A 
BRANCH   8  12
ATOM     12  C   UNL A   1      35.681  32.595  30.859  1.00  0.00     0.272 C 
ATOM     13  N   UNL A   1      35.598  31.241  30.635  1.00  0.00    -0.321 N 
ATOM     14  H   UNL A   1      34.685  30.884  30.735  1.00  0.00     0.170 HD
ATOM     15  O   UNL A   1      34.689  33.158  31.336  1.00  0.00    -0.267 OA
BRANCH  13  16
ATOM     16  C   UNL A   1      36.547  30.257  30.292  1.00  0.00     0.041 A 
ATOM     17  C   UNL A   1      39.396  27.098  29.498  1.00  0.00     0.044 C 
ATOM     18  C   UNL A   1      38.433  28.206  29.798  1.00  0.00    -0.051 A 
ATOM     19  C   UNL A   1      37.930  28.977  28.753  1.00  0.00     0.005 A 
ATOM     20  C   UNL A   1      38.011  28.483  31.100  1.00  0.00     0.005 A 
ATOM     21  C   UNL A   1      37.017  30.004  29.005  1.00  0.00     0.026 A 
ATOM     22  C   UNL A   1      37.076  29.497  31.343  1.00  0.00     0.026 A 
ENDBRANCH  13  16
ENDBRANCH   8  12
ENDBRANCH   6   7
ENDBRANCH   3   6
ENDBRANCH   1   2
BRANCH   1  23
ATOM     23  C   UNL A   1      40.953  35.142  34.434  1.00  0.00     0.042 C 
BRANCH  23  24
ATOM     24  C   UNL A   1      41.768  34.533  33.242  1.00  0.00     0.118 C 
BRANCH  24  25
ATOM     25  N   UNL A   1      42.560  33.358  33.639  1.00  0.00    -0.352 N 
ATOM     26  C   UNL A   1      42.716  32.078  33.121  1.00  0.00     0.251 C 
ATOM     27  H   UNL A   1      43.097  33.513  34.450  1.00  0.00     0.163 HD
ATOM     28  O   UNL A   1      42.793  31.186  33.973  1.00  0.00    -0.269 OA
BRANCH  26  29
ATOM     29  C   UNL A   1      42.917  31.664  31.675  1.00  0.00     0.039 A 
ATOM     30  C   UNL A   1      44.158  31.068  31.302  1.00  0.00     0.014 A 
ATOM     31  C   UNL A   1      42.047  31.931  30.636  1.00  0.00     0.014 A 
ATOM     32  C   UNL A   1      44.514  30.712  29.954  1.00  0.00     0.010 A 
ATOM     33  C   UNL A   1      42.417  31.596  29.296  1.00  0.00     0.010 A 
ATOM     34  C   UNL A   1      43.641  30.959  28.902  1.00  0.00    -0.014 A 
BRANCH  34  35
ATOM     35  C   UNL A   1      43.698  30.320  27.503  1.00  0.00     0.031 A 
ATOM     36  C   UNL A   1      45.071  30.306  27.011  1.00  0.00     0.074 A 
ATOM     37  C   UNL A   1      43.007  29.334  26.833  1.00  0.00     0.049 A 
ATOM     38  N   UNL A   1      45.741  29.243  27.266  1.00  0.00    -0.248 NA
ATOM     39  C   UNL A   1      45.826  31.382  26.423  1.00  0.00     0.031 C 
ATOM     40  C   UNL A   1      41.648  28.884  27.056  1.00  0.00     0.029 A 
ATOM     41  N   UNL A   1      43.518  28.372  25.872  1.00  0.00    -0.354 N 
ATOM     42  C   UNL A   1      47.042  29.478  26.993  1.00  0.00     0.074 A 
ATOM     43  C   UNL A   1      47.041  30.802  26.385  1.00  0.00     0.031 C 
ATOM     44  C   UNL A   1      41.447  27.724  26.391  1.00  0.00     0.029 A 
ATOM     45  C   UNL A   1      42.693  27.238  25.737  1.00  0.00     0.049 A 
ATOM     46  H   UNL A   1      44.354  28.499  25.368  1.00  0.00     0.167 HD
ATOM     47  C   UNL A   1      47.888  28.466  27.318  1.00  0.00     0.037 A 
ATOM     48  C   UNL A   1      43.000  25.885  25.742  1.00  0.00     0.037 A 
ATOM     49  C   UNL A   1      47.395  27.618  28.458  1.00  0.00     0.049 A 
ATOM     50  C   UNL A   1      42.962  25.626  27.201  1.00  0.00     0.074 A 
ATOM     51  C   UNL A   1      47.969  27.075  29.595  1.00  0.00     0.029 A 
ATOM     52  N   UNL A   1      46.044  27.290  28.599  1.00  0.00    -0.354 N 
ATOM     53  N   UNL A   1      43.916  26.093  27.934  1.00  0.00    -0.248 NA
ATOM     54  C   UNL A   1      41.932  24.881  27.897  1.00  0.00     0.031 C 
ATOM     55  C   UNL A   1      46.931  26.537  30.430  1.00  0.00     0.029 A 
ATOM     56  C   UNL A   1      45.699  26.781  29.844  1.00  0.00     0.049 A 
ATOM     57  H   UNL A   1      45.389  27.410  27.874  1.00  0.00     0.167 HD
ATOM     58  C   UNL A   1      43.576  25.856  29.225  1.00  0.00     0.074 A 
ATOM     59  C   UNL A   1      42.358  25.062  29.156  1.00  0.00     0.031 C 
ATOM     60  C   UNL A   1      44.279  26.498  30.194  1.00  0.00     0.037 A 
BRANCH  47  61
ATOM     61  C   UNL A   1      49.137  28.177  26.519  1.00  0.00     0.064 A 
ATOM     62  C   UNL A   1      50.383  28.182  27.182  1.00  0.00     0.173 A 
ATOM     63  C   UNL A   1      49.184  27.708  25.189  1.00  0.00     0.173 A 
ATOM     64  F   UNL A   1      50.483  28.547  28.468  1.00  0.00    -0.203 F 
ATOM     65  C   UNL A   1      51.562  27.745  26.572  1.00  0.00     0.198 A 
ATOM     66  C   UNL A   1      50.357  27.237  24.592  1.00  0.00     0.198 A 
ATOM     67  F   UNL A   1      48.108  27.668  24.404  1.00  0.00    -0.203 F 
ATOM     68  F   UNL A   1      52.711  27.761  27.261  1.00  0.00    -0.200 F 
ATOM     69  C   UNL A   1      51.546  27.255  25.282  1.00  0.00     0.200 A 
ATOM     70  F   UNL A   1      50.309  26.740  23.347  1.00  0.00    -0.200 F 
ATOM     71  F   UNL A   1      52.665  26.791  24.713  1.00  0.00    -0.200 F 
ENDBRANCH  47  61
BRANCH  48  72
ATOM     72  C   UNL A   1      43.982  24.903  25.085  1.00  0.00     0.064 A 
ATOM     73  C   UNL A   1      43.607  23.558  24.930  1.00  0.00     0.173 A 
ATOM     74  C   UNL A   1      45.389  25.130  24.960  1.00  0.00     0.173 A 
ATOM     75  F   UNL A   1      42.326  23.200  25.094  1.00  0.00    -0.203 F 
ATOM     76  C   UNL A   1      44.555  22.532  24.710  1.00  0.00     0.198 A 
ATOM     77  C   UNL A   1      46.327  24.109  24.763  1.00  0.00     0.198 A 
ATOM     78  F   UNL A   1      45.937  26.341  25.095  1.00  0.00    -0.203 F 
ATOM     79  F   UNL A   1      44.151  21.256  24.628  1.00  0.00    -0.200 F 
ATOM     80  C   UNL A   1      45.911  22.806  24.646  1.00  0.00     0.200 A 
ATOM     81  F   UNL A   1      47.638  24.399  24.759  1.00  0.00    -0.200 F 
ATOM     82  F   UNL A   1      46.813  21.821  24.515  1.00  0.00    -0.200 F 
ENDBRANCH  48  72
BRANCH  60  83
ATOM     83  C   UNL A   1      43.600  26.883  31.495  1.00  0.00     0.064 A 
ATOM     84  C   UNL A   1      43.828  26.233  32.736  1.00  0.00     0.173 A 
ATOM     85  C   UNL A   1      42.563  27.831  31.530  1.00  0.00     0.173 A 
ATOM     86  F   UNL A   1      44.557  25.112  32.832  1.00  0.00    -0.203 F 
ATOM     87  C   UNL A   1      43.241  26.647  33.933  1.00  0.00     0.198 A 
ATOM     88  C   UNL A   1      41.932  28.208  32.720  1.00  0.00     0.198 A 
ATOM     89  F   UNL A   1      42.078  28.379  30.410  1.00  0.00    -0.203 F 
ATOM     90  F   UNL A   1      43.572  26.038  35.081  1.00  0.00    -0.200 F 
ATOM     91  C   UNL A   1      42.303  27.651  33.927  1.00  0.00     0.200 A 
ATOM     92  F   UNL A   1      40.939  29.107  32.682  1.00  0.00    -0.200 F 
ATOM     93  F   UNL A   1      41.721  28.042  35.069  1.00  0.00    -0.200 F 
ENDBRANCH  60  83
ENDBRANCH  34  35
ENDBRANCH  26  29
ENDBRANCH  24  25
ENDBRANCH  23  24
ENDBRANCH   1  23
TORSDOF 13
ENDMDL
MODEL 2
REMARK VINA RESULT:     -10.4      5.199     10.755
REMARK SMILES Cc1ccc(NC(=O)c2cccn2CC(=O)NCCCNC(=O)c2ccc(-c3c4nc(c(-c5c(F)c(F)c(F)c(F)c5F)c5ccc([nH]5)c(-c5c(F)c(F)c(F)c(F)c5F)c5nc(c(-c6c(F)c(F)c(F)c(F)c6F)c6ccc3[nH]6)C=C5)C=C4)cc2)cc1
REMARK SMILES IDX 18 1 17 2 15 3 16 4 14 6 13 7 9 8 10 9 11 10 12 11 7 12 6 13
REMARK SMILES IDX 8 15 5 16 1 17 2 18 3 19 88 20 4 21 87 22 19 23 20 24 21 25
REMARK SMILES IDX 22 26 23 28 24 29 25 30 86 31 26 32 85 33 27 34 28 35 29 36
REMARK SMILES IDX 79 37 30 38 84 39 78 40 80 41 31 42 83 43 77 44 76 45 32 47
REMARK SMILES IDX 64 48 44 49 63 50 45 51 48 52 62 53 81 54 46 55 47 56 61 58
REMARK SMILES IDX 82 59 49 60 33 61 34 62 42 63 35 64 36 65 40 66 43 67 37 68
REMARK SMILES IDX 38 69 41 70 39 71 65 72 66 73 74 74 67 75 68 76 72 77 75 78
REMARK SMILES IDX 69 79 70 80 73 81 71 82 50 83 51 84 59 85 52 86 53 87 57 88
REMARK SMILES IDX 60 89 54 90 55 91 58 92 56 93
REMARK H PARENT 17 5 6 14 21 27 80 46 48 57
REMARK Flexibility Score: inf
ROOT
ATOM      1  C   UNL A   1      37.550  23.430  25.774  1.00  0.00     0.117 C 
ENDROOT
BRANCH   1   2
ATOM      2  N   UNL A   1      36.545  22.531  26.328  1.00  0.00    -0.354 N 
ATOM      3  C   UNL A   1      35.177  22.591  26.343  1.00  0.00     0.239 C 
ATOM      4  O   UNL A   1      34.584  21.651  26.882  1.00  0.00    -0.273 OA
ATOM      5  H   UNL A   1      36.919  21.736  26.772  1.00  0.00     0.163 HD
BRANCH   3   6
ATOM      6  C   UNL A   1      34.398  23.723  25.699  1.00  0.00     0.222 C 
BRANCH   6   7
ATOM      7  N   UNL A   1      33.239  23.300  24.916  1.00  0.00    -0.334 N 
ATOM      8  C   UNL A   1      31.919  23.536  25.254  1.00  0.00     0.107 A 
ATOM      9  C   UNL A   1      31.142  23.110  24.185  1.00  0.00     0.033 A 
ATOM     10  C   UNL A   1      32.002  22.530  23.226  1.00  0.00     0.020 A 
ATOM     11  C   UNL A   1      33.289  22.675  23.694  1.00  0.00     0.087 A 
BRANCH   8  12
ATOM     12  C   UNL A   1      31.481  24.137  26.487  1.00  0.00     0.272 C 
ATOM     13  N   UNL A   1      31.024  25.433  26.511  1.00  0.00    -0.321 N 
ATOM     14  H   UNL A   1      30.882  25.780  27.422  1.00  0.00     0.170 HD
ATOM     15  O   UNL A   1      31.475  23.507  27.550  1.00  0.00    -0.267 OA
BRANCH  13  16
ATOM     16  C   UNL A   1      30.715  26.369  25.503  1.00  0.00     0.041 A 
ATOM     17  C   UNL A   1      30.049  29.341  22.430  1.00  0.00     0.044 C 
ATOM     18  C   UNL A   1      30.279  28.339  23.520  1.00  0.00    -0.051 A 
ATOM     19  C   UNL A   1      29.439  27.233  23.620  1.00  0.00     0.005 A 
ATOM     20  C   UNL A   1      31.325  28.473  24.434  1.00  0.00     0.005 A 
ATOM     21  C   UNL A   1      29.644  26.275  24.617  1.00  0.00     0.026 A 
ATOM     22  C   UNL A   1      31.540  27.497  25.415  1.00  0.00     0.026 A 
ENDBRANCH  13  16
ENDBRANCH   8  12
ENDBRANCH   6   7
ENDBRANCH   3   6
ENDBRANCH   1   2
BRANCH   1  23
ATOM     23  C   UNL A   1      38.912  23.348  26.504  1.00  0.00     0.042 C 
BRANCH  23  24
ATOM     24  C   UNL A   1      39.702  21.995  26.479  1.00  0.00     0.118 C 
BRANCH  24  25
ATOM     25  N   UNL A   1      40.739  21.926  27.520  1.00  0.00    -0.352 N 
ATOM     26  C   UNL A   1      41.852  22.697  27.828  1.00  0.00     0.251 C 
ATOM     27  H   UNL A   1      40.616  21.166  28.134  1.00  0.00     0.163 HD
ATOM     28  O   UNL A   1      42.842  22.049  28.190  1.00  0.00    -0.269 OA
BRANCH  26  29
ATOM     29  C   UNL A   1      41.966  24.209  27.884  1.00  0.00     0.039 A 
ATOM     30  C   UNL A   1      42.956  24.850  27.081  1.00  0.00     0.014 A 
ATOM     31  C   UNL A   1      41.277  25.034  28.751  1.00  0.00     0.014 A 
ATOM     32  C   UNL A   1      43.231  26.262  27.105  1.00  0.00     0.010 A 
ATOM     33  C   UNL A   1      41.571  26.433  28.787  1.00  0.00     0.010 A 
ATOM     34  C   UNL A   1      42.533  27.105  27.960  1.00  0.00    -0.014 A 
BRANCH  34  35
ATOM     35  C   UNL A   1      42.434  28.637  27.848  1.00  0.00     0.031 A 
ATOM     36  C   UNL A   1      41.037  29.047  27.767  1.00  0.00     0.074 A 
ATOM     37  C   UNL A   1      43.157  29.715  28.309  1.00  0.00     0.049 A 
ATOM     38  N   UNL A   1      40.476  29.328  28.885  1.00  0.00    -0.248 NA
ATOM     39  C   UNL A   1      40.157  29.022  26.627  1.00  0.00     0.031 C 
ATOM     40  C   UNL A   1      44.561  29.766  28.665  1.00  0.00     0.029 A 
ATOM     41  N   UNL A   1      42.663  31.013  28.737  1.00  0.00    -0.354 N 
ATOM     42  C   UNL A   1      39.145  29.427  28.686  1.00  0.00     0.074 A 
ATOM     43  C   UNL A   1      38.995  29.314  27.242  1.00  0.00     0.031 C 
ATOM     44  C   UNL A   1      44.812  30.915  29.332  1.00  0.00     0.029 A 
ATOM     45  C   UNL A   1      43.569  31.699  29.571  1.00  0.00     0.049 A 
ATOM     46  H   UNL A   1      41.787  31.375  28.471  1.00  0.00     0.167 HD
ATOM     47  C   UNL A   1      38.409  29.620  29.812  1.00  0.00     0.037 A 
ATOM     48  C   UNL A   1      43.376  32.346  30.782  1.00  0.00     0.037 A 
ATOM     49  C   UNL A   1      39.047  29.046  31.047  1.00  0.00     0.049 A 
ATOM     50  C   UNL A   1      43.534  31.199  31.707  1.00  0.00     0.074 A 
ATOM     51  C   UNL A   1      38.599  28.306  32.128  1.00  0.00     0.029 A 
ATOM     52  N   UNL A   1      40.427  29.108  31.259  1.00  0.00    -0.354 N 
ATOM     53  N   UNL A   1      42.596  30.313  31.755  1.00  0.00    -0.248 NA
ATOM     54  C   UNL A   1      44.667  30.973  32.581  1.00  0.00     0.031 C 
ATOM     55  C   UNL A   1      39.732  27.859  32.890  1.00  0.00     0.029 A 
ATOM     56  C   UNL A   1      40.896  28.275  32.265  1.00  0.00     0.049 A 
ATOM     57  H   UNL A   1      41.019  29.696  30.736  1.00  0.00     0.167 HD
ATOM     58  C   UNL A   1      43.041  29.307  32.547  1.00  0.00     0.074 A 
ATOM     59  C   UNL A   1      44.314  29.778  33.076  1.00  0.00     0.031 C 
ATOM     60  C   UNL A   1      42.355  28.134  32.530  1.00  0.00     0.037 A 
BRANCH  47  61
ATOM     61  C   UNL A   1      37.137  30.434  29.809  1.00  0.00     0.064 A 
ATOM     62  C   UNL A   1      36.980  31.450  30.777  1.00  0.00     0.173 A 
ATOM     63  C   UNL A   1      36.142  30.421  28.810  1.00  0.00     0.173 A 
ATOM     64  F   UNL A   1      37.881  31.622  31.755  1.00  0.00    -0.203 F 
ATOM     65  C   UNL A   1      35.931  32.372  30.737  1.00  0.00     0.198 A 
ATOM     66  C   UNL A   1      35.114  31.366  28.750  1.00  0.00     0.198 A 
ATOM     67  F   UNL A   1      36.114  29.509  27.838  1.00  0.00    -0.203 F 
ATOM     68  F   UNL A   1      35.847  33.323  31.678  1.00  0.00    -0.200 F 
ATOM     69  C   UNL A   1      35.007  32.341  29.713  1.00  0.00     0.200 A 
ATOM     70  F   UNL A   1      34.244  31.330  27.728  1.00  0.00    -0.200 F 
ATOM     71  F   UNL A   1      34.030  33.254  29.645  1.00  0.00    -0.200 F 
ENDBRANCH  47  61
BRANCH  48  72
ATOM     72  C   UNL A   1      42.435  33.379  31.423  1.00  0.00     0.064 A 
ATOM     73  C   UNL A   1      42.909  34.178  32.476  1.00  0.00     0.173 A 
ATOM     74  C   UNL A   1      41.009  33.349  31.315  1.00  0.00     0.173 A 
ATOM     75  F   UNL A   1      44.225  34.236  32.730  1.00  0.00    -0.203 F 
ATOM     76  C   UNL A   1      42.038  34.851  33.363  1.00  0.00     0.198 A 
ATOM     77  C   UNL A   1      40.149  34.001  32.208  1.00  0.00     0.198 A 
ATOM     78  F   UNL A   1      40.373  32.629  30.387  1.00  0.00    -0.203 F 
ATOM     79  F   UNL A   1      42.540  35.554  34.389  1.00  0.00    -0.200 F 
ATOM     80  C   UNL A   1      40.662  34.746  33.239  1.00  0.00     0.200 A 
ATOM     81  F   UNL A   1      38.820  33.836  32.094  1.00  0.00    -0.200 F 
ATOM     82  F   UNL A   1      39.840  35.324  34.127  1.00  0.00    -0.200 F 
ENDBRANCH  48  72
BRANCH  60  83
ATOM     83  C   UNL A   1      43.088  26.824  32.751  1.00  0.00     0.064 A 
ATOM     84  C   UNL A   1      43.093  26.111  33.979  1.00  0.00     0.173 A 
ATOM     85  C   UNL A   1      43.954  26.294  31.780  1.00  0.00     0.173 A 
ATOM     86  F   UNL A   1      42.570  26.621  35.103  1.00  0.00    -0.203 F 
ATOM     87  C   UNL A   1      43.719  24.874  34.139  1.00  0.00     0.198 A 
ATOM     88  C   UNL A   1      44.629  25.081  31.959  1.00  0.00     0.198 A 
ATOM     89  F   UNL A   1      44.230  26.957  30.651  1.00  0.00    -0.203 F 
ATOM     90  F   UNL A   1      43.607  24.218  35.304  1.00  0.00    -0.200 F 
ATOM     91  C   UNL A   1      44.475  24.349  33.119  1.00  0.00     0.200 A 
ATOM     92  F   UNL A   1      45.453  24.639  31.000  1.00  0.00    -0.200 F 
ATOM     93  F   UNL A   1      45.094  23.171  33.271  1.00  0.00    -0.200 F 
ENDBRANCH  60  83
ENDBRANCH  34  35
ENDBRANCH  26  29
ENDBRANCH  24  25
ENDBRANCH  23  24
ENDBRANCH   1  23
TORSDOF 13
ENDMDL
MODEL 3
REMARK VINA RESULT:     -10.2      5.665     11.098
REMARK SMILES Cc1ccc(NC(=O)c2cccn2CC(=O)NCCCNC(=O)c2ccc(-c3c4nc(c(-c5c(F)c(F)c(F)c(F)c5F)c5ccc([nH]5)c(-c5c(F)c(F)c(F)c(F)c5F)c5nc(c(-c6c(F)c(F)c(F)c(F)c6F)c6ccc3[nH]6)C=C5)C=C4)cc2)cc1
REMARK SMILES IDX 18 1 17 2 15 3 16 4 14 6 13 7 9 8 10 9 11 10 12 11 7 12 6 13
REMARK SMILES IDX 8 15 5 16 1 17 2 18 3 19 88 20 4 21 87 22 19 23 20 24 21 25
REMARK SMILES IDX 22 26 23 28 24 29 25 30 86 31 26 32 85 33 27 34 28 35 29 36
REMARK SMILES IDX 79 37 30 38 84 39 78 40 80 41 31 42 83 43 77 44 76 45 32 47
REMARK SMILES IDX 64 48 44 49 63 50 45 51 48 52 62 53 81 54 46 55 47 56 61 58
REMARK SMILES IDX 82 59 49 60 33 61 34 62 42 63 35 64 36 65 40 66 43 67 37 68
REMARK SMILES IDX 38 69 41 70 39 71 65 72 66 73 74 74 67 75 68 76 72 77 75 78
REMARK SMILES IDX 69 79 70 80 73 81 71 82 50 83 51 84 59 85 52 86 53 87 57 88
REMARK SMILES IDX 60 89 54 90 55 91 58 92 56 93
REMARK H PARENT 17 5 6 14 21 27 80 46 48 57
REMARK Flexibility Score: inf
ROOT
ATOM      1  C   UNL A   1      38.099  23.489  26.105  1.00  0.00     0.117 C 
ENDROOT
BRANCH   1   2
ATOM      2  N   UNL A   1      37.563  22.185  25.738  1.00  0.00    -0.354 N 
ATOM      3  C   UNL A   1      36.282  21.706  25.688  1.00  0.00     0.239 C 
ATOM      4  O   UNL A   1      36.136  20.538  25.312  1.00  0.00    -0.273 OA
ATOM      5  H   UNL A   1      38.250  21.527  25.478  1.00  0.00     0.163 HD
BRANCH   3   6
ATOM      6  C   UNL A   1      35.073  22.559  26.032  1.00  0.00     0.222 C 
BRANCH   6   7
ATOM      7  N   UNL A   1      34.337  23.070  24.878  1.00  0.00    -0.334 N 
ATOM      8  C   UNL A   1      32.959  23.100  24.760  1.00  0.00     0.107 A 
ATOM      9  C   UNL A   1      32.665  23.791  23.592  1.00  0.00     0.033 A 
ATOM     10  C   UNL A   1      33.886  24.106  22.954  1.00  0.00     0.020 A 
ATOM     11  C   UNL A   1      34.899  23.665  23.775  1.00  0.00     0.087 A 
BRANCH   8  12
ATOM     12  C   UNL A   1      32.041  22.528  25.710  1.00  0.00     0.272 C 
ATOM     13  N   UNL A   1      31.767  21.181  25.695  1.00  0.00    -0.321 N 
ATOM     14  H   UNL A   1      31.027  20.927  26.294  1.00  0.00     0.170 HD
ATOM     15  O   UNL A   1      31.495  23.214  26.581  1.00  0.00    -0.267 OA
BRANCH  13  16
ATOM     16  C   UNL A   1      32.322  20.087  25.000  1.00  0.00     0.041 A 
ATOM     17  C   UNL A   1      34.019  16.577  23.124  1.00  0.00     0.044 C 
ATOM     18  C   UNL A   1      33.464  17.799  23.790  1.00  0.00    -0.051 A 
ATOM     19  C   UNL A   1      32.841  18.776  23.017  1.00  0.00     0.005 A 
ATOM     20  C   UNL A   1      33.539  17.982  25.172  1.00  0.00     0.005 A 
ATOM     21  C   UNL A   1      32.301  19.916  23.617  1.00  0.00     0.026 A 
ATOM     22  C   UNL A   1      32.973  19.115  25.770  1.00  0.00     0.026 A 
ENDBRANCH  13  16
ENDBRANCH   8  12
ENDBRANCH   6   7
ENDBRANCH   3   6
ENDBRANCH   1   2
BRANCH   1  23
ATOM     23  C   UNL A   1      39.424  23.404  26.900  1.00  0.00     0.042 C 
BRANCH  23  24
ATOM     24  C   UNL A   1      40.196  22.041  26.937  1.00  0.00     0.118 C 
BRANCH  24  25
ATOM     25  N   UNL A   1      41.273  22.027  27.938  1.00  0.00    -0.352 N 
ATOM     26  C   UNL A   1      42.356  22.857  28.204  1.00  0.00     0.251 C 
ATOM     27  H   UNL A   1      41.214  21.263  28.556  1.00  0.00     0.163 HD
ATOM     28  O   UNL A   1      43.390  22.262  28.529  1.00  0.00    -0.269 OA
BRANCH  26  29
ATOM     29  C   UNL A   1      42.392  24.373  28.257  1.00  0.00     0.039 A 
ATOM     30  C   UNL A   1      43.372  25.059  27.481  1.00  0.00     0.014 A 
ATOM     31  C   UNL A   1      41.637  25.165  29.099  1.00  0.00     0.014 A 
ATOM     32  C   UNL A   1      43.576  26.484  27.506  1.00  0.00     0.010 A 
ATOM     33  C   UNL A   1      41.859  26.577  29.137  1.00  0.00     0.010 A 
ATOM     34  C   UNL A   1      42.811  27.294  28.337  1.00  0.00    -0.014 A 
BRANCH  34  35
ATOM     35  C   UNL A   1      42.640  28.818  28.214  1.00  0.00     0.031 A 
ATOM     36  C   UNL A   1      41.242  29.149  27.959  1.00  0.00     0.074 A 
ATOM     37  C   UNL A   1      43.235  29.932  28.763  1.00  0.00     0.049 A 
ATOM     38  N   UNL A   1      40.530  29.389  28.997  1.00  0.00    -0.248 NA
ATOM     39  C   UNL A   1      40.515  29.084  26.716  1.00  0.00     0.031 C 
ATOM     40  C   UNL A   1      44.578  30.059  29.294  1.00  0.00     0.029 A 
ATOM     41  N   UNL A   1      42.618  31.196  29.127  1.00  0.00    -0.354 N 
ATOM     42  C   UNL A   1      39.230  29.413  28.632  1.00  0.00     0.074 A 
ATOM     43  C   UNL A   1      39.270  29.304  27.180  1.00  0.00     0.031 C 
ATOM     44  C   UNL A   1      44.677  31.215  29.988  1.00  0.00     0.029 A 
ATOM     45  C   UNL A   1      43.370  31.925  30.069  1.00  0.00     0.049 A 
ATOM     46  H   UNL A   1      41.763  31.510  28.753  1.00  0.00     0.167 HD
ATOM     47  C   UNL A   1      38.349  29.554  29.656  1.00  0.00     0.037 A 
ATOM     48  C   UNL A   1      42.990  32.551  31.247  1.00  0.00     0.037 A 
ATOM     49  C   UNL A   1      38.859  29.008  30.962  1.00  0.00     0.049 A 
ATOM     50  C   UNL A   1      43.096  31.407  32.183  1.00  0.00     0.074 A 
ATOM     51  C   UNL A   1      38.322  28.234  31.977  1.00  0.00     0.029 A 
ATOM     52  N   UNL A   1      40.196  29.147  31.345  1.00  0.00    -0.354 N 
ATOM     53  N   UNL A   1      42.212  30.468  32.112  1.00  0.00    -0.248 NA
ATOM     54  C   UNL A   1      44.121  31.238  33.194  1.00  0.00     0.031 C 
ATOM     55  C   UNL A   1      39.374  27.846  32.875  1.00  0.00     0.029 A 
ATOM     56  C   UNL A   1      40.582  28.334  32.402  1.00  0.00     0.049 A 
ATOM     57  H   UNL A   1      40.814  29.771  30.901  1.00  0.00     0.167 HD
ATOM     58  C   UNL A   1      42.611  29.483  32.953  1.00  0.00     0.074 A 
ATOM     59  C   UNL A   1      43.778  30.021  33.639  1.00  0.00     0.031 C 
ATOM     60  C   UNL A   1      42.001  28.273  32.849  1.00  0.00     0.037 A 
BRANCH  47  61
ATOM     61  C   UNL A   1      37.043  30.295  29.494  1.00  0.00     0.064 A 
ATOM     62  C   UNL A   1      36.713  31.301  30.429  1.00  0.00     0.173 A 
ATOM     63  C   UNL A   1      36.178  30.225  28.382  1.00  0.00     0.173 A 
ATOM     64  F   UNL A   1      37.478  31.524  31.507  1.00  0.00    -0.203 F 
ATOM     65  C   UNL A   1      35.626  32.162  30.255  1.00  0.00     0.198 A 
ATOM     66  C   UNL A   1      35.114  31.110  28.192  1.00  0.00     0.198 A 
ATOM     67  F   UNL A   1      36.319  29.313  27.421  1.00  0.00    -0.203 F 
ATOM     68  F   UNL A   1      35.375  33.106  31.172  1.00  0.00    -0.200 F 
ATOM     69  C   UNL A   1      34.836  32.078  29.127  1.00  0.00     0.200 A 
ATOM     70  F   UNL A   1      34.378  31.025  27.073  1.00  0.00    -0.200 F 
ATOM     71  F   UNL A   1      33.824  32.934  28.936  1.00  0.00    -0.200 F 
ENDBRANCH  47  61
BRANCH  48  72
ATOM     72  C   UNL A   1      41.919  33.523  31.765  1.00  0.00     0.064 A 
ATOM     73  C   UNL A   1      42.210  34.340  32.871  1.00  0.00     0.173 A 
ATOM     74  C   UNL A   1      40.521  33.412  31.480  1.00  0.00     0.173 A 
ATOM     75  F   UNL A   1      43.478  34.471  33.287  1.00  0.00    -0.203 F 
ATOM     76  C   UNL A   1      41.197  34.955  33.641  1.00  0.00     0.198 A 
ATOM     77  C   UNL A   1      39.519  34.007  32.258  1.00  0.00     0.198 A 
ATOM     78  F   UNL A   1      40.048  32.664  30.479  1.00  0.00    -0.203 F 
ATOM     79  F   UNL A   1      41.525  35.678  34.722  1.00  0.00    -0.200 F 
ATOM     80  C   UNL A   1      39.856  34.773  33.346  1.00  0.00     0.200 A 
ATOM     81  F   UNL A   1      38.228  33.768  31.978  1.00  0.00    -0.200 F 
ATOM     82  F   UNL A   1      38.897  35.295  34.124  1.00  0.00    -0.200 F 
ENDBRANCH  48  72
BRANCH  60  83
ATOM     83  C   UNL A   1      42.774  27.006  33.159  1.00  0.00     0.064 A 
ATOM     84  C   UNL A   1      42.631  26.258  34.357  1.00  0.00     0.173 A 
ATOM     85  C   UNL A   1      43.816  26.558  32.329  1.00  0.00     0.173 A 
ATOM     86  F   UNL A   1      41.905  26.701  35.393  1.00  0.00    -0.203 F 
ATOM     87  C   UNL A   1      43.305  25.058  34.592  1.00  0.00     0.198 A 
ATOM     88  C   UNL A   1      44.533  25.385  32.591  1.00  0.00     0.198 A 
ATOM     89  F   UNL A   1      44.223  27.271  31.272  1.00  0.00    -0.203 F 
ATOM     90  F   UNL A   1      43.053  24.362  35.711  1.00  0.00    -0.200 F 
ATOM     91  C   UNL A   1      44.246  24.611  33.697  1.00  0.00     0.200 A 
ATOM     92  F   UNL A   1      45.526  25.023  31.767  1.00  0.00    -0.200 F 
ATOM     93  F   UNL A   1      44.909  23.470  33.923  1.00  0.00    -0.200 F 
ENDBRANCH  60  83
ENDBRANCH  34  35
ENDBRANCH  26  29
ENDBRANCH  24  25
ENDBRANCH  23  24
ENDBRANCH   1  23
TORSDOF 13
ENDMDL
