MODEL 1
REMARK VINA RESULT:     -14.4      0.000      0.000
REMARK SMILES O=C(NCCCNC(=O)c1nnn(-c2ccccc2C(F)(F)F)c1-c1cccc(Cl)c1)c1ccc(-c2c3nc(c(-c4c(F)c(F)c(F)c(F)c4F)c4ccc([nH]4)c(-c4c(F)c(F)c(F)c(F)c4F)c4nc(c(-c5c(F)c(F)c(F)c(F)c5F)c5ccc2[nH]5)C=C4)C=C3)cc1
REMARK SMILES IDX 5 1 4 2 3 3 1 4 2 5 32 7 33 8 94 9 34 10 93 11 35 12 36 13
REMARK SMILES IDX 37 14 87 15 38 16 92 17 86 18 88 19 39 20 91 21 85 22 84 23
REMARK SMILES IDX 40 25 72 26 52 27 71 28 53 29 56 30 70 31 89 32 54 33 55 34
REMARK SMILES IDX 69 36 90 37 57 38 41 39 42 40 50 41 43 42 44 43 48 44 51 45
REMARK SMILES IDX 45 46 46 47 49 48 47 49 73 50 74 51 82 52 75 53 76 54 80 55
REMARK SMILES IDX 83 56 77 57 78 58 81 59 79 60 58 61 59 62 67 63 60 64 61 65
REMARK SMILES IDX 65 66 68 67 62 68 63 69 66 70 64 71 6 72 7 73 8 74 9 76
REMARK SMILES IDX 10 77 11 78 24 79 12 80 13 81 25 82 26 83 31 84 27 85 29 86
REMARK SMILES IDX 28 87 30 88 14 89 15 90 19 91 16 92 18 93 17 94 20 95 21 96
REMARK SMILES IDX 22 97 23 98
REMARK H PARENT 3 6 88 24 56 35 7 75
REMARK Flexibility Score: inf
ROOT
ATOM      1  C   UNL A   1      31.983  29.281  27.232  1.00  0.00     0.042 C 
ENDROOT
BRANCH   1   2
ATOM      2  C   UNL A   1      33.160  30.071  26.670  1.00  0.00     0.118 C 
BRANCH   2   3
ATOM      3  N   UNL A   1      33.549  31.232  27.446  1.00  0.00    -0.352 N 
ATOM      4  O   UNL A   1      34.679  32.879  28.364  1.00  0.00    -0.269 OA
ATOM      5  C   UNL A   1      34.713  31.705  27.984  1.00  0.00     0.251 C 
ATOM      6  H   UNL A   1      32.787  31.827  27.630  1.00  0.00     0.163 HD
BRANCH   5   7
ATOM      7  C   UNL A   1      35.966  30.928  28.212  1.00  0.00     0.039 A 
ATOM      8  C   UNL A   1      36.131  29.554  28.054  1.00  0.00     0.014 A 
ATOM      9  C   UNL A   1      37.067  31.679  28.679  1.00  0.00     0.014 A 
ATOM     10  C   UNL A   1      37.337  28.943  28.420  1.00  0.00     0.010 A 
ATOM     11  C   UNL A   1      38.271  31.077  29.042  1.00  0.00     0.010 A 
ATOM     12  C   UNL A   1      38.402  29.699  28.939  1.00  0.00    -0.014 A 
BRANCH  12  13
ATOM     13  C   UNL A   1      39.697  29.042  29.153  1.00  0.00     0.031 A 
ATOM     14  C   UNL A   1      40.050  28.871  30.591  1.00  0.00     0.074 A 
ATOM     15  C   UNL A   1      40.479  28.482  28.204  1.00  0.00     0.049 A 
ATOM     16  N   UNL A   1      41.036  29.409  31.231  1.00  0.00    -0.248 NA
ATOM     17  C   UNL A   1      39.140  28.091  31.441  1.00  0.00     0.031 C 
ATOM     18  C   UNL A   1      40.167  28.259  26.793  1.00  0.00     0.029 A 
ATOM     19  N   UNL A   1      41.719  27.910  28.335  1.00  0.00    -0.354 N 
ATOM     20  C   UNL A   1      40.975  28.907  32.531  1.00  0.00     0.074 A 
ATOM     21  C   UNL A   1      39.718  28.216  32.638  1.00  0.00     0.031 C 
ATOM     22  C   UNL A   1      41.092  27.431  26.251  1.00  0.00     0.029 A 
ATOM     23  C   UNL A   1      42.135  27.170  27.231  1.00  0.00     0.049 A 
ATOM     24  H   UNL A   1      42.269  28.014  29.144  1.00  0.00     0.167 HD
ATOM     25  C   UNL A   1      42.071  28.924  33.341  1.00  0.00     0.037 A 
ATOM     26  C   UNL A   1      43.234  26.375  27.139  1.00  0.00     0.037 A 
ATOM     27  C   UNL A   1      43.051  29.866  32.861  1.00  0.00     0.049 A 
ATOM     28  C   UNL A   1      44.177  26.778  28.207  1.00  0.00     0.074 A 
ATOM     29  C   UNL A   1      43.069  31.227  32.625  1.00  0.00     0.029 A 
ATOM     30  N   UNL A   1      44.156  29.368  32.220  1.00  0.00    -0.354 N 
ATOM     31  N   UNL A   1      44.850  27.891  28.210  1.00  0.00    -0.248 NA
ATOM     32  C   UNL A   1      44.090  26.093  29.487  1.00  0.00     0.031 C 
ATOM     33  C   UNL A   1      43.887  31.392  31.467  1.00  0.00     0.029 A 
ATOM     34  C   UNL A   1      44.368  30.134  31.107  1.00  0.00     0.049 A 
ATOM     35  H   UNL A   1      44.697  28.599  32.508  1.00  0.00     0.167 HD
ATOM     36  C   UNL A   1      44.858  28.279  29.538  1.00  0.00     0.074 A 
ATOM     37  C   UNL A   1      44.487  27.083  30.288  1.00  0.00     0.031 C 
ATOM     38  C   UNL A   1      44.887  29.601  29.872  1.00  0.00     0.037 A 
BRANCH  25  39
ATOM     39  C   UNL A   1      42.440  27.823  34.314  1.00  0.00     0.064 A 
ATOM     40  C   UNL A   1      43.015  26.636  33.808  1.00  0.00     0.173 A 
ATOM     41  C   UNL A   1      41.953  27.737  35.635  1.00  0.00     0.173 A 
ATOM     42  F   UNL A   1      43.516  26.593  32.563  1.00  0.00    -0.203 F 
ATOM     43  C   UNL A   1      42.985  25.433  34.519  1.00  0.00     0.198 A 
ATOM     44  C   UNL A   1      41.973  26.547  36.363  1.00  0.00     0.198 A 
ATOM     45  F   UNL A   1      41.338  28.758  36.241  1.00  0.00    -0.203 F 
ATOM     46  F   UNL A   1      43.399  24.303  33.932  1.00  0.00    -0.200 F 
ATOM     47  C   UNL A   1      42.450  25.386  35.791  1.00  0.00     0.200 A 
ATOM     48  F   UNL A   1      41.439  26.520  37.593  1.00  0.00    -0.200 F 
ATOM     49  F   UNL A   1      42.346  24.223  36.445  1.00  0.00    -0.200 F 
ENDBRANCH  25  39
BRANCH  26  50
ATOM     50  C   UNL A   1      43.463  25.128  26.362  1.00  0.00     0.064 A 
ATOM     51  C   UNL A   1      44.496  25.043  25.408  1.00  0.00     0.173 A 
ATOM     52  C   UNL A   1      42.886  23.911  26.765  1.00  0.00     0.173 A 
ATOM     53  F   UNL A   1      45.130  26.150  24.995  1.00  0.00    -0.203 F 
ATOM     54  C   UNL A   1      44.949  23.812  24.922  1.00  0.00     0.198 A 
ATOM     55  C   UNL A   1      43.336  22.683  26.274  1.00  0.00     0.198 A 
ATOM     56  F   UNL A   1      41.946  23.883  27.720  1.00  0.00    -0.203 F 
ATOM     57  F   UNL A   1      45.985  23.768  24.071  1.00  0.00    -0.200 F 
ATOM     58  C   UNL A   1      44.380  22.633  25.366  1.00  0.00     0.200 A 
ATOM     59  F   UNL A   1      42.802  21.546  26.741  1.00  0.00    -0.200 F 
ATOM     60  F   UNL A   1      44.860  21.450  24.958  1.00  0.00    -0.200 F 
ENDBRANCH  26  50
BRANCH  38  61
ATOM     61  C   UNL A   1      45.276  30.586  28.808  1.00  0.00     0.064 A 
ATOM     62  C   UNL A   1      44.402  31.104  27.837  1.00  0.00     0.173 A 
ATOM     63  C   UNL A   1      46.578  31.106  28.849  1.00  0.00     0.173 A 
ATOM     64  F   UNL A   1      43.113  30.740  27.796  1.00  0.00    -0.203 F 
ATOM     65  C   UNL A   1      44.835  32.057  26.916  1.00  0.00     0.198 A 
ATOM     66  C   UNL A   1      46.994  32.087  27.957  1.00  0.00     0.198 A 
ATOM     67  F   UNL A   1      47.441  30.685  29.787  1.00  0.00    -0.203 F 
ATOM     68  F   UNL A   1      43.992  32.521  25.981  1.00  0.00    -0.200 F 
ATOM     69  C   UNL A   1      46.128  32.552  26.981  1.00  0.00     0.200 A 
ATOM     70  F   UNL A   1      48.227  32.599  28.058  1.00  0.00    -0.200 F 
ATOM     71  F   UNL A   1      46.531  33.497  26.120  1.00  0.00    -0.200 F 
ENDBRANCH  38  61
ENDBRANCH  12  13
ENDBRANCH   5   7
ENDBRANCH   2   3
ENDBRANCH   1   2
BRANCH   1  72
ATOM     72  C   UNL A   1      32.107  27.762  27.151  1.00  0.00     0.118 C 
BRANCH  72  73
ATOM     73  N   UNL A   1      30.863  27.078  26.847  1.00  0.00    -0.351 N 
ATOM     74  C   UNL A   1      30.657  25.760  26.505  1.00  0.00     0.274 C 
ATOM     75  H   UNL A   1      30.053  27.635  26.892  1.00  0.00     0.163 HD
ATOM     76  O   UNL A   1      29.507  25.410  26.222  1.00  0.00    -0.267 OA
BRANCH  74  77
ATOM     77  C   UNL A   1      31.771  24.825  26.470  1.00  0.00     0.178 A 
ATOM     78  N   UNL A   1      31.972  23.911  27.476  1.00  0.00    -0.124 NA
ATOM     79  C   UNL A   1      32.751  24.654  25.497  1.00  0.00     0.108 A 
ATOM     80  N   UNL A   1      32.991  23.135  27.139  1.00  0.00    -0.061 NA
ATOM     81  N   UNL A   1      33.560  23.652  26.029  1.00  0.00    -0.211 N 
BRANCH  79  82
ATOM     82  C   UNL A   1      32.910  25.242  24.170  1.00  0.00     0.004 A 
ATOM     83  C   UNL A   1      32.510  24.518  23.032  1.00  0.00     0.010 A 
ATOM     84  C   UNL A   1      33.432  26.528  24.012  1.00  0.00     0.031 A 
ATOM     85  C   UNL A   1      32.650  25.060  21.757  1.00  0.00     0.002 A 
ATOM     86  C   UNL A   1      33.586  27.059  22.731  1.00  0.00     0.041 A 
ATOM     87  C   UNL A   1      33.198  26.331  21.606  1.00  0.00     0.020 A 
ATOM     88  Cl  UNL A   1      34.275  28.623  22.535  1.00  0.00    -0.084 Cl
ENDBRANCH  79  82
BRANCH  81  89
ATOM     89  C   UNL A   1      34.689  23.040  25.430  1.00  0.00     0.079 A 
ATOM     90  C   UNL A   1      35.861  23.811  25.347  1.00  0.00     0.029 A 
ATOM     91  C   UNL A   1      34.696  21.683  25.048  1.00  0.00     0.081 A 
ATOM     92  C   UNL A   1      37.067  23.209  24.993  1.00  0.00     0.002 A 
ATOM     93  C   UNL A   1      35.931  21.099  24.706  1.00  0.00     0.015 A 
ATOM     94  C   UNL A   1      37.107  21.849  24.697  1.00  0.00     0.001 A 
BRANCH  91  95
ATOM     95  C   UNL A   1      33.459  20.828  24.879  1.00  0.00     0.418 C 
ATOM     96  F   UNL A   1      33.687  19.762  24.058  1.00  0.00    -0.166 F 
ATOM     97  F   UNL A   1      33.033  20.294  26.055  1.00  0.00    -0.166 F 
ATOM     98  F   UNL A   1      32.389  21.469  24.340  1.00  0.00    -0.166 F 
ENDBRANCH  91  95
ENDBRANCH  81  89
ENDBRANCH  74  77
ENDBRANCH  72  73
ENDBRANCH   1  72
TORSDOF 13
ENDMDL
MODEL 2
REMARK VINA RESULT:     -14.3      3.190      8.303
REMARK SMILES O=C(NCCCNC(=O)c1nnn(-c2ccccc2C(F)(F)F)c1-c1cccc(Cl)c1)c1ccc(-c2c3nc(c(-c4c(F)c(F)c(F)c(F)c4F)c4ccc([nH]4)c(-c4c(F)c(F)c(F)c(F)c4F)c4nc(c(-c5c(F)c(F)c(F)c(F)c5F)c5ccc2[nH]5)C=C4)C=C3)cc1
REMARK SMILES IDX 5 1 4 2 3 3 1 4 2 5 32 7 33 8 94 9 34 10 93 11 35 12 36 13
REMARK SMILES IDX 37 14 87 15 38 16 92 17 86 18 88 19 39 20 91 21 85 22 84 23
REMARK SMILES IDX 40 25 72 26 52 27 71 28 53 29 56 30 70 31 89 32 54 33 55 34
REMARK SMILES IDX 69 36 90 37 57 38 41 39 42 40 50 41 43 42 44 43 48 44 51 45
REMARK SMILES IDX 45 46 46 47 49 48 47 49 73 50 74 51 82 52 75 53 76 54 80 55
REMARK SMILES IDX 83 56 77 57 78 58 81 59 79 60 58 61 59 62 67 63 60 64 61 65
REMARK SMILES IDX 65 66 68 67 62 68 63 69 66 70 64 71 6 72 7 73 8 74 9 76
REMARK SMILES IDX 10 77 11 78 24 79 12 80 13 81 25 82 26 83 31 84 27 85 29 86
REMARK SMILES IDX 28 87 30 88 14 89 15 90 19 91 16 92 18 93 17 94 20 95 21 96
REMARK SMILES IDX 22 97 23 98
REMARK H PARENT 3 6 88 24 56 35 7 75
REMARK Flexibility Score: inf
ROOT
ATOM      1  C   UNL A   1      36.030  22.005  25.318  1.00  0.00     0.042 C 
ENDROOT
BRANCH   1   2
ATOM      2  C   UNL A   1      37.422  22.372  24.816  1.00  0.00     0.118 C 
BRANCH   2   3
ATOM      3  N   UNL A   1      38.518  21.734  25.519  1.00  0.00    -0.352 N 
ATOM      4  O   UNL A   1      40.002  21.144  27.030  1.00  0.00    -0.269 OA
ATOM      5  C   UNL A   1      39.356  22.076  26.543  1.00  0.00     0.251 C 
ATOM      6  H   UNL A   1      38.704  20.831  25.174  1.00  0.00     0.163 HD
BRANCH   5   7
ATOM      7  C   UNL A   1      39.605  23.451  27.065  1.00  0.00     0.039 A 
ATOM      8  C   UNL A   1      38.784  24.564  26.896  1.00  0.00     0.014 A 
ATOM      9  C   UNL A   1      40.826  23.626  27.753  1.00  0.00     0.014 A 
ATOM     10  C   UNL A   1      39.206  25.824  27.341  1.00  0.00     0.010 A 
ATOM     11  C   UNL A   1      41.249  24.877  28.201  1.00  0.00     0.010 A 
ATOM     12  C   UNL A   1      40.450  25.988  27.973  1.00  0.00    -0.014 A 
BRANCH  12  13
ATOM     13  C   UNL A   1      40.775  27.291  28.566  1.00  0.00     0.031 A 
ATOM     14  C   UNL A   1      42.006  27.914  28.003  1.00  0.00     0.074 A 
ATOM     15  C   UNL A   1      40.008  27.993  29.428  1.00  0.00     0.049 A 
ATOM     16  N   UNL A   1      43.114  28.172  28.619  1.00  0.00    -0.248 NA
ATOM     17  C   UNL A   1      42.047  28.189  26.560  1.00  0.00     0.031 C 
ATOM     18  C   UNL A   1      38.636  27.714  29.850  1.00  0.00     0.029 A 
ATOM     19  N   UNL A   1      40.283  29.180  30.059  1.00  0.00    -0.354 N 
ATOM     20  C   UNL A   1      43.940  28.797  27.686  1.00  0.00     0.074 A 
ATOM     21  C   UNL A   1      43.288  28.656  26.411  1.00  0.00     0.031 C 
ATOM     22  C   UNL A   1      38.133  28.793  30.498  1.00  0.00     0.029 A 
ATOM     23  C   UNL A   1      39.182  29.787  30.657  1.00  0.00     0.049 A 
ATOM     24  H   UNL A   1      41.187  29.570  30.086  1.00  0.00     0.167 HD
ATOM     25  C   UNL A   1      44.992  29.565  28.086  1.00  0.00     0.037 A 
ATOM     26  C   UNL A   1      39.126  31.029  31.209  1.00  0.00     0.037 A 
ATOM     27  C   UNL A   1      45.354  29.273  29.450  1.00  0.00     0.049 A 
ATOM     28  C   UNL A   1      40.511  31.455  31.514  1.00  0.00     0.074 A 
ATOM     29  C   UNL A   1      45.775  28.150  30.134  1.00  0.00     0.029 A 
ATOM     30  N   UNL A   1      44.979  30.171  30.417  1.00  0.00    -0.354 N 
ATOM     31  N   UNL A   1      41.243  30.948  32.462  1.00  0.00    -0.248 NA
ATOM     32  C   UNL A   1      41.230  32.207  30.498  1.00  0.00     0.031 C 
ATOM     33  C   UNL A   1      45.173  28.253  31.424  1.00  0.00     0.029 A 
ATOM     34  C   UNL A   1      44.475  29.458  31.470  1.00  0.00     0.049 A 
ATOM     35  H   UNL A   1      45.057  31.151  30.362  1.00  0.00     0.167 HD
ATOM     36  C   UNL A   1      42.516  30.907  31.922  1.00  0.00     0.074 A 
ATOM     37  C   UNL A   1      42.472  31.801  30.770  1.00  0.00     0.031 C 
ATOM     38  C   UNL A   1      43.395  29.933  32.298  1.00  0.00     0.037 A 
BRANCH  25  39
ATOM     39  C   UNL A   1      45.428  30.849  27.407  1.00  0.00     0.064 A 
ATOM     40  C   UNL A   1      46.780  30.986  27.022  1.00  0.00     0.173 A 
ATOM     41  C   UNL A   1      44.686  32.049  27.431  1.00  0.00     0.173 A 
ATOM     42  F   UNL A   1      47.587  29.915  26.959  1.00  0.00    -0.203 F 
ATOM     43  C   UNL A   1      47.368  32.235  26.807  1.00  0.00     0.198 A 
ATOM     44  C   UNL A   1      45.264  33.290  27.163  1.00  0.00     0.198 A 
ATOM     45  F   UNL A   1      43.408  32.094  27.820  1.00  0.00    -0.203 F 
ATOM     46  F   UNL A   1      48.689  32.321  26.600  1.00  0.00    -0.200 F 
ATOM     47  C   UNL A   1      46.612  33.388  26.892  1.00  0.00     0.200 A 
ATOM     48  F   UNL A   1      44.516  34.398  27.262  1.00  0.00    -0.200 F 
ATOM     49  F   UNL A   1      47.186  34.591  26.766  1.00  0.00    -0.200 F 
ENDBRANCH  25  39
BRANCH  26  50
ATOM     50  C   UNL A   1      38.003  32.000  31.292  1.00  0.00     0.064 A 
ATOM     51  C   UNL A   1      37.576  32.718  30.158  1.00  0.00     0.173 A 
ATOM     52  C   UNL A   1      37.132  32.003  32.395  1.00  0.00     0.173 A 
ATOM     53  F   UNL A   1      38.324  32.737  29.045  1.00  0.00    -0.203 F 
ATOM     54  C   UNL A   1      36.334  33.363  30.119  1.00  0.00     0.198 A 
ATOM     55  C   UNL A   1      35.896  32.652  32.357  1.00  0.00     0.198 A 
ATOM     56  F   UNL A   1      37.418  31.290  33.494  1.00  0.00    -0.203 F 
ATOM     57  F   UNL A   1      35.930  33.972  28.995  1.00  0.00    -0.200 F 
ATOM     58  C   UNL A   1      35.489  33.317  31.213  1.00  0.00     0.200 A 
ATOM     59  F   UNL A   1      35.070  32.569  33.410  1.00  0.00    -0.200 F 
ATOM     60  F   UNL A   1      34.270  33.871  31.154  1.00  0.00    -0.200 F 
ENDBRANCH  26  50
BRANCH  38  61
ATOM     61  C   UNL A   1      43.092  29.155  33.545  1.00  0.00     0.064 A 
ATOM     62  C   UNL A   1      42.258  28.025  33.602  1.00  0.00     0.173 A 
ATOM     63  C   UNL A   1      43.770  29.519  34.718  1.00  0.00     0.173 A 
ATOM     64  F   UNL A   1      41.655  27.549  32.504  1.00  0.00    -0.203 F 
ATOM     65  C   UNL A   1      42.071  27.330  34.797  1.00  0.00     0.198 A 
ATOM     66  C   UNL A   1      43.615  28.797  35.896  1.00  0.00     0.198 A 
ATOM     67  F   UNL A   1      44.618  30.559  34.709  1.00  0.00    -0.203 F 
ATOM     68  F   UNL A   1      41.251  26.269  34.836  1.00  0.00    -0.200 F 
ATOM     69  C   UNL A   1      42.755  27.713  35.939  1.00  0.00     0.200 A 
ATOM     70  F   UNL A   1      44.318  29.140  36.983  1.00  0.00    -0.200 F 
ATOM     71  F   UNL A   1      42.605  27.019  37.077  1.00  0.00    -0.200 F 
ENDBRANCH  38  61
ENDBRANCH  12  13
ENDBRANCH   5   7
ENDBRANCH   2   3
ENDBRANCH   1   2
BRANCH   1  72
ATOM     72  C   UNL A   1      35.071  23.174  25.523  1.00  0.00     0.118 C 
BRANCH  72  73
ATOM     73  N   UNL A   1      34.112  22.978  26.594  1.00  0.00    -0.351 N 
ATOM     74  C   UNL A   1      32.795  23.375  26.667  1.00  0.00     0.274 C 
ATOM     75  H   UNL A   1      34.451  22.492  27.381  1.00  0.00     0.163 HD
ATOM     76  O   UNL A   1      32.182  23.155  27.716  1.00  0.00    -0.267 OA
BRANCH  74  77
ATOM     77  C   UNL A   1      32.166  24.044  25.538  1.00  0.00     0.178 A 
ATOM     78  N   UNL A   1      31.596  23.333  24.510  1.00  0.00    -0.124 NA
ATOM     79  C   UNL A   1      31.994  25.405  25.300  1.00  0.00     0.108 A 
ATOM     80  N   UNL A   1      31.020  24.188  23.679  1.00  0.00    -0.061 NA
ATOM     81  N   UNL A   1      31.369  25.437  24.057  1.00  0.00    -0.211 N 
BRANCH  79  82
ATOM     82  C   UNL A   1      32.262  26.574  26.134  1.00  0.00     0.004 A 
ATOM     83  C   UNL A   1      31.227  27.137  26.901  1.00  0.00     0.010 A 
ATOM     84  C   UNL A   1      33.542  27.130  26.201  1.00  0.00     0.031 A 
ATOM     85  C   UNL A   1      31.460  28.251  27.704  1.00  0.00     0.002 A 
ATOM     86  C   UNL A   1      33.765  28.256  26.993  1.00  0.00     0.041 A 
ATOM     87  C   UNL A   1      32.731  28.817  27.744  1.00  0.00     0.020 A 
ATOM     88  Cl  UNL A   1      35.329  28.970  27.037  1.00  0.00    -0.084 Cl
ENDBRANCH  79  82
BRANCH  81  89
ATOM     89  C   UNL A   1      30.908  26.573  23.347  1.00  0.00     0.079 A 
ATOM     90  C   UNL A   1      29.571  26.954  23.554  1.00  0.00     0.029 A 
ATOM     91  C   UNL A   1      31.768  27.375  22.568  1.00  0.00     0.081 A 
ATOM     92  C   UNL A   1      29.116  28.184  23.083  1.00  0.00     0.002 A 
ATOM     93  C   UNL A   1      31.284  28.618  22.115  1.00  0.00     0.015 A 
ATOM     94  C   UNL A   1      29.978  29.026  22.386  1.00  0.00     0.001 A 
BRANCH  91  95
ATOM     95  C   UNL A   1      33.142  26.956  22.094  1.00  0.00     0.418 C 
ATOM     96  F   UNL A   1      33.865  28.018  21.634  1.00  0.00    -0.166 F 
ATOM     97  F   UNL A   1      33.892  26.413  23.090  1.00  0.00    -0.166 F 
ATOM     98  F   UNL A   1      33.148  26.056  21.076  1.00  0.00    -0.166 F 
ENDBRANCH  91  95
ENDBRANCH  81  89
ENDBRANCH  74  77
ENDBRANCH  72  73
ENDBRANCH   1  72
TORSDOF 13
ENDMDL
MODEL 3
REMARK VINA RESULT:     -14.2      3.276      8.598
REMARK SMILES O=C(NCCCNC(=O)c1nnn(-c2ccccc2C(F)(F)F)c1-c1cccc(Cl)c1)c1ccc(-c2c3nc(c(-c4c(F)c(F)c(F)c(F)c4F)c4ccc([nH]4)c(-c4c(F)c(F)c(F)c(F)c4F)c4nc(c(-c5c(F)c(F)c(F)c(F)c5F)c5ccc2[nH]5)C=C4)C=C3)cc1
REMARK SMILES IDX 5 1 4 2 3 3 1 4 2 5 32 7 33 8 94 9 34 10 93 11 35 12 36 13
REMARK SMILES IDX 37 14 87 15 38 16 92 17 86 18 88 19 39 20 91 21 85 22 84 23
REMARK SMILES IDX 40 25 72 26 52 27 71 28 53 29 56 30 70 31 89 32 54 33 55 34
REMARK SMILES IDX 69 36 90 37 57 38 41 39 42 40 50 41 43 42 44 43 48 44 51 45
REMARK SMILES IDX 45 46 46 47 49 48 47 49 73 50 74 51 82 52 75 53 76 54 80 55
REMARK SMILES IDX 83 56 77 57 78 58 81 59 79 60 58 61 59 62 67 63 60 64 61 65
REMARK SMILES IDX 65 66 68 67 62 68 63 69 66 70 64 71 6 72 7 73 8 74 9 76
REMARK SMILES IDX 10 77 11 78 24 79 12 80 13 81 25 82 26 83 31 84 27 85 29 86
REMARK SMILES IDX 28 87 30 88 14 89 15 90 19 91 16 92 18 93 17 94 20 95 21 96
REMARK SMILES IDX 22 97 23 98
REMARK H PARENT 3 6 88 24 56 35 7 75
REMARK Flexibility Score: inf
ROOT
ATOM      1  C   UNL A   1      37.028  22.823  24.696  1.00  0.00     0.042 C 
ENDROOT
BRANCH   1   2
ATOM      2  C   UNL A   1      37.648  22.037  25.846  1.00  0.00     0.118 C 
BRANCH   2   3
ATOM      3  N   UNL A   1      39.079  21.831  25.750  1.00  0.00    -0.352 N 
ATOM      4  O   UNL A   1      41.241  21.785  26.151  1.00  0.00    -0.269 OA
ATOM      5  C   UNL A   1      40.192  22.425  26.275  1.00  0.00     0.251 C 
ATOM      6  H   UNL A   1      39.306  21.075  25.161  1.00  0.00     0.163 HD
BRANCH   5   7
ATOM      7  C   UNL A   1      40.264  23.774  26.908  1.00  0.00     0.039 A 
ATOM      8  C   UNL A   1      39.406  24.847  26.674  1.00  0.00     0.014 A 
ATOM      9  C   UNL A   1      41.348  23.973  27.790  1.00  0.00     0.014 A 
ATOM     10  C   UNL A   1      39.667  26.096  27.252  1.00  0.00     0.010 A 
ATOM     11  C   UNL A   1      41.610  25.213  28.371  1.00  0.00     0.010 A 
ATOM     12  C   UNL A   1      40.783  26.290  28.082  1.00  0.00    -0.014 A 
BRANCH  12  13
ATOM     13  C   UNL A   1      40.924  27.566  28.793  1.00  0.00     0.031 A 
ATOM     14  C   UNL A   1      42.089  28.377  28.340  1.00  0.00     0.074 A 
ATOM     15  C   UNL A   1      40.044  28.096  29.671  1.00  0.00     0.049 A 
ATOM     16  N   UNL A   1      43.133  28.712  29.027  1.00  0.00    -0.248 NA
ATOM     17  C   UNL A   1      42.151  28.778  26.928  1.00  0.00     0.031 C 
ATOM     18  C   UNL A   1      38.702  27.620  30.003  1.00  0.00     0.029 A 
ATOM     19  N   UNL A   1      40.147  29.249  30.407  1.00  0.00    -0.354 N 
ATOM     20  C   UNL A   1      43.911  29.508  28.188  1.00  0.00     0.074 A 
ATOM     21  C   UNL A   1      43.330  29.400  26.876  1.00  0.00     0.031 C 
ATOM     22  C   UNL A   1      38.047  28.572  30.710  1.00  0.00     0.029 A 
ATOM     23  C   UNL A   1      38.958  29.667  30.998  1.00  0.00     0.049 A 
ATOM     24  H   UNL A   1      40.995  29.740  30.508  1.00  0.00     0.167 HD
ATOM     25  C   UNL A   1      44.844  30.360  28.698  1.00  0.00     0.037 A 
ATOM     26  C   UNL A   1      38.729  30.841  31.645  1.00  0.00     0.037 A 
ATOM     27  C   UNL A   1      45.187  29.998  30.050  1.00  0.00     0.049 A 
ATOM     28  C   UNL A   1      40.039  31.402  32.048  1.00  0.00     0.074 A 
ATOM     29  C   UNL A   1      45.718  28.878  30.661  1.00  0.00     0.029 A 
ATOM     30  N   UNL A   1      44.669  30.759  31.067  1.00  0.00    -0.354 N 
ATOM     31  N   UNL A   1      40.792  30.907  32.986  1.00  0.00    -0.248 NA
ATOM     32  C   UNL A   1      40.698  32.318  31.132  1.00  0.00     0.031 C 
ATOM     33  C   UNL A   1      45.060  28.798  31.925  1.00  0.00     0.029 A 
ATOM     34  C   UNL A   1      44.218  29.904  32.034  1.00  0.00     0.049 A 
ATOM     35  H   UNL A   1      44.628  31.741  31.095  1.00  0.00     0.167 HD
ATOM     36  C   UNL A   1      42.080  31.064  32.507  1.00  0.00     0.074 A 
ATOM     37  C   UNL A   1      41.969  32.042  31.429  1.00  0.00     0.031 C 
ATOM     38  C   UNL A   1      43.057  30.174  32.845  1.00  0.00     0.037 A 
BRANCH  25  39
ATOM     39  C   UNL A   1      45.144  31.740  28.146  1.00  0.00     0.064 A 
ATOM     40  C   UNL A   1      44.079  32.656  27.995  1.00  0.00     0.173 A 
ATOM     41  C   UNL A   1      46.327  32.076  27.456  1.00  0.00     0.173 A 
ATOM     42  F   UNL A   1      42.902  32.446  28.606  1.00  0.00    -0.203 F 
ATOM     43  C   UNL A   1      44.154  33.743  27.121  1.00  0.00     0.198 A 
ATOM     44  C   UNL A   1      46.416  33.194  26.626  1.00  0.00     0.198 A 
ATOM     45  F   UNL A   1      47.408  31.289  27.459  1.00  0.00    -0.203 F 
ATOM     46  F   UNL A   1      43.064  34.489  26.894  1.00  0.00    -0.200 F 
ATOM     47  C   UNL A   1      45.318  34.004  26.426  1.00  0.00     0.200 A 
ATOM     48  F   UNL A   1      47.552  33.423  25.951  1.00  0.00    -0.200 F 
ATOM     49  F   UNL A   1      45.370  34.996  25.529  1.00  0.00    -0.200 F 
ENDBRANCH  25  39
BRANCH  26  50
ATOM     50  C   UNL A   1      37.494  31.661  31.751  1.00  0.00     0.064 A 
ATOM     51  C   UNL A   1      36.933  31.976  33.005  1.00  0.00     0.173 A 
ATOM     52  C   UNL A   1      37.028  32.408  30.656  1.00  0.00     0.173 A 
ATOM     53  F   UNL A   1      37.347  31.341  34.111  1.00  0.00    -0.203 F 
ATOM     54  C   UNL A   1      35.997  33.005  33.155  1.00  0.00     0.198 A 
ATOM     55  C   UNL A   1      36.089  33.431  30.807  1.00  0.00     0.198 A 
ATOM     56  F   UNL A   1      37.552  32.231  29.435  1.00  0.00    -0.203 F 
ATOM     57  F   UNL A   1      35.543  33.326  34.376  1.00  0.00    -0.200 F 
ATOM     58  C   UNL A   1      35.587  33.742  32.059  1.00  0.00     0.200 A 
ATOM     59  F   UNL A   1      35.727  34.162  29.743  1.00  0.00    -0.200 F 
ATOM     60  F   UNL A   1      34.746  34.775  32.210  1.00  0.00    -0.200 F 
ENDBRANCH  26  50
BRANCH  38  61
ATOM     61  C   UNL A   1      42.804  29.262  34.010  1.00  0.00     0.064 A 
ATOM     62  C   UNL A   1      42.044  28.081  33.953  1.00  0.00     0.173 A 
ATOM     63  C   UNL A   1      43.458  29.553  35.216  1.00  0.00     0.173 A 
ATOM     64  F   UNL A   1      41.474  27.674  32.811  1.00  0.00    -0.203 F 
ATOM     65  C   UNL A   1      41.904  27.263  35.074  1.00  0.00     0.198 A 
ATOM     66  C   UNL A   1      43.351  28.713  36.318  1.00  0.00     0.198 A 
ATOM     67  F   UNL A   1      44.239  30.641  35.312  1.00  0.00    -0.203 F 
ATOM     68  F   UNL A   1      41.153  26.152  35.006  1.00  0.00    -0.200 F 
ATOM     69  C   UNL A   1      42.562  27.577  36.252  1.00  0.00     0.200 A 
ATOM     70  F   UNL A   1      44.031  28.993  37.437  1.00  0.00    -0.200 F 
ATOM     71  F   UNL A   1      42.458  26.769  37.317  1.00  0.00    -0.200 F 
ENDBRANCH  38  61
ENDBRANCH  12  13
ENDBRANCH   5   7
ENDBRANCH   2   3
ENDBRANCH   1   2
BRANCH   1  72
ATOM     72  C   UNL A   1      35.894  23.770  25.076  1.00  0.00     0.118 C 
BRANCH  72  73
ATOM     73  N   UNL A   1      35.145  23.362  26.251  1.00  0.00    -0.351 N 
ATOM     74  C   UNL A   1      33.795  23.467  26.502  1.00  0.00     0.274 C 
ATOM     75  H   UNL A   1      35.679  22.954  26.971  1.00  0.00     0.163 HD
ATOM     76  O   UNL A   1      33.384  23.111  27.611  1.00  0.00    -0.267 OA
BRANCH  74  77
ATOM     77  C   UNL A   1      32.897  23.995  25.486  1.00  0.00     0.178 A 
ATOM     78  N   UNL A   1      32.318  23.178  24.545  1.00  0.00    -0.124 NA
ATOM     79  C   UNL A   1      32.453  25.300  25.291  1.00  0.00     0.108 A 
ATOM     80  N   UNL A   1      31.483  23.904  23.818  1.00  0.00    -0.061 NA
ATOM     81  N   UNL A   1      31.655  25.200  24.154  1.00  0.00    -0.211 N 
BRANCH  79  82
ATOM     82  C   UNL A   1      32.627  26.511  26.088  1.00  0.00     0.004 A 
ATOM     83  C   UNL A   1      31.557  27.002  26.857  1.00  0.00     0.010 A 
ATOM     84  C   UNL A   1      33.854  27.180  26.119  1.00  0.00     0.031 A 
ATOM     85  C   UNL A   1      31.702  28.154  27.626  1.00  0.00     0.002 A 
ATOM     86  C   UNL A   1      33.988  28.342  26.877  1.00  0.00     0.041 A 
ATOM     87  C   UNL A   1      32.919  28.831  27.630  1.00  0.00     0.020 A 
ATOM     88  Cl  UNL A   1      35.483  29.192  26.876  1.00  0.00    -0.084 Cl
ENDBRANCH  79  82
BRANCH  81  89
ATOM     89  C   UNL A   1      30.900  26.226  23.532  1.00  0.00     0.079 A 
ATOM     90  C   UNL A   1      29.541  26.316  23.881  1.00  0.00     0.029 A 
ATOM     91  C   UNL A   1      31.491  27.199  22.701  1.00  0.00     0.081 A 
ATOM     92  C   UNL A   1      28.797  27.431  23.500  1.00  0.00     0.002 A 
ATOM     93  C   UNL A   1      30.718  28.320  22.341  1.00  0.00     0.015 A 
ATOM     94  C   UNL A   1      29.391  28.443  22.752  1.00  0.00     0.001 A 
BRANCH  91  95
ATOM     95  C   UNL A   1      32.867  27.082  22.081  1.00  0.00     0.418 C 
ATOM     96  F   UNL A   1      32.848  26.328  20.944  1.00  0.00    -0.166 F 
ATOM     97  F   UNL A   1      33.371  28.288  21.706  1.00  0.00    -0.166 F 
ATOM     98  F   UNL A   1      33.806  26.504  22.875  1.00  0.00    -0.166 F 
ENDBRANCH  91  95
ENDBRANCH  81  89
ENDBRANCH  74  77
ENDBRANCH  72  73
ENDBRANCH   1  72
TORSDOF 13
ENDMDL
