MODEL 1
REMARK VINA RESULT:     -13.4      0.000      0.000
REMARK SMILES COc1ccccc1[C@@H]1C[N@@H+](Cc2cc3c(cc2C)OCO3)C[C@H]1C(=O)NCCCNC(=O)c1ccc(-c2c3nc(c(-c4c(F)c(F)c(F)c(F)c4F)c4ccc([nH]4)c(-c4c(F)c(F)c(F)c(F)c4F)c4nc(c(-c5c(F)c(F)c(F)c(F)c5F)c5ccc2[nH]5)C=C4)C=C3)cc1
REMARK SMILES IDX 29 1 28 2 27 3 25 4 26 5 24 7 9 8 10 9 11 10 23 11 8 13 3 14
REMARK SMILES IDX 4 15 5 16 7 17 6 18 2 19 1 20 12 21 13 22 14 23 18 24 15 25
REMARK SMILES IDX 17 26 19 27 16 28 22 29 20 30 21 31 30 32 31 33 32 34 33 36
REMARK SMILES IDX 34 37 35 38 96 39 36 40 95 41 37 42 38 43 39 44 89 45 40 46
REMARK SMILES IDX 94 47 88 48 90 49 41 50 93 51 87 52 86 53 42 55 74 56 54 57
REMARK SMILES IDX 73 58 55 59 58 60 72 61 91 62 56 63 57 64 71 66 92 67 59 68
REMARK SMILES IDX 43 69 44 70 52 71 45 72 46 73 50 74 53 75 47 76 48 77 51 78
REMARK SMILES IDX 49 79 75 80 76 81 84 82 77 83 78 84 82 85 85 86 79 87 80 88
REMARK SMILES IDX 83 89 81 90 60 91 61 92 69 93 62 94 63 95 67 96 70 97 64 98
REMARK SMILES IDX 65 99 68 100 66 101
REMARK H PARENT 27 6 11 12 31 35 90 54 58 65
REMARK Flexibility Score: inf
ROOT
ATOM      1  C   UNL A   1      31.537  29.356  27.067  1.00  0.00     0.042 C 
ENDROOT
BRANCH   1   2
ATOM      2  C   UNL A   1      31.281  27.805  26.954  1.00  0.00     0.117 C 
BRANCH   2   3
ATOM      3  N   UNL A   1      32.432  26.901  26.682  1.00  0.00    -0.356 N 
ATOM      4  C   UNL A   1      33.555  27.110  25.911  1.00  0.00     0.229 C 
ATOM      5  O   UNL A   1      34.548  27.428  26.592  1.00  0.00    -0.275 OA
ATOM      6  H   UNL A   1      32.385  26.020  27.120  1.00  0.00     0.163 HD
BRANCH   4   7
ATOM      7  C   UNL A   1      33.834  26.745  24.399  1.00  0.00     0.146 C 
ATOM      8  C   UNL A   1      33.474  25.298  23.990  1.00  0.00     0.096 C 
ATOM      9  C   UNL A   1      33.383  25.324  22.452  1.00  0.00     0.272 C 
ATOM     10  N   UNL A   1      32.889  26.651  22.096  1.00  0.00    -0.330 N 
ATOM     11  C   UNL A   1      33.407  27.554  23.153  1.00  0.00     0.276 C 
ATOM     12  H   UNL A   1      33.238  27.053  21.227  1.00  0.00     0.348 HD
BRANCH   8  13
ATOM     13  C   UNL A   1      34.293  24.094  24.434  1.00  0.00     0.004 A 
ATOM     14  C   UNL A   1      34.158  23.425  25.666  1.00  0.00     0.122 A 
ATOM     15  C   UNL A   1      35.141  22.532  26.111  1.00  0.00     0.047 A 
ATOM     16  C   UNL A   1      36.264  22.272  25.330  1.00  0.00     0.004 A 
ATOM     17  C   UNL A   1      35.418  23.777  23.646  1.00  0.00     0.008 A 
ATOM     18  C   UNL A   1      36.398  22.888  24.093  1.00  0.00     0.001 A 
BRANCH  14  19
ATOM     19  O   UNL A   1      33.208  23.759  26.593  1.00  0.00    -0.496 OA
ATOM     20  C   UNL A   1      32.960  22.723  27.537  1.00  0.00     0.278 C 
ENDBRANCH  14  19
ENDBRANCH   8  13
BRANCH  10  21
ATOM     21  C   UNL A   1      31.469  26.625  21.693  1.00  0.00     0.299 C 
BRANCH  21  22
ATOM     22  C   UNL A   1      30.573  27.599  22.433  1.00  0.00     0.013 A 
ATOM     23  C   UNL A   1      30.516  28.972  22.086  1.00  0.00     0.060 A 
ATOM     24  C   UNL A   1      29.639  27.084  23.339  1.00  0.00    -0.038 A 
ATOM     25  C   UNL A   1      29.418  29.715  22.482  1.00  0.00     0.166 A 
ATOM     26  C   UNL A   1      28.473  27.820  23.546  1.00  0.00     0.054 A 
ATOM     27  C   UNL A   1      29.868  25.786  24.057  1.00  0.00     0.045 C 
ATOM     28  C   UNL A   1      28.377  29.113  23.118  1.00  0.00     0.166 A 
ATOM     29  O   UNL A   1      29.164  31.030  22.258  1.00  0.00    -0.454 OA
ATOM     30  O   UNL A   1      27.298  29.915  23.294  1.00  0.00    -0.454 OA
ATOM     31  C   UNL A   1      27.871  31.174  22.900  1.00  0.00     0.468 C 
ENDBRANCH  21  22
ENDBRANCH  10  21
ENDBRANCH   4   7
ENDBRANCH   2   3
ENDBRANCH   1   2
BRANCH   1  32
ATOM     32  C   UNL A   1      31.912  30.228  25.833  1.00  0.00     0.118 C 
BRANCH  32  33
ATOM     33  N   UNL A   1      32.016  31.640  26.257  1.00  0.00    -0.352 N 
ATOM     34  C   UNL A   1      32.774  32.343  27.154  1.00  0.00     0.251 C 
ATOM     35  H   UNL A   1      31.383  32.220  25.774  1.00  0.00     0.163 HD
ATOM     36  O   UNL A   1      32.310  33.450  27.515  1.00  0.00    -0.269 OA
BRANCH  34  37
ATOM     37  C   UNL A   1      34.112  31.972  27.689  1.00  0.00     0.039 A 
ATOM     38  C   UNL A   1      34.348  30.619  28.010  1.00  0.00     0.014 A 
ATOM     39  C   UNL A   1      35.055  32.915  28.099  1.00  0.00     0.014 A 
ATOM     40  C   UNL A   1      35.492  30.218  28.722  1.00  0.00     0.010 A 
ATOM     41  C   UNL A   1      36.217  32.508  28.794  1.00  0.00     0.010 A 
ATOM     42  C   UNL A   1      36.448  31.159  29.127  1.00  0.00    -0.014 A 
BRANCH  42  43
ATOM     43  C   UNL A   1      37.665  30.747  29.899  1.00  0.00     0.031 A 
ATOM     44  C   UNL A   1      38.688  29.809  29.300  1.00  0.00     0.074 A 
ATOM     45  C   UNL A   1      37.853  31.181  31.164  1.00  0.00     0.049 A 
ATOM     46  N   UNL A   1      39.743  29.261  29.857  1.00  0.00    -0.248 NA
ATOM     47  C   UNL A   1      38.491  29.429  27.894  1.00  0.00     0.031 C 
ATOM     48  C   UNL A   1      36.967  32.097  31.880  1.00  0.00     0.029 A 
ATOM     49  N   UNL A   1      38.842  30.897  32.078  1.00  0.00    -0.354 N 
ATOM     50  C   UNL A   1      40.315  28.448  28.883  1.00  0.00     0.074 A 
ATOM     51  C   UNL A   1      39.482  28.562  27.704  1.00  0.00     0.031 C 
ATOM     52  C   UNL A   1      37.445  32.295  33.120  1.00  0.00     0.029 A 
ATOM     53  C   UNL A   1      38.655  31.497  33.301  1.00  0.00     0.049 A 
ATOM     54  H   UNL A   1      39.612  30.318  31.875  1.00  0.00     0.167 HD
ATOM     55  C   UNL A   1      41.433  27.683  28.958  1.00  0.00     0.037 A 
ATOM     56  C   UNL A   1      39.362  31.404  34.447  1.00  0.00     0.037 A 
ATOM     57  C   UNL A   1      42.304  27.603  30.105  1.00  0.00     0.049 A 
ATOM     58  C   UNL A   1      40.586  30.528  34.509  1.00  0.00     0.074 A 
ATOM     59  C   UNL A   1      43.507  26.926  30.227  1.00  0.00     0.029 A 
ATOM     60  N   UNL A   1      42.070  28.218  31.323  1.00  0.00    -0.354 N 
ATOM     61  N   UNL A   1      41.139  29.809  33.562  1.00  0.00    -0.248 NA
ATOM     62  C   UNL A   1      41.279  30.448  35.805  1.00  0.00     0.031 C 
ATOM     63  C   UNL A   1      43.977  27.093  31.535  1.00  0.00     0.029 A 
ATOM     64  C   UNL A   1      43.086  27.907  32.213  1.00  0.00     0.049 A 
ATOM     65  H   UNL A   1      41.296  28.792  31.527  1.00  0.00     0.167 HD
ATOM     66  C   UNL A   1      42.253  29.214  34.140  1.00  0.00     0.074 A 
ATOM     67  C   UNL A   1      42.315  29.661  35.510  1.00  0.00     0.031 C 
ATOM     68  C   UNL A   1      43.147  28.361  33.576  1.00  0.00     0.037 A 
BRANCH  55  69
ATOM     69  C   UNL A   1      41.800  26.847  27.766  1.00  0.00     0.064 A 
ATOM     70  C   UNL A   1      42.715  27.297  26.803  1.00  0.00     0.173 A 
ATOM     71  C   UNL A   1      41.301  25.540  27.638  1.00  0.00     0.173 A 
ATOM     72  F   UNL A   1      43.221  28.536  26.880  1.00  0.00    -0.203 F 
ATOM     73  C   UNL A   1      43.103  26.475  25.746  1.00  0.00     0.198 A 
ATOM     74  C   UNL A   1      41.709  24.714  26.594  1.00  0.00     0.198 A 
ATOM     75  F   UNL A   1      40.435  25.056  28.542  1.00  0.00    -0.203 F 
ATOM     76  F   UNL A   1      43.958  26.935  24.823  1.00  0.00    -0.200 F 
ATOM     77  C   UNL A   1      42.607  25.183  25.646  1.00  0.00     0.200 A 
ATOM     78  F   UNL A   1      41.241  23.461  26.509  1.00  0.00    -0.200 F 
ATOM     79  F   UNL A   1      42.994  24.391  24.638  1.00  0.00    -0.200 F 
ENDBRANCH  55  69
BRANCH  56  80
ATOM     80  C   UNL A   1      38.928  32.154  35.656  1.00  0.00     0.064 A 
ATOM     81  C   UNL A   1      39.297  33.494  35.843  1.00  0.00     0.173 A 
ATOM     82  C   UNL A   1      38.179  31.537  36.669  1.00  0.00     0.173 A 
ATOM     83  F   UNL A   1      40.042  34.117  34.917  1.00  0.00    -0.203 F 
ATOM     84  C   UNL A   1      38.952  34.181  37.004  1.00  0.00     0.198 A 
ATOM     85  C   UNL A   1      37.810  32.234  37.818  1.00  0.00     0.198 A 
ATOM     86  F   UNL A   1      37.808  30.255  36.543  1.00  0.00    -0.203 F 
ATOM     87  F   UNL A   1      39.366  35.444  37.181  1.00  0.00    -0.200 F 
ATOM     88  C   UNL A   1      38.205  33.553  37.988  1.00  0.00     0.200 A 
ATOM     89  F   UNL A   1      37.084  31.624  38.765  1.00  0.00    -0.200 F 
ATOM     90  F   UNL A   1      37.879  34.212  39.109  1.00  0.00    -0.200 F 
ENDBRANCH  56  80
BRANCH  68  91
ATOM     91  C   UNL A   1      44.276  27.876  34.435  1.00  0.00     0.064 A 
ATOM     92  C   UNL A   1      44.183  26.677  35.157  1.00  0.00     0.173 A 
ATOM     93  C   UNL A   1      45.483  28.591  34.503  1.00  0.00     0.173 A 
ATOM     94  F   UNL A   1      43.045  25.965  35.139  1.00  0.00    -0.203 F 
ATOM     95  C   UNL A   1      45.249  26.221  35.929  1.00  0.00     0.198 A 
ATOM     96  C   UNL A   1      46.554  28.118  35.256  1.00  0.00     0.198 A 
ATOM     97  F   UNL A   1      45.626  29.740  33.827  1.00  0.00    -0.203 F 
ATOM     98  F   UNL A   1      45.123  25.092  36.642  1.00  0.00    -0.200 F 
ATOM     99  C   UNL A   1      46.435  26.937  35.972  1.00  0.00     0.200 A 
ATOM    100  F   UNL A   1      47.704  28.806  35.287  1.00  0.00    -0.200 F 
ATOM    101  F   UNL A   1      47.462  26.492  36.709  1.00  0.00    -0.200 F 
ENDBRANCH  68  91
ENDBRANCH  42  43
ENDBRANCH  34  37
ENDBRANCH  32  33
ENDBRANCH   1  32
TORSDOF 14
ENDMDL
MODEL 2
REMARK VINA RESULT:     -13.3      1.994      4.781
REMARK SMILES COc1ccccc1[C@@H]1C[N@@H+](Cc2cc3c(cc2C)OCO3)C[C@H]1C(=O)NCCCNC(=O)c1ccc(-c2c3nc(c(-c4c(F)c(F)c(F)c(F)c4F)c4ccc([nH]4)c(-c4c(F)c(F)c(F)c(F)c4F)c4nc(c(-c5c(F)c(F)c(F)c(F)c5F)c5ccc2[nH]5)C=C4)C=C3)cc1
REMARK SMILES IDX 29 1 28 2 27 3 25 4 26 5 24 7 9 8 10 9 11 10 23 11 8 13 3 14
REMARK SMILES IDX 4 15 5 16 7 17 6 18 2 19 1 20 12 21 13 22 14 23 18 24 15 25
REMARK SMILES IDX 17 26 19 27 16 28 22 29 20 30 21 31 30 32 31 33 32 34 33 36
REMARK SMILES IDX 34 37 35 38 96 39 36 40 95 41 37 42 38 43 39 44 89 45 40 46
REMARK SMILES IDX 94 47 88 48 90 49 41 50 93 51 87 52 86 53 42 55 74 56 54 57
REMARK SMILES IDX 73 58 55 59 58 60 72 61 91 62 56 63 57 64 71 66 92 67 59 68
REMARK SMILES IDX 43 69 44 70 52 71 45 72 46 73 50 74 53 75 47 76 48 77 51 78
REMARK SMILES IDX 49 79 75 80 76 81 84 82 77 83 78 84 82 85 85 86 79 87 80 88
REMARK SMILES IDX 83 89 81 90 60 91 61 92 69 93 62 94 63 95 67 96 70 97 64 98
REMARK SMILES IDX 65 99 68 100 66 101
REMARK H PARENT 27 6 11 12 31 35 90 54 58 65
REMARK Flexibility Score: inf
ROOT
ATOM      1  C   UNL A   1      31.656  28.727  25.965  1.00  0.00     0.042 C 
ENDROOT
BRANCH   1   2
ATOM      2  C   UNL A   1      32.131  27.389  26.650  1.00  0.00     0.117 C 
BRANCH   2   3
ATOM      3  N   UNL A   1      31.153  26.279  26.818  1.00  0.00    -0.356 N 
ATOM      4  C   UNL A   1      31.267  24.945  26.490  1.00  0.00     0.229 C 
ATOM      5  O   UNL A   1      31.556  24.236  27.472  1.00  0.00    -0.275 OA
ATOM      6  H   UNL A   1      30.295  26.536  27.227  1.00  0.00     0.163 HD
BRANCH   4   7
ATOM      7  C   UNL A   1      30.826  24.177  25.181  1.00  0.00     0.146 C 
ATOM      8  C   UNL A   1      31.292  24.815  23.852  1.00  0.00     0.096 C 
ATOM      9  C   UNL A   1      31.167  23.695  22.801  1.00  0.00     0.272 C 
ATOM     10  N   UNL A   1      31.448  22.446  23.502  1.00  0.00    -0.330 N 
ATOM     11  C   UNL A   1      30.980  22.667  24.892  1.00  0.00     0.276 C 
ATOM     12  H   UNL A   1      30.938  21.620  23.192  1.00  0.00     0.348 HD
BRANCH   8  13
ATOM     13  C   UNL A   1      30.689  26.101  23.305  1.00  0.00     0.004 A 
ATOM     14  C   UNL A   1      31.368  27.049  22.515  1.00  0.00     0.122 A 
ATOM     15  C   UNL A   1      30.836  28.330  22.312  1.00  0.00     0.047 A 
ATOM     16  C   UNL A   1      29.611  28.682  22.872  1.00  0.00     0.004 A 
ATOM     17  C   UNL A   1      29.431  26.472  23.821  1.00  0.00     0.008 A 
ATOM     18  C   UNL A   1      28.904  27.749  23.620  1.00  0.00     0.001 A 
BRANCH  14  19
ATOM     19  O   UNL A   1      32.659  26.878  22.094  1.00  0.00    -0.496 OA
ATOM     20  C   UNL A   1      33.512  27.958  22.456  1.00  0.00     0.278 C 
ENDBRANCH  14  19
ENDBRANCH   8  13
BRANCH  10  21
ATOM     21  C   UNL A   1      32.793  21.923  23.186  1.00  0.00     0.299 C 
BRANCH  21  22
ATOM     22  C   UNL A   1      33.160  20.631  23.889  1.00  0.00     0.013 A 
ATOM     23  C   UNL A   1      32.557  19.395  23.542  1.00  0.00     0.060 A 
ATOM     24  C   UNL A   1      34.262  20.635  24.753  1.00  0.00    -0.038 A 
ATOM     25  C   UNL A   1      33.198  18.220  23.893  1.00  0.00     0.166 A 
ATOM     26  C   UNL A   1      34.957  19.437  24.911  1.00  0.00     0.054 A 
ATOM     27  C   UNL A   1      34.691  21.877  25.477  1.00  0.00     0.045 C 
ATOM     28  C   UNL A   1      34.423  18.257  24.482  1.00  0.00     0.166 A 
ATOM     29  O   UNL A   1      32.801  16.942  23.660  1.00  0.00    -0.454 OA
ATOM     30  O   UNL A   1      35.011  17.041  24.612  1.00  0.00    -0.454 OA
ATOM     31  C   UNL A   1      33.902  16.201  24.246  1.00  0.00     0.468 C 
ENDBRANCH  21  22
ENDBRANCH  10  21
ENDBRANCH   4   7
ENDBRANCH   2   3
ENDBRANCH   1   2
BRANCH   1  32
ATOM     32  C   UNL A   1      32.652  29.711  25.284  1.00  0.00     0.118 C 
BRANCH  32  33
ATOM     33  N   UNL A   1      32.580  31.019  25.971  1.00  0.00    -0.352 N 
ATOM     34  C   UNL A   1      33.212  31.606  27.032  1.00  0.00     0.251 C 
ATOM     35  H   UNL A   1      31.911  31.615  25.563  1.00  0.00     0.163 HD
ATOM     36  O   UNL A   1      32.612  32.572  27.561  1.00  0.00    -0.269 OA
BRANCH  34  37
ATOM     37  C   UNL A   1      34.556  31.273  27.578  1.00  0.00     0.039 A 
ATOM     38  C   UNL A   1      34.778  29.960  28.042  1.00  0.00     0.014 A 
ATOM     39  C   UNL A   1      35.521  32.239  27.863  1.00  0.00     0.014 A 
ATOM     40  C   UNL A   1      35.931  29.619  28.771  1.00  0.00     0.010 A 
ATOM     41  C   UNL A   1      36.692  31.890  28.576  1.00  0.00     0.010 A 
ATOM     42  C   UNL A   1      36.909  30.582  29.050  1.00  0.00    -0.014 A 
BRANCH  42  43
ATOM     43  C   UNL A   1      38.137  30.237  29.839  1.00  0.00     0.031 A 
ATOM     44  C   UNL A   1      39.174  29.283  29.290  1.00  0.00     0.074 A 
ATOM     45  C   UNL A   1      38.322  30.746  31.075  1.00  0.00     0.049 A 
ATOM     46  N   UNL A   1      40.241  28.786  29.872  1.00  0.00    -0.248 NA
ATOM     47  C   UNL A   1      38.978  28.820  27.909  1.00  0.00     0.031 C 
ATOM     48  C   UNL A   1      37.422  31.686  31.742  1.00  0.00     0.029 A 
ATOM     49  N   UNL A   1      39.320  30.532  32.000  1.00  0.00    -0.354 N 
ATOM     50  C   UNL A   1      40.822  27.930  28.943  1.00  0.00     0.074 A 
ATOM     51  C   UNL A   1      39.983  27.961  27.764  1.00  0.00     0.031 C 
ATOM     52  C   UNL A   1      37.902  31.962  32.966  1.00  0.00     0.029 A 
ATOM     53  C   UNL A   1      39.127  31.197  33.187  1.00  0.00     0.049 A 
ATOM     54  H   UNL A   1      40.099  29.956  31.827  1.00  0.00     0.167 HD
ATOM     55  C   UNL A   1      41.955  27.189  29.057  1.00  0.00     0.037 A 
ATOM     56  C   UNL A   1      39.840  31.182  34.334  1.00  0.00     0.037 A 
ATOM     57  C   UNL A   1      42.832  27.191  30.201  1.00  0.00     0.049 A 
ATOM     58  C   UNL A   1      41.079  30.332  34.439  1.00  0.00     0.074 A 
ATOM     59  C   UNL A   1      44.047  26.542  30.357  1.00  0.00     0.029 A 
ATOM     60  N   UNL A   1      42.591  27.870  31.383  1.00  0.00    -0.354 N 
ATOM     61  N   UNL A   1      41.641  29.571  33.532  1.00  0.00    -0.248 NA
ATOM     62  C   UNL A   1      41.779  30.339  35.734  1.00  0.00     0.031 C 
ATOM     63  C   UNL A   1      44.518  26.792  31.650  1.00  0.00     0.029 A 
ATOM     64  C   UNL A   1      43.616  27.628  32.285  1.00  0.00     0.049 A 
ATOM     65  H   UNL A   1      41.808  28.441  31.558  1.00  0.00     0.167 HD
ATOM     66  C   UNL A   1      42.767  29.029  34.138  1.00  0.00     0.074 A 
ATOM     67  C   UNL A   1      42.827  29.555  35.480  1.00  0.00     0.031 C 
ATOM     68  C   UNL A   1      43.674  28.161  33.620  1.00  0.00     0.037 A 
BRANCH  55  69
ATOM     69  C   UNL A   1      42.331  26.293  27.912  1.00  0.00     0.064 A 
ATOM     70  C   UNL A   1      41.732  25.039  27.729  1.00  0.00     0.173 A 
ATOM     71  C   UNL A   1      43.235  26.738  26.933  1.00  0.00     0.173 A 
ATOM     72  F   UNL A   1      40.862  24.568  28.635  1.00  0.00    -0.203 F 
ATOM     73  C   UNL A   1      42.037  24.256  26.617  1.00  0.00     0.198 A 
ATOM     74  C   UNL A   1      43.519  25.963  25.812  1.00  0.00     0.198 A 
ATOM     75  F   UNL A   1      43.825  27.938  27.053  1.00  0.00    -0.203 F 
ATOM     76  F   UNL A   1      41.471  23.049  26.476  1.00  0.00    -0.200 F 
ATOM     77  C   UNL A   1      42.923  24.720  25.657  1.00  0.00     0.200 A 
ATOM     78  F   UNL A   1      44.363  26.422  24.877  1.00  0.00    -0.200 F 
ATOM     79  F   UNL A   1      43.202  23.971  24.581  1.00  0.00    -0.200 F 
ENDBRANCH  55  69
BRANCH  56  80
ATOM     80  C   UNL A   1      39.397  31.993  35.500  1.00  0.00     0.064 A 
ATOM     81  C   UNL A   1      38.504  31.469  36.444  1.00  0.00     0.173 A 
ATOM     82  C   UNL A   1      39.820  33.320  35.668  1.00  0.00     0.173 A 
ATOM     83  F   UNL A   1      38.047  30.216  36.307  1.00  0.00    -0.203 F 
ATOM     84  C   UNL A   1      38.033  32.247  37.500  1.00  0.00     0.198 A 
ATOM     85  C   UNL A   1      39.370  34.089  36.740  1.00  0.00     0.198 A 
ATOM     86  F   UNL A   1      40.668  33.872  34.787  1.00  0.00    -0.203 F 
ATOM     87  F   UNL A   1      37.136  31.738  38.356  1.00  0.00    -0.200 F 
ATOM     88  C   UNL A   1      38.470  33.554  37.650  1.00  0.00     0.200 A 
ATOM     89  F   UNL A   1      39.799  35.350  36.884  1.00  0.00    -0.200 F 
ATOM     90  F   UNL A   1      38.012  34.304  38.661  1.00  0.00    -0.200 F 
ENDBRANCH  56  80
BRANCH  68  91
ATOM     91  C   UNL A   1      44.815  27.745  34.499  1.00  0.00     0.064 A 
ATOM     92  C   UNL A   1      44.744  26.591  35.293  1.00  0.00     0.173 A 
ATOM     93  C   UNL A   1      46.011  28.481  34.516  1.00  0.00     0.173 A 
ATOM     94  F   UNL A   1      43.617  25.863  35.325  1.00  0.00    -0.203 F 
ATOM     95  C   UNL A   1      45.820  26.198  36.085  1.00  0.00     0.198 A 
ATOM     96  C   UNL A   1      47.094  28.071  35.290  1.00  0.00     0.198 A 
ATOM     97  F   UNL A   1      46.133  29.589  33.771  1.00  0.00    -0.203 F 
ATOM     98  F   UNL A   1      45.716  25.113  36.866  1.00  0.00    -0.200 F 
ATOM     99  C   UNL A   1      46.996  26.933  36.077  1.00  0.00     0.200 A 
ATOM    100  F   UNL A   1      48.233  28.776  35.272  1.00  0.00    -0.200 F 
ATOM    101  F   UNL A   1      48.033  26.549  36.833  1.00  0.00    -0.200 F 
ENDBRANCH  68  91
ENDBRANCH  42  43
ENDBRANCH  34  37
ENDBRANCH  32  33
ENDBRANCH   1  32
TORSDOF 14
ENDMDL
MODEL 3
REMARK VINA RESULT:     -13.1      3.033      7.620
REMARK SMILES COc1ccccc1[C@@H]1C[N@@H+](Cc2cc3c(cc2C)OCO3)C[C@H]1C(=O)NCCCNC(=O)c1ccc(-c2c3nc(c(-c4c(F)c(F)c(F)c(F)c4F)c4ccc([nH]4)c(-c4c(F)c(F)c(F)c(F)c4F)c4nc(c(-c5c(F)c(F)c(F)c(F)c5F)c5ccc2[nH]5)C=C4)C=C3)cc1
REMARK SMILES IDX 29 1 28 2 27 3 25 4 26 5 24 7 9 8 10 9 11 10 23 11 8 13 3 14
REMARK SMILES IDX 4 15 5 16 7 17 6 18 2 19 1 20 12 21 13 22 14 23 18 24 15 25
REMARK SMILES IDX 17 26 19 27 16 28 22 29 20 30 21 31 30 32 31 33 32 34 33 36
REMARK SMILES IDX 34 37 35 38 96 39 36 40 95 41 37 42 38 43 39 44 89 45 40 46
REMARK SMILES IDX 94 47 88 48 90 49 41 50 93 51 87 52 86 53 42 55 74 56 54 57
REMARK SMILES IDX 73 58 55 59 58 60 72 61 91 62 56 63 57 64 71 66 92 67 59 68
REMARK SMILES IDX 43 69 44 70 52 71 45 72 46 73 50 74 53 75 47 76 48 77 51 78
REMARK SMILES IDX 49 79 75 80 76 81 84 82 77 83 78 84 82 85 85 86 79 87 80 88
REMARK SMILES IDX 83 89 81 90 60 91 61 92 69 93 62 94 63 95 67 96 70 97 64 98
REMARK SMILES IDX 65 99 68 100 66 101
REMARK H PARENT 27 6 11 12 31 35 90 54 58 65
REMARK Flexibility Score: inf
ROOT
ATOM      1  C   UNL A   1      31.929  29.164  26.945  1.00  0.00     0.042 C 
ENDROOT
BRANCH   1   2
ATOM      2  C   UNL A   1      31.639  27.759  27.597  1.00  0.00     0.117 C 
BRANCH   2   3
ATOM      3  N   UNL A   1      31.672  26.544  26.736  1.00  0.00    -0.356 N 
ATOM      4  C   UNL A   1      32.735  25.943  26.097  1.00  0.00     0.229 C 
ATOM      5  O   UNL A   1      33.173  24.961  26.724  1.00  0.00    -0.275 OA
ATOM      6  H   UNL A   1      30.802  26.102  26.604  1.00  0.00     0.163 HD
BRANCH   4   7
ATOM      7  C   UNL A   1      33.273  26.128  24.623  1.00  0.00     0.146 C 
ATOM      8  C   UNL A   1      33.040  24.926  23.679  1.00  0.00     0.096 C 
ATOM      9  C   UNL A   1      33.204  25.494  22.255  1.00  0.00     0.272 C 
ATOM     10  N   UNL A   1      32.726  26.871  22.310  1.00  0.00    -0.330 N 
ATOM     11  C   UNL A   1      33.027  27.333  23.687  1.00  0.00     0.276 C 
ATOM     12  H   UNL A   1      33.198  27.546  21.709  1.00  0.00     0.348 HD
BRANCH   8  13
ATOM     13  C   UNL A   1      33.819  23.624  23.803  1.00  0.00     0.004 A 
ATOM     14  C   UNL A   1      33.268  22.373  24.143  1.00  0.00     0.122 A 
ATOM     15  C   UNL A   1      34.090  21.305  24.526  1.00  0.00     0.047 A 
ATOM     16  C   UNL A   1      35.474  21.455  24.558  1.00  0.00     0.004 A 
ATOM     17  C   UNL A   1      35.225  23.732  23.801  1.00  0.00     0.008 A 
ATOM     18  C   UNL A   1      36.042  22.667  24.186  1.00  0.00     0.001 A 
BRANCH  14  19
ATOM     19  O   UNL A   1      31.927  22.180  24.342  1.00  0.00    -0.496 OA
ATOM     20  C   UNL A   1      31.594  21.940  25.704  1.00  0.00     0.278 C 
ENDBRANCH  14  19
ENDBRANCH   8  13
BRANCH  10  21
ATOM     21  C   UNL A   1      31.394  27.023  21.691  1.00  0.00     0.299 C 
BRANCH  21  22
ATOM     22  C   UNL A   1      30.453  27.966  22.415  1.00  0.00     0.013 A 
ATOM     23  C   UNL A   1      30.454  29.361  22.160  1.00  0.00     0.060 A 
ATOM     24  C   UNL A   1      29.430  27.415  23.195  1.00  0.00    -0.038 A 
ATOM     25  C   UNL A   1      29.338  30.102  22.507  1.00  0.00     0.166 A 
ATOM     26  C   UNL A   1      28.264  28.164  23.348  1.00  0.00     0.054 A 
ATOM     27  C   UNL A   1      29.569  26.066  23.838  1.00  0.00     0.045 C 
ATOM     28  C   UNL A   1      28.232  29.485  23.004  1.00  0.00     0.166 A 
ATOM     29  O   UNL A   1      29.130  31.436  22.354  1.00  0.00    -0.454 OA
ATOM     30  O   UNL A   1      27.157  30.300  23.138  1.00  0.00    -0.454 OA
ATOM     31  C   UNL A   1      27.787  31.568  22.885  1.00  0.00     0.468 C 
ENDBRANCH  21  22
ENDBRANCH  10  21
ENDBRANCH   4   7
ENDBRANCH   2   3
ENDBRANCH   1   2
BRANCH   1  32
ATOM     32  C   UNL A   1      33.370  29.633  26.586  1.00  0.00     0.118 C 
BRANCH  32  33
ATOM     33  N   UNL A   1      33.727  30.785  27.441  1.00  0.00    -0.352 N 
ATOM     34  C   UNL A   1      34.671  31.041  28.397  1.00  0.00     0.251 C 
ATOM     35  H   UNL A   1      33.140  31.559  27.284  1.00  0.00     0.163 HD
ATOM     36  O   UNL A   1      34.419  31.990  29.177  1.00  0.00    -0.269 OA
BRANCH  34  37
ATOM     37  C   UNL A   1      35.989  30.369  28.567  1.00  0.00     0.039 A 
ATOM     38  C   UNL A   1      36.274  29.770  29.810  1.00  0.00     0.014 A 
ATOM     39  C   UNL A   1      37.032  30.499  27.649  1.00  0.00     0.014 A 
ATOM     40  C   UNL A   1      37.564  29.313  30.132  1.00  0.00     0.010 A 
ATOM     41  C   UNL A   1      38.324  30.019  27.963  1.00  0.00     0.010 A 
ATOM     42  C   UNL A   1      38.613  29.430  29.210  1.00  0.00    -0.014 A 
BRANCH  42  43
ATOM     43  C   UNL A   1      39.998  28.961  29.544  1.00  0.00     0.031 A 
ATOM     44  C   UNL A   1      40.929  29.811  30.379  1.00  0.00     0.074 A 
ATOM     45  C   UNL A   1      40.451  27.780  29.074  1.00  0.00     0.049 A 
ATOM     46  N   UNL A   1      42.193  29.616  30.677  1.00  0.00    -0.248 NA
ATOM     47  C   UNL A   1      40.368  31.047  30.941  1.00  0.00     0.031 C 
ATOM     48  C   UNL A   1      39.676  26.840  28.268  1.00  0.00     0.029 A 
ATOM     49  N   UNL A   1      41.683  27.174  29.193  1.00  0.00    -0.354 N 
ATOM     50  C   UNL A   1      42.585  30.718  31.430  1.00  0.00     0.074 A 
ATOM     51  C   UNL A   1      41.430  31.585  31.533  1.00  0.00     0.031 C 
ATOM     52  C   UNL A   1      40.446  25.783  27.958  1.00  0.00     0.029 A 
ATOM     53  C   UNL A   1      41.781  25.982  28.517  1.00  0.00     0.049 A 
ATOM     54  H   UNL A   1      42.424  27.560  29.714  1.00  0.00     0.167 HD
ATOM     55  C   UNL A   1      43.792  30.981  31.993  1.00  0.00     0.037 A 
ATOM     56  C   UNL A   1      42.829  25.148  28.345  1.00  0.00     0.037 A 
ATOM     57  C   UNL A   1      44.934  30.102  31.948  1.00  0.00     0.049 A 
ATOM     58  C   UNL A   1      44.163  25.478  28.961  1.00  0.00     0.074 A 
ATOM     59  C   UNL A   1      46.162  30.252  32.573  1.00  0.00     0.029 A 
ATOM     60  N   UNL A   1      44.990  28.911  31.244  1.00  0.00    -0.354 N 
ATOM     61  N   UNL A   1      44.499  26.497  29.714  1.00  0.00    -0.248 NA
ATOM     62  C   UNL A   1      45.266  24.539  28.695  1.00  0.00     0.031 C 
ATOM     63  C   UNL A   1      46.978  29.176  32.208  1.00  0.00     0.029 A 
ATOM     64  C   UNL A   1      46.244  28.336  31.389  1.00  0.00     0.049 A 
ATOM     65  H   UNL A   1      44.251  28.530  30.718  1.00  0.00     0.167 HD
ATOM     66  C   UNL A   1      45.838  26.310  30.029  1.00  0.00     0.074 A 
ATOM     67  C   UNL A   1      46.257  25.078  29.406  1.00  0.00     0.031 C 
ATOM     68  C   UNL A   1      46.653  27.103  30.771  1.00  0.00     0.037 A 
BRANCH  55  69
ATOM     69  C   UNL A   1      43.966  32.287  32.714  1.00  0.00     0.064 A 
ATOM     70  C   UNL A   1      43.707  32.411  34.087  1.00  0.00     0.173 A 
ATOM     71  C   UNL A   1      44.491  33.402  32.041  1.00  0.00     0.173 A 
ATOM     72  F   UNL A   1      43.206  31.375  34.775  1.00  0.00    -0.203 F 
ATOM     73  C   UNL A   1      43.951  33.610  34.754  1.00  0.00     0.198 A 
ATOM     74  C   UNL A   1      44.755  34.591  32.717  1.00  0.00     0.198 A 
ATOM     75  F   UNL A   1      44.771  33.330  30.730  1.00  0.00    -0.203 F 
ATOM     76  F   UNL A   1      43.671  33.715  36.061  1.00  0.00    -0.200 F 
ATOM     77  C   UNL A   1      44.481  34.695  34.072  1.00  0.00     0.200 A 
ATOM     78  F   UNL A   1      45.284  35.632  32.059  1.00  0.00    -0.200 F 
ATOM     79  F   UNL A   1      44.729  35.841  34.721  1.00  0.00    -0.200 F 
ENDBRANCH  55  69
BRANCH  56  80
ATOM     80  C   UNL A   1      42.673  23.908  27.538  1.00  0.00     0.064 A 
ATOM     81  C   UNL A   1      42.254  22.709  28.133  1.00  0.00     0.173 A 
ATOM     82  C   UNL A   1      42.984  23.884  26.170  1.00  0.00     0.173 A 
ATOM     83  F   UNL A   1      41.978  22.675  29.444  1.00  0.00    -0.203 F 
ATOM     84  C   UNL A   1      42.173  21.529  27.396  1.00  0.00     0.198 A 
ATOM     85  C   UNL A   1      42.875  22.710  25.428  1.00  0.00     0.198 A 
ATOM     86  F   UNL A   1      43.397  25.001  25.556  1.00  0.00    -0.203 F 
ATOM     87  F   UNL A   1      41.824  20.386  28.002  1.00  0.00    -0.200 F 
ATOM     88  C   UNL A   1      42.478  21.531  26.043  1.00  0.00     0.200 A 
ATOM     89  F   UNL A   1      43.166  22.716  24.120  1.00  0.00    -0.200 F 
ATOM     90  F   UNL A   1      42.406  20.395  25.336  1.00  0.00    -0.200 F 
ENDBRANCH  56  80
BRANCH  68  91
ATOM     91  C   UNL A   1      48.070  26.650  30.967  1.00  0.00     0.064 A 
ATOM     92  C   UNL A   1      48.423  25.781  32.011  1.00  0.00     0.173 A 
ATOM     93  C   UNL A   1      49.078  27.049  30.076  1.00  0.00     0.173 A 
ATOM     94  F   UNL A   1      47.498  25.385  32.899  1.00  0.00    -0.203 F 
ATOM     95  C   UNL A   1      49.736  25.344  32.166  1.00  0.00     0.198 A 
ATOM     96  C   UNL A   1      50.385  26.589  30.220  1.00  0.00     0.198 A 
ATOM     97  F   UNL A   1      48.793  27.873  29.057  1.00  0.00    -0.203 F 
ATOM     98  F   UNL A   1      50.057  24.546  33.194  1.00  0.00    -0.200 F 
ATOM     99  C   UNL A   1      50.713  25.742  31.267  1.00  0.00     0.200 A 
ATOM    100  F   UNL A   1      51.326  26.966  29.343  1.00  0.00    -0.200 F 
ATOM    101  F   UNL A   1      51.975  25.313  31.413  1.00  0.00    -0.200 F 
ENDBRANCH  68  91
ENDBRANCH  42  43
ENDBRANCH  34  37
ENDBRANCH  32  33
ENDBRANCH   1  32
TORSDOF 14
ENDMDL
