MODEL 1
REMARK VINA RESULT:     -14.0      0.000      0.000
REMARK SMILES Cc1[nH]c2ccccc2c1[C@H](C(=O)NCCCNC(=O)c1ccc(-c2c3nc(c(-c4c(F)c(F)c(F)c(F)c4F)c4ccc([nH]4)c(-c4c(F)c(F)c(F)c(F)c4F)c4nc(c(-c5c(F)c(F)c(F)c(F)c5F)c5ccc2[nH]5)C=C4)C=C3)cc1)[NH+]1CCN(C(=O)c2ccco2)CC1
REMARK SMILES IDX 16 1 15 2 14 3 12 4 13 5 11 7 10 8 1 9 2 10 3 11 4 12 9 14
REMARK SMILES IDX 5 15 8 16 6 17 7 18 84 19 85 20 96 21 86 23 95 24 87 25
REMARK SMILES IDX 88 26 89 27 90 28 91 29 94 30 92 31 93 32 17 33 18 34 19 35
REMARK SMILES IDX 20 37 21 38 22 39 83 40 23 41 82 42 24 43 25 44 26 45 76 46
REMARK SMILES IDX 27 47 81 48 75 49 77 50 28 51 80 52 74 53 73 54 29 56 61 57
REMARK SMILES IDX 41 58 60 59 42 60 45 61 59 62 78 63 43 64 44 65 58 67 79 68
REMARK SMILES IDX 46 69 30 70 31 71 39 72 32 73 33 74 37 75 40 76 34 77 35 78
REMARK SMILES IDX 38 79 36 80 62 81 63 82 71 83 64 84 65 85 69 86 72 87 66 88
REMARK SMILES IDX 67 89 70 90 68 91 47 92 48 93 56 94 49 95 50 96 54 97 57 98
REMARK SMILES IDX 51 99 52 100 55 101 53 102
REMARK H PARENT 14 6 3 13 84 22 18 36 77 55 45 66
REMARK Flexibility Score: inf
ROOT
ATOM      1  C   UNL A   1      32.984  28.200  27.192  1.00  0.00     0.042 C 
ENDROOT
BRANCH   1   2
ATOM      2  C   UNL A   1      31.739  28.193  26.335  1.00  0.00     0.118 C 
BRANCH   2   3
ATOM      3  N   UNL A   1      31.048  26.913  26.389  1.00  0.00    -0.351 N 
ATOM      4  C   UNL A   1      30.920  25.937  25.441  1.00  0.00     0.283 C 
ATOM      5  O   UNL A   1      30.278  24.930  25.766  1.00  0.00    -0.268 OA
ATOM      6  H   UNL A   1      30.601  26.721  27.245  1.00  0.00     0.163 HD
BRANCH   4   7
ATOM      7  C   UNL A   1      31.552  26.060  24.033  1.00  0.00     0.308 C 
BRANCH   7   8
ATOM      8  C   UNL A   1      31.263  27.428  23.409  1.00  0.00     0.047 A 
ATOM      9  C   UNL A   1      33.741  28.187  22.919  1.00  0.00     0.065 C 
ATOM     10  C   UNL A   1      32.253  28.286  22.915  1.00  0.00     0.022 A 
ATOM     11  N   UNL A   1      31.636  29.330  22.279  1.00  0.00    -0.358 N 
ATOM     12  C   UNL A   1      30.276  29.228  22.394  1.00  0.00     0.046 A 
ATOM     13  H   UNL A   1      32.106  30.053  21.803  1.00  0.00     0.166 HD
ATOM     14  C   UNL A   1      30.008  28.100  23.175  1.00  0.00     0.009 A 
ATOM     15  C   UNL A   1      29.277  30.056  21.868  1.00  0.00     0.027 A 
ATOM     16  C   UNL A   1      28.659  27.844  23.502  1.00  0.00     0.011 A 
ATOM     17  C   UNL A   1      27.954  29.757  22.188  1.00  0.00     0.002 A 
ATOM     18  C   UNL A   1      27.648  28.679  23.010  1.00  0.00     0.001 A 
ENDBRANCH   7   8
BRANCH   7  19
ATOM     19  N   UNL A   1      32.965  25.581  23.945  1.00  0.00    -0.318 N 
ATOM     20  C   UNL A   1      33.753  25.413  25.179  1.00  0.00     0.285 C 
ATOM     21  C   UNL A   1      33.097  24.332  23.169  1.00  0.00     0.285 C 
ATOM     22  H   UNL A   1      33.372  26.390  23.476  1.00  0.00     0.349 HD
ATOM     23  C   UNL A   1      33.479  24.151  26.023  1.00  0.00     0.181 C 
ATOM     24  C   UNL A   1      32.751  23.028  23.916  1.00  0.00     0.181 C 
ATOM     25  N   UNL A   1      33.354  22.920  25.251  1.00  0.00    -0.325 N 
ATOM     26  C   UNL A   1      33.271  21.732  26.005  1.00  0.00     0.289 C 
ATOM     27  O   UNL A   1      33.187  21.778  27.234  1.00  0.00    -0.265 OA
BRANCH  26  28
ATOM     28  C   UNL A   1      33.343  20.474  25.290  1.00  0.00     0.191 A 
ATOM     29  C   UNL A   1      34.414  19.741  24.810  1.00  0.00     0.056 A 
ATOM     30  O   UNL A   1      32.186  19.773  25.073  1.00  0.00    -0.459 OA
ATOM     31  C   UNL A   1      33.884  18.554  24.255  1.00  0.00     0.043 A 
ATOM     32  C   UNL A   1      32.524  18.622  24.437  1.00  0.00     0.196 A 
ENDBRANCH  26  28
ENDBRANCH   7  19
ENDBRANCH   4   7
ENDBRANCH   2   3
ENDBRANCH   1   2
BRANCH   1  33
ATOM     33  C   UNL A   1      34.087  28.997  26.529  1.00  0.00     0.118 C 
BRANCH  33  34
ATOM     34  N   UNL A   1      34.012  30.407  26.886  1.00  0.00    -0.352 N 
ATOM     35  C   UNL A   1      34.762  31.096  27.807  1.00  0.00     0.251 C 
ATOM     36  H   UNL A   1      33.336  30.936  26.403  1.00  0.00     0.163 HD
ATOM     37  O   UNL A   1      34.414  32.202  28.203  1.00  0.00    -0.269 OA
BRANCH  35  38
ATOM     38  C   UNL A   1      35.998  30.474  28.325  1.00  0.00     0.039 A 
ATOM     39  C   UNL A   1      35.960  29.719  29.498  1.00  0.00     0.014 A 
ATOM     40  C   UNL A   1      37.196  30.639  27.628  1.00  0.00     0.014 A 
ATOM     41  C   UNL A   1      37.126  29.096  29.948  1.00  0.00     0.010 A 
ATOM     42  C   UNL A   1      38.313  29.910  27.998  1.00  0.00     0.010 A 
ATOM     43  C   UNL A   1      38.306  29.173  29.191  1.00  0.00    -0.014 A 
BRANCH  43  44
ATOM     44  C   UNL A   1      39.594  28.617  29.670  1.00  0.00     0.031 A 
ATOM     45  C   UNL A   1      40.331  29.354  30.759  1.00  0.00     0.074 A 
ATOM     46  C   UNL A   1      40.130  27.524  29.098  1.00  0.00     0.049 A 
ATOM     47  N   UNL A   1      41.547  29.178  31.208  1.00  0.00    -0.248 NA
ATOM     48  C   UNL A   1      39.620  30.481  31.391  1.00  0.00     0.031 C 
ATOM     49  C   UNL A   1      39.530  26.748  28.011  1.00  0.00     0.029 A 
ATOM     50  N   UNL A   1      41.315  26.881  29.349  1.00  0.00    -0.354 N 
ATOM     51  C   UNL A   1      41.752  30.194  32.134  1.00  0.00     0.074 A 
ATOM     52  C   UNL A   1      40.571  31.024  32.132  1.00  0.00     0.031 C 
ATOM     53  C   UNL A   1      40.338  25.717  27.709  1.00  0.00     0.029 A 
ATOM     54  C   UNL A   1      41.529  25.784  28.551  1.00  0.00     0.049 A 
ATOM     55  H   UNL A   1      41.953  27.179  30.037  1.00  0.00     0.167 HD
ATOM     56  C   UNL A   1      42.815  30.393  32.947  1.00  0.00     0.037 A 
ATOM     57  C   UNL A   1      42.573  24.935  28.511  1.00  0.00     0.037 A 
ATOM     58  C   UNL A   1      43.952  29.518  33.000  1.00  0.00     0.049 A 
ATOM     59  C   UNL A   1      43.725  25.155  29.459  1.00  0.00     0.074 A 
ATOM     60  C   UNL A   1      45.070  29.599  33.811  1.00  0.00     0.029 A 
ATOM     61  N   UNL A   1      44.094  28.377  32.226  1.00  0.00    -0.354 N 
ATOM     62  N   UNL A   1      43.898  26.104  30.345  1.00  0.00    -0.248 NA
ATOM     63  C   UNL A   1      44.821  24.178  29.406  1.00  0.00     0.031 C 
ATOM     64  C   UNL A   1      45.896  28.510  33.518  1.00  0.00     0.029 A 
ATOM     65  C   UNL A   1      45.276  27.735  32.550  1.00  0.00     0.049 A 
ATOM     66  H   UNL A   1      43.451  28.069  31.547  1.00  0.00     0.167 HD
ATOM     67  C   UNL A   1      45.099  25.818  30.982  1.00  0.00     0.074 A 
ATOM     68  C   UNL A   1      45.608  24.601  30.385  1.00  0.00     0.031 C 
ATOM     69  C   UNL A   1      45.730  26.500  31.967  1.00  0.00     0.037 A 
BRANCH  56  70
ATOM     70  C   UNL A   1      42.772  31.576  33.869  1.00  0.00     0.064 A 
ATOM     71  C   UNL A   1      42.217  31.481  35.155  1.00  0.00     0.173 A 
ATOM     72  C   UNL A   1      43.313  32.808  33.477  1.00  0.00     0.173 A 
ATOM     73  F   UNL A   1      41.670  30.328  35.570  1.00  0.00    -0.203 F 
ATOM     74  C   UNL A   1      42.180  32.584  36.003  1.00  0.00     0.198 A 
ATOM     75  C   UNL A   1      43.303  33.902  34.341  1.00  0.00     0.198 A 
ATOM     76  F   UNL A   1      43.857  32.954  32.260  1.00  0.00    -0.203 F 
ATOM     77  F   UNL A   1      41.598  32.482  37.206  1.00  0.00    -0.200 F 
ATOM     78  C   UNL A   1      42.730  33.790  35.600  1.00  0.00     0.200 A 
ATOM     79  F   UNL A   1      43.845  35.065  33.954  1.00  0.00    -0.200 F 
ATOM     80  F   UNL A   1      42.702  34.848  36.420  1.00  0.00    -0.200 F 
ENDBRANCH  56  70
BRANCH  57  81
ATOM     81  C   UNL A   1      42.572  23.782  27.574  1.00  0.00     0.064 A 
ATOM     82  C   UNL A   1      42.142  22.516  27.997  1.00  0.00     0.173 A 
ATOM     83  C   UNL A   1      43.026  23.907  26.254  1.00  0.00     0.173 A 
ATOM     84  F   UNL A   1      41.715  22.342  29.257  1.00  0.00    -0.203 F 
ATOM     85  C   UNL A   1      42.199  21.413  27.148  1.00  0.00     0.198 A 
ATOM     86  C   UNL A   1      43.056  22.809  25.395  1.00  0.00     0.198 A 
ATOM     87  F   UNL A   1      43.439  25.098  25.795  1.00  0.00    -0.203 F 
ATOM     88  F   UNL A   1      41.835  20.204  27.598  1.00  0.00    -0.200 F 
ATOM     89  C   UNL A   1      42.654  21.561  25.847  1.00  0.00     0.200 A 
ATOM     90  F   UNL A   1      43.482  22.958  24.134  1.00  0.00    -0.200 F 
ATOM     91  F   UNL A   1      42.714  20.499  25.031  1.00  0.00    -0.200 F 
ENDBRANCH  57  81
BRANCH  69  92
ATOM     92  C   UNL A   1      46.997  25.915  32.509  1.00  0.00     0.064 A 
ATOM     93  C   UNL A   1      46.990  25.017  33.585  1.00  0.00     0.173 A 
ATOM     94  C   UNL A   1      48.226  26.212  31.901  1.00  0.00     0.173 A 
ATOM     95  F   UNL A   1      45.840  24.715  34.205  1.00  0.00    -0.203 F 
ATOM     96  C   UNL A   1      48.174  24.451  34.047  1.00  0.00     0.198 A 
ATOM     97  C   UNL A   1      49.404  25.623  32.348  1.00  0.00     0.198 A 
ATOM     98  F   UNL A   1      48.279  27.058  30.862  1.00  0.00    -0.203 F 
ATOM     99  F   UNL A   1      48.152  23.624  35.101  1.00  0.00    -0.200 F 
ATOM    100  C   UNL A   1      49.378  24.747  33.423  1.00  0.00     0.200 A 
ATOM    101  F   UNL A   1      50.564  25.900  31.737  1.00  0.00    -0.200 F 
ATOM    102  F   UNL A   1      50.516  24.192  33.863  1.00  0.00    -0.200 F 
ENDBRANCH  69  92
ENDBRANCH  43  44
ENDBRANCH  35  38
ENDBRANCH  33  34
ENDBRANCH   1  33
TORSDOF 13
ENDMDL
MODEL 2
REMARK VINA RESULT:     -14.0      3.482      9.263
REMARK SMILES Cc1[nH]c2ccccc2c1[C@H](C(=O)NCCCNC(=O)c1ccc(-c2c3nc(c(-c4c(F)c(F)c(F)c(F)c4F)c4ccc([nH]4)c(-c4c(F)c(F)c(F)c(F)c4F)c4nc(c(-c5c(F)c(F)c(F)c(F)c5F)c5ccc2[nH]5)C=C4)C=C3)cc1)[NH+]1CCN(C(=O)c2ccco2)CC1
REMARK SMILES IDX 16 1 15 2 14 3 12 4 13 5 11 7 10 8 1 9 2 10 3 11 4 12 9 14
REMARK SMILES IDX 5 15 8 16 6 17 7 18 84 19 85 20 96 21 86 23 95 24 87 25
REMARK SMILES IDX 88 26 89 27 90 28 91 29 94 30 92 31 93 32 17 33 18 34 19 35
REMARK SMILES IDX 20 37 21 38 22 39 83 40 23 41 82 42 24 43 25 44 26 45 76 46
REMARK SMILES IDX 27 47 81 48 75 49 77 50 28 51 80 52 74 53 73 54 29 56 61 57
REMARK SMILES IDX 41 58 60 59 42 60 45 61 59 62 78 63 43 64 44 65 58 67 79 68
REMARK SMILES IDX 46 69 30 70 31 71 39 72 32 73 33 74 37 75 40 76 34 77 35 78
REMARK SMILES IDX 38 79 36 80 62 81 63 82 71 83 64 84 65 85 69 86 72 87 66 88
REMARK SMILES IDX 67 89 70 90 68 91 47 92 48 93 56 94 49 95 50 96 54 97 57 98
REMARK SMILES IDX 51 99 52 100 55 101 53 102
REMARK H PARENT 14 6 3 13 84 22 18 36 77 55 45 66
REMARK Flexibility Score: inf
ROOT
ATOM      1  C   UNL A   1      36.688  23.396  24.318  1.00  0.00     0.042 C 
ENDROOT
BRANCH   1   2
ATOM      2  C   UNL A   1      35.601  22.412  23.951  1.00  0.00     0.118 C 
BRANCH   2   3
ATOM      3  N   UNL A   1      34.653  22.979  23.003  1.00  0.00    -0.351 N 
ATOM      4  C   UNL A   1      33.339  23.322  23.165  1.00  0.00     0.283 C 
ATOM      5  O   UNL A   1      32.767  23.802  22.179  1.00  0.00    -0.268 OA
ATOM      6  H   UNL A   1      35.014  23.140  22.102  1.00  0.00     0.163 HD
BRANCH   4   7
ATOM      7  C   UNL A   1      32.594  23.141  24.510  1.00  0.00     0.308 C 
BRANCH   7   8
ATOM      8  C   UNL A   1      32.881  21.768  25.126  1.00  0.00     0.047 A 
ATOM      9  C   UNL A   1      33.691  22.550  27.511  1.00  0.00     0.065 C 
ATOM     10  C   UNL A   1      33.321  21.579  26.442  1.00  0.00     0.022 A 
ATOM     11  N   UNL A   1      33.307  20.236  26.709  1.00  0.00    -0.358 N 
ATOM     12  C   UNL A   1      32.939  19.528  25.597  1.00  0.00     0.046 A 
ATOM     13  H   UNL A   1      33.528  19.835  27.580  1.00  0.00     0.166 HD
ATOM     14  C   UNL A   1      32.756  20.447  24.560  1.00  0.00     0.009 A 
ATOM     15  C   UNL A   1      32.767  18.147  25.441  1.00  0.00     0.027 A 
ATOM     16  C   UNL A   1      32.454  19.930  23.281  1.00  0.00     0.011 A 
ATOM     17  C   UNL A   1      32.442  17.673  24.171  1.00  0.00     0.002 A 
ATOM     18  C   UNL A   1      32.308  18.549  23.100  1.00  0.00     0.001 A 
ENDBRANCH   7   8
BRANCH   7  19
ATOM     19  N   UNL A   1      32.692  24.310  25.435  1.00  0.00    -0.318 N 
ATOM     20  C   UNL A   1      33.787  25.281  25.263  1.00  0.00     0.285 C 
ATOM     21  C   UNL A   1      31.434  25.080  25.516  1.00  0.00     0.285 C 
ATOM     22  H   UNL A   1      32.912  23.808  26.294  1.00  0.00     0.349 HD
ATOM     23  C   UNL A   1      33.641  26.314  24.127  1.00  0.00     0.181 C 
ATOM     24  C   UNL A   1      31.168  26.071  24.365  1.00  0.00     0.181 C 
ATOM     25  N   UNL A   1      32.318  26.918  24.021  1.00  0.00    -0.325 N 
ATOM     26  C   UNL A   1      32.203  27.982  23.104  1.00  0.00     0.289 C 
ATOM     27  O   UNL A   1      33.146  28.273  22.366  1.00  0.00    -0.265 OA
BRANCH  26  28
ATOM     28  C   UNL A   1      30.968  28.740  23.103  1.00  0.00     0.191 A 
ATOM     29  C   UNL A   1      30.477  29.711  23.958  1.00  0.00     0.056 A 
ATOM     30  O   UNL A   1      30.101  28.586  22.054  1.00  0.00    -0.459 OA
ATOM     31  C   UNL A   1      29.246  30.150  23.420  1.00  0.00     0.043 A 
ATOM     32  C   UNL A   1      29.060  29.432  22.262  1.00  0.00     0.196 A 
ENDBRANCH  26  28
ENDBRANCH   7  19
ENDBRANCH   4   7
ENDBRANCH   2   3
ENDBRANCH   1   2
BRANCH   1  33
ATOM     33  C   UNL A   1      36.973  23.349  25.805  1.00  0.00     0.118 C 
BRANCH  33  34
ATOM     34  N   UNL A   1      38.014  22.380  26.117  1.00  0.00    -0.352 N 
ATOM     35  C   UNL A   1      39.313  22.615  26.496  1.00  0.00     0.251 C 
ATOM     36  H   UNL A   1      37.753  21.433  26.048  1.00  0.00     0.163 HD
ATOM     37  O   UNL A   1      40.151  21.722  26.460  1.00  0.00    -0.269 OA
BRANCH  35  38
ATOM     38  C   UNL A   1      39.689  23.972  26.941  1.00  0.00     0.039 A 
ATOM     39  C   UNL A   1      40.174  24.900  26.018  1.00  0.00     0.014 A 
ATOM     40  C   UNL A   1      39.545  24.321  28.286  1.00  0.00     0.014 A 
ATOM     41  C   UNL A   1      40.478  26.194  26.444  1.00  0.00     0.010 A 
ATOM     42  C   UNL A   1      39.713  25.638  28.676  1.00  0.00     0.010 A 
ATOM     43  C   UNL A   1      40.232  26.577  27.774  1.00  0.00    -0.014 A 
BRANCH  43  44
ATOM     44  C   UNL A   1      40.628  27.903  28.304  1.00  0.00     0.031 A 
ATOM     45  C   UNL A   1      42.087  28.153  28.592  1.00  0.00     0.074 A 
ATOM     46  C   UNL A   1      39.703  28.836  28.592  1.00  0.00     0.049 A 
ATOM     47  N   UNL A   1      42.652  29.147  29.227  1.00  0.00    -0.248 NA
ATOM     48  C   UNL A   1      43.034  27.111  28.151  1.00  0.00     0.031 C 
ATOM     49  C   UNL A   1      38.259  28.697  28.393  1.00  0.00     0.029 A 
ATOM     50  N   UNL A   1      39.844  30.091  29.127  1.00  0.00    -0.354 N 
ATOM     51  C   UNL A   1      44.002  28.824  29.296  1.00  0.00     0.074 A 
ATOM     52  C   UNL A   1      44.164  27.516  28.708  1.00  0.00     0.031 C 
ATOM     53  C   UNL A   1      37.651  29.833  28.775  1.00  0.00     0.029 A 
ATOM     54  C   UNL A   1      38.657  30.763  29.282  1.00  0.00     0.049 A 
ATOM     55  H   UNL A   1      40.716  30.474  29.377  1.00  0.00     0.167 HD
ATOM     56  C   UNL A   1      45.025  29.571  29.770  1.00  0.00     0.037 A 
ATOM     57  C   UNL A   1      38.417  31.990  29.780  1.00  0.00     0.037 A 
ATOM     58  C   UNL A   1      44.869  30.904  30.281  1.00  0.00     0.049 A 
ATOM     59  C   UNL A   1      39.581  32.819  30.261  1.00  0.00     0.074 A 
ATOM     60  C   UNL A   1      45.838  31.769  30.754  1.00  0.00     0.029 A 
ATOM     61  N   UNL A   1      43.657  31.574  30.353  1.00  0.00    -0.354 N 
ATOM     62  N   UNL A   1      40.855  32.514  30.301  1.00  0.00    -0.248 NA
ATOM     63  C   UNL A   1      39.273  34.168  30.756  1.00  0.00     0.031 C 
ATOM     64  C   UNL A   1      45.210  32.963  31.123  1.00  0.00     0.029 A 
ATOM     65  C   UNL A   1      43.856  32.850  30.848  1.00  0.00     0.049 A 
ATOM     66  H   UNL A   1      42.786  31.198  30.090  1.00  0.00     0.167 HD
ATOM     67  C   UNL A   1      41.503  33.642  30.786  1.00  0.00     0.074 A 
ATOM     68  C   UNL A   1      40.482  34.642  31.019  1.00  0.00     0.031 C 
ATOM     69  C   UNL A   1      42.822  33.835  31.024  1.00  0.00     0.037 A 
BRANCH  56  70
ATOM     70  C   UNL A   1      46.402  28.978  29.715  1.00  0.00     0.064 A 
ATOM     71  C   UNL A   1      46.921  28.234  30.786  1.00  0.00     0.173 A 
ATOM     72  C   UNL A   1      47.201  29.129  28.573  1.00  0.00     0.173 A 
ATOM     73  F   UNL A   1      46.203  28.076  31.908  1.00  0.00    -0.203 F 
ATOM     74  C   UNL A   1      48.200  27.689  30.727  1.00  0.00     0.198 A 
ATOM     75  C   UNL A   1      48.469  28.554  28.505  1.00  0.00     0.198 A 
ATOM     76  F   UNL A   1      46.753  29.829  27.520  1.00  0.00    -0.203 F 
ATOM     77  F   UNL A   1      48.693  27.027  31.783  1.00  0.00    -0.200 F 
ATOM     78  C   UNL A   1      48.969  27.841  29.584  1.00  0.00     0.200 A 
ATOM     79  F   UNL A   1      49.207  28.693  27.395  1.00  0.00    -0.200 F 
ATOM     80  F   UNL A   1      50.197  27.307  29.525  1.00  0.00    -0.200 F 
ENDBRANCH  56  70
BRANCH  57  81
ATOM     81  C   UNL A   1      37.033  32.531  29.820  1.00  0.00     0.064 A 
ATOM     82  C   UNL A   1      36.519  33.263  28.740  1.00  0.00     0.173 A 
ATOM     83  C   UNL A   1      36.209  32.359  30.941  1.00  0.00     0.173 A 
ATOM     84  F   UNL A   1      37.276  33.469  27.652  1.00  0.00    -0.203 F 
ATOM     85  C   UNL A   1      35.249  33.831  28.793  1.00  0.00     0.198 A 
ATOM     86  C   UNL A   1      34.927  32.904  30.982  1.00  0.00     0.198 A 
ATOM     87  F   UNL A   1      36.649  31.659  31.997  1.00  0.00    -0.203 F 
ATOM     88  F   UNL A   1      34.805  34.574  27.769  1.00  0.00    -0.200 F 
ATOM     89  C   UNL A   1      34.452  33.649  29.913  1.00  0.00     0.200 A 
ATOM     90  F   UNL A   1      34.154  32.714  32.060  1.00  0.00    -0.200 F 
ATOM     91  F   UNL A   1      33.232  34.201  29.967  1.00  0.00    -0.200 F 
ENDBRANCH  57  81
BRANCH  69  92
ATOM     92  C   UNL A   1      43.246  35.192  31.495  1.00  0.00     0.064 A 
ATOM     93  C   UNL A   1      43.667  36.183  30.597  1.00  0.00     0.173 A 
ATOM     94  C   UNL A   1      43.171  35.520  32.857  1.00  0.00     0.173 A 
ATOM     95  F   UNL A   1      43.766  35.909  29.288  1.00  0.00    -0.203 F 
ATOM     96  C   UNL A   1      44.016  37.451  31.050  1.00  0.00     0.198 A 
ATOM     97  C   UNL A   1      43.496  36.797  33.303  1.00  0.00     0.198 A 
ATOM     98  F   UNL A   1      42.766  34.606  33.751  1.00  0.00    -0.203 F 
ATOM     99  F   UNL A   1      44.450  38.374  30.181  1.00  0.00    -0.200 F 
ATOM    100  C   UNL A   1      43.922  37.760  32.400  1.00  0.00     0.200 A 
ATOM    101  F   UNL A   1      43.393  37.097  34.605  1.00  0.00    -0.200 F 
ATOM    102  F   UNL A   1      44.249  38.986  32.832  1.00  0.00    -0.200 F 
ENDBRANCH  69  92
ENDBRANCH  43  44
ENDBRANCH  35  38
ENDBRANCH  33  34
ENDBRANCH   1  33
TORSDOF 13
ENDMDL
MODEL 3
REMARK VINA RESULT:     -13.5      4.031      9.487
REMARK SMILES Cc1[nH]c2ccccc2c1[C@H](C(=O)NCCCNC(=O)c1ccc(-c2c3nc(c(-c4c(F)c(F)c(F)c(F)c4F)c4ccc([nH]4)c(-c4c(F)c(F)c(F)c(F)c4F)c4nc(c(-c5c(F)c(F)c(F)c(F)c5F)c5ccc2[nH]5)C=C4)C=C3)cc1)[NH+]1CCN(C(=O)c2ccco2)CC1
REMARK SMILES IDX 16 1 15 2 14 3 12 4 13 5 11 7 10 8 1 9 2 10 3 11 4 12 9 14
REMARK SMILES IDX 5 15 8 16 6 17 7 18 84 19 85 20 96 21 86 23 95 24 87 25
REMARK SMILES IDX 88 26 89 27 90 28 91 29 94 30 92 31 93 32 17 33 18 34 19 35
REMARK SMILES IDX 20 37 21 38 22 39 83 40 23 41 82 42 24 43 25 44 26 45 76 46
REMARK SMILES IDX 27 47 81 48 75 49 77 50 28 51 80 52 74 53 73 54 29 56 61 57
REMARK SMILES IDX 41 58 60 59 42 60 45 61 59 62 78 63 43 64 44 65 58 67 79 68
REMARK SMILES IDX 46 69 30 70 31 71 39 72 32 73 33 74 37 75 40 76 34 77 35 78
REMARK SMILES IDX 38 79 36 80 62 81 63 82 71 83 64 84 65 85 69 86 72 87 66 88
REMARK SMILES IDX 67 89 70 90 68 91 47 92 48 93 56 94 49 95 50 96 54 97 57 98
REMARK SMILES IDX 51 99 52 100 55 101 53 102
REMARK H PARENT 14 6 3 13 84 22 18 36 77 55 45 66
REMARK Flexibility Score: inf
ROOT
ATOM      1  C   UNL A   1      37.070  21.138  25.153  1.00  0.00     0.042 C 
ENDROOT
BRANCH   1   2
ATOM      2  C   UNL A   1      36.515  22.544  25.122  1.00  0.00     0.118 C 
BRANCH   2   3
ATOM      3  N   UNL A   1      35.892  22.854  23.843  1.00  0.00    -0.351 N 
ATOM      4  C   UNL A   1      34.579  23.067  23.528  1.00  0.00     0.283 C 
ATOM      5  O   UNL A   1      34.329  23.328  22.345  1.00  0.00    -0.268 OA
ATOM      6  H   UNL A   1      36.516  22.921  23.085  1.00  0.00     0.163 HD
BRANCH   4   7
ATOM      7  C   UNL A   1      33.451  23.002  24.587  1.00  0.00     0.308 C 
BRANCH   7   8
ATOM      8  C   UNL A   1      33.379  21.620  25.242  1.00  0.00     0.047 A 
ATOM      9  C   UNL A   1      33.984  22.307  27.716  1.00  0.00     0.065 C 
ATOM     10  C   UNL A   1      33.587  21.391  26.608  1.00  0.00     0.022 A 
ATOM     11  N   UNL A   1      33.277  20.085  26.875  1.00  0.00    -0.358 N 
ATOM     12  C   UNL A   1      32.940  19.425  25.724  1.00  0.00     0.046 A 
ATOM     13  H   UNL A   1      33.294  19.676  27.770  1.00  0.00     0.166 HD
ATOM     14  C   UNL A   1      33.083  20.330  24.668  1.00  0.00     0.009 A 
ATOM     15  C   UNL A   1      32.528  18.098  25.551  1.00  0.00     0.027 A 
ATOM     16  C   UNL A   1      32.869  19.841  23.362  1.00  0.00     0.011 A 
ATOM     17  C   UNL A   1      32.298  17.655  24.249  1.00  0.00     0.002 A 
ATOM     18  C   UNL A   1      32.486  18.507  23.166  1.00  0.00     0.001 A 
ENDBRANCH   7   8
BRANCH   7  19
ATOM     19  N   UNL A   1      33.404  24.173  25.513  1.00  0.00    -0.318 N 
ATOM     20  C   UNL A   1      34.373  25.270  25.346  1.00  0.00     0.285 C 
ATOM     21  C   UNL A   1      32.062  24.784  25.594  1.00  0.00     0.285 C 
ATOM     22  H   UNL A   1      33.682  23.700  26.373  1.00  0.00     0.349 HD
ATOM     23  C   UNL A   1      34.105  26.280  24.211  1.00  0.00     0.181 C 
ATOM     24  C   UNL A   1      31.680  25.738  24.443  1.00  0.00     0.181 C 
ATOM     25  N   UNL A   1      32.718  26.719  24.104  1.00  0.00    -0.325 N 
ATOM     26  C   UNL A   1      32.477  27.763  23.188  1.00  0.00     0.289 C 
ATOM     27  O   UNL A   1      33.379  28.168  22.453  1.00  0.00    -0.265 OA
BRANCH  26  28
ATOM     28  C   UNL A   1      31.159  28.365  23.186  1.00  0.00     0.191 A 
ATOM     29  C   UNL A   1      30.578  29.324  23.997  1.00  0.00     0.056 A 
ATOM     30  O   UNL A   1      30.287  28.039  22.181  1.00  0.00    -0.459 OA
ATOM     31  C   UNL A   1      29.287  29.575  23.478  1.00  0.00     0.043 A 
ATOM     32  C   UNL A   1      29.157  28.766  22.375  1.00  0.00     0.196 A 
ENDBRANCH  26  28
ENDBRANCH   7  19
ENDBRANCH   4   7
ENDBRANCH   2   3
ENDBRANCH   1   2
BRANCH   1  33
ATOM     33  C   UNL A   1      38.581  21.157  25.070  1.00  0.00     0.118 C 
BRANCH  33  34
ATOM     34  N   UNL A   1      39.181  20.314  26.095  1.00  0.00    -0.352 N 
ATOM     35  C   UNL A   1      40.195  20.622  26.969  1.00  0.00     0.251 C 
ATOM     36  H   UNL A   1      38.812  19.404  26.172  1.00  0.00     0.163 HD
ATOM     37  O   UNL A   1      40.785  19.742  27.584  1.00  0.00    -0.269 OA
BRANCH  35  38
ATOM     38  C   UNL A   1      40.572  22.038  27.148  1.00  0.00     0.039 A 
ATOM     39  C   UNL A   1      39.869  23.038  26.474  1.00  0.00     0.014 A 
ATOM     40  C   UNL A   1      41.627  22.368  28.002  1.00  0.00     0.014 A 
ATOM     41  C   UNL A   1      40.205  24.376  26.692  1.00  0.00     0.010 A 
ATOM     42  C   UNL A   1      41.865  23.694  28.322  1.00  0.00     0.010 A 
ATOM     43  C   UNL A   1      41.194  24.713  27.631  1.00  0.00    -0.014 A 
BRANCH  43  44
ATOM     44  C   UNL A   1      41.659  26.106  27.829  1.00  0.00     0.031 A 
ATOM     45  C   UNL A   1      43.019  26.488  27.302  1.00  0.00     0.074 A 
ATOM     46  C   UNL A   1      40.921  26.989  28.526  1.00  0.00     0.049 A 
ATOM     47  N   UNL A   1      43.719  27.573  27.512  1.00  0.00    -0.248 NA
ATOM     48  C   UNL A   1      43.709  25.486  26.468  1.00  0.00     0.031 C 
ATOM     49  C   UNL A   1      39.608  26.725  29.117  1.00  0.00     0.029 A 
ATOM     50  N   UNL A   1      41.181  28.292  28.863  1.00  0.00    -0.354 N 
ATOM     51  C   UNL A   1      44.936  27.360  26.876  1.00  0.00     0.074 A 
ATOM     52  C   UNL A   1      44.912  26.021  26.337  1.00  0.00     0.031 C 
ATOM     53  C   UNL A   1      39.165  27.841  29.720  1.00  0.00     0.029 A 
ATOM     54  C   UNL A   1      40.179  28.884  29.593  1.00  0.00     0.049 A 
ATOM     55  H   UNL A   1      42.008  28.760  28.607  1.00  0.00     0.167 HD
ATOM     56  C   UNL A   1      45.968  28.220  26.718  1.00  0.00     0.037 A 
ATOM     57  C   UNL A   1      40.100  30.129  30.100  1.00  0.00     0.037 A 
ATOM     58  C   UNL A   1      45.954  29.576  27.189  1.00  0.00     0.049 A 
ATOM     59  C   UNL A   1      41.246  31.081  29.871  1.00  0.00     0.074 A 
ATOM     60  C   UNL A   1      46.927  30.549  27.054  1.00  0.00     0.029 A 
ATOM     61  N   UNL A   1      44.890  30.157  27.860  1.00  0.00    -0.354 N 
ATOM     62  N   UNL A   1      42.381  30.877  29.250  1.00  0.00    -0.248 NA
ATOM     63  C   UNL A   1      41.093  32.441  30.407  1.00  0.00     0.031 C 
ATOM     64  C   UNL A   1      46.455  31.720  27.655  1.00  0.00     0.029 A 
ATOM     65  C   UNL A   1      45.175  31.483  28.133  1.00  0.00     0.049 A 
ATOM     66  H   UNL A   1      44.055  29.696  28.106  1.00  0.00     0.167 HD
ATOM     67  C   UNL A   1      43.059  32.088  29.284  1.00  0.00     0.074 A 
ATOM     68  C   UNL A   1      42.204  33.026  29.981  1.00  0.00     0.031 C 
ATOM     69  C   UNL A   1      44.282  32.399  28.790  1.00  0.00     0.037 A 
BRANCH  56  70
ATOM     70  C   UNL A   1      47.174  27.728  25.972  1.00  0.00     0.064 A 
ATOM     71  C   UNL A   1      48.284  27.195  26.645  1.00  0.00     0.173 A 
ATOM     72  C   UNL A   1      47.211  27.765  24.570  1.00  0.00     0.173 A 
ATOM     73  F   UNL A   1      48.304  27.154  27.986  1.00  0.00    -0.203 F 
ATOM     74  C   UNL A   1      49.398  26.743  25.944  1.00  0.00     0.198 A 
ATOM     75  C   UNL A   1      48.316  27.282  23.871  1.00  0.00     0.198 A 
ATOM     76  F   UNL A   1      46.176  28.263  23.877  1.00  0.00    -0.203 F 
ATOM     77  F   UNL A   1      50.466  26.286  26.612  1.00  0.00    -0.200 F 
ATOM     78  C   UNL A   1      49.410  26.778  24.559  1.00  0.00     0.200 A 
ATOM     79  F   UNL A   1      48.322  27.307  22.531  1.00  0.00    -0.200 F 
ATOM     80  F   UNL A   1      50.479  26.334  23.886  1.00  0.00    -0.200 F 
ENDBRANCH  56  70
BRANCH  57  81
ATOM     81  C   UNL A   1      38.887  30.566  30.839  1.00  0.00     0.064 A 
ATOM     82  C   UNL A   1      37.790  31.111  30.156  1.00  0.00     0.173 A 
ATOM     83  C   UNL A   1      38.807  30.482  32.236  1.00  0.00     0.173 A 
ATOM     84  F   UNL A   1      37.825  31.228  28.820  1.00  0.00    -0.203 F 
ATOM     85  C   UNL A   1      36.675  31.585  30.843  1.00  0.00     0.198 A 
ATOM     86  C   UNL A   1      37.679  30.931  32.921  1.00  0.00     0.198 A 
ATOM     87  F   UNL A   1      39.825  29.961  32.937  1.00  0.00    -0.203 F 
ATOM     88  F   UNL A   1      35.665  32.152  30.169  1.00  0.00    -0.200 F 
ATOM     89  C   UNL A   1      36.620  31.492  32.225  1.00  0.00     0.200 A 
ATOM     90  F   UNL A   1      37.623  30.826  34.256  1.00  0.00    -0.200 F 
ATOM     91  F   UNL A   1      35.549  31.954  32.888  1.00  0.00    -0.200 F 
ENDBRANCH  57  81
BRANCH  69  92
ATOM     92  C   UNL A   1      44.737  33.821  28.921  1.00  0.00     0.064 A 
ATOM     93  C   UNL A   1      45.498  34.249  30.017  1.00  0.00     0.173 A 
ATOM     94  C   UNL A   1      44.456  34.746  27.905  1.00  0.00     0.173 A 
ATOM     95  F   UNL A   1      45.779  33.401  31.017  1.00  0.00    -0.203 F 
ATOM     96  C   UNL A   1      45.947  35.563  30.099  1.00  0.00     0.198 A 
ATOM     97  C   UNL A   1      44.929  36.052  27.979  1.00  0.00     0.198 A 
ATOM     98  F   UNL A   1      43.738  34.378  26.834  1.00  0.00    -0.203 F 
ATOM     99  F   UNL A   1      46.643  35.965  31.172  1.00  0.00    -0.200 F 
ATOM    100  C   UNL A   1      45.670  36.461  29.078  1.00  0.00     0.200 A 
ATOM    101  F   UNL A   1      44.671  36.914  26.986  1.00  0.00    -0.200 F 
ATOM    102  F   UNL A   1      46.113  37.723  29.155  1.00  0.00    -0.200 F 
ENDBRANCH  69  92
ENDBRANCH  43  44
ENDBRANCH  35  38
ENDBRANCH  33  34
ENDBRANCH   1  33
TORSDOF 13
ENDMDL
