MODEL 1
REMARK VINA RESULT:     -12.3      0.000      0.000
REMARK SMILES CCN(C(=O)N(C)Cc1cccc(C)n1)C(C)(C)C(=O)NCCCNC(=O)c1ccc(-c2c3nc(c(-c4c(F)c(F)c(F)c(F)c4F)c4ccc([nH]4)c(-c4c(F)c(F)c(F)c(F)c4F)c4nc(c(-c5c(F)c(F)c(F)c(F)c5F)c5ccc2[nH]5)C=C4)C=C3)cc1
REMARK SMILES IDX 19 1 20 2 21 3 16 5 17 6 18 7 3 8 2 9 1 10 4 11 5 12 6 13
REMARK SMILES IDX 7 14 8 15 9 16 10 17 15 18 11 19 13 20 12 21 14 22 22 23
REMARK SMILES IDX 23 24 24 25 25 26 26 27 27 29 28 30 29 31 90 32 30 33 89 34
REMARK SMILES IDX 31 35 32 36 33 37 83 38 34 39 88 40 82 41 84 42 35 43 87 44
REMARK SMILES IDX 81 45 80 46 36 48 68 49 48 50 67 51 49 52 52 53 66 54 85 55
REMARK SMILES IDX 50 56 51 57 65 59 86 60 53 61 37 62 38 63 46 64 39 65 40 66
REMARK SMILES IDX 44 67 47 68 41 69 42 70 45 71 43 72 69 73 70 74 78 75 71 76
REMARK SMILES IDX 72 77 76 78 79 79 73 80 74 81 77 82 75 83 54 84 55 85 63 86
REMARK SMILES IDX 56 87 57 88 61 89 64 90 58 91 59 92 62 93 60 94
REMARK H PARENT 21 4 25 28 84 47 52 58
REMARK Flexibility Score: inf
ROOT
ATOM      1  C   UNL A   1      33.728  28.853  26.521  1.00  0.00     0.245 C 
ATOM      2  O   UNL A   1      34.855  28.688  27.000  1.00  0.00    -0.272 OA
ATOM      3  N   UNL A   1      33.144  30.070  26.795  1.00  0.00    -0.354 N 
ATOM      4  H   UNL A   1      33.787  30.783  27.011  1.00  0.00     0.163 HD
ENDROOT
BRANCH   1   5
ATOM      5  C   UNL A   1      32.931  27.709  25.771  1.00  0.00     0.117 C 
ATOM      6  C   UNL A   1      31.717  27.252  26.617  1.00  0.00     0.045 C 
ATOM      7  C   UNL A   1      33.999  26.598  25.617  1.00  0.00     0.045 C 
BRANCH   5   8
ATOM      8  N   UNL A   1      32.422  28.073  24.376  1.00  0.00    -0.311 N 
BRANCH   8   9
ATOM      9  C   UNL A   1      33.285  28.947  23.558  1.00  0.00     0.119 C 
ATOM     10  C   UNL A   1      33.953  28.286  22.360  1.00  0.00     0.027 C 
ENDBRANCH   8   9
BRANCH   8  11
ATOM     11  C   UNL A   1      31.666  27.095  23.713  1.00  0.00     0.320 C 
ATOM     12  O   UNL A   1      32.139  25.975  23.510  1.00  0.00    -0.248 OA
BRANCH  11  13
ATOM     13  N   UNL A   1      30.363  27.410  23.332  1.00  0.00    -0.322 N 
ATOM     14  C   UNL A   1      29.123  26.852  23.853  1.00  0.00     0.149 C 
BRANCH  13  15
ATOM     15  C   UNL A   1      30.204  28.308  22.178  1.00  0.00     0.177 C 
BRANCH  15  16
ATOM     16  C   UNL A   1      29.549  29.649  22.441  1.00  0.00     0.060 A 
ATOM     17  C   UNL A   1      29.616  30.280  23.679  1.00  0.00     0.026 A 
ATOM     18  N   UNL A   1      28.964  30.244  21.364  1.00  0.00    -0.256 NA
ATOM     19  C   UNL A   1      29.053  31.546  23.819  1.00  0.00     0.004 A 
ATOM     20  C   UNL A   1      28.447  31.487  21.508  1.00  0.00     0.038 A 
ATOM     21  C   UNL A   1      28.469  32.164  22.720  1.00  0.00     0.023 A 
ATOM     22  C   UNL A   1      27.900  32.133  20.271  1.00  0.00     0.067 C 
ENDBRANCH  15  16
ENDBRANCH  13  15
ENDBRANCH  11  13
ENDBRANCH   8  11
ENDBRANCH   5   8
ENDBRANCH   1   5
BRANCH   3  23
ATOM     23  C   UNL A   1      31.747  30.497  26.822  1.00  0.00     0.117 C 
BRANCH  23  24
ATOM     24  C   UNL A   1      31.624  32.015  26.735  1.00  0.00     0.042 C 
BRANCH  24  25
ATOM     25  C   UNL A   1      32.783  32.757  27.381  1.00  0.00     0.118 C 
BRANCH  25  26
ATOM     26  N   UNL A   1      32.465  34.148  27.668  1.00  0.00    -0.352 N 
ATOM     27  C   UNL A   1      33.012  34.994  28.610  1.00  0.00     0.251 C 
ATOM     28  H   UNL A   1      31.758  34.544  27.109  1.00  0.00     0.163 HD
ATOM     29  O   UNL A   1      32.509  36.081  28.836  1.00  0.00    -0.269 OA
BRANCH  27  30
ATOM     30  C   UNL A   1      34.206  34.556  29.367  1.00  0.00     0.039 A 
ATOM     31  C   UNL A   1      34.039  33.968  30.623  1.00  0.00     0.014 A 
ATOM     32  C   UNL A   1      35.482  34.707  28.823  1.00  0.00     0.014 A 
ATOM     33  C   UNL A   1      35.148  33.454  31.299  1.00  0.00     0.010 A 
ATOM     34  C   UNL A   1      36.572  34.123  29.457  1.00  0.00     0.010 A 
ATOM     35  C   UNL A   1      36.417  33.489  30.700  1.00  0.00    -0.014 A 
BRANCH  35  36
ATOM     36  C   UNL A   1      37.615  32.895  31.342  1.00  0.00     0.031 A 
ATOM     37  C   UNL A   1      38.306  31.737  30.679  1.00  0.00     0.074 A 
ATOM     38  C   UNL A   1      38.005  33.309  32.562  1.00  0.00     0.049 A 
ATOM     39  N   UNL A   1      39.222  30.933  31.154  1.00  0.00    -0.248 NA
ATOM     40  C   UNL A   1      37.878  31.420  29.308  1.00  0.00     0.031 C 
ATOM     41  C   UNL A   1      37.399  34.402  33.321  1.00  0.00     0.029 A 
ATOM     42  N   UNL A   1      38.990  32.833  33.394  1.00  0.00    -0.354 N 
ATOM     43  C   UNL A   1      39.453  29.998  30.153  1.00  0.00     0.074 A 
ATOM     44  C   UNL A   1      38.551  30.306  29.066  1.00  0.00     0.031 C 
ATOM     45  C   UNL A   1      38.021  34.513  34.506  1.00  0.00     0.029 A 
ATOM     46  C   UNL A   1      39.036  33.470  34.611  1.00  0.00     0.049 A 
ATOM     47  H   UNL A   1      39.603  32.106  33.142  1.00  0.00     0.167 HD
ATOM     48  C   UNL A   1      40.350  28.984  30.138  1.00  0.00     0.037 A 
ATOM     49  C   UNL A   1      39.792  33.219  35.698  1.00  0.00     0.037 A 
ATOM     50  C   UNL A   1      41.266  28.702  31.212  1.00  0.00     0.049 A 
ATOM     51  C   UNL A   1      40.780  32.084  35.660  1.00  0.00     0.074 A 
ATOM     52  C   UNL A   1      42.244  27.727  31.278  1.00  0.00     0.029 A 
ATOM     53  N   UNL A   1      41.316  29.403  32.408  1.00  0.00    -0.354 N 
ATOM     54  N   UNL A   1      41.018  31.227  34.697  1.00  0.00    -0.248 NA
ATOM     55  C   UNL A   1      41.606  31.881  36.859  1.00  0.00     0.031 C 
ATOM     56  C   UNL A   1      42.864  27.815  32.528  1.00  0.00     0.029 A 
ATOM     57  C   UNL A   1      42.303  28.876  33.222  1.00  0.00     0.049 A 
ATOM     58  H   UNL A   1      40.735  30.163  32.642  1.00  0.00     0.167 HD
ATOM     59  C   UNL A   1      42.040  30.408  35.157  1.00  0.00     0.074 A 
ATOM     60  C   UNL A   1      42.379  30.870  36.487  1.00  0.00     0.031 C 
ATOM     61  C   UNL A   1      42.643  29.368  34.532  1.00  0.00     0.037 A 
BRANCH  48  62
ATOM     62  C   UNL A   1      40.382  28.108  28.920  1.00  0.00     0.064 A 
ATOM     63  C   UNL A   1      41.159  28.435  27.798  1.00  0.00     0.173 A 
ATOM     64  C   UNL A   1      39.643  26.915  28.880  1.00  0.00     0.173 A 
ATOM     65  F   UNL A   1      41.874  29.569  27.782  1.00  0.00    -0.203 F 
ATOM     66  C   UNL A   1      41.166  27.623  26.669  1.00  0.00     0.198 A 
ATOM     67  C   UNL A   1      39.677  26.089  27.761  1.00  0.00     0.198 A 
ATOM     68  F   UNL A   1      38.888  26.551  29.927  1.00  0.00    -0.203 F 
ATOM     69  F   UNL A   1      41.870  27.986  25.588  1.00  0.00    -0.200 F 
ATOM     70  C   UNL A   1      40.430  26.447  26.653  1.00  0.00     0.200 A 
ATOM     71  F   UNL A   1      38.977  24.946  27.752  1.00  0.00    -0.200 F 
ATOM     72  F   UNL A   1      40.440  25.663  25.566  1.00  0.00    -0.200 F 
ENDBRANCH  48  62
BRANCH  49  73
ATOM     73  C   UNL A   1      39.647  34.066  36.910  1.00  0.00     0.064 A 
ATOM     74  C   UNL A   1      40.316  35.293  37.014  1.00  0.00     0.173 A 
ATOM     75  C   UNL A   1      38.833  33.674  37.983  1.00  0.00     0.173 A 
ATOM     76  F   UNL A   1      41.121  35.701  36.021  1.00  0.00    -0.203 F 
ATOM     77  C   UNL A   1      40.190  36.088  38.150  1.00  0.00     0.198 A 
ATOM     78  C   UNL A   1      38.687  34.483  39.108  1.00  0.00     0.198 A 
ATOM     79  F   UNL A   1      38.166  32.511  37.932  1.00  0.00    -0.203 F 
ATOM     80  F   UNL A   1      40.873  37.238  38.239  1.00  0.00    -0.200 F 
ATOM     81  C   UNL A   1      39.370  35.686  39.194  1.00  0.00     0.200 A 
ATOM     82  F   UNL A   1      37.883  34.098  40.108  1.00  0.00    -0.200 F 
ATOM     83  F   UNL A   1      39.245  36.455  40.284  1.00  0.00    -0.200 F 
ENDBRANCH  49  73
BRANCH  61  84
ATOM     84  C   UNL A   1      43.773  28.689  35.248  1.00  0.00     0.064 A 
ATOM     85  C   UNL A   1      43.558  27.580  36.078  1.00  0.00     0.173 A 
ATOM     86  C   UNL A   1      45.095  29.107  35.033  1.00  0.00     0.173 A 
ATOM     87  F   UNL A   1      42.311  27.151  36.325  1.00  0.00    -0.203 F 
ATOM     88  C   UNL A   1      44.629  26.918  36.675  1.00  0.00     0.198 A 
ATOM     89  C   UNL A   1      46.163  28.428  35.611  1.00  0.00     0.198 A 
ATOM     90  F   UNL A   1      45.350  30.161  34.243  1.00  0.00    -0.203 F 
ATOM     91  F   UNL A   1      44.402  25.877  37.487  1.00  0.00    -0.200 F 
ATOM     92  C   UNL A   1      45.930  27.336  36.433  1.00  0.00     0.200 A 
ATOM     93  F   UNL A   1      47.419  28.825  35.365  1.00  0.00    -0.200 F 
ATOM     94  F   UNL A   1      46.959  26.687  36.994  1.00  0.00    -0.200 F 
ENDBRANCH  61  84
ENDBRANCH  35  36
ENDBRANCH  27  30
ENDBRANCH  25  26
ENDBRANCH  24  25
ENDBRANCH  23  24
ENDBRANCH   3  23
TORSDOF 16
ENDMDL
MODEL 2
REMARK VINA RESULT:     -12.0      0.554      7.292
REMARK SMILES CCN(C(=O)N(C)Cc1cccc(C)n1)C(C)(C)C(=O)NCCCNC(=O)c1ccc(-c2c3nc(c(-c4c(F)c(F)c(F)c(F)c4F)c4ccc([nH]4)c(-c4c(F)c(F)c(F)c(F)c4F)c4nc(c(-c5c(F)c(F)c(F)c(F)c5F)c5ccc2[nH]5)C=C4)C=C3)cc1
REMARK SMILES IDX 19 1 20 2 21 3 16 5 17 6 18 7 3 8 2 9 1 10 4 11 5 12 6 13
REMARK SMILES IDX 7 14 8 15 9 16 10 17 15 18 11 19 13 20 12 21 14 22 22 23
REMARK SMILES IDX 23 24 24 25 25 26 26 27 27 29 28 30 29 31 90 32 30 33 89 34
REMARK SMILES IDX 31 35 32 36 33 37 83 38 34 39 88 40 82 41 84 42 35 43 87 44
REMARK SMILES IDX 81 45 80 46 36 48 68 49 48 50 67 51 49 52 52 53 66 54 85 55
REMARK SMILES IDX 50 56 51 57 65 59 86 60 53 61 37 62 38 63 46 64 39 65 40 66
REMARK SMILES IDX 44 67 47 68 41 69 42 70 45 71 43 72 69 73 70 74 78 75 71 76
REMARK SMILES IDX 72 77 76 78 79 79 73 80 74 81 77 82 75 83 54 84 55 85 63 86
REMARK SMILES IDX 56 87 57 88 61 89 64 90 58 91 59 92 62 93 60 94
REMARK H PARENT 21 4 25 28 84 47 52 58
REMARK Flexibility Score: inf
ROOT
ATOM      1  C   UNL A   1      33.519  29.111  26.595  1.00  0.00     0.245 C 
ATOM      2  O   UNL A   1      34.572  28.971  27.226  1.00  0.00    -0.272 OA
ATOM      3  N   UNL A   1      32.936  30.354  26.692  1.00  0.00    -0.354 N 
ATOM      4  H   UNL A   1      33.563  31.074  26.930  1.00  0.00     0.163 HD
ENDROOT
BRANCH   1   5
ATOM      5  C   UNL A   1      32.796  27.919  25.845  1.00  0.00     0.117 C 
ATOM      6  C   UNL A   1      31.499  27.518  26.591  1.00  0.00     0.045 C 
ATOM      7  C   UNL A   1      33.868  26.801  25.873  1.00  0.00     0.045 C 
BRANCH   5   8
ATOM      8  N   UNL A   1      32.433  28.190  24.385  1.00  0.00    -0.311 N 
BRANCH   8   9
ATOM      9  C   UNL A   1      33.404  28.966  23.588  1.00  0.00     0.119 C 
ATOM     10  C   UNL A   1      33.909  28.292  22.319  1.00  0.00     0.027 C 
ENDBRANCH   8   9
BRANCH   8  11
ATOM     11  C   UNL A   1      31.699  27.190  23.728  1.00  0.00     0.320 C 
ATOM     12  O   UNL A   1      32.186  26.070  23.561  1.00  0.00    -0.248 OA
BRANCH  11  13
ATOM     13  N   UNL A   1      30.403  27.485  23.313  1.00  0.00    -0.322 N 
ATOM     14  C   UNL A   1      29.159  26.894  23.789  1.00  0.00     0.149 C 
BRANCH  13  15
ATOM     15  C   UNL A   1      30.259  28.397  22.168  1.00  0.00     0.177 C 
BRANCH  15  16
ATOM     16  C   UNL A   1      29.540  29.706  22.424  1.00  0.00     0.060 A 
ATOM     17  C   UNL A   1      29.532  30.320  23.672  1.00  0.00     0.026 A 
ATOM     18  N   UNL A   1      28.975  30.294  21.332  1.00  0.00    -0.256 NA
ATOM     19  C   UNL A   1      28.914  31.560  23.807  1.00  0.00     0.004 A 
ATOM     20  C   UNL A   1      28.402  31.513  21.473  1.00  0.00     0.038 A 
ATOM     21  C   UNL A   1      28.349  32.172  22.694  1.00  0.00     0.023 A 
ATOM     22  C   UNL A   1      27.880  32.157  20.225  1.00  0.00     0.067 C 
ENDBRANCH  15  16
ENDBRANCH  13  15
ENDBRANCH  11  13
ENDBRANCH   8  11
ENDBRANCH   5   8
ENDBRANCH   1   5
BRANCH   3  23
ATOM     23  C   UNL A   1      31.557  30.802  26.506  1.00  0.00     0.117 C 
BRANCH  23  24
ATOM     24  C   UNL A   1      31.413  32.297  26.773  1.00  0.00     0.042 C 
BRANCH  24  25
ATOM     25  C   UNL A   1      32.711  32.967  27.198  1.00  0.00     0.118 C 
BRANCH  25  26
ATOM     26  N   UNL A   1      32.511  34.335  27.651  1.00  0.00    -0.352 N 
ATOM     27  C   UNL A   1      33.080  34.995  28.719  1.00  0.00     0.251 C 
ATOM     28  H   UNL A   1      31.878  34.868  27.117  1.00  0.00     0.163 HD
ATOM     29  O   UNL A   1      32.669  36.090  29.064  1.00  0.00    -0.269 OA
BRANCH  27  30
ATOM     30  C   UNL A   1      34.180  34.345  29.466  1.00  0.00     0.039 A 
ATOM     31  C   UNL A   1      33.875  33.554  30.577  1.00  0.00     0.014 A 
ATOM     32  C   UNL A   1      35.503  34.501  29.053  1.00  0.00     0.014 A 
ATOM     33  C   UNL A   1      34.894  32.850  31.224  1.00  0.00     0.010 A 
ATOM     34  C   UNL A   1      36.502  33.737  29.644  1.00  0.00     0.010 A 
ATOM     35  C   UNL A   1      36.208  32.903  30.735  1.00  0.00    -0.014 A 
BRANCH  35  36
ATOM     36  C   UNL A   1      37.314  32.119  31.340  1.00  0.00     0.031 A 
ATOM     37  C   UNL A   1      37.843  32.516  32.688  1.00  0.00     0.074 A 
ATOM     38  C   UNL A   1      37.915  31.142  30.635  1.00  0.00     0.049 A 
ATOM     39  N   UNL A   1      38.927  32.121  33.305  1.00  0.00    -0.248 NA
ATOM     40  C   UNL A   1      37.063  33.523  33.425  1.00  0.00     0.031 C 
ATOM     41  C   UNL A   1      37.513  30.684  29.306  1.00  0.00     0.029 A 
ATOM     42  N   UNL A   1      39.018  30.377  30.931  1.00  0.00    -0.354 N 
ATOM     43  C   UNL A   1      38.975  32.856  34.483  1.00  0.00     0.074 A 
ATOM     44  C   UNL A   1      37.839  33.750  34.473  1.00  0.00     0.031 C 
ATOM     45  C   UNL A   1      38.356  29.721  28.899  1.00  0.00     0.029 A 
ATOM     46  C   UNL A   1      39.385  29.528  29.916  1.00  0.00     0.049 A 
ATOM     47  H   UNL A   1      39.498  30.434  31.788  1.00  0.00     0.167 HD
ATOM     48  C   UNL A   1      39.878  32.777  35.489  1.00  0.00     0.037 A 
ATOM     49  C   UNL A   1      40.449  28.709  29.807  1.00  0.00     0.037 A 
ATOM     50  C   UNL A   1      40.989  31.862  35.505  1.00  0.00     0.049 A 
ATOM     51  C   UNL A   1      41.442  28.639  30.936  1.00  0.00     0.074 A 
ATOM     52  C   UNL A   1      41.936  31.672  36.495  1.00  0.00     0.029 A 
ATOM     53  N   UNL A   1      41.298  30.981  34.479  1.00  0.00    -0.354 N 
ATOM     54  N   UNL A   1      41.461  29.311  32.062  1.00  0.00    -0.248 NA
ATOM     55  C   UNL A   1      42.562  27.699  30.781  1.00  0.00     0.031 C 
ATOM     56  C   UNL A   1      42.838  30.699  36.054  1.00  0.00     0.029 A 
ATOM     57  C   UNL A   1      42.426  30.250  34.809  1.00  0.00     0.049 A 
ATOM     58  H   UNL A   1      40.789  30.890  33.641  1.00  0.00     0.167 HD
ATOM     59  C   UNL A   1      42.568  28.852  32.763  1.00  0.00     0.074 A 
ATOM     60  C   UNL A   1      43.198  27.844  31.936  1.00  0.00     0.031 C 
ATOM     61  C   UNL A   1      43.021  29.232  33.982  1.00  0.00     0.037 A 
BRANCH  48  62
ATOM     62  C   UNL A   1      39.697  33.705  36.653  1.00  0.00     0.064 A 
ATOM     63  C   UNL A   1      40.316  34.965  36.694  1.00  0.00     0.173 A 
ATOM     64  C   UNL A   1      38.879  33.342  37.734  1.00  0.00     0.173 A 
ATOM     65  F   UNL A   1      41.117  35.354  35.691  1.00  0.00    -0.203 F 
ATOM     66  C   UNL A   1      40.153  35.809  37.788  1.00  0.00     0.198 A 
ATOM     67  C   UNL A   1      38.693  34.203  38.813  1.00  0.00     0.198 A 
ATOM     68  F   UNL A   1      38.258  32.153  37.745  1.00  0.00    -0.203 F 
ATOM     69  F   UNL A   1      40.800  36.982  37.829  1.00  0.00    -0.200 F 
ATOM     70  C   UNL A   1      39.336  35.430  38.843  1.00  0.00     0.200 A 
ATOM     71  F   UNL A   1      37.892  33.842  39.825  1.00  0.00    -0.200 F 
ATOM     72  F   UNL A   1      39.177  36.246  39.895  1.00  0.00    -0.200 F 
ENDBRANCH  48  62
BRANCH  49  73
ATOM     73  C   UNL A   1      40.623  27.882  28.585  1.00  0.00     0.064 A 
ATOM     74  C   UNL A   1      41.391  28.344  27.507  1.00  0.00     0.173 A 
ATOM     75  C   UNL A   1      40.036  26.612  28.471  1.00  0.00     0.173 A 
ATOM     76  F   UNL A   1      41.955  29.560  27.562  1.00  0.00    -0.203 F 
ATOM     77  C   UNL A   1      41.552  27.576  26.357  1.00  0.00     0.198 A 
ATOM     78  C   UNL A   1      40.221  25.834  27.331  1.00  0.00     0.198 A 
ATOM     79  F   UNL A   1      39.298  26.120  29.477  1.00  0.00    -0.203 F 
ATOM     80  F   UNL A   1      42.259  28.060  25.325  1.00  0.00    -0.200 F 
ATOM     81  C   UNL A   1      40.973  26.319  26.271  1.00  0.00     0.200 A 
ATOM     82  F   UNL A   1      39.672  24.614  27.258  1.00  0.00    -0.200 F 
ATOM     83  F   UNL A   1      41.135  25.579  25.166  1.00  0.00    -0.200 F 
ENDBRANCH  49  73
BRANCH  61  84
ATOM     84  C   UNL A   1      44.222  28.520  34.530  1.00  0.00     0.064 A 
ATOM     85  C   UNL A   1      45.517  29.028  34.368  1.00  0.00     0.173 A 
ATOM     86  C   UNL A   1      44.060  27.355  35.296  1.00  0.00     0.173 A 
ATOM     87  F   UNL A   1      45.724  30.131  33.633  1.00  0.00    -0.203 F 
ATOM     88  C   UNL A   1      46.612  28.390  34.947  1.00  0.00     0.198 A 
ATOM     89  C   UNL A   1      45.153  26.735  35.894  1.00  0.00     0.198 A 
ATOM     90  F   UNL A   1      42.838  26.833  35.483  1.00  0.00    -0.203 F 
ATOM     91  F   UNL A   1      47.846  28.876  34.759  1.00  0.00    -0.200 F 
ATOM     92  C   UNL A   1      46.427  27.251  35.718  1.00  0.00     0.200 A 
ATOM     93  F   UNL A   1      44.970  25.642  36.649  1.00  0.00    -0.200 F 
ATOM     94  F   UNL A   1      47.479  26.649  36.289  1.00  0.00    -0.200 F 
ENDBRANCH  61  84
ENDBRANCH  35  36
ENDBRANCH  27  30
ENDBRANCH  25  26
ENDBRANCH  24  25
ENDBRANCH  23  24
ENDBRANCH   3  23
TORSDOF 16
ENDMDL
MODEL 3
REMARK VINA RESULT:     -11.9      6.473     10.723
REMARK SMILES CCN(C(=O)N(C)Cc1cccc(C)n1)C(C)(C)C(=O)NCCCNC(=O)c1ccc(-c2c3nc(c(-c4c(F)c(F)c(F)c(F)c4F)c4ccc([nH]4)c(-c4c(F)c(F)c(F)c(F)c4F)c4nc(c(-c5c(F)c(F)c(F)c(F)c5F)c5ccc2[nH]5)C=C4)C=C3)cc1
REMARK SMILES IDX 19 1 20 2 21 3 16 5 17 6 18 7 3 8 2 9 1 10 4 11 5 12 6 13
REMARK SMILES IDX 7 14 8 15 9 16 10 17 15 18 11 19 13 20 12 21 14 22 22 23
REMARK SMILES IDX 23 24 24 25 25 26 26 27 27 29 28 30 29 31 90 32 30 33 89 34
REMARK SMILES IDX 31 35 32 36 33 37 83 38 34 39 88 40 82 41 84 42 35 43 87 44
REMARK SMILES IDX 81 45 80 46 36 48 68 49 48 50 67 51 49 52 52 53 66 54 85 55
REMARK SMILES IDX 50 56 51 57 65 59 86 60 53 61 37 62 38 63 46 64 39 65 40 66
REMARK SMILES IDX 44 67 47 68 41 69 42 70 45 71 43 72 69 73 70 74 78 75 71 76
REMARK SMILES IDX 72 77 76 78 79 79 73 80 74 81 77 82 75 83 54 84 55 85 63 86
REMARK SMILES IDX 56 87 57 88 61 89 64 90 58 91 59 92 62 93 60 94
REMARK H PARENT 21 4 25 28 84 47 52 58
REMARK Flexibility Score: inf
ROOT
ATOM      1  C   UNL A   1      36.881  23.024  25.545  1.00  0.00     0.245 C 
ATOM      2  O   UNL A   1      37.513  23.965  26.037  1.00  0.00    -0.272 OA
ATOM      3  N   UNL A   1      37.573  21.837  25.450  1.00  0.00    -0.354 N 
ATOM      4  H   UNL A   1      38.323  21.758  26.083  1.00  0.00     0.163 HD
ENDROOT
BRANCH   1   5
ATOM      5  C   UNL A   1      35.434  23.184  24.926  1.00  0.00     0.117 C 
ATOM      6  C   UNL A   1      35.482  23.011  23.387  1.00  0.00     0.045 C 
ATOM      7  C   UNL A   1      35.041  24.621  25.350  1.00  0.00     0.045 C 
BRANCH   5   8
ATOM      8  N   UNL A   1      34.378  22.223  25.473  1.00  0.00    -0.311 N 
BRANCH   8   9
ATOM      9  C   UNL A   1      34.466  21.882  26.907  1.00  0.00     0.119 C 
ATOM     10  C   UNL A   1      33.326  22.390  27.780  1.00  0.00     0.027 C 
ENDBRANCH   8   9
BRANCH   8  11
ATOM     11  C   UNL A   1      33.101  22.305  24.898  1.00  0.00     0.320 C 
ATOM     12  O   UNL A   1      32.485  23.373  24.902  1.00  0.00    -0.248 OA
BRANCH  11  13
ATOM     13  N   UNL A   1      32.574  21.168  24.290  1.00  0.00    -0.322 N 
ATOM     14  C   UNL A   1      32.190  21.000  22.895  1.00  0.00     0.149 C 
BRANCH  13  15
ATOM     15  C   UNL A   1      32.232  20.039  25.169  1.00  0.00     0.177 C 
BRANCH  15  16
ATOM     16  C   UNL A   1      32.997  18.750  24.953  1.00  0.00     0.060 A 
ATOM     17  C   UNL A   1      34.317  18.731  24.515  1.00  0.00     0.026 A 
ATOM     18  N   UNL A   1      32.342  17.607  25.301  1.00  0.00    -0.256 NA
ATOM     19  C   UNL A   1      34.976  17.508  24.415  1.00  0.00     0.004 A 
ATOM     20  C   UNL A   1      33.004  16.428  25.226  1.00  0.00     0.038 A 
ATOM     21  C   UNL A   1      34.317  16.340  24.783  1.00  0.00     0.023 A 
ATOM     22  C   UNL A   1      32.270  15.214  25.710  1.00  0.00     0.067 C 
ENDBRANCH  15  16
ENDBRANCH  13  15
ENDBRANCH  11  13
ENDBRANCH   8  11
ENDBRANCH   5   8
ENDBRANCH   1   5
BRANCH   3  23
ATOM     23  C   UNL A   1      37.399  20.674  24.583  1.00  0.00     0.117 C 
BRANCH  23  24
ATOM     24  C   UNL A   1      38.317  19.526  24.995  1.00  0.00     0.042 C 
BRANCH  24  25
ATOM     25  C   UNL A   1      39.391  19.934  25.990  1.00  0.00     0.118 C 
BRANCH  25  26
ATOM     26  N   UNL A   1      40.487  18.979  26.052  1.00  0.00    -0.352 N 
ATOM     27  C   UNL A   1      41.845  19.208  26.116  1.00  0.00     0.251 C 
ATOM     28  H   UNL A   1      40.222  18.031  26.047  1.00  0.00     0.163 HD
ATOM     29  O   UNL A   1      42.637  18.291  25.986  1.00  0.00    -0.269 OA
BRANCH  27  30
ATOM     30  C   UNL A   1      42.335  20.590  26.319  1.00  0.00     0.039 A 
ATOM     31  C   UNL A   1      42.696  21.355  25.207  1.00  0.00     0.014 A 
ATOM     32  C   UNL A   1      42.414  21.131  27.603  1.00  0.00     0.014 A 
ATOM     33  C   UNL A   1      43.057  22.694  25.377  1.00  0.00     0.010 A 
ATOM     34  C   UNL A   1      42.692  22.483  27.763  1.00  0.00     0.010 A 
ATOM     35  C   UNL A   1      43.015  23.279  26.653  1.00  0.00    -0.014 A 
BRANCH  35  36
ATOM     36  C   UNL A   1      43.319  24.713  26.880  1.00  0.00     0.031 A 
ATOM     37  C   UNL A   1      44.720  25.210  26.666  1.00  0.00     0.074 A 
ATOM     38  C   UNL A   1      42.378  25.532  27.387  1.00  0.00     0.049 A 
ATOM     39  N   UNL A   1      45.257  26.355  27.005  1.00  0.00    -0.248 NA
ATOM     40  C   UNL A   1      45.652  24.276  26.016  1.00  0.00     0.031 C 
ATOM     41  C   UNL A   1      40.991  25.162  27.666  1.00  0.00     0.029 A 
ATOM     42  N   UNL A   1      42.459  26.843  27.791  1.00  0.00    -0.354 N 
ATOM     43  C   UNL A   1      46.594  26.262  26.640  1.00  0.00     0.074 A 
ATOM     44  C   UNL A   1      46.796  24.937  26.097  1.00  0.00     0.031 C 
ATOM     45  C   UNL A   1      40.351  26.217  28.196  1.00  0.00     0.029 A 
ATOM     46  C   UNL A   1      41.294  27.322  28.340  1.00  0.00     0.049 A 
ATOM     47  H   UNL A   1      43.274  27.387  27.696  1.00  0.00     0.167 HD
ATOM     48  C   UNL A   1      47.561  27.205  26.734  1.00  0.00     0.037 A 
ATOM     49  C   UNL A   1      41.027  28.508  28.920  1.00  0.00     0.037 A 
ATOM     50  C   UNL A   1      47.344  28.532  27.248  1.00  0.00     0.049 A 
ATOM     51  C   UNL A   1      42.118  29.541  29.018  1.00  0.00     0.074 A 
ATOM     52  C   UNL A   1      48.245  29.577  27.346  1.00  0.00     0.029 A 
ATOM     53  N   UNL A   1      46.136  28.995  27.747  1.00  0.00    -0.354 N 
ATOM     54  N   UNL A   1      43.370  29.459  28.637  1.00  0.00    -0.248 NA
ATOM     55  C   UNL A   1      41.760  30.832  29.623  1.00  0.00     0.031 C 
ATOM     56  C   UNL A   1      47.591  30.663  27.936  1.00  0.00     0.029 A 
ATOM     57  C   UNL A   1      46.270  30.309  28.162  1.00  0.00     0.049 A 
ATOM     58  H   UNL A   1      45.306  28.468  27.798  1.00  0.00     0.167 HD
ATOM     59  C   UNL A   1      43.939  30.692  28.924  1.00  0.00     0.074 A 
ATOM     60  C   UNL A   1      42.896  31.507  29.512  1.00  0.00     0.031 C 
ATOM     61  C   UNL A   1      45.211  31.111  28.719  1.00  0.00     0.037 A 
BRANCH  48  62
ATOM     62  C   UNL A   1      48.938  26.832  26.271  1.00  0.00     0.064 A 
ATOM     63  C   UNL A   1      49.350  27.040  24.945  1.00  0.00     0.173 A 
ATOM     64  C   UNL A   1      49.865  26.276  27.165  1.00  0.00     0.173 A 
ATOM     65  F   UNL A   1      48.498  27.558  24.048  1.00  0.00    -0.203 F 
ATOM     66  C   UNL A   1      50.624  26.674  24.525  1.00  0.00     0.198 A 
ATOM     67  C   UNL A   1      51.150  25.940  26.748  1.00  0.00     0.198 A 
ATOM     68  F   UNL A   1      49.526  26.061  28.446  1.00  0.00    -0.203 F 
ATOM     69  F   UNL A   1      50.975  26.830  23.240  1.00  0.00    -0.200 F 
ATOM     70  C   UNL A   1      51.526  26.130  25.428  1.00  0.00     0.200 A 
ATOM     71  F   UNL A   1      52.025  25.427  27.625  1.00  0.00    -0.200 F 
ATOM     72  F   UNL A   1      52.754  25.780  25.022  1.00  0.00    -0.200 F 
ENDBRANCH  48  62
BRANCH  49  73
ATOM     73  C   UNL A   1      39.666  28.784  29.445  1.00  0.00     0.064 A 
ATOM     74  C   UNL A   1      38.684  29.364  28.630  1.00  0.00     0.173 A 
ATOM     75  C   UNL A   1      39.313  28.467  30.766  1.00  0.00     0.173 A 
ATOM     76  F   UNL A   1      38.980  29.703  27.366  1.00  0.00    -0.203 F 
ATOM     77  C   UNL A   1      37.407  29.631  29.119  1.00  0.00     0.198 A 
ATOM     78  C   UNL A   1      38.028  28.710  31.246  1.00  0.00     0.198 A 
ATOM     79  F   UNL A   1      40.213  27.905  31.586  1.00  0.00    -0.203 F 
ATOM     80  F   UNL A   1      36.501  30.224  28.329  1.00  0.00    -0.200 F 
ATOM     81  C   UNL A   1      37.077  29.298  30.424  1.00  0.00     0.200 A 
ATOM     82  F   UNL A   1      37.708  28.374  32.503  1.00  0.00    -0.200 F 
ATOM     83  F   UNL A   1      35.847  29.550  30.891  1.00  0.00    -0.200 F 
ENDBRANCH  49  73
BRANCH  61  84
ATOM     84  C   UNL A   1      45.541  32.530  29.075  1.00  0.00     0.064 A 
ATOM     85  C   UNL A   1      45.337  33.583  28.172  1.00  0.00     0.173 A 
ATOM     86  C   UNL A   1      45.992  32.845  30.365  1.00  0.00     0.173 A 
ATOM     87  F   UNL A   1      44.920  33.331  26.922  1.00  0.00    -0.203 F 
ATOM     88  C   UNL A   1      45.582  34.902  28.547  1.00  0.00     0.198 A 
ATOM     89  C   UNL A   1      46.211  34.166  30.744  1.00  0.00     0.198 A 
ATOM     90  F   UNL A   1      46.198  31.872  31.266  1.00  0.00    -0.203 F 
ATOM     91  F   UNL A   1      45.407  35.892  27.662  1.00  0.00    -0.200 F 
ATOM     92  C   UNL A   1      46.008  35.193  29.836  1.00  0.00     0.200 A 
ATOM     93  F   UNL A   1      46.610  34.445  31.993  1.00  0.00    -0.200 F 
ATOM     94  F   UNL A   1      46.225  36.463  30.200  1.00  0.00    -0.200 F 
ENDBRANCH  61  84
ENDBRANCH  35  36
ENDBRANCH  27  30
ENDBRANCH  25  26
ENDBRANCH  24  25
ENDBRANCH  23  24
ENDBRANCH   3  23
TORSDOF 16
ENDMDL
