MODEL 1
REMARK VINA RESULT:     -14.9      0.000      0.000
REMARK SMILES Cc1cccc(-n2ncc(C(=O)Nc3cccc(C(=O)NCCCNC(=O)c4ccc(-c5c6nc(c(-c7c(F)c(F)c(F)c(F)c7F)c7ccc([nH]7)c(-c7c(F)c(F)c(F)c(F)c7F)c7nc(c(-c8c(F)c(F)c(F)c(F)c8F)c8ccc5[nH]8)C=C7)C=C6)cc4)c3C)c2C)c1
REMARK SMILES IDX 22 1 21 2 19 3 20 4 18 6 14 7 15 8 91 9 16 10 92 11 17 12
REMARK SMILES IDX 13 13 11 14 12 15 10 17 7 18 8 19 93 20 9 21 94 22 6 23 1 24
REMARK SMILES IDX 2 25 3 26 95 27 4 28 5 29 23 30 24 31 25 32 26 33 27 35
REMARK SMILES IDX 28 36 29 37 90 38 30 39 89 40 31 41 32 42 33 43 83 44 34 45
REMARK SMILES IDX 88 46 82 47 84 48 35 49 87 50 81 51 80 52 36 54 68 55 48 56
REMARK SMILES IDX 67 57 49 58 52 59 66 60 85 61 50 62 51 63 65 65 86 66 53 67
REMARK SMILES IDX 37 68 38 69 46 70 39 71 40 72 44 73 47 74 41 75 42 76 45 77
REMARK SMILES IDX 43 78 69 79 70 80 78 81 71 82 72 83 76 84 79 85 73 86 74 87
REMARK SMILES IDX 77 88 75 89 54 90 55 91 63 92 56 93 57 94 61 95 64 96 58 97
REMARK SMILES IDX 59 98 62 99 60 100
REMARK H PARENT 21 5 13 16 25 34 84 53 52 64
REMARK Flexibility Score: inf
ROOT
ATOM      1  C   UNL A   1      32.011  30.657  26.135  1.00  0.00     0.118 C 
ENDROOT
BRANCH   1   2
ATOM      2  N   UNL A   1      32.999  29.858  25.424  1.00  0.00    -0.352 N 
ATOM      3  C   UNL A   1      32.965  28.641  24.779  1.00  0.00     0.251 C 
ATOM      4  O   UNL A   1      34.042  28.283  24.306  1.00  0.00    -0.269 OA
ATOM      5  H   UNL A   1      33.889  30.281  25.400  1.00  0.00     0.163 HD
BRANCH   3   6
ATOM      6  C   UNL A   1      31.725  27.791  24.613  1.00  0.00     0.044 A 
ATOM      7  C   UNL A   1      30.304  25.914  25.250  1.00  0.00     0.045 A 
ATOM      8  C   UNL A   1      29.537  26.077  24.091  1.00  0.00     0.026 A 
ATOM      9  C   UNL A   1      31.337  26.828  25.586  1.00  0.00    -0.015 A 
ATOM     10  C   UNL A   1      29.827  27.102  23.215  1.00  0.00     0.003 A 
ATOM     11  C   UNL A   1      32.059  26.644  26.901  1.00  0.00     0.047 C 
ATOM     12  C   UNL A   1      30.917  27.929  23.472  1.00  0.00     0.014 A 
BRANCH   7  13
ATOM     13  N   UNL A   1      30.052  24.798  26.062  1.00  0.00    -0.322 N 
ATOM     14  C   UNL A   1      30.630  23.547  26.011  1.00  0.00     0.259 C 
ATOM     15  O   UNL A   1      30.043  22.616  26.563  1.00  0.00    -0.269 OA
ATOM     16  H   UNL A   1      29.371  24.926  26.763  1.00  0.00     0.170 HD
BRANCH  14  17
ATOM     17  C   UNL A   1      31.963  23.380  25.423  1.00  0.00     0.081 A 
ATOM     18  N   UNL A   1      34.156  23.028  25.165  1.00  0.00    -0.237 N 
ATOM     19  N   UNL A   1      33.722  23.456  23.954  1.00  0.00    -0.175 NA
ATOM     20  C   UNL A   1      33.140  23.088  26.111  1.00  0.00     0.054 A 
ATOM     21  C   UNL A   1      32.414  23.635  24.111  1.00  0.00     0.149 A 
ATOM     22  C   UNL A   1      33.349  23.005  27.585  1.00  0.00     0.068 C 
BRANCH  18  23
ATOM     23  C   UNL A   1      35.518  22.649  25.314  1.00  0.00     0.065 A 
ATOM     24  C   UNL A   1      37.608  19.504  24.804  1.00  0.00     0.044 C 
ATOM     25  C   UNL A   1      37.213  20.910  25.144  1.00  0.00    -0.049 A 
ATOM     26  C   UNL A   1      38.191  21.855  25.477  1.00  0.00     0.003 A 
ATOM     27  C   UNL A   1      35.872  21.308  25.094  1.00  0.00     0.031 A 
ATOM     28  C   UNL A   1      37.834  23.176  25.755  1.00  0.00     0.002 A 
ATOM     29  C   UNL A   1      36.500  23.577  25.670  1.00  0.00     0.028 A 
ENDBRANCH  18  23
ENDBRANCH  14  17
ENDBRANCH   7  13
ENDBRANCH   3   6
ENDBRANCH   1   2
BRANCH   1  30
ATOM     30  C   UNL A   1      32.649  31.406  27.306  1.00  0.00     0.042 C 
BRANCH  30  31
ATOM     31  C   UNL A   1      33.975  30.835  27.775  1.00  0.00     0.118 C 
BRANCH  31  32
ATOM     32  N   UNL A   1      34.659  31.683  28.747  1.00  0.00    -0.352 N 
ATOM     33  C   UNL A   1      35.836  31.441  29.436  1.00  0.00     0.251 C 
ATOM     34  H   UNL A   1      34.225  32.545  28.939  1.00  0.00     0.163 HD
ATOM     35  O   UNL A   1      36.298  32.269  30.202  1.00  0.00    -0.269 OA
BRANCH  33  36
ATOM     36  C   UNL A   1      36.595  30.212  29.112  1.00  0.00     0.039 A 
ATOM     37  C   UNL A   1      36.766  29.273  30.134  1.00  0.00     0.014 A 
ATOM     38  C   UNL A   1      37.351  30.148  27.946  1.00  0.00     0.014 A 
ATOM     39  C   UNL A   1      37.883  28.446  30.104  1.00  0.00     0.010 A 
ATOM     40  C   UNL A   1      38.516  29.409  27.969  1.00  0.00     0.010 A 
ATOM     41  C   UNL A   1      38.821  28.626  29.089  1.00  0.00    -0.014 A 
BRANCH  41  42
ATOM     42  C   UNL A   1      40.201  28.166  29.196  1.00  0.00     0.031 A 
ATOM     43  C   UNL A   1      40.580  26.815  28.735  1.00  0.00     0.074 A 
ATOM     44  C   UNL A   1      41.151  29.029  29.623  1.00  0.00     0.049 A 
ATOM     45  N   UNL A   1      41.690  26.230  29.033  1.00  0.00    -0.248 NA
ATOM     46  C   UNL A   1      39.679  25.970  27.964  1.00  0.00     0.031 C 
ATOM     47  C   UNL A   1      42.599  28.898  29.482  1.00  0.00     0.029 A 
ATOM     48  N   UNL A   1      40.984  30.134  30.479  1.00  0.00    -0.354 N 
ATOM     49  C   UNL A   1      41.781  25.081  28.281  1.00  0.00     0.074 A 
ATOM     50  C   UNL A   1      40.459  24.910  27.732  1.00  0.00     0.031 C 
ATOM     51  C   UNL A   1      43.196  29.650  30.419  1.00  0.00     0.029 A 
ATOM     52  C   UNL A   1      42.147  30.158  31.284  1.00  0.00     0.049 A 
ATOM     53  H   UNL A   1      40.221  30.756  30.511  1.00  0.00     0.167 HD
ATOM     54  C   UNL A   1      43.009  24.505  28.120  1.00  0.00     0.037 A 
ATOM     55  C   UNL A   1      42.096  29.968  32.634  1.00  0.00     0.037 A 
ATOM     56  C   UNL A   1      43.976  25.087  29.057  1.00  0.00     0.049 A 
ATOM     57  C   UNL A   1      42.950  28.826  33.129  1.00  0.00     0.074 A 
ATOM     58  C   UNL A   1      45.005  26.005  28.921  1.00  0.00     0.029 A 
ATOM     59  N   UNL A   1      43.768  24.934  30.426  1.00  0.00    -0.354 N 
ATOM     60  N   UNL A   1      43.356  27.842  32.376  1.00  0.00    -0.248 NA
ATOM     61  C   UNL A   1      43.380  28.683  34.517  1.00  0.00     0.031 C 
ATOM     62  C   UNL A   1      45.382  26.439  30.218  1.00  0.00     0.029 A 
ATOM     63  C   UNL A   1      44.599  25.770  31.143  1.00  0.00     0.049 A 
ATOM     64  H   UNL A   1      43.117  24.314  30.827  1.00  0.00     0.167 HD
ATOM     65  C   UNL A   1      44.062  26.945  33.137  1.00  0.00     0.074 A 
ATOM     66  C   UNL A   1      44.067  27.529  34.465  1.00  0.00     0.031 C 
ATOM     67  C   UNL A   1      44.563  25.793  32.600  1.00  0.00     0.037 A 
BRANCH  54  68
ATOM     68  C   UNL A   1      43.421  23.609  26.956  1.00  0.00     0.064 A 
ATOM     69  C   UNL A   1      43.027  22.248  26.929  1.00  0.00     0.173 A 
ATOM     70  C   UNL A   1      44.281  23.969  25.897  1.00  0.00     0.173 A 
ATOM     71  F   UNL A   1      42.149  21.756  27.812  1.00  0.00    -0.203 F 
ATOM     72  C   UNL A   1      43.524  21.328  25.996  1.00  0.00     0.198 A 
ATOM     73  C   UNL A   1      44.787  23.050  24.971  1.00  0.00     0.198 A 
ATOM     74  F   UNL A   1      44.660  25.226  25.678  1.00  0.00    -0.203 F 
ATOM     75  F   UNL A   1      43.136  20.047  26.052  1.00  0.00    -0.200 F 
ATOM     76  C   UNL A   1      44.422  21.725  25.029  1.00  0.00     0.200 A 
ATOM     77  F   UNL A   1      45.640  23.469  24.025  1.00  0.00    -0.200 F 
ATOM     78  F   UNL A   1      44.920  20.846  24.151  1.00  0.00    -0.200 F 
ENDBRANCH  54  68
BRANCH  55  79
ATOM     79  C   UNL A   1      40.812  30.394  33.247  1.00  0.00     0.064 A 
ATOM     80  C   UNL A   1      40.585  31.770  33.440  1.00  0.00     0.173 A 
ATOM     81  C   UNL A   1      39.704  29.541  33.294  1.00  0.00     0.173 A 
ATOM     82  F   UNL A   1      41.614  32.632  33.400  1.00  0.00    -0.203 F 
ATOM     83  C   UNL A   1      39.294  32.282  33.556  1.00  0.00     0.198 A 
ATOM     84  C   UNL A   1      38.412  30.057  33.425  1.00  0.00     0.198 A 
ATOM     85  F   UNL A   1      39.852  28.224  33.096  1.00  0.00    -0.203 F 
ATOM     86  F   UNL A   1      39.104  33.607  33.622  1.00  0.00    -0.200 F 
ATOM     87  C   UNL A   1      38.208  31.426  33.521  1.00  0.00     0.200 A 
ATOM     88  F   UNL A   1      37.357  29.233  33.355  1.00  0.00    -0.200 F 
ATOM     89  F   UNL A   1      36.962  31.921  33.532  1.00  0.00    -0.200 F 
ENDBRANCH  55  79
BRANCH  67  90
ATOM     90  C   UNL A   1      45.139  24.616  33.360  1.00  0.00     0.064 A 
ATOM     91  C   UNL A   1      44.446  23.420  33.613  1.00  0.00     0.173 A 
ATOM     92  C   UNL A   1      46.506  24.611  33.738  1.00  0.00     0.173 A 
ATOM     93  F   UNL A   1      43.186  23.239  33.196  1.00  0.00    -0.203 F 
ATOM     94  C   UNL A   1      45.051  22.331  34.251  1.00  0.00     0.198 A 
ATOM     95  C   UNL A   1      47.121  23.502  34.318  1.00  0.00     0.198 A 
ATOM     96  F   UNL A   1      47.297  25.672  33.528  1.00  0.00    -0.203 F 
ATOM     97  F   UNL A   1      44.330  21.229  34.506  1.00  0.00    -0.200 F 
ATOM     98  C   UNL A   1      46.389  22.366  34.592  1.00  0.00     0.200 A 
ATOM     99  F   UNL A   1      48.434  23.535  34.589  1.00  0.00    -0.200 F 
ATOM    100  F   UNL A   1      46.975  21.303  35.156  1.00  0.00    -0.200 F 
ENDBRANCH  67  90
ENDBRANCH  41  42
ENDBRANCH  33  36
ENDBRANCH  31  32
ENDBRANCH  30  31
ENDBRANCH   1  30
TORSDOF 13
ENDMDL
MODEL 2
REMARK VINA RESULT:     -14.8      3.644     10.058
REMARK SMILES Cc1cccc(-n2ncc(C(=O)Nc3cccc(C(=O)NCCCNC(=O)c4ccc(-c5c6nc(c(-c7c(F)c(F)c(F)c(F)c7F)c7ccc([nH]7)c(-c7c(F)c(F)c(F)c(F)c7F)c7nc(c(-c8c(F)c(F)c(F)c(F)c8F)c8ccc5[nH]8)C=C7)C=C6)cc4)c3C)c2C)c1
REMARK SMILES IDX 22 1 21 2 19 3 20 4 18 6 14 7 15 8 91 9 16 10 92 11 17 12
REMARK SMILES IDX 13 13 11 14 12 15 10 17 7 18 8 19 93 20 9 21 94 22 6 23 1 24
REMARK SMILES IDX 2 25 3 26 95 27 4 28 5 29 23 30 24 31 25 32 26 33 27 35
REMARK SMILES IDX 28 36 29 37 90 38 30 39 89 40 31 41 32 42 33 43 83 44 34 45
REMARK SMILES IDX 88 46 82 47 84 48 35 49 87 50 81 51 80 52 36 54 68 55 48 56
REMARK SMILES IDX 67 57 49 58 52 59 66 60 85 61 50 62 51 63 65 65 86 66 53 67
REMARK SMILES IDX 37 68 38 69 46 70 39 71 40 72 44 73 47 74 41 75 42 76 45 77
REMARK SMILES IDX 43 78 69 79 70 80 78 81 71 82 72 83 76 84 79 85 73 86 74 87
REMARK SMILES IDX 77 88 75 89 54 90 55 91 63 92 56 93 57 94 61 95 64 96 58 97
REMARK SMILES IDX 59 98 62 99 60 100
REMARK H PARENT 21 5 13 16 25 34 84 53 52 64
REMARK Flexibility Score: inf
ROOT
ATOM      1  C   UNL A   1      37.119  21.039  25.207  1.00  0.00     0.118 C 
ENDROOT
BRANCH   1   2
ATOM      2  N   UNL A   1      36.315  21.830  26.127  1.00  0.00    -0.352 N 
ATOM      3  C   UNL A   1      35.048  22.371  26.073  1.00  0.00     0.251 C 
ATOM      4  O   UNL A   1      34.722  23.011  27.071  1.00  0.00    -0.269 OA
ATOM      5  H   UNL A   1      36.778  22.022  26.975  1.00  0.00     0.163 HD
BRANCH   3   6
ATOM      6  C   UNL A   1      34.087  22.195  24.918  1.00  0.00     0.044 A 
ATOM      7  C   UNL A   1      33.076  22.945  22.830  1.00  0.00     0.045 A 
ATOM      8  C   UNL A   1      32.091  21.957  22.929  1.00  0.00     0.026 A 
ATOM      9  C   UNL A   1      34.148  23.015  23.756  1.00  0.00    -0.015 A 
ATOM     10  C   UNL A   1      32.114  21.069  23.985  1.00  0.00     0.003 A 
ATOM     11  C   UNL A   1      35.227  24.049  23.530  1.00  0.00     0.047 C 
ATOM     12  C   UNL A   1      33.090  21.206  24.967  1.00  0.00     0.014 A 
BRANCH   7  13
ATOM     13  N   UNL A   1      32.960  23.898  21.805  1.00  0.00    -0.322 N 
ATOM     14  C   UNL A   1      32.351  25.135  21.844  1.00  0.00     0.259 C 
ATOM     15  O   UNL A   1      32.051  25.664  20.774  1.00  0.00    -0.269 OA
ATOM     16  H   UNL A   1      33.370  23.650  20.944  1.00  0.00     0.170 HD
BRANCH  14  17
ATOM     17  C   UNL A   1      32.191  25.833  23.123  1.00  0.00     0.081 A 
ATOM     18  N   UNL A   1      32.435  27.270  24.819  1.00  0.00    -0.237 N 
ATOM     19  N   UNL A   1      31.606  26.305  25.289  1.00  0.00    -0.175 NA
ATOM     20  C   UNL A   1      32.907  26.950  23.551  1.00  0.00     0.054 A 
ATOM     21  C   UNL A   1      31.446  25.472  24.267  1.00  0.00     0.149 A 
ATOM     22  C   UNL A   1      34.066  27.611  22.887  1.00  0.00     0.068 C 
BRANCH  18  23
ATOM     23  C   UNL A   1      32.738  28.383  25.649  1.00  0.00     0.065 A 
ATOM     24  C   UNL A   1      31.203  31.786  26.418  1.00  0.00     0.044 C 
ATOM     25  C   UNL A   1      32.134  30.610  26.428  1.00  0.00    -0.049 A 
ATOM     26  C   UNL A   1      33.203  30.565  27.330  1.00  0.00     0.003 A 
ATOM     27  C   UNL A   1      31.925  29.526  25.567  1.00  0.00     0.031 A 
ATOM     28  C   UNL A   1      34.049  29.455  27.373  1.00  0.00     0.002 A 
ATOM     29  C   UNL A   1      33.817  28.361  26.537  1.00  0.00     0.028 A 
ENDBRANCH  18  23
ENDBRANCH  14  17
ENDBRANCH   7  13
ENDBRANCH   3   6
ENDBRANCH   1   2
BRANCH   1  30
ATOM     30  C   UNL A   1      38.611  21.210  25.495  1.00  0.00     0.042 C 
BRANCH  30  31
ATOM     31  C   UNL A   1      38.999  22.577  26.032  1.00  0.00     0.118 C 
BRANCH  31  32
ATOM     32  N   UNL A   1      40.434  22.722  26.262  1.00  0.00    -0.352 N 
ATOM     33  C   UNL A   1      41.145  23.852  26.632  1.00  0.00     0.251 C 
ATOM     34  H   UNL A   1      40.969  21.906  26.138  1.00  0.00     0.163 HD
ATOM     35  O   UNL A   1      42.349  23.805  26.814  1.00  0.00    -0.269 OA
BRANCH  33  36
ATOM     36  C   UNL A   1      40.385  25.084  26.942  1.00  0.00     0.039 A 
ATOM     37  C   UNL A   1      40.709  26.237  26.221  1.00  0.00     0.014 A 
ATOM     38  C   UNL A   1      39.613  25.155  28.097  1.00  0.00     0.014 A 
ATOM     39  C   UNL A   1      40.497  27.478  26.811  1.00  0.00     0.010 A 
ATOM     40  C   UNL A   1      39.502  26.376  28.730  1.00  0.00     0.010 A 
ATOM     41  C   UNL A   1      40.025  27.524  28.121  1.00  0.00    -0.014 A 
BRANCH  41  42
ATOM     42  C   UNL A   1      40.190  28.689  28.982  1.00  0.00     0.031 A 
ATOM     43  C   UNL A   1      39.151  29.737  29.035  1.00  0.00     0.074 A 
ATOM     44  C   UNL A   1      41.256  28.748  29.813  1.00  0.00     0.049 A 
ATOM     45  N   UNL A   1      39.325  30.910  29.543  1.00  0.00    -0.248 NA
ATOM     46  C   UNL A   1      37.838  29.569  28.427  1.00  0.00     0.031 C 
ATOM     47  C   UNL A   1      41.434  29.621  30.970  1.00  0.00     0.029 A 
ATOM     48  N   UNL A   1      42.516  28.145  29.635  1.00  0.00    -0.354 N 
ATOM     49  C   UNL A   1      38.103  31.539  29.592  1.00  0.00     0.074 A 
ATOM     50  C   UNL A   1      37.245  30.713  28.779  1.00  0.00     0.031 C 
ATOM     51  C   UNL A   1      42.746  29.743  31.224  1.00  0.00     0.029 A 
ATOM     52  C   UNL A   1      43.449  29.081  30.141  1.00  0.00     0.049 A 
ATOM     53  H   UNL A   1      42.706  27.262  29.243  1.00  0.00     0.167 HD
ATOM     54  C   UNL A   1      37.954  32.607  30.431  1.00  0.00     0.037 A 
ATOM     55  C   UNL A   1      44.380  29.678  29.342  1.00  0.00     0.037 A 
ATOM     56  C   UNL A   1      39.261  33.067  30.913  1.00  0.00     0.049 A 
ATOM     57  C   UNL A   1      44.325  31.186  29.350  1.00  0.00     0.074 A 
ATOM     58  C   UNL A   1      39.939  32.927  32.113  1.00  0.00     0.029 A 
ATOM     59  N   UNL A   1      40.188  33.553  29.994  1.00  0.00    -0.354 N 
ATOM     60  N   UNL A   1      43.275  31.873  29.705  1.00  0.00    -0.248 NA
ATOM     61  C   UNL A   1      45.432  32.036  28.924  1.00  0.00     0.031 C 
ATOM     62  C   UNL A   1      41.295  33.289  31.897  1.00  0.00     0.029 A 
ATOM     63  C   UNL A   1      41.436  33.669  30.573  1.00  0.00     0.049 A 
ATOM     64  H   UNL A   1      39.982  33.784  29.060  1.00  0.00     0.167 HD
ATOM     65  C   UNL A   1      43.529  33.212  29.548  1.00  0.00     0.074 A 
ATOM     66  C   UNL A   1      44.902  33.262  29.078  1.00  0.00     0.031 C 
ATOM     67  C   UNL A   1      42.575  34.155  29.807  1.00  0.00     0.037 A 
BRANCH  54  68
ATOM     68  C   UNL A   1      36.636  33.085  31.032  1.00  0.00     0.064 A 
ATOM     69  C   UNL A   1      35.746  33.875  30.262  1.00  0.00     0.173 A 
ATOM     70  C   UNL A   1      36.223  32.909  32.369  1.00  0.00     0.173 A 
ATOM     71  F   UNL A   1      35.942  34.077  28.953  1.00  0.00    -0.203 F 
ATOM     72  C   UNL A   1      34.617  34.502  30.807  1.00  0.00     0.198 A 
ATOM     73  C   UNL A   1      35.102  33.543  32.916  1.00  0.00     0.198 A 
ATOM     74  F   UNL A   1      36.856  32.098  33.213  1.00  0.00    -0.203 F 
ATOM     75  F   UNL A   1      33.840  35.267  30.028  1.00  0.00    -0.200 F 
ATOM     76  C   UNL A   1      34.306  34.354  32.141  1.00  0.00     0.200 A 
ATOM     77  F   UNL A   1      34.809  33.359  34.212  1.00  0.00    -0.200 F 
ATOM     78  F   UNL A   1      33.244  34.970  32.672  1.00  0.00    -0.200 F 
ENDBRANCH  54  68
BRANCH  55  79
ATOM     79  C   UNL A   1      44.780  28.851  28.175  1.00  0.00     0.064 A 
ATOM     80  C   UNL A   1      45.678  27.787  28.383  1.00  0.00     0.173 A 
ATOM     81  C   UNL A   1      44.039  28.851  26.988  1.00  0.00     0.173 A 
ATOM     82  F   UNL A   1      46.410  27.737  29.508  1.00  0.00    -0.203 F 
ATOM     83  C   UNL A   1      45.744  26.711  27.500  1.00  0.00     0.198 A 
ATOM     84  C   UNL A   1      44.119  27.778  26.097  1.00  0.00     0.198 A 
ATOM     85  F   UNL A   1      43.152  29.825  26.742  1.00  0.00    -0.203 F 
ATOM     86  F   UNL A   1      46.523  25.658  27.786  1.00  0.00    -0.200 F 
ATOM     87  C   UNL A   1      44.944  26.696  26.371  1.00  0.00     0.200 A 
ATOM     88  F   UNL A   1      43.318  27.744  25.023  1.00  0.00    -0.200 F 
ATOM     89  F   UNL A   1      44.930  25.620  25.572  1.00  0.00    -0.200 F 
ENDBRANCH  55  79
BRANCH  67  90
ATOM     90  C   UNL A   1      42.637  35.626  29.450  1.00  0.00     0.064 A 
ATOM     91  C   UNL A   1      43.408  36.577  30.138  1.00  0.00     0.173 A 
ATOM     92  C   UNL A   1      42.009  36.101  28.270  1.00  0.00     0.173 A 
ATOM     93  F   UNL A   1      44.156  36.240  31.197  1.00  0.00    -0.203 F 
ATOM     94  C   UNL A   1      43.493  37.910  29.719  1.00  0.00     0.198 A 
ATOM     95  C   UNL A   1      42.145  37.414  27.822  1.00  0.00     0.198 A 
ATOM     96  F   UNL A   1      41.267  35.296  27.495  1.00  0.00    -0.203 F 
ATOM     97  F   UNL A   1      44.210  38.786  30.438  1.00  0.00    -0.200 F 
ATOM     98  C   UNL A   1      42.874  38.325  28.557  1.00  0.00     0.200 A 
ATOM     99  F   UNL A   1      41.584  37.784  26.662  1.00  0.00    -0.200 F 
ATOM    100  F   UNL A   1      42.999  39.590  28.133  1.00  0.00    -0.200 F 
ENDBRANCH  67  90
ENDBRANCH  41  42
ENDBRANCH  33  36
ENDBRANCH  31  32
ENDBRANCH  30  31
ENDBRANCH   1  30
TORSDOF 13
ENDMDL
MODEL 3
REMARK VINA RESULT:     -14.1      1.264      2.003
REMARK SMILES Cc1cccc(-n2ncc(C(=O)Nc3cccc(C(=O)NCCCNC(=O)c4ccc(-c5c6nc(c(-c7c(F)c(F)c(F)c(F)c7F)c7ccc([nH]7)c(-c7c(F)c(F)c(F)c(F)c7F)c7nc(c(-c8c(F)c(F)c(F)c(F)c8F)c8ccc5[nH]8)C=C7)C=C6)cc4)c3C)c2C)c1
REMARK SMILES IDX 22 1 21 2 19 3 20 4 18 6 14 7 15 8 91 9 16 10 92 11 17 12
REMARK SMILES IDX 13 13 11 14 12 15 10 17 7 18 8 19 93 20 9 21 94 22 6 23 1 24
REMARK SMILES IDX 2 25 3 26 95 27 4 28 5 29 23 30 24 31 25 32 26 33 27 35
REMARK SMILES IDX 28 36 29 37 90 38 30 39 89 40 31 41 32 42 33 43 83 44 34 45
REMARK SMILES IDX 88 46 82 47 84 48 35 49 87 50 81 51 80 52 36 54 68 55 48 56
REMARK SMILES IDX 67 57 49 58 52 59 66 60 85 61 50 62 51 63 65 65 86 66 53 67
REMARK SMILES IDX 37 68 38 69 46 70 39 71 40 72 44 73 47 74 41 75 42 76 45 77
REMARK SMILES IDX 43 78 69 79 70 80 78 81 71 82 72 83 76 84 79 85 73 86 74 87
REMARK SMILES IDX 77 88 75 89 54 90 55 91 63 92 56 93 57 94 61 95 64 96 58 97
REMARK SMILES IDX 59 98 62 99 60 100
REMARK H PARENT 21 5 13 16 25 34 84 53 52 64
REMARK Flexibility Score: inf
ROOT
ATOM      1  C   UNL A   1      31.871  30.039  26.411  1.00  0.00     0.118 C 
ENDROOT
BRANCH   1   2
ATOM      2  N   UNL A   1      32.101  29.815  24.991  1.00  0.00    -0.352 N 
ATOM      3  C   UNL A   1      32.530  28.737  24.247  1.00  0.00     0.251 C 
ATOM      4  O   UNL A   1      32.619  28.953  23.039  1.00  0.00    -0.269 OA
ATOM      5  H   UNL A   1      31.908  30.610  24.441  1.00  0.00     0.163 HD
BRANCH   3   6
ATOM      6  C   UNL A   1      32.849  27.373  24.816  1.00  0.00     0.044 A 
ATOM      7  C   UNL A   1      32.278  25.416  26.154  1.00  0.00     0.045 A 
ATOM      8  C   UNL A   1      33.595  24.952  26.072  1.00  0.00     0.026 A 
ATOM      9  C   UNL A   1      31.856  26.569  25.443  1.00  0.00    -0.015 A 
ATOM     10  C   UNL A   1      34.528  25.661  25.345  1.00  0.00     0.003 A 
ATOM     11  C   UNL A   1      30.395  26.954  25.503  1.00  0.00     0.047 C 
ATOM     12  C   UNL A   1      34.154  26.860  24.745  1.00  0.00     0.014 A 
BRANCH   7  13
ATOM     13  N   UNL A   1      31.383  24.731  26.991  1.00  0.00    -0.322 N 
ATOM     14  C   UNL A   1      30.793  23.499  26.798  1.00  0.00     0.259 C 
ATOM     15  O   UNL A   1      29.791  23.229  27.459  1.00  0.00    -0.269 OA
ATOM     16  H   UNL A   1      31.146  25.191  27.829  1.00  0.00     0.170 HD
BRANCH  14  17
ATOM     17  C   UNL A   1      31.431  22.511  25.922  1.00  0.00     0.081 A 
ATOM     18  N   UNL A   1      32.740  20.874  25.143  1.00  0.00    -0.237 N 
ATOM     19  N   UNL A   1      32.135  21.394  24.047  1.00  0.00    -0.175 NA
ATOM     20  C   UNL A   1      32.430  21.609  26.282  1.00  0.00     0.054 A 
ATOM     21  C   UNL A   1      31.339  22.346  24.523  1.00  0.00     0.149 A 
ATOM     22  C   UNL A   1      33.165  21.517  27.576  1.00  0.00     0.068 C 
BRANCH  18  23
ATOM     23  C   UNL A   1      33.599  19.753  24.990  1.00  0.00     0.065 A 
ATOM     24  C   UNL A   1      33.224  15.971  24.708  1.00  0.00     0.044 C 
ATOM     25  C   UNL A   1      33.835  17.338  24.784  1.00  0.00    -0.049 A 
ATOM     26  C   UNL A   1      35.210  17.507  24.580  1.00  0.00     0.003 A 
ATOM     27  C   UNL A   1      33.039  18.465  25.020  1.00  0.00     0.031 A 
ATOM     28  C   UNL A   1      35.779  18.782  24.608  1.00  0.00     0.002 A 
ATOM     29  C   UNL A   1      34.977  19.906  24.809  1.00  0.00     0.028 A 
ENDBRANCH  18  23
ENDBRANCH  14  17
ENDBRANCH   7  13
ENDBRANCH   3   6
ENDBRANCH   1   2
BRANCH   1  30
ATOM     30  C   UNL A   1      32.788  31.138  26.950  1.00  0.00     0.042 C 
BRANCH  30  31
ATOM     31  C   UNL A   1      34.154  30.656  27.404  1.00  0.00     0.118 C 
BRANCH  31  32
ATOM     32  N   UNL A   1      34.820  31.581  28.316  1.00  0.00    -0.352 N 
ATOM     33  C   UNL A   1      35.983  31.397  29.046  1.00  0.00     0.251 C 
ATOM     34  H   UNL A   1      34.384  32.456  28.429  1.00  0.00     0.163 HD
ATOM     35  O   UNL A   1      36.432  32.285  29.750  1.00  0.00    -0.269 OA
BRANCH  33  36
ATOM     36  C   UNL A   1      36.747  30.146  28.837  1.00  0.00     0.039 A 
ATOM     37  C   UNL A   1      36.886  29.287  29.932  1.00  0.00     0.014 A 
ATOM     38  C   UNL A   1      37.536  29.992  27.702  1.00  0.00     0.014 A 
ATOM     39  C   UNL A   1      38.001  28.460  29.997  1.00  0.00     0.010 A 
ATOM     40  C   UNL A   1      38.697  29.256  27.813  1.00  0.00     0.010 A 
ATOM     41  C   UNL A   1      38.967  28.560  28.998  1.00  0.00    -0.014 A 
BRANCH  41  42
ATOM     42  C   UNL A   1      40.343  28.108  29.178  1.00  0.00     0.031 A 
ATOM     43  C   UNL A   1      40.756  26.763  28.731  1.00  0.00     0.074 A 
ATOM     44  C   UNL A   1      41.262  28.974  29.664  1.00  0.00     0.049 A 
ATOM     45  N   UNL A   1      41.851  26.183  29.086  1.00  0.00    -0.248 NA
ATOM     46  C   UNL A   1      39.905  25.918  27.905  1.00  0.00     0.031 C 
ATOM     47  C   UNL A   1      42.716  28.853  29.602  1.00  0.00     0.029 A 
ATOM     48  N   UNL A   1      41.040  30.072  30.517  1.00  0.00    -0.354 N 
ATOM     49  C   UNL A   1      41.991  25.040  28.333  1.00  0.00     0.074 A 
ATOM     50  C   UNL A   1      40.704  24.864  27.710  1.00  0.00     0.031 C 
ATOM     51  C   UNL A   1      43.255  29.602  30.576  1.00  0.00     0.029 A 
ATOM     52  C   UNL A   1      42.156  30.098  31.385  1.00  0.00     0.049 A 
ATOM     53  H   UNL A   1      40.273  30.689  30.510  1.00  0.00     0.167 HD
ATOM     54  C   UNL A   1      43.230  24.472  28.236  1.00  0.00     0.037 A 
ATOM     55  C   UNL A   1      42.032  29.898  32.729  1.00  0.00     0.037 A 
ATOM     56  C   UNL A   1      44.140  25.054  29.230  1.00  0.00     0.049 A 
ATOM     57  C   UNL A   1      42.865  28.758  33.264  1.00  0.00     0.074 A 
ATOM     58  C   UNL A   1      45.169  25.979  29.157  1.00  0.00     0.029 A 
ATOM     59  N   UNL A   1      43.857  24.890  30.583  1.00  0.00    -0.354 N 
ATOM     60  N   UNL A   1      43.318  27.782  32.528  1.00  0.00    -0.248 NA
ATOM     61  C   UNL A   1      43.217  28.608  34.672  1.00  0.00     0.031 C 
ATOM     62  C   UNL A   1      45.471  26.407  30.477  1.00  0.00     0.029 A 
ATOM     63  C   UNL A   1      44.642  25.726  31.352  1.00  0.00     0.049 A 
ATOM     64  H   UNL A   1      43.189  24.263  30.944  1.00  0.00     0.167 HD
ATOM     65  C   UNL A   1      43.986  26.883  33.320  1.00  0.00     0.074 A 
ATOM     66  C   UNL A   1      43.913  27.458  34.651  1.00  0.00     0.031 C 
ATOM     67  C   UNL A   1      44.524  25.739  32.804  1.00  0.00     0.037 A 
BRANCH  54  68
ATOM     68  C   UNL A   1      43.713  23.587  27.091  1.00  0.00     0.064 A 
ATOM     69  C   UNL A   1      44.538  24.127  26.073  1.00  0.00     0.173 A 
ATOM     70  C   UNL A   1      43.331  22.250  26.859  1.00  0.00     0.173 A 
ATOM     71  F   UNL A   1      45.059  25.357  26.170  1.00  0.00    -0.203 F 
ATOM     72  C   UNL A   1      44.859  23.427  24.901  1.00  0.00     0.198 A 
ATOM     73  C   UNL A   1      43.642  21.554  25.685  1.00  0.00     0.198 A 
ATOM     74  F   UNL A   1      42.662  21.530  27.757  1.00  0.00    -0.203 F 
ATOM     75  F   UNL A   1      45.615  24.013  23.962  1.00  0.00    -0.200 F 
ATOM     76  C   UNL A   1      44.393  22.147  24.697  1.00  0.00     0.200 A 
ATOM     77  F   UNL A   1      43.196  20.300  25.526  1.00  0.00    -0.200 F 
ATOM     78  F   UNL A   1      44.675  21.484  23.570  1.00  0.00    -0.200 F 
ENDBRANCH  54  68
BRANCH  55  79
ATOM     79  C   UNL A   1      40.713  30.312  33.272  1.00  0.00     0.064 A 
ATOM     80  C   UNL A   1      40.456  31.686  33.437  1.00  0.00     0.173 A 
ATOM     81  C   UNL A   1      39.616  29.442  33.275  1.00  0.00     0.173 A 
ATOM     82  F   UNL A   1      41.473  32.563  33.437  1.00  0.00    -0.203 F 
ATOM     83  C   UNL A   1      39.154  32.180  33.482  1.00  0.00     0.198 A 
ATOM     84  C   UNL A   1      38.312  29.940  33.335  1.00  0.00     0.198 A 
ATOM     85  F   UNL A   1      39.793  28.126  33.101  1.00  0.00    -0.203 F 
ATOM     86  F   UNL A   1      38.942  33.503  33.522  1.00  0.00    -0.200 F 
ATOM     87  C   UNL A   1      38.083  31.307  33.404  1.00  0.00     0.200 A 
ATOM     88  F   UNL A   1      37.274  29.100  33.224  1.00  0.00    -0.200 F 
ATOM     89  F   UNL A   1      36.831  31.783  33.348  1.00  0.00    -0.200 F 
ENDBRANCH  55  79
BRANCH  67  90
ATOM     90  C   UNL A   1      45.064  24.560  33.587  1.00  0.00     0.064 A 
ATOM     91  C   UNL A   1      44.361  23.364  33.807  1.00  0.00     0.173 A 
ATOM     92  C   UNL A   1      46.413  24.553  34.027  1.00  0.00     0.173 A 
ATOM     93  F   UNL A   1      43.120  23.184  33.333  1.00  0.00    -0.203 F 
ATOM     94  C   UNL A   1      44.935  22.274  34.469  1.00  0.00     0.198 A 
ATOM     95  C   UNL A   1      47.001  23.443  34.632  1.00  0.00     0.198 A 
ATOM     96  F   UNL A   1      47.214  25.614  33.855  1.00  0.00    -0.203 F 
ATOM     97  F   UNL A   1      44.203  21.172  34.689  1.00  0.00    -0.200 F 
ATOM     98  C   UNL A   1      46.256  22.307  34.870  1.00  0.00     0.200 A 
ATOM     99  F   UNL A   1      48.300  23.474  34.962  1.00  0.00    -0.200 F 
ATOM    100  F   UNL A   1      46.817  21.242  35.458  1.00  0.00    -0.200 F 
ENDBRANCH  67  90
ENDBRANCH  41  42
ENDBRANCH  33  36
ENDBRANCH  31  32
ENDBRANCH  30  31
ENDBRANCH   1  30
TORSDOF 13
ENDMDL
