MODEL 1
REMARK VINA RESULT:     -13.3      0.000      0.000
REMARK SMILES CC(C)CCc1cc2c(cc1Cl)C=C(C(=O)NCCCNC(=O)c1ccc(-c3c4nc(c(-c5c(F)c(F)c(F)c(F)c5F)c5ccc([nH]5)c(-c5c(F)c(F)c(F)c(F)c5F)c5nc(c(-c6c(F)c(F)c(F)c(F)c6F)c6ccc3[nH]6)C=C5)C=C4)cc1)[C@@H](C(F)(F)F)O2
REMARK SMILES IDX 18 1 17 2 15 3 16 4 14 6 6 7 7 8 11 9 8 10 10 11 12 12 9 13
REMARK SMILES IDX 92 14 13 15 87 16 5 17 4 18 2 19 1 20 3 21 88 22 89 23 90 24
REMARK SMILES IDX 91 25 19 26 20 27 21 28 22 29 23 31 24 32 25 33 86 34 26 35
REMARK SMILES IDX 85 36 27 37 28 38 29 39 79 40 30 41 84 42 78 43 80 44 31 45
REMARK SMILES IDX 83 46 77 47 76 48 32 50 64 51 44 52 63 53 45 54 48 55 62 56
REMARK SMILES IDX 81 57 46 58 47 59 61 61 82 62 49 63 33 64 34 65 42 66 35 67
REMARK SMILES IDX 36 68 40 69 43 70 37 71 38 72 41 73 39 74 65 75 66 76 74 77
REMARK SMILES IDX 67 78 68 79 72 80 75 81 69 82 70 83 73 84 71 85 50 86 51 87
REMARK SMILES IDX 59 88 52 89 53 90 57 91 60 92 54 93 55 94 58 95 56 96
REMARK H PARENT 17 5 21 30 80 49 48 60
REMARK Flexibility Score: inf
ROOT
ATOM      1  C   UNL A   1      31.707  30.650  26.428  1.00  0.00     0.118 C 
ENDROOT
BRANCH   1   2
ATOM      2  N   UNL A   1      31.437  30.242  25.056  1.00  0.00    -0.352 N 
ATOM      3  C   UNL A   1      31.445  29.096  24.336  1.00  0.00     0.251 C 
ATOM      4  O   UNL A   1      31.148  29.220  23.144  1.00  0.00    -0.270 OA
ATOM      5  H   UNL A   1      31.178  31.011  24.499  1.00  0.00     0.163 HD
BRANCH   3   6
ATOM      6  C   UNL A   1      31.784  27.747  24.876  1.00  0.00     0.067 C 
ATOM      7  C   UNL A   1      34.150  23.514  26.307  1.00  0.00    -0.026 A 
ATOM      8  C   UNL A   1      32.887  24.079  26.506  1.00  0.00     0.052 A 
ATOM      9  C   UNL A   1      35.035  24.196  25.455  1.00  0.00     0.045 A 
ATOM     10  C   UNL A   1      32.558  25.321  25.986  1.00  0.00     0.128 A 
ATOM     11  C   UNL A   1      34.671  25.422  24.869  1.00  0.00     0.032 A 
ATOM     12  Cl  UNL A   1      36.607  23.581  25.083  1.00  0.00    -0.084 Cl
ATOM     13  C   UNL A   1      33.432  26.003  25.151  1.00  0.00     0.019 A 
ATOM     14  O   UNL A   1      31.375  25.832  26.422  1.00  0.00    -0.475 OA
ATOM     15  C   UNL A   1      33.037  27.310  24.642  1.00  0.00     0.025 C 
ATOM     16  C   UNL A   1      30.803  26.897  25.632  1.00  0.00     0.314 C 
BRANCH   7  17
ATOM     17  C   UNL A   1      34.469  22.229  27.041  1.00  0.00     0.037 C 
BRANCH  17  18
ATOM     18  C   UNL A   1      33.503  21.061  26.736  1.00  0.00     0.008 C 
BRANCH  18  19
ATOM     19  C   UNL A   1      33.676  20.321  25.387  1.00  0.00    -0.017 C 
ATOM     20  C   UNL A   1      32.806  20.901  24.269  1.00  0.00     0.007 C 
ATOM     21  C   UNL A   1      35.142  20.339  24.947  1.00  0.00     0.007 C 
ENDBRANCH  18  19
ENDBRANCH  17  18
ENDBRANCH   7  17
BRANCH  16  22
ATOM     22  C   UNL A   1      29.704  26.284  24.747  1.00  0.00     0.429 C 
ATOM     23  F   UNL A   1      28.792  25.639  25.519  1.00  0.00    -0.167 F 
ATOM     24  F   UNL A   1      29.020  27.210  24.038  1.00  0.00    -0.167 F 
ATOM     25  F   UNL A   1      30.191  25.387  23.861  1.00  0.00    -0.167 F 
ENDBRANCH  16  22
ENDBRANCH   3   6
ENDBRANCH   1   2
BRANCH   1  26
ATOM     26  C   UNL A   1      31.520  32.146  26.626  1.00  0.00     0.042 C 
BRANCH  26  27
ATOM     27  C   UNL A   1      32.724  32.790  27.300  1.00  0.00     0.118 C 
BRANCH  27  28
ATOM     28  N   UNL A   1      32.478  34.189  27.647  1.00  0.00    -0.352 N 
ATOM     29  C   UNL A   1      33.025  34.976  28.631  1.00  0.00     0.251 C 
ATOM     30  H   UNL A   1      31.811  34.642  27.081  1.00  0.00     0.163 HD
ATOM     31  O   UNL A   1      32.519  36.062  28.901  1.00  0.00    -0.269 OA
BRANCH  29  32
ATOM     32  C   UNL A   1      34.207  34.507  29.381  1.00  0.00     0.039 A 
ATOM     33  C   UNL A   1      35.486  34.693  28.861  1.00  0.00     0.014 A 
ATOM     34  C   UNL A   1      34.036  33.869  30.613  1.00  0.00     0.014 A 
ATOM     35  C   UNL A   1      36.566  34.058  29.456  1.00  0.00     0.010 A 
ATOM     36  C   UNL A   1      35.145  33.333  31.275  1.00  0.00     0.010 A 
ATOM     37  C   UNL A   1      36.411  33.372  30.671  1.00  0.00    -0.014 A 
BRANCH  37  38
ATOM     38  C   UNL A   1      37.594  32.702  31.269  1.00  0.00     0.031 A 
ATOM     39  C   UNL A   1      38.040  33.028  32.669  1.00  0.00     0.074 A 
ATOM     40  C   UNL A   1      38.211  31.729  30.571  1.00  0.00     0.049 A 
ATOM     41  N   UNL A   1      39.017  32.503  33.365  1.00  0.00    -0.248 NA
ATOM     42  C   UNL A   1      37.299  34.081  33.382  1.00  0.00     0.031 C 
ATOM     43  C   UNL A   1      37.860  31.321  29.209  1.00  0.00     0.029 A 
ATOM     44  N   UNL A   1      39.228  30.876  30.920  1.00  0.00    -0.354 N 
ATOM     45  C   UNL A   1      39.025  33.176  34.579  1.00  0.00     0.074 A 
ATOM     46  C   UNL A   1      37.972  34.167  34.521  1.00  0.00     0.031 C 
ATOM     47  C   UNL A   1      38.587  30.248  28.869  1.00  0.00     0.029 A 
ATOM     48  C   UNL A   1      39.510  29.939  29.956  1.00  0.00     0.049 A 
ATOM     49  H   UNL A   1      39.708  30.931  31.777  1.00  0.00     0.167 HD
ATOM     50  C   UNL A   1      39.831  32.977  35.648  1.00  0.00     0.037 A 
ATOM     51  C   UNL A   1      40.416  28.944  29.944  1.00  0.00     0.037 A 
ATOM     52  C   UNL A   1      40.850  31.961  35.716  1.00  0.00     0.049 A 
ATOM     53  C   UNL A   1      41.312  28.762  31.133  1.00  0.00     0.074 A 
ATOM     54  C   UNL A   1      41.696  31.660  36.768  1.00  0.00     0.029 A 
ATOM     55  N   UNL A   1      41.154  31.079  34.690  1.00  0.00    -0.354 N 
ATOM     56  N   UNL A   1      41.311  29.409  32.273  1.00  0.00    -0.248 NA
ATOM     57  C   UNL A   1      42.347  27.725  31.029  1.00  0.00     0.031 C 
ATOM     58  C   UNL A   1      42.540  30.621  36.365  1.00  0.00     0.029 A 
ATOM     59  C   UNL A   1      42.192  30.247  35.077  1.00  0.00     0.049 A 
ATOM     60  H   UNL A   1      40.700  31.048  33.817  1.00  0.00     0.167 HD
ATOM     61  C   UNL A   1      42.342  28.864  33.021  1.00  0.00     0.074 A 
ATOM     62  C   UNL A   1      42.931  27.811  32.217  1.00  0.00     0.031 C 
ATOM     63  C   UNL A   1      42.769  29.212  34.259  1.00  0.00     0.037 A 
BRANCH  50  64
ATOM     64  C   UNL A   1      39.656  33.875  36.837  1.00  0.00     0.064 A 
ATOM     65  C   UNL A   1      40.242  35.148  36.891  1.00  0.00     0.173 A 
ATOM     66  C   UNL A   1      38.841  33.481  37.910  1.00  0.00     0.173 A 
ATOM     67  F   UNL A   1      41.041  35.566  35.898  1.00  0.00    -0.203 F 
ATOM     68  C   UNL A   1      40.028  35.988  37.982  1.00  0.00     0.198 A 
ATOM     69  C   UNL A   1      38.610  34.333  38.986  1.00  0.00     0.198 A 
ATOM     70  F   UNL A   1      38.254  32.274  37.904  1.00  0.00    -0.203 F 
ATOM     71  F   UNL A   1      40.624  37.188  38.027  1.00  0.00    -0.200 F 
ATOM     72  C   UNL A   1      39.206  35.584  39.023  1.00  0.00     0.200 A 
ATOM     73  F   UNL A   1      37.805  33.945  39.986  1.00  0.00    -0.200 F 
ATOM     74  F   UNL A   1      38.991  36.400  40.064  1.00  0.00    -0.200 F 
ENDBRANCH  50  64
BRANCH  51  75
ATOM     75  C   UNL A   1      40.508  28.056  28.758  1.00  0.00     0.064 A 
ATOM     76  C   UNL A   1      39.795  26.852  28.705  1.00  0.00     0.173 A 
ATOM     77  C   UNL A   1      41.266  28.418  27.635  1.00  0.00     0.173 A 
ATOM     78  F   UNL A   1      39.071  26.454  29.762  1.00  0.00    -0.203 F 
ATOM     79  C   UNL A   1      39.834  26.044  27.570  1.00  0.00     0.198 A 
ATOM     80  C   UNL A   1      41.281  27.624  26.491  1.00  0.00     0.198 A 
ATOM     81  F   UNL A   1      41.962  29.565  27.635  1.00  0.00    -0.203 F 
ATOM     82  F   UNL A   1      39.160  24.886  27.551  1.00  0.00    -0.200 F 
ATOM     83  C   UNL A   1      40.568  26.437  26.461  1.00  0.00     0.200 A 
ATOM     84  F   UNL A   1      41.977  28.017  25.415  1.00  0.00    -0.200 F 
ATOM     85  F   UNL A   1      40.588  25.669  25.362  1.00  0.00    -0.200 F 
ENDBRANCH  51  75
BRANCH  63  86
ATOM     86  C   UNL A   1      43.934  28.455  34.822  1.00  0.00     0.064 A 
ATOM     87  C   UNL A   1      45.244  28.934  34.686  1.00  0.00     0.173 A 
ATOM     88  C   UNL A   1      43.732  27.282  35.564  1.00  0.00     0.173 A 
ATOM     89  F   UNL A   1      45.486  30.044  33.972  1.00  0.00    -0.203 F 
ATOM     90  C   UNL A   1      46.314  28.260  35.266  1.00  0.00     0.198 A 
ATOM     91  C   UNL A   1      44.801  26.625  36.163  1.00  0.00     0.198 A 
ATOM     92  F   UNL A   1      42.495  26.790  35.727  1.00  0.00    -0.203 F 
ATOM     93  F   UNL A   1      47.562  28.719  35.100  1.00  0.00    -0.200 F 
ATOM     94  C   UNL A   1      46.092  27.111  36.012  1.00  0.00     0.200 A 
ATOM     95  F   UNL A   1      44.583  25.522  36.893  1.00  0.00    -0.200 F 
ATOM     96  F   UNL A   1      47.121  26.472  36.583  1.00  0.00    -0.200 F 
ENDBRANCH  63  86
ENDBRANCH  37  38
ENDBRANCH  29  32
ENDBRANCH  27  28
ENDBRANCH  26  27
ENDBRANCH   1  26
TORSDOF 14
ENDMDL
MODEL 2
REMARK VINA RESULT:     -13.0      5.656     11.058
REMARK SMILES CC(C)CCc1cc2c(cc1Cl)C=C(C(=O)NCCCNC(=O)c1ccc(-c3c4nc(c(-c5c(F)c(F)c(F)c(F)c5F)c5ccc([nH]5)c(-c5c(F)c(F)c(F)c(F)c5F)c5nc(c(-c6c(F)c(F)c(F)c(F)c6F)c6ccc3[nH]6)C=C5)C=C4)cc1)[C@@H](C(F)(F)F)O2
REMARK SMILES IDX 18 1 17 2 15 3 16 4 14 6 6 7 7 8 11 9 8 10 10 11 12 12 9 13
REMARK SMILES IDX 92 14 13 15 87 16 5 17 4 18 2 19 1 20 3 21 88 22 89 23 90 24
REMARK SMILES IDX 91 25 19 26 20 27 21 28 22 29 23 31 24 32 25 33 86 34 26 35
REMARK SMILES IDX 85 36 27 37 28 38 29 39 79 40 30 41 84 42 78 43 80 44 31 45
REMARK SMILES IDX 83 46 77 47 76 48 32 50 64 51 44 52 63 53 45 54 48 55 62 56
REMARK SMILES IDX 81 57 46 58 47 59 61 61 82 62 49 63 33 64 34 65 42 66 35 67
REMARK SMILES IDX 36 68 40 69 43 70 37 71 38 72 41 73 39 74 65 75 66 76 74 77
REMARK SMILES IDX 67 78 68 79 72 80 75 81 69 82 70 83 73 84 71 85 50 86 51 87
REMARK SMILES IDX 59 88 52 89 53 90 57 91 60 92 54 93 55 94 58 95 56 96
REMARK H PARENT 17 5 21 30 80 49 48 60
REMARK Flexibility Score: inf
ROOT
ATOM      1  C   UNL A   1      37.077  20.958  24.790  1.00  0.00     0.118 C 
ENDROOT
BRANCH   1   2
ATOM      2  N   UNL A   1      35.854  20.747  25.554  1.00  0.00    -0.352 N 
ATOM      3  C   UNL A   1      34.669  21.376  25.735  1.00  0.00     0.251 C 
ATOM      4  O   UNL A   1      33.893  20.822  26.519  1.00  0.00    -0.270 OA
ATOM      5  H   UNL A   1      35.904  19.919  26.085  1.00  0.00     0.163 HD
BRANCH   3   6
ATOM      6  C   UNL A   1      34.267  22.651  25.072  1.00  0.00     0.067 C 
ATOM      7  C   UNL A   1      33.391  27.500  23.941  1.00  0.00    -0.026 A 
ATOM      8  C   UNL A   1      33.349  26.282  23.257  1.00  0.00     0.052 A 
ATOM      9  C   UNL A   1      33.683  27.459  25.315  1.00  0.00     0.045 A 
ATOM     10  C   UNL A   1      33.699  25.091  23.874  1.00  0.00     0.128 A 
ATOM     11  C   UNL A   1      33.966  26.238  25.956  1.00  0.00     0.032 A 
ATOM     12  Cl  UNL A   1      33.717  28.886  26.289  1.00  0.00    -0.084 Cl
ATOM     13  C   UNL A   1      33.996  25.046  25.227  1.00  0.00     0.019 A 
ATOM     14  O   UNL A   1      33.803  24.021  23.040  1.00  0.00    -0.475 OA
ATOM     15  C   UNL A   1      34.367  23.767  25.821  1.00  0.00     0.025 C 
ATOM     16  C   UNL A   1      33.765  22.717  23.659  1.00  0.00     0.314 C 
BRANCH   7  17
ATOM     17  C   UNL A   1      33.142  28.763  23.144  1.00  0.00     0.037 C 
BRANCH  17  18
ATOM     18  C   UNL A   1      31.715  28.883  22.563  1.00  0.00     0.008 C 
BRANCH  18  19
ATOM     19  C   UNL A   1      30.535  28.920  23.564  1.00  0.00    -0.017 C 
ATOM     20  C   UNL A   1      29.564  30.074  23.306  1.00  0.00     0.007 C 
ATOM     21  C   UNL A   1      29.765  27.596  23.538  1.00  0.00     0.007 C 
ENDBRANCH  18  19
ENDBRANCH  17  18
ENDBRANCH   7  17
BRANCH  16  22
ATOM     22  C   UNL A   1      32.343  22.156  23.480  1.00  0.00     0.429 C 
ATOM     23  F   UNL A   1      32.401  20.856  23.093  1.00  0.00    -0.167 F 
ATOM     24  F   UNL A   1      31.618  22.184  24.621  1.00  0.00    -0.167 F 
ATOM     25  F   UNL A   1      31.634  22.825  22.544  1.00  0.00    -0.167 F 
ENDBRANCH  16  22
ENDBRANCH   3   6
ENDBRANCH   1   2
BRANCH   1  26
ATOM     26  C   UNL A   1      38.078  19.832  24.994  1.00  0.00     0.042 C 
BRANCH  26  27
ATOM     27  C   UNL A   1      39.271  20.271  25.833  1.00  0.00     0.118 C 
BRANCH  27  28
ATOM     28  N   UNL A   1      40.282  19.220  25.943  1.00  0.00    -0.352 N 
ATOM     29  C   UNL A   1      41.646  19.302  26.087  1.00  0.00     0.251 C 
ATOM     30  H   UNL A   1      39.927  18.302  25.910  1.00  0.00     0.163 HD
ATOM     31  O   UNL A   1      42.341  18.302  25.934  1.00  0.00    -0.269 OA
BRANCH  29  32
ATOM     32  C   UNL A   1      42.279  20.598  26.401  1.00  0.00     0.039 A 
ATOM     33  C   UNL A   1      42.447  20.993  27.727  1.00  0.00     0.014 A 
ATOM     34  C   UNL A   1      42.704  21.432  25.362  1.00  0.00     0.014 A 
ATOM     35  C   UNL A   1      42.834  22.294  28.011  1.00  0.00     0.010 A 
ATOM     36  C   UNL A   1      43.208  22.703  25.655  1.00  0.00     0.010 A 
ATOM     37  C   UNL A   1      43.221  23.166  26.979  1.00  0.00    -0.014 A 
BRANCH  37  38
ATOM     38  C   UNL A   1      43.622  24.552  27.329  1.00  0.00     0.031 A 
ATOM     39  C   UNL A   1      44.997  25.065  26.999  1.00  0.00     0.074 A 
ATOM     40  C   UNL A   1      42.703  25.377  27.868  1.00  0.00     0.049 A 
ATOM     41  N   UNL A   1      45.496  26.261  27.184  1.00  0.00    -0.248 NA
ATOM     42  C   UNL A   1      45.938  24.114  26.384  1.00  0.00     0.031 C 
ATOM     43  C   UNL A   1      41.335  24.993  28.222  1.00  0.00     0.029 A 
ATOM     44  N   UNL A   1      42.759  26.715  28.168  1.00  0.00    -0.354 N 
ATOM     45  C   UNL A   1      46.809  26.199  26.738  1.00  0.00     0.074 A 
ATOM     46  C   UNL A   1      47.043  24.843  26.293  1.00  0.00     0.031 C 
ATOM     47  C   UNL A   1      40.659  26.083  28.612  1.00  0.00     0.029 A 
ATOM     48  C   UNL A   1      41.564  27.227  28.610  1.00  0.00     0.049 A 
ATOM     49  H   UNL A   1      43.577  27.255  28.076  1.00  0.00     0.167 HD
ATOM     50  C   UNL A   1      47.732  27.189  26.692  1.00  0.00     0.037 A 
ATOM     51  C   UNL A   1      41.232  28.477  28.981  1.00  0.00     0.037 A 
ATOM     52  C   UNL A   1      47.482  28.548  27.098  1.00  0.00     0.049 A 
ATOM     53  C   UNL A   1      42.282  29.549  28.943  1.00  0.00     0.074 A 
ATOM     54  C   UNL A   1      48.343  29.630  27.059  1.00  0.00     0.029 A 
ATOM     55  N   UNL A   1      46.279  29.010  27.610  1.00  0.00    -0.354 N 
ATOM     56  N   UNL A   1      43.521  29.475  28.522  1.00  0.00    -0.248 NA
ATOM     57  C   UNL A   1      41.894  30.873  29.449  1.00  0.00     0.031 C 
ATOM     58  C   UNL A   1      47.673  30.739  27.585  1.00  0.00     0.029 A 
ATOM     59  C   UNL A   1      46.382  30.359  27.912  1.00  0.00     0.049 A 
ATOM     60  H   UNL A   1      45.471  28.462  27.738  1.00  0.00     0.167 HD
ATOM     61  C   UNL A   1      44.063  30.736  28.713  1.00  0.00     0.074 A 
ATOM     62  C   UNL A   1      43.010  31.566  29.262  1.00  0.00     0.031 C 
ATOM     63  C   UNL A   1      45.325  31.164  28.466  1.00  0.00     0.037 A 
BRANCH  50  64
ATOM     64  C   UNL A   1      49.106  26.848  26.194  1.00  0.00     0.064 A 
ATOM     65  C   UNL A   1      50.072  26.274  27.034  1.00  0.00     0.173 A 
ATOM     66  C   UNL A   1      49.439  27.041  24.845  1.00  0.00     0.173 A 
ATOM     67  F   UNL A   1      49.808  26.082  28.335  1.00  0.00    -0.203 F 
ATOM     68  C   UNL A   1      51.326  25.917  26.541  1.00  0.00     0.198 A 
ATOM     69  C   UNL A   1      50.684  26.660  24.351  1.00  0.00     0.198 A 
ATOM     70  F   UNL A   1      48.548  27.582  24.000  1.00  0.00    -0.203 F 
ATOM     71  F   UNL A   1      52.245  25.400  27.368  1.00  0.00    -0.200 F 
ATOM     72  C   UNL A   1      51.627  26.102  25.200  1.00  0.00     0.200 A 
ATOM     73  F   UNL A   1      50.968  26.829  23.052  1.00  0.00    -0.200 F 
ATOM     74  F   UNL A   1      52.829  25.745  24.727  1.00  0.00    -0.200 F 
ENDBRANCH  50  64
BRANCH  51  75
ATOM     75  C   UNL A   1      39.843  28.765  29.417  1.00  0.00     0.064 A 
ATOM     76  C   UNL A   1      38.885  29.229  28.507  1.00  0.00     0.173 A 
ATOM     77  C   UNL A   1      39.432  28.531  30.737  1.00  0.00     0.173 A 
ATOM     78  F   UNL A   1      39.235  29.485  27.237  1.00  0.00    -0.203 F 
ATOM     79  C   UNL A   1      37.566  29.445  28.901  1.00  0.00     0.198 A 
ATOM     80  C   UNL A   1      38.107  28.720  31.123  1.00  0.00     0.198 A 
ATOM     81  F   UNL A   1      40.312  28.081  31.645  1.00  0.00    -0.203 F 
ATOM     82  F   UNL A   1      36.672  29.908  28.016  1.00  0.00    -0.200 F 
ATOM     83  C   UNL A   1      37.176  29.180  30.205  1.00  0.00     0.200 A 
ATOM     84  F   UNL A   1      37.732  28.445  32.380  1.00  0.00    -0.200 F 
ATOM     85  F   UNL A   1      35.902  29.367  30.578  1.00  0.00    -0.200 F 
ENDBRANCH  51  75
BRANCH  63  86
ATOM     86  C   UNL A   1      45.642  32.591  28.792  1.00  0.00     0.064 A 
ATOM     87  C   UNL A   1      45.410  33.616  27.866  1.00  0.00     0.173 A 
ATOM     88  C   UNL A   1      46.114  32.945  30.065  1.00  0.00     0.173 A 
ATOM     89  F   UNL A   1      44.974  33.325  26.631  1.00  0.00    -0.203 F 
ATOM     90  C   UNL A   1      45.648  34.946  28.199  1.00  0.00     0.198 A 
ATOM     91  C   UNL A   1      46.326  34.277  30.403  1.00  0.00     0.198 A 
ATOM     92  F   UNL A   1      46.344  31.998  30.988  1.00  0.00    -0.203 F 
ATOM     93  F   UNL A   1      45.446  35.909  27.289  1.00  0.00    -0.200 F 
ATOM     94  C   UNL A   1      46.096  35.277  29.470  1.00  0.00     0.200 A 
ATOM     95  F   UNL A   1      46.748  34.596  31.635  1.00  0.00    -0.200 F 
ATOM     96  F   UNL A   1      46.309  36.559  29.793  1.00  0.00    -0.200 F 
ENDBRANCH  63  86
ENDBRANCH  37  38
ENDBRANCH  29  32
ENDBRANCH  27  28
ENDBRANCH  26  27
ENDBRANCH   1  26
TORSDOF 14
ENDMDL
MODEL 3
REMARK VINA RESULT:     -13.0      0.532      7.223
REMARK SMILES CC(C)CCc1cc2c(cc1Cl)C=C(C(=O)NCCCNC(=O)c1ccc(-c3c4nc(c(-c5c(F)c(F)c(F)c(F)c5F)c5ccc([nH]5)c(-c5c(F)c(F)c(F)c(F)c5F)c5nc(c(-c6c(F)c(F)c(F)c(F)c6F)c6ccc3[nH]6)C=C5)C=C4)cc1)[C@@H](C(F)(F)F)O2
REMARK SMILES IDX 18 1 17 2 15 3 16 4 14 6 6 7 7 8 11 9 8 10 10 11 12 12 9 13
REMARK SMILES IDX 92 14 13 15 87 16 5 17 4 18 2 19 1 20 3 21 88 22 89 23 90 24
REMARK SMILES IDX 91 25 19 26 20 27 21 28 22 29 23 31 24 32 25 33 86 34 26 35
REMARK SMILES IDX 85 36 27 37 28 38 29 39 79 40 30 41 84 42 78 43 80 44 31 45
REMARK SMILES IDX 83 46 77 47 76 48 32 50 64 51 44 52 63 53 45 54 48 55 62 56
REMARK SMILES IDX 81 57 46 58 47 59 61 61 82 62 49 63 33 64 34 65 42 66 35 67
REMARK SMILES IDX 36 68 40 69 43 70 37 71 38 72 41 73 39 74 65 75 66 76 74 77
REMARK SMILES IDX 67 78 68 79 72 80 75 81 69 82 70 83 73 84 71 85 50 86 51 87
REMARK SMILES IDX 59 88 52 89 53 90 57 91 60 92 54 93 55 94 58 95 56 96
REMARK H PARENT 17 5 21 30 80 49 48 60
REMARK Flexibility Score: inf
ROOT
ATOM      1  C   UNL A   1      31.596  30.709  26.447  1.00  0.00     0.118 C 
ENDROOT
BRANCH   1   2
ATOM      2  N   UNL A   1      31.513  30.315  25.046  1.00  0.00    -0.352 N 
ATOM      3  C   UNL A   1      31.581  29.171  24.325  1.00  0.00     0.251 C 
ATOM      4  O   UNL A   1      31.466  29.310  23.104  1.00  0.00    -0.270 OA
ATOM      5  H   UNL A   1      31.368  31.095  24.464  1.00  0.00     0.163 HD
BRANCH   3   6
ATOM      6  C   UNL A   1      31.784  27.808  24.899  1.00  0.00     0.067 C 
ATOM      7  C   UNL A   1      33.746  23.469  26.596  1.00  0.00    -0.026 A 
ATOM      8  C   UNL A   1      32.497  24.095  26.638  1.00  0.00     0.052 A 
ATOM      9  C   UNL A   1      34.762  24.105  25.864  1.00  0.00     0.045 A 
ATOM     10  C   UNL A   1      32.296  25.350  26.087  1.00  0.00     0.128 A 
ATOM     11  C   UNL A   1      34.533  25.346  25.241  1.00  0.00     0.032 A 
ATOM     12  Cl  UNL A   1      36.336  23.414  25.688  1.00  0.00    -0.084 Cl
ATOM     13  C   UNL A   1      33.298  25.987  25.370  1.00  0.00     0.019 A 
ATOM     14  O   UNL A   1      31.094  25.918  26.374  1.00  0.00    -0.475 OA
ATOM     15  C   UNL A   1      33.034  27.311  24.820  1.00  0.00     0.025 C 
ATOM     16  C   UNL A   1      30.677  27.009  25.523  1.00  0.00     0.314 C 
BRANCH   7  17
ATOM     17  C   UNL A   1      33.908  22.171  27.359  1.00  0.00     0.037 C 
BRANCH  17  18
ATOM     18  C   UNL A   1      34.082  20.921  26.466  1.00  0.00     0.008 C 
BRANCH  18  19
ATOM     19  C   UNL A   1      32.938  20.579  25.481  1.00  0.00    -0.017 C 
ATOM     20  C   UNL A   1      33.161  21.154  24.080  1.00  0.00     0.007 C 
ATOM     21  C   UNL A   1      32.748  19.063  25.380  1.00  0.00     0.007 C 
ENDBRANCH  18  19
ENDBRANCH  17  18
ENDBRANCH   7  17
BRANCH  16  22
ATOM     22  C   UNL A   1      29.668  26.448  24.506  1.00  0.00     0.429 C 
ATOM     23  F   UNL A   1      30.306  25.647  23.613  1.00  0.00    -0.167 F 
ATOM     24  F   UNL A   1      28.706  25.691  25.079  1.00  0.00    -0.167 F 
ATOM     25  F   UNL A   1      29.043  27.419  23.804  1.00  0.00    -0.167 F 
ENDBRANCH  16  22
ENDBRANCH   3   6
ENDBRANCH   1   2
BRANCH   1  26
ATOM     26  C   UNL A   1      31.471  32.213  26.624  1.00  0.00     0.042 C 
BRANCH  26  27
ATOM     27  C   UNL A   1      32.689  32.813  27.314  1.00  0.00     0.118 C 
BRANCH  27  28
ATOM     28  N   UNL A   1      32.505  34.230  27.621  1.00  0.00    -0.352 N 
ATOM     29  C   UNL A   1      33.027  35.001  28.632  1.00  0.00     0.251 C 
ATOM     30  H   UNL A   1      31.911  34.712  27.002  1.00  0.00     0.163 HD
ATOM     31  O   UNL A   1      32.571  36.120  28.848  1.00  0.00    -0.269 OA
BRANCH  29  32
ATOM     32  C   UNL A   1      34.120  34.475  29.474  1.00  0.00     0.039 A 
ATOM     33  C   UNL A   1      35.440  34.548  29.035  1.00  0.00     0.014 A 
ATOM     34  C   UNL A   1      33.824  33.897  30.712  1.00  0.00     0.014 A 
ATOM     35  C   UNL A   1      36.429  33.859  29.720  1.00  0.00     0.010 A 
ATOM     36  C   UNL A   1      34.844  33.306  31.463  1.00  0.00     0.010 A 
ATOM     37  C   UNL A   1      36.145  33.231  30.944  1.00  0.00    -0.014 A 
BRANCH  37  38
ATOM     38  C   UNL A   1      37.234  32.499  31.640  1.00  0.00     0.031 A 
ATOM     39  C   UNL A   1      37.995  31.404  30.945  1.00  0.00     0.074 A 
ATOM     40  C   UNL A   1      37.593  32.893  32.877  1.00  0.00     0.049 A 
ATOM     41  N   UNL A   1      39.008  30.698  31.383  1.00  0.00    -0.248 NA
ATOM     42  C   UNL A   1      37.566  31.047  29.583  1.00  0.00     0.031 C 
ATOM     43  C   UNL A   1      36.933  33.951  33.646  1.00  0.00     0.029 A 
ATOM     44  N   UNL A   1      38.623  32.489  33.688  1.00  0.00    -0.354 N 
ATOM     45  C   UNL A   1      39.316  29.802  30.368  1.00  0.00     0.074 A 
ATOM     46  C   UNL A   1      38.371  30.032  29.298  1.00  0.00     0.031 C 
ATOM     47  C   UNL A   1      37.621  34.169  34.775  1.00  0.00     0.029 A 
ATOM     48  C   UNL A   1      38.724  33.216  34.849  1.00  0.00     0.049 A 
ATOM     49  H   UNL A   1      39.232  31.749  33.460  1.00  0.00     0.167 HD
ATOM     50  C   UNL A   1      40.307  28.880  30.330  1.00  0.00     0.037 A 
ATOM     51  C   UNL A   1      39.600  33.123  35.866  1.00  0.00     0.037 A 
ATOM     52  C   UNL A   1      41.271  28.683  31.381  1.00  0.00     0.049 A 
ATOM     53  C   UNL A   1      40.673  32.076  35.807  1.00  0.00     0.074 A 
ATOM     54  C   UNL A   1      42.331  27.796  31.422  1.00  0.00     0.029 A 
ATOM     55  N   UNL A   1      41.293  29.390  32.575  1.00  0.00    -0.354 N 
ATOM     56  N   UNL A   1      40.950  31.232  34.843  1.00  0.00    -0.248 NA
ATOM     57  C   UNL A   1      41.543  31.953  36.984  1.00  0.00     0.031 C 
ATOM     58  C   UNL A   1      42.973  27.938  32.656  1.00  0.00     0.029 A 
ATOM     59  C   UNL A   1      42.338  28.943  33.368  1.00  0.00     0.049 A 
ATOM     60  H   UNL A   1      40.662  30.105  32.820  1.00  0.00     0.167 HD
ATOM     61  C   UNL A   1      42.021  30.477  35.294  1.00  0.00     0.074 A 
ATOM     62  C   UNL A   1      42.364  30.981  36.609  1.00  0.00     0.031 C 
ATOM     63  C   UNL A   1      42.656  29.451  34.677  1.00  0.00     0.037 A 
BRANCH  50  64
ATOM     64  C   UNL A   1      40.403  28.001  29.118  1.00  0.00     0.064 A 
ATOM     65  C   UNL A   1      39.686  26.799  29.021  1.00  0.00     0.173 A 
ATOM     66  C   UNL A   1      41.173  28.397  28.014  1.00  0.00     0.173 A 
ATOM     67  F   UNL A   1      38.946  26.369  30.054  1.00  0.00    -0.203 F 
ATOM     68  C   UNL A   1      39.748  26.021  27.866  1.00  0.00     0.198 A 
ATOM     69  C   UNL A   1      41.213  27.629  26.853  1.00  0.00     0.198 A 
ATOM     70  F   UNL A   1      41.874  29.541  28.055  1.00  0.00    -0.203 F 
ATOM     71  F   UNL A   1      39.081  24.860  27.808  1.00  0.00    -0.200 F 
ATOM     72  C   UNL A   1      40.504  26.440  26.783  1.00  0.00     0.200 A 
ATOM     73  F   UNL A   1      41.934  28.043  25.802  1.00  0.00    -0.200 F 
ATOM     74  F   UNL A   1      40.550  25.696  25.668  1.00  0.00    -0.200 F 
ENDBRANCH  50  64
BRANCH  51  75
ATOM     75  C   UNL A   1      39.485  34.054  37.016  1.00  0.00     0.064 A 
ATOM     76  C   UNL A   1      38.773  33.693  38.165  1.00  0.00     0.173 A 
ATOM     77  C   UNL A   1      40.129  35.301  37.009  1.00  0.00     0.173 A 
ATOM     78  F   UNL A   1      38.125  32.519  38.211  1.00  0.00    -0.203 F 
ATOM     79  C   UNL A   1      38.711  34.542  39.269  1.00  0.00     0.198 A 
ATOM     80  C   UNL A   1      40.089  36.136  38.122  1.00  0.00     0.198 A 
ATOM     81  F   UNL A   1      40.828  35.690  35.932  1.00  0.00    -0.203 F 
ATOM     82  F   UNL A   1      38.006  34.182  40.350  1.00  0.00    -0.200 F 
ATOM     83  C   UNL A   1      39.379  35.758  39.250  1.00  0.00     0.200 A 
ATOM     84  F   UNL A   1      40.752  37.302  38.106  1.00  0.00    -0.200 F 
ATOM     85  F   UNL A   1      39.336  36.565  40.320  1.00  0.00    -0.200 F 
ENDBRANCH  51  75
BRANCH  63  86
ATOM     86  C   UNL A   1      43.782  28.796  35.417  1.00  0.00     0.064 A 
ATOM     87  C   UNL A   1      45.106  29.222  35.247  1.00  0.00     0.173 A 
ATOM     88  C   UNL A   1      43.527  27.786  36.356  1.00  0.00     0.173 A 
ATOM     89  F   UNL A   1      45.400  30.174  34.350  1.00  0.00    -0.203 F 
ATOM     90  C   UNL A   1      46.139  28.651  35.985  1.00  0.00     0.198 A 
ATOM     91  C   UNL A   1      44.559  27.236  37.110  1.00  0.00     0.198 A 
ATOM     92  F   UNL A   1      42.274  27.351  36.558  1.00  0.00    -0.203 F 
ATOM     93  F   UNL A   1      47.402  29.053  35.787  1.00  0.00    -0.200 F 
ATOM     94  C   UNL A   1      45.864  27.666  36.923  1.00  0.00     0.200 A 
ATOM     95  F   UNL A   1      44.290  26.292  38.023  1.00  0.00    -0.200 F 
ATOM     96  F   UNL A   1      46.857  27.130  37.643  1.00  0.00    -0.200 F 
ENDBRANCH  63  86
ENDBRANCH  37  38
ENDBRANCH  29  32
ENDBRANCH  27  28
ENDBRANCH  26  27
ENDBRANCH   1  26
TORSDOF 14
ENDMDL
