MODEL 1
REMARK VINA RESULT:     -12.1      0.000      0.000
REMARK SMILES C[NH2+][C@@]1(C(=O)NCCCNC(=O)c2ccc(-c3c4nc(c(-c5c(F)c(F)c(F)c(F)c5F)c5ccc([nH]5)c(-c5c(F)c(F)c(F)c(F)c5F)c5nc(c(-c6c(F)c(F)c(F)c(F)c6F)c6ccc3[nH]6)C=C5)C=C4)cc2)CCC[C@H]1CCSc1nccc(=O)[nH]1
REMARK SMILES IDX 7 1 6 2 4 3 5 4 3 6 76 7 79 8 77 9 78 10 2 11 1 12 80 15
REMARK SMILES IDX 81 16 82 17 83 18 84 19 89 20 85 21 87 22 86 24 88 25 8 26
REMARK SMILES IDX 9 27 10 28 11 29 12 31 13 32 14 33 75 34 15 35 74 36 16 37
REMARK SMILES IDX 17 38 18 39 68 40 19 41 73 42 67 43 69 44 20 45 72 46 66 47
REMARK SMILES IDX 65 48 21 50 53 51 33 52 52 53 34 54 37 55 51 56 70 57 35 58
REMARK SMILES IDX 36 59 50 61 71 62 38 63 22 64 23 65 31 66 24 67 25 68 29 69
REMARK SMILES IDX 32 70 26 71 27 72 30 73 28 74 54 75 55 76 63 77 56 78 57 79
REMARK SMILES IDX 61 80 64 81 58 82 59 83 62 84 60 85 39 86 40 87 48 88 41 89
REMARK SMILES IDX 42 90 46 91 49 92 43 93 44 94 47 95 45 96
REMARK H PARENT 6 5 2 13 2 14 89 23 10 30 69 49 37 60
REMARK Flexibility Score: inf
ROOT
ATOM      1  C   UNL A   1      31.420  30.654  26.033  1.00  0.00     0.118 C 
ENDROOT
BRANCH   1   2
ATOM      2  N   UNL A   1      32.185  29.779  26.883  1.00  0.00    -0.351 N 
ATOM      3  C   UNL A   1      32.738  28.557  26.665  1.00  0.00     0.281 C 
ATOM      4  O   UNL A   1      33.776  28.392  27.328  1.00  0.00    -0.268 OA
ATOM      5  H   UNL A   1      32.336  30.130  27.789  1.00  0.00     0.163 HD
BRANCH   3   6
ATOM      6  C   UNL A   1      32.229  27.440  25.643  1.00  0.00     0.178 C 
ATOM      7  C   UNL A   1      32.955  26.111  25.987  1.00  0.00     0.079 C 
ATOM      8  C   UNL A   1      32.547  27.647  24.116  1.00  0.00     0.061 C 
ATOM      9  C   UNL A   1      34.125  25.938  25.046  1.00  0.00     0.008 C 
ATOM     10  C   UNL A   1      33.827  26.800  23.833  1.00  0.00     0.011 C 
BRANCH   6  11
ATOM     11  N   UNL A   1      30.793  27.117  25.968  1.00  0.00    -0.336 N 
ATOM     12  C   UNL A   1      30.384  25.718  26.062  1.00  0.00     0.331 C 
ATOM     13  H   UNL A   1      30.586  27.549  26.870  1.00  0.00     0.346 HD
ATOM     14  H   UNL A   1      30.274  27.469  25.164  1.00  0.00     0.346 HD
ENDBRANCH   6  11
BRANCH   8  15
ATOM     15  C   UNL A   1      31.520  27.169  23.052  1.00  0.00     0.022 C 
BRANCH  15  16
ATOM     16  C   UNL A   1      30.620  28.148  22.298  1.00  0.00     0.079 C 
BRANCH  16  17
ATOM     17  S   UNL A   1      29.378  29.036  23.282  1.00  0.00    -0.088 SA
BRANCH  17  18
ATOM     18  C   UNL A   1      28.847  30.349  22.289  1.00  0.00     0.168 A 
ATOM     19  N   UNL A   1      28.329  30.234  21.117  1.00  0.00    -0.233 NA
ATOM     20  N   UNL A   1      29.033  31.543  22.914  1.00  0.00    -0.301 N 
ATOM     21  C   UNL A   1      27.937  31.390  20.494  1.00  0.00     0.120 A 
ATOM     22  C   UNL A   1      28.618  32.716  22.369  1.00  0.00     0.251 A 
ATOM     23  H   UNL A   1      29.482  31.557  23.792  1.00  0.00     0.172 HD
ATOM     24  C   UNL A   1      28.025  32.611  21.028  1.00  0.00     0.091 A 
ATOM     25  O   UNL A   1      28.696  33.796  22.945  1.00  0.00    -0.269 OA
ENDBRANCH  17  18
ENDBRANCH  16  17
ENDBRANCH  15  16
ENDBRANCH   8  15
ENDBRANCH   3   6
ENDBRANCH   1   2
BRANCH   1  26
ATOM     26  C   UNL A   1      31.281  32.069  26.562  1.00  0.00     0.042 C 
BRANCH  26  27
ATOM     27  C   UNL A   1      32.588  32.651  27.082  1.00  0.00     0.118 C 
BRANCH  27  28
ATOM     28  N   UNL A   1      32.455  34.042  27.505  1.00  0.00    -0.352 N 
ATOM     29  C   UNL A   1      33.045  34.741  28.527  1.00  0.00     0.251 C 
ATOM     30  H   UNL A   1      31.830  34.573  26.960  1.00  0.00     0.163 HD
ATOM     31  O   UNL A   1      32.593  35.836  28.847  1.00  0.00    -0.269 OA
BRANCH  29  32
ATOM     32  C   UNL A   1      34.214  34.193  29.247  1.00  0.00     0.039 A 
ATOM     33  C   UNL A   1      34.007  33.275  30.281  1.00  0.00     0.014 A 
ATOM     34  C   UNL A   1      35.508  34.612  28.939  1.00  0.00     0.014 A 
ATOM     35  C   UNL A   1      35.102  32.732  30.955  1.00  0.00     0.010 A 
ATOM     36  C   UNL A   1      36.600  33.991  29.533  1.00  0.00     0.010 A 
ATOM     37  C   UNL A   1      36.409  33.056  30.558  1.00  0.00    -0.014 A 
BRANCH  37  38
ATOM     38  C   UNL A   1      37.595  32.447  31.211  1.00  0.00     0.031 A 
ATOM     39  C   UNL A   1      38.339  31.331  30.530  1.00  0.00     0.074 A 
ATOM     40  C   UNL A   1      37.951  32.848  32.446  1.00  0.00     0.049 A 
ATOM     41  N   UNL A   1      39.343  30.615  30.969  1.00  0.00    -0.248 NA
ATOM     42  C   UNL A   1      37.872  30.946  29.188  1.00  0.00     0.031 C 
ATOM     43  C   UNL A   1      37.274  33.883  33.228  1.00  0.00     0.029 A 
ATOM     44  N   UNL A   1      38.965  32.422  33.267  1.00  0.00    -0.354 N 
ATOM     45  C   UNL A   1      39.611  29.689  29.971  1.00  0.00     0.074 A 
ATOM     46  C   UNL A   1      38.626  29.889  28.931  1.00  0.00     0.031 C 
ATOM     47  C   UNL A   1      37.908  34.034  34.402  1.00  0.00     0.029 A 
ATOM     48  C   UNL A   1      39.004  33.074  34.476  1.00  0.00     0.049 A 
ATOM     49  H   UNL A   1      39.603  31.717  33.014  1.00  0.00     0.167 HD
ATOM     50  C   UNL A   1      40.605  28.771  29.914  1.00  0.00     0.037 A 
ATOM     51  C   UNL A   1      39.827  32.907  35.528  1.00  0.00     0.037 A 
ATOM     52  C   UNL A   1      41.594  28.593  30.944  1.00  0.00     0.049 A 
ATOM     53  C   UNL A   1      40.915  31.871  35.446  1.00  0.00     0.074 A 
ATOM     54  C   UNL A   1      42.682  27.738  30.958  1.00  0.00     0.029 A 
ATOM     55  N   UNL A   1      41.610  29.281  32.149  1.00  0.00    -0.354 N 
ATOM     56  N   UNL A   1      41.209  31.053  34.464  1.00  0.00    -0.248 NA
ATOM     57  C   UNL A   1      41.791  31.739  36.617  1.00  0.00     0.031 C 
ATOM     58  C   UNL A   1      43.320  27.866  32.196  1.00  0.00     0.029 A 
ATOM     59  C   UNL A   1      42.672  28.848  32.927  1.00  0.00     0.049 A 
ATOM     60  H   UNL A   1      40.963  29.975  32.413  1.00  0.00     0.167 HD
ATOM     61  C   UNL A   1      42.318  30.333  34.885  1.00  0.00     0.074 A 
ATOM     62  C   UNL A   1      42.656  30.823  36.205  1.00  0.00     0.031 C 
ATOM     63  C   UNL A   1      42.996  29.353  34.238  1.00  0.00     0.037 A 
BRANCH  50  64
ATOM     64  C   UNL A   1      40.669  27.888  28.698  1.00  0.00     0.064 A 
ATOM     65  C   UNL A   1      39.970  26.672  28.629  1.00  0.00     0.173 A 
ATOM     66  C   UNL A   1      41.417  28.275  27.576  1.00  0.00     0.173 A 
ATOM     67  F   UNL A   1      39.247  26.247  29.677  1.00  0.00    -0.203 F 
ATOM     68  C   UNL A   1      40.049  25.862  27.500  1.00  0.00     0.198 A 
ATOM     69  C   UNL A   1      41.464  27.479  26.435  1.00  0.00     0.198 A 
ATOM     70  F   UNL A   1      42.100  29.429  27.583  1.00  0.00    -0.203 F 
ATOM     71  F   UNL A   1      39.422  24.677  27.483  1.00  0.00    -0.200 F 
ATOM     72  C   UNL A   1      40.789  26.268  26.402  1.00  0.00     0.200 A 
ATOM     73  F   UNL A   1      42.167  27.882  25.367  1.00  0.00    -0.200 F 
ATOM     74  F   UNL A   1      40.859  25.490  25.312  1.00  0.00    -0.200 F 
ENDBRANCH  50  64
BRANCH  51  75
ATOM     75  C   UNL A   1      39.669  33.757  36.738  1.00  0.00     0.064 A 
ATOM     76  C   UNL A   1      38.897  33.324  37.826  1.00  0.00     0.173 A 
ATOM     77  C   UNL A   1      40.282  35.015  36.835  1.00  0.00     0.173 A 
ATOM     78  F   UNL A   1      38.276  32.136  37.775  1.00  0.00    -0.203 F 
ATOM     79  C   UNL A   1      38.724  34.126  38.952  1.00  0.00     0.198 A 
ATOM     80  C   UNL A   1      40.135  35.801  37.975  1.00  0.00     0.198 A 
ATOM     81  F   UNL A   1      41.038  35.473  35.827  1.00  0.00    -0.203 F 
ATOM     82  F   UNL A   1      37.940  33.708  39.955  1.00  0.00    -0.200 F 
ATOM     83  C   UNL A   1      39.347  35.361  39.028  1.00  0.00     0.200 A 
ATOM     84  F   UNL A   1      40.754  36.988  38.053  1.00  0.00    -0.200 F 
ATOM     85  F   UNL A   1      39.186  36.130  40.113  1.00  0.00    -0.200 F 
ENDBRANCH  51  75
BRANCH  63  86
ATOM     86  C   UNL A   1      44.197  28.774  34.930  1.00  0.00     0.064 A 
ATOM     87  C   UNL A   1      45.474  29.340  34.795  1.00  0.00     0.173 A 
ATOM     88  C   UNL A   1      44.060  27.658  35.771  1.00  0.00     0.173 A 
ATOM     89  F   UNL A   1      45.662  30.397  33.991  1.00  0.00    -0.203 F 
ATOM     90  C   UNL A   1      46.571  28.794  35.455  1.00  0.00     0.198 A 
ATOM     91  C   UNL A   1      45.153  27.137  36.457  1.00  0.00     0.198 A 
ATOM     92  F   UNL A   1      42.860  27.082  35.941  1.00  0.00    -0.203 F 
ATOM     93  F   UNL A   1      47.791  29.318  35.267  1.00  0.00    -0.200 F 
ATOM     94  C   UNL A   1      46.409  27.699  36.291  1.00  0.00     0.200 A 
ATOM     95  F   UNL A   1      44.990  26.091  37.278  1.00  0.00    -0.200 F 
ATOM     96  F   UNL A   1      47.466  27.181  36.932  1.00  0.00    -0.200 F 
ENDBRANCH  63  86
ENDBRANCH  37  38
ENDBRANCH  29  32
ENDBRANCH  27  28
ENDBRANCH  26  27
ENDBRANCH   1  26
TORSDOF 15
ENDMDL
MODEL 2
REMARK VINA RESULT:     -11.8      0.546      7.423
REMARK SMILES C[NH2+][C@@]1(C(=O)NCCCNC(=O)c2ccc(-c3c4nc(c(-c5c(F)c(F)c(F)c(F)c5F)c5ccc([nH]5)c(-c5c(F)c(F)c(F)c(F)c5F)c5nc(c(-c6c(F)c(F)c(F)c(F)c6F)c6ccc3[nH]6)C=C5)C=C4)cc2)CCC[C@H]1CCSc1nccc(=O)[nH]1
REMARK SMILES IDX 7 1 6 2 4 3 5 4 3 6 76 7 79 8 77 9 78 10 2 11 1 12 80 15
REMARK SMILES IDX 81 16 82 17 83 18 84 19 89 20 85 21 87 22 86 24 88 25 8 26
REMARK SMILES IDX 9 27 10 28 11 29 12 31 13 32 14 33 75 34 15 35 74 36 16 37
REMARK SMILES IDX 17 38 18 39 68 40 19 41 73 42 67 43 69 44 20 45 72 46 66 47
REMARK SMILES IDX 65 48 21 50 53 51 33 52 52 53 34 54 37 55 51 56 70 57 35 58
REMARK SMILES IDX 36 59 50 61 71 62 38 63 22 64 23 65 31 66 24 67 25 68 29 69
REMARK SMILES IDX 32 70 26 71 27 72 30 73 28 74 54 75 55 76 63 77 56 78 57 79
REMARK SMILES IDX 61 80 64 81 58 82 59 83 62 84 60 85 39 86 40 87 48 88 41 89
REMARK SMILES IDX 42 90 46 91 49 92 43 93 44 94 47 95 45 96
REMARK H PARENT 6 5 2 13 2 14 89 23 10 30 69 49 37 60
REMARK Flexibility Score: inf
ROOT
ATOM      1  C   UNL A   1      31.395  30.738  26.060  1.00  0.00     0.118 C 
ENDROOT
BRANCH   1   2
ATOM      2  N   UNL A   1      32.153  29.864  26.918  1.00  0.00    -0.351 N 
ATOM      3  C   UNL A   1      32.707  28.642  26.708  1.00  0.00     0.281 C 
ATOM      4  O   UNL A   1      33.739  28.478  27.380  1.00  0.00    -0.268 OA
ATOM      5  H   UNL A   1      32.296  30.218  27.825  1.00  0.00     0.163 HD
BRANCH   3   6
ATOM      6  C   UNL A   1      32.206  27.522  25.684  1.00  0.00     0.178 C 
ATOM      7  C   UNL A   1      32.943  26.199  26.026  1.00  0.00     0.079 C 
ATOM      8  C   UNL A   1      32.520  27.734  24.158  1.00  0.00     0.061 C 
ATOM      9  C   UNL A   1      34.114  26.037  25.083  1.00  0.00     0.008 C 
ATOM     10  C   UNL A   1      33.807  26.898  23.872  1.00  0.00     0.011 C 
BRANCH   6  11
ATOM     11  N   UNL A   1      30.773  27.187  26.011  1.00  0.00    -0.336 N 
ATOM     12  C   UNL A   1      30.365  25.786  26.053  1.00  0.00     0.331 C 
ATOM     13  H   UNL A   1      30.576  27.583  26.931  1.00  0.00     0.346 HD
ATOM     14  H   UNL A   1      30.247  27.571  25.227  1.00  0.00     0.346 HD
ENDBRANCH   6  11
BRANCH   8  15
ATOM     15  C   UNL A   1      31.496  27.250  23.094  1.00  0.00     0.022 C 
BRANCH  15  16
ATOM     16  C   UNL A   1      30.634  28.227  22.296  1.00  0.00     0.079 C 
BRANCH  16  17
ATOM     17  S   UNL A   1      29.232  28.980  23.172  1.00  0.00    -0.088 SA
BRANCH  17  18
ATOM     18  C   UNL A   1      28.760  30.341  22.215  1.00  0.00     0.168 A 
ATOM     19  N   UNL A   1      28.237  30.280  21.040  1.00  0.00    -0.233 NA
ATOM     20  N   UNL A   1      28.997  31.509  22.871  1.00  0.00    -0.301 N 
ATOM     21  C   UNL A   1      27.897  31.468  20.449  1.00  0.00     0.120 A 
ATOM     22  C   UNL A   1      28.633  32.713  22.357  1.00  0.00     0.251 A 
ATOM     23  H   UNL A   1      29.445  31.480  23.748  1.00  0.00     0.172 HD
ATOM     24  C   UNL A   1      28.038  32.669  21.015  1.00  0.00     0.091 A 
ATOM     25  O   UNL A   1      28.758  33.773  22.962  1.00  0.00    -0.269 OA
ENDBRANCH  17  18
ENDBRANCH  16  17
ENDBRANCH  15  16
ENDBRANCH   8  15
ENDBRANCH   3   6
ENDBRANCH   1   2
BRANCH   1  26
ATOM     26  C   UNL A   1      31.361  32.183  26.517  1.00  0.00     0.042 C 
BRANCH  26  27
ATOM     27  C   UNL A   1      32.682  32.664  27.101  1.00  0.00     0.118 C 
BRANCH  27  28
ATOM     28  N   UNL A   1      32.599  34.019  27.638  1.00  0.00    -0.352 N 
ATOM     29  C   UNL A   1      33.215  34.610  28.712  1.00  0.00     0.251 C 
ATOM     30  H   UNL A   1      31.993  34.615  27.141  1.00  0.00     0.163 HD
ATOM     31  O   UNL A   1      32.803  35.690  29.124  1.00  0.00    -0.269 OA
BRANCH  29  32
ATOM     32  C   UNL A   1      34.364  33.963  29.379  1.00  0.00     0.039 A 
ATOM     33  C   UNL A   1      34.125  33.019  30.383  1.00  0.00     0.014 A 
ATOM     34  C   UNL A   1      35.674  34.314  29.054  1.00  0.00     0.014 A 
ATOM     35  C   UNL A   1      35.200  32.384  31.007  1.00  0.00     0.010 A 
ATOM     36  C   UNL A   1      36.738  33.604  29.594  1.00  0.00     0.010 A 
ATOM     37  C   UNL A   1      36.515  32.642  30.588  1.00  0.00    -0.014 A 
BRANCH  37  38
ATOM     38  C   UNL A   1      37.675  31.936  31.186  1.00  0.00     0.031 A 
ATOM     39  C   UNL A   1      38.156  32.307  32.562  1.00  0.00     0.074 A 
ATOM     40  C   UNL A   1      38.339  31.018  30.458  1.00  0.00     0.049 A 
ATOM     41  N   UNL A   1      39.197  31.868  33.223  1.00  0.00    -0.248 NA
ATOM     42  C   UNL A   1      37.380  33.331  33.280  1.00  0.00     0.031 C 
ATOM     43  C   UNL A   1      38.001  30.613  29.093  1.00  0.00     0.029 A 
ATOM     44  N   UNL A   1      39.447  30.267  30.761  1.00  0.00    -0.354 N 
ATOM     45  C   UNL A   1      39.210  32.576  34.418  1.00  0.00     0.074 A 
ATOM     46  C   UNL A   1      38.113  33.516  34.367  1.00  0.00     0.031 C 
ATOM     47  C   UNL A   1      38.862  29.668  28.687  1.00  0.00     0.029 A 
ATOM     48  C   UNL A   1      39.842  29.434  29.743  1.00  0.00     0.049 A 
ATOM     49  H   UNL A   1      39.915  30.321  31.626  1.00  0.00     0.167 HD
ATOM     50  C   UNL A   1      40.047  32.435  35.474  1.00  0.00     0.037 A 
ATOM     51  C   UNL A   1      40.885  28.586  29.668  1.00  0.00     0.037 A 
ATOM     52  C   UNL A   1      41.123  31.482  35.524  1.00  0.00     0.049 A 
ATOM     53  C   UNL A   1      41.808  28.458  30.849  1.00  0.00     0.074 A 
ATOM     54  C   UNL A   1      41.989  31.211  36.570  1.00  0.00     0.029 A 
ATOM     55  N   UNL A   1      41.485  30.644  34.479  1.00  0.00    -0.354 N 
ATOM     56  N   UNL A   1      41.766  29.075  32.005  1.00  0.00    -0.248 NA
ATOM     57  C   UNL A   1      42.922  27.509  30.717  1.00  0.00     0.031 C 
ATOM     58  C   UNL A   1      42.911  30.254  36.135  1.00  0.00     0.029 A 
ATOM     59  C   UNL A   1      42.581  29.878  34.843  1.00  0.00     0.049 A 
ATOM     60  H   UNL A   1      41.031  30.600  33.606  1.00  0.00     0.167 HD
ATOM     61  C   UNL A   1      42.824  28.570  32.747  1.00  0.00     0.074 A 
ATOM     62  C   UNL A   1      43.480  27.582  31.917  1.00  0.00     0.031 C 
ATOM     63  C   UNL A   1      43.217  28.894  34.004  1.00  0.00     0.037 A 
BRANCH  50  64
ATOM     64  C   UNL A   1      39.830  33.336  36.658  1.00  0.00     0.064 A 
ATOM     65  C   UNL A   1      38.922  33.012  37.677  1.00  0.00     0.173 A 
ATOM     66  C   UNL A   1      40.561  34.527  36.789  1.00  0.00     0.173 A 
ATOM     67  F   UNL A   1      38.188  31.891  37.599  1.00  0.00    -0.203 F 
ATOM     68  C   UNL A   1      38.725  33.864  38.762  1.00  0.00     0.198 A 
ATOM     69  C   UNL A   1      40.388  35.358  37.893  1.00  0.00     0.198 A 
ATOM     70  F   UNL A   1      41.448  34.884  35.849  1.00  0.00    -0.203 F 
ATOM     71  F   UNL A   1      37.807  33.561  39.692  1.00  0.00    -0.200 F 
ATOM     72  C   UNL A   1      39.463  35.030  38.873  1.00  0.00     0.200 A 
ATOM     73  F   UNL A   1      41.115  36.478  38.007  1.00  0.00    -0.200 F 
ATOM     74  F   UNL A   1      39.279  35.846  39.921  1.00  0.00    -0.200 F 
ENDBRANCH  50  64
BRANCH  51  75
ATOM     75  C   UNL A   1      41.096  27.774  28.440  1.00  0.00     0.064 A 
ATOM     76  C   UNL A   1      41.943  28.224  27.417  1.00  0.00     0.173 A 
ATOM     77  C   UNL A   1      40.460  26.538  28.260  1.00  0.00     0.173 A 
ATOM     78  F   UNL A   1      42.562  29.409  27.533  1.00  0.00    -0.203 F 
ATOM     79  C   UNL A   1      42.126  27.481  26.253  1.00  0.00     0.198 A 
ATOM     80  C   UNL A   1      40.669  25.780  27.110  1.00  0.00     0.198 A 
ATOM     81  F   UNL A   1      39.646  26.056  29.211  1.00  0.00    -0.203 F 
ATOM     82  F   UNL A   1      42.902  27.959  25.270  1.00  0.00    -0.200 F 
ATOM     83  C   UNL A   1      41.494  26.257  26.102  1.00  0.00     0.200 A 
ATOM     84  F   UNL A   1      40.070  24.589  26.976  1.00  0.00    -0.200 F 
ATOM     85  F   UNL A   1      41.673  25.540  24.985  1.00  0.00    -0.200 F 
ENDBRANCH  51  75
BRANCH  63  86
ATOM     86  C   UNL A   1      44.388  28.146  34.574  1.00  0.00     0.064 A 
ATOM     87  C   UNL A   1      44.230  26.925  35.247  1.00  0.00     0.173 A 
ATOM     88  C   UNL A   1      45.692  28.639  34.409  1.00  0.00     0.173 A 
ATOM     89  F   UNL A   1      43.005  26.417  35.445  1.00  0.00    -0.203 F 
ATOM     90  C   UNL A   1      45.330  26.242  35.757  1.00  0.00     0.198 A 
ATOM     91  C   UNL A   1      46.793  27.936  34.889  1.00  0.00     0.198 A 
ATOM     92  F   UNL A   1      45.901  29.798  33.766  1.00  0.00    -0.203 F 
ATOM     93  F   UNL A   1      45.150  25.105  36.445  1.00  0.00    -0.200 F 
ATOM     94  C   UNL A   1      46.610  26.743  35.571  1.00  0.00     0.200 A 
ATOM     95  F   UNL A   1      48.030  28.413  34.692  1.00  0.00    -0.200 F 
ATOM     96  F   UNL A   1      47.669  26.078  36.055  1.00  0.00    -0.200 F 
ENDBRANCH  63  86
ENDBRANCH  37  38
ENDBRANCH  29  32
ENDBRANCH  27  28
ENDBRANCH  26  27
ENDBRANCH   1  26
TORSDOF 15
ENDMDL
MODEL 3
REMARK VINA RESULT:     -11.8      2.109      4.258
REMARK SMILES C[NH2+][C@@]1(C(=O)NCCCNC(=O)c2ccc(-c3c4nc(c(-c5c(F)c(F)c(F)c(F)c5F)c5ccc([nH]5)c(-c5c(F)c(F)c(F)c(F)c5F)c5nc(c(-c6c(F)c(F)c(F)c(F)c6F)c6ccc3[nH]6)C=C5)C=C4)cc2)CCC[C@H]1CCSc1nccc(=O)[nH]1
REMARK SMILES IDX 7 1 6 2 4 3 5 4 3 6 76 7 79 8 77 9 78 10 2 11 1 12 80 15
REMARK SMILES IDX 81 16 82 17 83 18 84 19 89 20 85 21 87 22 86 24 88 25 8 26
REMARK SMILES IDX 9 27 10 28 11 29 12 31 13 32 14 33 75 34 15 35 74 36 16 37
REMARK SMILES IDX 17 38 18 39 68 40 19 41 73 42 67 43 69 44 20 45 72 46 66 47
REMARK SMILES IDX 65 48 21 50 53 51 33 52 52 53 34 54 37 55 51 56 70 57 35 58
REMARK SMILES IDX 36 59 50 61 71 62 38 63 22 64 23 65 31 66 24 67 25 68 29 69
REMARK SMILES IDX 32 70 26 71 27 72 30 73 28 74 54 75 55 76 63 77 56 78 57 79
REMARK SMILES IDX 61 80 64 81 58 82 59 83 62 84 60 85 39 86 40 87 48 88 41 89
REMARK SMILES IDX 42 90 46 91 49 92 43 93 44 94 47 95 45 96
REMARK H PARENT 6 5 2 13 2 14 89 23 10 30 69 49 37 60
REMARK Flexibility Score: inf
ROOT
ATOM      1  C   UNL A   1      31.448  30.832  26.156  1.00  0.00     0.118 C 
ENDROOT
BRANCH   1   2
ATOM      2  N   UNL A   1      31.011  30.528  24.818  1.00  0.00    -0.351 N 
ATOM      3  C   UNL A   1      30.791  29.348  24.181  1.00  0.00     0.281 C 
ATOM      4  O   UNL A   1      29.888  29.440  23.332  1.00  0.00    -0.268 OA
ATOM      5  H   UNL A   1      30.841  31.321  24.261  1.00  0.00     0.163 HD
BRANCH   3   6
ATOM      6  C   UNL A   1      31.501  27.948  24.478  1.00  0.00     0.178 C 
ATOM      7  C   UNL A   1      31.234  27.011  23.268  1.00  0.00     0.079 C 
ATOM      8  C   UNL A   1      30.989  27.114  25.708  1.00  0.00     0.061 C 
ATOM      9  C   UNL A   1      30.080  26.096  23.607  1.00  0.00     0.008 C 
ATOM     10  C   UNL A   1      29.991  26.065  25.122  1.00  0.00     0.011 C 
BRANCH   6  11
ATOM     11  N   UNL A   1      32.994  28.148  24.407  1.00  0.00    -0.336 N 
ATOM     12  C   UNL A   1      33.610  28.435  23.115  1.00  0.00     0.331 C 
ATOM     13  H   UNL A   1      33.220  28.928  25.026  1.00  0.00     0.346 HD
ATOM     14  H   UNL A   1      33.376  27.238  24.663  1.00  0.00     0.346 HD
ENDBRANCH   6  11
BRANCH   8  15
ATOM     15  C   UNL A   1      32.000  26.270  26.533  1.00  0.00     0.022 C 
BRANCH  15  16
ATOM     16  C   UNL A   1      32.628  24.991  25.979  1.00  0.00     0.079 C 
BRANCH  16  17
ATOM     17  S   UNL A   1      31.924  23.421  26.559  1.00  0.00    -0.088 SA
BRANCH  17  18
ATOM     18  C   UNL A   1      32.873  22.180  25.815  1.00  0.00     0.168 A 
ATOM     19  N   UNL A   1      34.064  22.332  25.350  1.00  0.00    -0.233 NA
ATOM     20  N   UNL A   1      32.203  20.997  25.793  1.00  0.00    -0.301 N 
ATOM     21  C   UNL A   1      34.672  21.222  24.825  1.00  0.00     0.120 A 
ATOM     22  C   UNL A   1      32.774  19.852  25.333  1.00  0.00     0.251 A 
ATOM     23  H   UNL A   1      31.275  20.968  26.123  1.00  0.00     0.172 HD
ATOM     24  C   UNL A   1      34.132  20.001  24.794  1.00  0.00     0.091 A 
ATOM     25  O   UNL A   1      32.225  18.756  25.378  1.00  0.00    -0.269 OA
ENDBRANCH  17  18
ENDBRANCH  16  17
ENDBRANCH  15  16
ENDBRANCH   8  15
ENDBRANCH   3   6
ENDBRANCH   1   2
BRANCH   1  26
ATOM     26  C   UNL A   1      31.353  32.301  26.522  1.00  0.00     0.042 C 
BRANCH  26  27
ATOM     27  C   UNL A   1      32.619  32.847  27.166  1.00  0.00     0.118 C 
BRANCH  27  28
ATOM     28  N   UNL A   1      32.472  34.231  27.608  1.00  0.00    -0.352 N 
ATOM     29  C   UNL A   1      33.040  34.916  28.653  1.00  0.00     0.251 C 
ATOM     30  H   UNL A   1      31.856  34.769  27.060  1.00  0.00     0.163 HD
ATOM     31  O   UNL A   1      32.577  36.004  28.982  1.00  0.00    -0.269 OA
BRANCH  29  32
ATOM     32  C   UNL A   1      34.196  34.360  29.387  1.00  0.00     0.039 A 
ATOM     33  C   UNL A   1      33.973  33.638  30.563  1.00  0.00     0.014 A 
ATOM     34  C   UNL A   1      35.501  34.585  28.947  1.00  0.00     0.014 A 
ATOM     35  C   UNL A   1      35.054  33.090  31.255  1.00  0.00     0.010 A 
ATOM     36  C   UNL A   1      36.564  33.947  29.572  1.00  0.00     0.010 A 
ATOM     37  C   UNL A   1      36.355  33.205  30.742  1.00  0.00    -0.014 A 
BRANCH  37  38
ATOM     38  C   UNL A   1      37.518  32.578  31.418  1.00  0.00     0.031 A 
ATOM     39  C   UNL A   1      38.237  31.429  30.768  1.00  0.00     0.074 A 
ATOM     40  C   UNL A   1      37.874  32.994  32.649  1.00  0.00     0.049 A 
ATOM     41  N   UNL A   1      39.217  30.695  31.231  1.00  0.00    -0.248 NA
ATOM     42  C   UNL A   1      37.772  31.028  29.430  1.00  0.00     0.031 C 
ATOM     43  C   UNL A   1      37.218  34.064  33.403  1.00  0.00     0.029 A 
ATOM     44  N   UNL A   1      38.868  32.559  33.488  1.00  0.00    -0.354 N 
ATOM     45  C   UNL A   1      39.469  29.741  30.254  1.00  0.00     0.074 A 
ATOM     46  C   UNL A   1      38.499  29.946  29.201  1.00  0.00     0.031 C 
ATOM     47  C   UNL A   1      37.845  34.221  34.579  1.00  0.00     0.029 A 
ATOM     48  C   UNL A   1      38.915  33.234  34.683  1.00  0.00     0.049 A 
ATOM     49  H   UNL A   1      39.489  31.831  33.255  1.00  0.00     0.167 HD
ATOM     50  C   UNL A   1      40.438  28.795  30.226  1.00  0.00     0.037 A 
ATOM     51  C   UNL A   1      39.723  33.067  35.746  1.00  0.00     0.037 A 
ATOM     52  C   UNL A   1      41.412  28.611  31.269  1.00  0.00     0.049 A 
ATOM     53  C   UNL A   1      40.783  31.999  35.695  1.00  0.00     0.074 A 
ATOM     54  C   UNL A   1      42.476  27.728  31.311  1.00  0.00     0.029 A 
ATOM     55  N   UNL A   1      41.436  29.324  32.459  1.00  0.00    -0.354 N 
ATOM     56  N   UNL A   1      41.063  31.154  34.734  1.00  0.00    -0.248 NA
ATOM     57  C   UNL A   1      41.645  31.869  36.878  1.00  0.00     0.031 C 
ATOM     58  C   UNL A   1      43.106  27.864  32.552  1.00  0.00     0.029 A 
ATOM     59  C   UNL A   1      42.479  28.879  33.256  1.00  0.00     0.049 A 
ATOM     60  H   UNL A   1      40.806  30.041  32.703  1.00  0.00     0.167 HD
ATOM     61  C   UNL A   1      42.148  30.413  35.180  1.00  0.00     0.074 A 
ATOM     62  C   UNL A   1      42.487  30.921  36.493  1.00  0.00     0.031 C 
ATOM     63  C   UNL A   1      42.805  29.402  34.559  1.00  0.00     0.037 A 
BRANCH  50  64
ATOM     64  C   UNL A   1      40.488  27.886  29.029  1.00  0.00     0.064 A 
ATOM     65  C   UNL A   1      41.306  28.164  27.923  1.00  0.00     0.173 A 
ATOM     66  C   UNL A   1      39.729  26.706  28.999  1.00  0.00     0.173 A 
ATOM     67  F   UNL A   1      42.046  29.283  27.893  1.00  0.00    -0.203 F 
ATOM     68  C   UNL A   1      41.333  27.316  26.818  1.00  0.00     0.198 A 
ATOM     69  C   UNL A   1      39.786  25.843  27.908  1.00  0.00     0.198 A 
ATOM     70  F   UNL A   1      38.934  26.386  30.031  1.00  0.00    -0.203 F 
ATOM     71  F   UNL A   1      42.076  27.636  25.749  1.00  0.00    -0.200 F 
ATOM     72  C   UNL A   1      40.579  26.154  26.814  1.00  0.00     0.200 A 
ATOM     73  F   UNL A   1      39.069  24.710  27.913  1.00  0.00    -0.200 F 
ATOM     74  F   UNL A   1      40.611  25.335  25.753  1.00  0.00    -0.200 F 
ENDBRANCH  50  64
BRANCH  51  75
ATOM     75  C   UNL A   1      39.578  33.945  36.936  1.00  0.00     0.064 A 
ATOM     76  C   UNL A   1      40.210  35.196  36.990  1.00  0.00     0.173 A 
ATOM     77  C   UNL A   1      38.808  33.559  38.044  1.00  0.00     0.173 A 
ATOM     78  F   UNL A   1      40.971  35.604  35.963  1.00  0.00    -0.203 F 
ATOM     79  C   UNL A   1      40.099  36.014  38.112  1.00  0.00     0.198 A 
ATOM     80  C   UNL A   1      38.671  34.392  39.152  1.00  0.00     0.198 A 
ATOM     81  F   UNL A   1      38.175  32.377  38.042  1.00  0.00    -0.203 F 
ATOM     82  F   UNL A   1      40.755  37.181  38.155  1.00  0.00    -0.200 F 
ATOM     83  C   UNL A   1      39.325  35.613  39.190  1.00  0.00     0.200 A 
ATOM     84  F   UNL A   1      37.907  34.009  40.185  1.00  0.00    -0.200 F 
ATOM     85  F   UNL A   1      39.214  36.402  40.267  1.00  0.00    -0.200 F 
ENDBRANCH  51  75
BRANCH  63  86
ATOM     86  C   UNL A   1      43.983  28.804  35.274  1.00  0.00     0.064 A 
ATOM     87  C   UNL A   1      45.286  29.292  35.091  1.00  0.00     0.173 A 
ATOM     88  C   UNL A   1      43.800  27.753  36.187  1.00  0.00     0.173 A 
ATOM     89  F   UNL A   1      45.518  30.285  34.219  1.00  0.00    -0.203 F 
ATOM     90  C   UNL A   1      46.362  28.731  35.772  1.00  0.00     0.198 A 
ATOM     91  C   UNL A   1      44.873  27.220  36.893  1.00  0.00     0.198 A 
ATOM     92  F   UNL A   1      42.573  27.254  36.406  1.00  0.00    -0.203 F 
ATOM     93  F   UNL A   1      47.605  29.177  35.539  1.00  0.00    -0.200 F 
ATOM     94  C   UNL A   1      46.155  27.702  36.678  1.00  0.00     0.200 A 
ATOM     95  F   UNL A   1      44.667  26.237  37.782  1.00  0.00    -0.200 F 
ATOM     96  F   UNL A   1      47.191  27.170  37.341  1.00  0.00    -0.200 F 
ENDBRANCH  63  86
ENDBRANCH  37  38
ENDBRANCH  29  32
ENDBRANCH  27  28
ENDBRANCH  26  27
ENDBRANCH   1  26
TORSDOF 15
ENDMDL
