MODEL 1
REMARK VINA RESULT:     -11.9      0.000      0.000
REMARK SMILES O=C(C[C@@H]1CN(C(=O)[C@H]2C[C@H](O)C[NH2+]2)CCO1)NCCCNC(=O)c1ccc(-c2c3nc(c(-c4c(F)c(F)c(F)c(F)c4F)c4ccc([nH]4)c(-c4c(F)c(F)c(F)c(F)c4F)c4nc(c(-c5c(F)c(F)c(F)c(F)c5F)c5ccc2[nH]5)C=C4)C=C3)cc1
REMARK SMILES IDX 19 1 18 2 1 3 2 4 3 6 4 7 5 8 17 9 6 10 16 11 15 12 7 13
REMARK SMILES IDX 8 14 9 15 10 16 14 17 11 18 13 19 12 22 20 24 21 25 22 26
REMARK SMILES IDX 23 27 24 29 25 30 26 31 87 32 27 33 86 34 28 35 29 36 30 37
REMARK SMILES IDX 80 38 31 39 85 40 79 41 81 42 32 43 84 44 78 45 77 46 33 48
REMARK SMILES IDX 65 49 45 50 64 51 46 52 49 53 63 54 82 55 47 56 48 57 62 59
REMARK SMILES IDX 83 60 50 61 34 62 35 63 43 64 36 65 37 66 41 67 44 68 38 69
REMARK SMILES IDX 39 70 42 71 40 72 66 73 67 74 75 75 68 76 69 77 73 78 76 79
REMARK SMILES IDX 70 80 71 81 74 82 72 83 51 84 52 85 60 86 53 87 54 88 58 89
REMARK SMILES IDX 61 90 55 91 56 92 59 93 57 94
REMARK H PARENT 18 5 14 20 14 21 12 23 22 28 81 47 49 58
REMARK Flexibility Score: inf
ROOT
ATOM      1  C   UNL A   1      33.866  27.816  22.975  1.00  0.00     0.117 C 
ENDROOT
BRANCH   1   2
ATOM      2  N   UNL A   1      33.179  26.549  23.112  1.00  0.00    -0.356 N 
ATOM      3  O   UNL A   1      33.278  25.915  20.901  1.00  0.00    -0.275 OA
ATOM      4  C   UNL A   1      32.921  25.709  22.056  1.00  0.00     0.222 C 
ATOM      5  H   UNL A   1      32.880  26.274  24.010  1.00  0.00     0.163 HD
BRANCH   4   6
ATOM      6  C   UNL A   1      32.178  24.459  22.458  1.00  0.00     0.133 C 
BRANCH   6   7
ATOM      7  C   UNL A   1      33.171  23.446  23.023  1.00  0.00     0.147 C 
ATOM      8  C   UNL A   1      32.968  23.266  24.531  1.00  0.00     0.152 C 
ATOM      9  O   UNL A   1      34.513  23.895  22.750  1.00  0.00    -0.374 OA
ATOM     10  N   UNL A   1      33.930  22.303  25.057  1.00  0.00    -0.333 N 
ATOM     11  C   UNL A   1      35.469  22.923  23.214  1.00  0.00     0.182 C 
ATOM     12  C   UNL A   1      35.318  22.644  24.716  1.00  0.00     0.148 C 
BRANCH  10  13
ATOM     13  C   UNL A   1      33.674  21.201  25.860  1.00  0.00     0.281 C 
ATOM     14  O   UNL A   1      34.173  21.124  26.989  1.00  0.00    -0.268 OA
BRANCH  13  15
ATOM     15  C   UNL A   1      32.758  20.045  25.376  1.00  0.00     0.275 C 
ATOM     16  C   UNL A   1      32.888  19.677  23.904  1.00  0.00     0.113 C 
ATOM     17  N   UNL A   1      32.903  18.819  26.191  1.00  0.00    -0.334 N 
ATOM     18  C   UNL A   1      33.245  18.198  23.877  1.00  0.00     0.175 C 
ATOM     19  C   UNL A   1      32.888  17.678  25.269  1.00  0.00     0.293 C 
ATOM     20  H   UNL A   1      32.128  18.745  26.850  1.00  0.00     0.347 HD
ATOM     21  H   UNL A   1      33.771  18.841  26.725  1.00  0.00     0.347 HD
BRANCH  18  22
ATOM     22  O   UNL A   1      32.551  17.524  22.839  1.00  0.00    -0.387 OA
ATOM     23  H   UNL A   1      31.955  16.864  23.225  1.00  0.00     0.211 HD
ENDBRANCH  18  22
ENDBRANCH  13  15
ENDBRANCH  10  13
ENDBRANCH   6   7
ENDBRANCH   4   6
ENDBRANCH   1   2
BRANCH   1  24
ATOM     24  C   UNL A   1      33.065  28.954  23.596  1.00  0.00     0.042 C 
BRANCH  24  25
ATOM     25  C   UNL A   1      33.264  29.119  25.100  1.00  0.00     0.118 C 
BRANCH  25  26
ATOM     26  N   UNL A   1      32.706  30.356  25.624  1.00  0.00    -0.352 N 
ATOM     27  C   UNL A   1      33.091  31.103  26.708  1.00  0.00     0.251 C 
ATOM     28  H   UNL A   1      31.935  30.711  25.126  1.00  0.00     0.163 HD
ATOM     29  O   UNL A   1      32.401  32.058  27.064  1.00  0.00    -0.269 OA
BRANCH  27  30
ATOM     30  C   UNL A   1      34.313  30.761  27.471  1.00  0.00     0.039 A 
ATOM     31  C   UNL A   1      35.298  31.742  27.627  1.00  0.00     0.014 A 
ATOM     32  C   UNL A   1      34.512  29.484  28.002  1.00  0.00     0.014 A 
ATOM     33  C   UNL A   1      36.457  31.456  28.352  1.00  0.00     0.010 A 
ATOM     34  C   UNL A   1      35.631  29.226  28.793  1.00  0.00     0.010 A 
ATOM     35  C   UNL A   1      36.623  30.203  28.964  1.00  0.00    -0.014 A 
BRANCH  35  36
ATOM     36  C   UNL A   1      37.841  29.893  29.756  1.00  0.00     0.031 A 
ATOM     37  C   UNL A   1      38.879  28.952  29.208  1.00  0.00     0.074 A 
ATOM     38  C   UNL A   1      37.996  30.422  30.985  1.00  0.00     0.049 A 
ATOM     39  N   UNL A   1      39.987  28.522  29.762  1.00  0.00    -0.248 NA
ATOM     40  C   UNL A   1      38.629  28.399  27.868  1.00  0.00     0.031 C 
ATOM     41  C   UNL A   1      37.044  31.314  31.648  1.00  0.00     0.029 A 
ATOM     42  N   UNL A   1      39.012  30.282  31.899  1.00  0.00    -0.354 N 
ATOM     43  C   UNL A   1      40.552  27.643  28.848  1.00  0.00     0.074 A 
ATOM     44  C   UNL A   1      39.638  27.553  27.729  1.00  0.00     0.031 C 
ATOM     45  C   UNL A   1      37.532  31.661  32.851  1.00  0.00     0.029 A 
ATOM     46  C   UNL A   1      38.810  30.988  33.060  1.00  0.00     0.049 A 
ATOM     47  H   UNL A   1      39.808  29.726  31.738  1.00  0.00     0.167 HD
ATOM     48  C   UNL A   1      41.736  26.990  28.920  1.00  0.00     0.037 A 
ATOM     49  C   UNL A   1      39.569  31.081  34.168  1.00  0.00     0.037 A 
ATOM     50  C   UNL A   1      42.654  27.100  30.023  1.00  0.00     0.049 A 
ATOM     51  C   UNL A   1      40.879  30.339  34.227  1.00  0.00     0.074 A 
ATOM     52  C   UNL A   1      43.903  26.521  30.167  1.00  0.00     0.029 A 
ATOM     53  N   UNL A   1      42.423  27.839  31.173  1.00  0.00    -0.354 N 
ATOM     54  N   UNL A   1      41.434  29.564  33.327  1.00  0.00    -0.248 NA
ATOM     55  C   UNL A   1      41.672  30.495  35.454  1.00  0.00     0.031 C 
ATOM     56  C   UNL A   1      44.405  26.868  31.426  1.00  0.00     0.029 A 
ATOM     57  C   UNL A   1      43.496  27.713  32.041  1.00  0.00     0.049 A 
ATOM     58  H   UNL A   1      41.614  28.375  31.348  1.00  0.00     0.167 HD
ATOM     59  C   UNL A   1      42.654  29.170  33.862  1.00  0.00     0.074 A 
ATOM     60  C   UNL A   1      42.763  29.802  35.160  1.00  0.00     0.031 C 
ATOM     61  C   UNL A   1      43.598  28.360  33.325  1.00  0.00     0.037 A 
BRANCH  48  62
ATOM     62  C   UNL A   1      42.109  26.098  27.770  1.00  0.00     0.064 A 
ATOM     63  C   UNL A   1      42.910  26.554  26.712  1.00  0.00     0.173 A 
ATOM     64  C   UNL A   1      41.687  24.759  27.741  1.00  0.00     0.173 A 
ATOM     65  F   UNL A   1      43.332  27.827  26.685  1.00  0.00    -0.203 F 
ATOM     66  C   UNL A   1      43.246  25.715  25.653  1.00  0.00     0.198 A 
ATOM     67  C   UNL A   1      42.054  23.915  26.696  1.00  0.00     0.198 A 
ATOM     68  F   UNL A   1      40.924  24.268  28.729  1.00  0.00    -0.203 F 
ATOM     69  F   UNL A   1      43.966  26.191  24.626  1.00  0.00    -0.200 F 
ATOM     70  C   UNL A   1      42.825  24.394  25.649  1.00  0.00     0.200 A 
ATOM     71  F   UNL A   1      41.656  22.634  26.702  1.00  0.00    -0.200 F 
ATOM     72  F   UNL A   1      43.155  23.587  24.632  1.00  0.00    -0.200 F 
ENDBRANCH  48  62
BRANCH  49  73
ATOM     73  C   UNL A   1      39.126  31.931  35.305  1.00  0.00     0.064 A 
ATOM     74  C   UNL A   1      38.400  31.383  36.373  1.00  0.00     0.173 A 
ATOM     75  C   UNL A   1      39.403  33.305  35.342  1.00  0.00     0.173 A 
ATOM     76  F   UNL A   1      38.093  30.078  36.373  1.00  0.00    -0.203 F 
ATOM     77  C   UNL A   1      37.949  32.182  37.421  1.00  0.00     0.198 A 
ATOM     78  C   UNL A   1      38.977  34.097  36.407  1.00  0.00     0.198 A 
ATOM     79  F   UNL A   1      40.098  33.877  34.348  1.00  0.00    -0.203 F 
ATOM     80  F   UNL A   1      37.212  31.642  38.402  1.00  0.00    -0.200 F 
ATOM     81  C   UNL A   1      38.242  33.537  37.440  1.00  0.00     0.200 A 
ATOM     82  F   UNL A   1      39.276  35.403  36.428  1.00  0.00    -0.200 F 
ATOM     83  F   UNL A   1      37.808  34.304  38.449  1.00  0.00    -0.200 F 
ENDBRANCH  49  73
BRANCH  61  84
ATOM     84  C   UNL A   1      44.859  28.149  34.116  1.00  0.00     0.064 A 
ATOM     85  C   UNL A   1      45.968  28.996  33.983  1.00  0.00     0.173 A 
ATOM     86  C   UNL A   1      44.939  27.102  35.047  1.00  0.00     0.173 A 
ATOM     87  F   UNL A   1      45.946  30.004  33.098  1.00  0.00    -0.203 F 
ATOM     88  C   UNL A   1      47.123  28.785  34.733  1.00  0.00     0.198 A 
ATOM     89  C   UNL A   1      46.083  26.914  35.819  1.00  0.00     0.198 A 
ATOM     90  F   UNL A   1      43.903  26.267  35.219  1.00  0.00    -0.203 F 
ATOM     91  F   UNL A   1      48.190  29.575  34.551  1.00  0.00    -0.200 F 
ATOM     92  C   UNL A   1      47.177  27.750  35.655  1.00  0.00     0.200 A 
ATOM     93  F   UNL A   1      46.127  25.923  36.720  1.00  0.00    -0.200 F 
ATOM     94  F   UNL A   1      48.287  27.554  36.379  1.00  0.00    -0.200 F 
ENDBRANCH  61  84
ENDBRANCH  35  36
ENDBRANCH  27  30
ENDBRANCH  25  26
ENDBRANCH  24  25
ENDBRANCH   1  24
TORSDOF 14
ENDMDL
MODEL 2
REMARK VINA RESULT:     -11.9      2.187      7.863
REMARK SMILES O=C(C[C@@H]1CN(C(=O)[C@H]2C[C@H](O)C[NH2+]2)CCO1)NCCCNC(=O)c1ccc(-c2c3nc(c(-c4c(F)c(F)c(F)c(F)c4F)c4ccc([nH]4)c(-c4c(F)c(F)c(F)c(F)c4F)c4nc(c(-c5c(F)c(F)c(F)c(F)c5F)c5ccc2[nH]5)C=C4)C=C3)cc1
REMARK SMILES IDX 19 1 18 2 1 3 2 4 3 6 4 7 5 8 17 9 6 10 16 11 15 12 7 13
REMARK SMILES IDX 8 14 9 15 10 16 14 17 11 18 13 19 12 22 20 24 21 25 22 26
REMARK SMILES IDX 23 27 24 29 25 30 26 31 87 32 27 33 86 34 28 35 29 36 30 37
REMARK SMILES IDX 80 38 31 39 85 40 79 41 81 42 32 43 84 44 78 45 77 46 33 48
REMARK SMILES IDX 65 49 45 50 64 51 46 52 49 53 63 54 82 55 47 56 48 57 62 59
REMARK SMILES IDX 83 60 50 61 34 62 35 63 43 64 36 65 37 66 41 67 44 68 38 69
REMARK SMILES IDX 39 70 42 71 40 72 66 73 67 74 75 75 68 76 69 77 73 78 76 79
REMARK SMILES IDX 70 80 71 81 74 82 72 83 51 84 52 85 60 86 53 87 54 88 58 89
REMARK SMILES IDX 61 90 55 91 56 92 59 93 57 94
REMARK H PARENT 18 5 14 20 14 21 12 23 22 28 81 47 49 58
REMARK Flexibility Score: inf
ROOT
ATOM      1  C   UNL A   1      31.306  30.814  25.655  1.00  0.00     0.117 C 
ENDROOT
BRANCH   1   2
ATOM      2  N   UNL A   1      32.279  29.870  26.162  1.00  0.00    -0.356 N 
ATOM      3  O   UNL A   1      33.270  29.351  24.150  1.00  0.00    -0.275 OA
ATOM      4  C   UNL A   1      33.171  29.197  25.362  1.00  0.00     0.222 C 
ATOM      5  H   UNL A   1      32.304  29.700  27.132  1.00  0.00     0.163 HD
BRANCH   4   6
ATOM      6  C   UNL A   1      34.068  28.258  26.130  1.00  0.00     0.133 C 
BRANCH   6   7
ATOM      7  C   UNL A   1      33.333  26.937  26.354  1.00  0.00     0.147 C 
ATOM      8  C   UNL A   1      34.055  25.785  25.647  1.00  0.00     0.152 C 
ATOM      9  O   UNL A   1      31.984  27.055  25.865  1.00  0.00    -0.374 OA
ATOM     10  N   UNL A   1      33.337  24.533  25.862  1.00  0.00    -0.333 N 
ATOM     11  C   UNL A   1      31.249  25.845  26.125  1.00  0.00     0.182 C 
ATOM     12  C   UNL A   1      31.919  24.620  25.485  1.00  0.00     0.148 C 
BRANCH  10  13
ATOM     13  C   UNL A   1      33.856  23.322  26.296  1.00  0.00     0.281 C 
ATOM     14  O   UNL A   1      33.513  22.854  27.388  1.00  0.00    -0.268 OA
BRANCH  13  15
ATOM     15  C   UNL A   1      34.869  22.522  25.435  1.00  0.00     0.275 C 
ATOM     16  C   UNL A   1      34.927  22.907  23.962  1.00  0.00     0.113 C 
ATOM     17  N   UNL A   1      36.240  22.545  25.990  1.00  0.00    -0.334 N 
ATOM     18  C   UNL A   1      36.375  23.287  23.691  1.00  0.00     0.175 C 
ATOM     19  C   UNL A   1      37.165  22.707  24.863  1.00  0.00     0.293 C 
ATOM     20  H   UNL A   1      36.434  21.671  26.478  1.00  0.00     0.347 HD
ATOM     21  H   UNL A   1      36.346  23.309  26.657  1.00  0.00     0.347 HD
BRANCH  18  22
ATOM     22  O   UNL A   1      36.806  22.792  22.432  1.00  0.00    -0.387 OA
ATOM     23  H   UNL A   1      36.370  21.945  22.252  1.00  0.00     0.211 HD
ENDBRANCH  18  22
ENDBRANCH  13  15
ENDBRANCH  10  13
ENDBRANCH   6   7
ENDBRANCH   4   6
ENDBRANCH   1   2
BRANCH   1  24
ATOM     24  C   UNL A   1      31.172  32.023  26.572  1.00  0.00     0.042 C 
BRANCH  24  25
ATOM     25  C   UNL A   1      32.500  32.640  27.003  1.00  0.00     0.118 C 
BRANCH  25  26
ATOM     26  N   UNL A   1      32.367  33.992  27.523  1.00  0.00    -0.352 N 
ATOM     27  C   UNL A   1      33.080  34.627  28.508  1.00  0.00     0.251 C 
ATOM     28  H   UNL A   1      31.658  34.532  27.107  1.00  0.00     0.163 HD
ATOM     29  O   UNL A   1      32.724  35.740  28.894  1.00  0.00    -0.269 OA
BRANCH  27  30
ATOM     30  C   UNL A   1      34.259  33.982  29.128  1.00  0.00     0.039 A 
ATOM     31  C   UNL A   1      34.052  33.082  30.178  1.00  0.00     0.014 A 
ATOM     32  C   UNL A   1      35.560  34.278  28.711  1.00  0.00     0.014 A 
ATOM     33  C   UNL A   1      35.143  32.447  30.776  1.00  0.00     0.010 A 
ATOM     34  C   UNL A   1      36.640  33.583  29.254  1.00  0.00     0.010 A 
ATOM     35  C   UNL A   1      36.445  32.671  30.303  1.00  0.00    -0.014 A 
BRANCH  35  36
ATOM     36  C   UNL A   1      37.612  31.986  30.916  1.00  0.00     0.031 A 
ATOM     37  C   UNL A   1      38.065  32.359  32.302  1.00  0.00     0.074 A 
ATOM     38  C   UNL A   1      38.292  31.059  30.214  1.00  0.00     0.049 A 
ATOM     39  N   UNL A   1      39.084  31.908  32.992  1.00  0.00    -0.248 NA
ATOM     40  C   UNL A   1      37.284  33.394  32.997  1.00  0.00     0.031 C 
ATOM     41  C   UNL A   1      37.982  30.638  28.848  1.00  0.00     0.029 A 
ATOM     42  N   UNL A   1      39.389  30.306  30.553  1.00  0.00    -0.354 N 
ATOM     43  C   UNL A   1      39.073  32.614  34.189  1.00  0.00     0.074 A 
ATOM     44  C   UNL A   1      37.983  33.563  34.108  1.00  0.00     0.031 C 
ATOM     45  C   UNL A   1      38.851  29.685  28.474  1.00  0.00     0.029 A 
ATOM     46  C   UNL A   1      39.802  29.454  29.557  1.00  0.00     0.049 A 
ATOM     47  H   UNL A   1      39.839  30.371  31.426  1.00  0.00     0.167 HD
ATOM     48  C   UNL A   1      39.878  32.466  35.267  1.00  0.00     0.037 A 
ATOM     49  C   UNL A   1      40.832  28.588  29.521  1.00  0.00     0.037 A 
ATOM     50  C   UNL A   1      40.945  31.504  35.354  1.00  0.00     0.049 A 
ATOM     51  C   UNL A   1      41.718  28.448  30.730  1.00  0.00     0.074 A 
ATOM     52  C   UNL A   1      41.784  31.240  36.423  1.00  0.00     0.029 A 
ATOM     53  N   UNL A   1      41.322  30.647  34.331  1.00  0.00    -0.354 N 
ATOM     54  N   UNL A   1      41.656  29.073  31.882  1.00  0.00    -0.248 NA
ATOM     55  C   UNL A   1      42.813  27.472  30.638  1.00  0.00     0.031 C 
ATOM     56  C   UNL A   1      42.701  30.260  36.029  1.00  0.00     0.029 A 
ATOM     57  C   UNL A   1      42.395  29.869  34.736  1.00  0.00     0.049 A 
ATOM     58  H   UNL A   1      40.890  30.599  33.447  1.00  0.00     0.167 HD
ATOM     59  C   UNL A   1      42.675  28.542  32.661  1.00  0.00     0.074 A 
ATOM     60  C   UNL A   1      43.335  27.535  31.855  1.00  0.00     0.031 C 
ATOM     61  C   UNL A   1      43.032  28.859  33.929  1.00  0.00     0.037 A 
BRANCH  48  62
ATOM     62  C   UNL A   1      39.634  33.366  36.445  1.00  0.00     0.064 A 
ATOM     63  C   UNL A   1      40.272  34.610  36.568  1.00  0.00     0.173 A 
ATOM     64  C   UNL A   1      38.725  32.995  37.449  1.00  0.00     0.173 A 
ATOM     65  F   UNL A   1      41.158  35.008  35.643  1.00  0.00    -0.203 F 
ATOM     66  C   UNL A   1      40.037  35.432  37.666  1.00  0.00     0.198 A 
ATOM     67  C   UNL A   1      38.467  33.836  38.528  1.00  0.00     0.198 A 
ATOM     68  F   UNL A   1      38.082  31.820  37.379  1.00  0.00    -0.203 F 
ATOM     69  F   UNL A   1      40.702  36.591  37.789  1.00  0.00    -0.200 F 
ATOM     70  C   UNL A   1      39.129  35.049  38.642  1.00  0.00     0.200 A 
ATOM     71  F   UNL A   1      37.579  33.470  39.463  1.00  0.00    -0.200 F 
ATOM     72  F   UNL A   1      38.898  35.845  39.695  1.00  0.00    -0.200 F 
ENDBRANCH  48  62
BRANCH  49  73
ATOM     73  C   UNL A   1      41.068  27.762  28.307  1.00  0.00     0.064 A 
ATOM     74  C   UNL A   1      40.456  26.509  28.158  1.00  0.00     0.173 A 
ATOM     75  C   UNL A   1      41.919  28.197  27.281  1.00  0.00     0.173 A 
ATOM     76  F   UNL A   1      39.650  26.040  29.122  1.00  0.00    -0.203 F 
ATOM     77  C   UNL A   1      40.704  25.714  27.042  1.00  0.00     0.198 A 
ATOM     78  C   UNL A   1      42.143  27.414  26.150  1.00  0.00     0.198 A 
ATOM     79  F   UNL A   1      42.526  29.389  27.372  1.00  0.00    -0.203 F 
ATOM     80  F   UNL A   1      40.146  24.499  26.951  1.00  0.00    -0.200 F 
ATOM     81  C   UNL A   1      41.544  26.169  26.036  1.00  0.00     0.200 A 
ATOM     82  F   UNL A   1      42.943  27.864  25.174  1.00  0.00    -0.200 F 
ATOM     83  F   UNL A   1      41.781  25.405  24.962  1.00  0.00    -0.200 F 
ENDBRANCH  49  73
BRANCH  61  84
ATOM     84  C   UNL A   1      44.156  28.076  34.548  1.00  0.00     0.064 A 
ATOM     85  C   UNL A   1      45.482  28.530  34.517  1.00  0.00     0.173 A 
ATOM     86  C   UNL A   1      43.891  26.868  35.213  1.00  0.00     0.173 A 
ATOM     87  F   UNL A   1      45.789  29.672  33.883  1.00  0.00    -0.203 F 
ATOM     88  C   UNL A   1      46.506  27.791  35.103  1.00  0.00     0.198 A 
ATOM     89  C   UNL A   1      44.912  26.148  35.827  1.00  0.00     0.198 A 
ATOM     90  F   UNL A   1      42.638  26.392  35.279  1.00  0.00    -0.203 F 
ATOM     91  F   UNL A   1      47.772  28.218  35.015  1.00  0.00    -0.200 F 
ATOM     92  C   UNL A   1      46.220  26.605  35.764  1.00  0.00     0.200 A 
ATOM     93  F   UNL A   1      44.631  25.011  36.478  1.00  0.00    -0.200 F 
ATOM     94  F   UNL A   1      47.206  25.899  36.333  1.00  0.00    -0.200 F 
ENDBRANCH  61  84
ENDBRANCH  35  36
ENDBRANCH  27  30
ENDBRANCH  25  26
ENDBRANCH  24  25
ENDBRANCH   1  24
TORSDOF 14
ENDMDL
MODEL 3
REMARK VINA RESULT:     -11.9      0.536      7.409
REMARK SMILES O=C(C[C@@H]1CN(C(=O)[C@H]2C[C@H](O)C[NH2+]2)CCO1)NCCCNC(=O)c1ccc(-c2c3nc(c(-c4c(F)c(F)c(F)c(F)c4F)c4ccc([nH]4)c(-c4c(F)c(F)c(F)c(F)c4F)c4nc(c(-c5c(F)c(F)c(F)c(F)c5F)c5ccc2[nH]5)C=C4)C=C3)cc1
REMARK SMILES IDX 19 1 18 2 1 3 2 4 3 6 4 7 5 8 17 9 6 10 16 11 15 12 7 13
REMARK SMILES IDX 8 14 9 15 10 16 14 17 11 18 13 19 12 22 20 24 21 25 22 26
REMARK SMILES IDX 23 27 24 29 25 30 26 31 87 32 27 33 86 34 28 35 29 36 30 37
REMARK SMILES IDX 80 38 31 39 85 40 79 41 81 42 32 43 84 44 78 45 77 46 33 48
REMARK SMILES IDX 65 49 45 50 64 51 46 52 49 53 63 54 82 55 47 56 48 57 62 59
REMARK SMILES IDX 83 60 50 61 34 62 35 63 43 64 36 65 37 66 41 67 44 68 38 69
REMARK SMILES IDX 39 70 42 71 40 72 66 73 67 74 75 75 68 76 69 77 73 78 76 79
REMARK SMILES IDX 70 80 71 81 74 82 72 83 51 84 52 85 60 86 53 87 54 88 58 89
REMARK SMILES IDX 61 90 55 91 56 92 59 93 57 94
REMARK H PARENT 18 5 14 20 14 21 12 23 22 28 81 47 49 58
REMARK Flexibility Score: inf
ROOT
ATOM      1  C   UNL A   1      33.848  27.931  23.544  1.00  0.00     0.117 C 
ENDROOT
BRANCH   1   2
ATOM      2  N   UNL A   1      33.208  26.634  23.494  1.00  0.00    -0.356 N 
ATOM      3  O   UNL A   1      33.654  26.166  21.284  1.00  0.00    -0.275 OA
ATOM      4  C   UNL A   1      33.145  25.864  22.357  1.00  0.00     0.222 C 
ATOM      5  H   UNL A   1      32.796  26.284  24.317  1.00  0.00     0.163 HD
BRANCH   4   6
ATOM      6  C   UNL A   1      32.410  24.562  22.561  1.00  0.00     0.133 C 
BRANCH   6   7
ATOM      7  C   UNL A   1      33.370  23.534  23.156  1.00  0.00     0.147 C 
ATOM      8  C   UNL A   1      33.134  23.375  24.661  1.00  0.00     0.152 C 
ATOM      9  O   UNL A   1      34.726  23.950  22.904  1.00  0.00    -0.374 OA
ATOM     10  N   UNL A   1      34.064  22.397  25.217  1.00  0.00    -0.333 N 
ATOM     11  C   UNL A   1      35.652  22.962  23.396  1.00  0.00     0.182 C 
ATOM     12  C   UNL A   1      35.466  22.704  24.898  1.00  0.00     0.148 C 
BRANCH  10  13
ATOM     13  C   UNL A   1      33.769  21.310  26.026  1.00  0.00     0.281 C 
ATOM     14  O   UNL A   1      34.308  21.193  27.133  1.00  0.00    -0.268 OA
BRANCH  13  15
ATOM     15  C   UNL A   1      32.759  20.220  25.577  1.00  0.00     0.275 C 
ATOM     16  C   UNL A   1      32.851  19.802  24.115  1.00  0.00     0.113 C 
ATOM     17  N   UNL A   1      32.808  19.008  26.425  1.00  0.00    -0.334 N 
ATOM     18  C   UNL A   1      33.086  18.299  24.128  1.00  0.00     0.175 C 
ATOM     19  C   UNL A   1      32.695  17.848  25.535  1.00  0.00     0.293 C 
ATOM     20  H   UNL A   1      32.033  19.016  27.088  1.00  0.00     0.347 HD
ATOM     21  H   UNL A   1      33.678  18.974  26.955  1.00  0.00     0.347 HD
BRANCH  18  22
ATOM     22  O   UNL A   1      32.334  17.655  23.110  1.00  0.00    -0.387 OA
ATOM     23  H   UNL A   1      32.871  17.588  22.306  1.00  0.00     0.211 HD
ENDBRANCH  18  22
ENDBRANCH  13  15
ENDBRANCH  10  13
ENDBRANCH   6   7
ENDBRANCH   4   6
ENDBRANCH   1   2
BRANCH   1  24
ATOM     24  C   UNL A   1      32.923  28.986  24.139  1.00  0.00     0.042 C 
BRANCH  24  25
ATOM     25  C   UNL A   1      33.120  29.230  25.632  1.00  0.00     0.118 C 
BRANCH  25  26
ATOM     26  N   UNL A   1      32.770  30.579  26.048  1.00  0.00    -0.352 N 
ATOM     27  C   UNL A   1      33.344  31.380  27.002  1.00  0.00     0.251 C 
ATOM     28  H   UNL A   1      32.004  30.977  25.575  1.00  0.00     0.163 HD
ATOM     29  O   UNL A   1      32.813  32.451  27.296  1.00  0.00    -0.269 OA
BRANCH  27  30
ATOM     30  C   UNL A   1      34.582  30.965  27.698  1.00  0.00     0.039 A 
ATOM     31  C   UNL A   1      35.613  31.899  27.841  1.00  0.00     0.014 A 
ATOM     32  C   UNL A   1      34.750  29.664  28.180  1.00  0.00     0.014 A 
ATOM     33  C   UNL A   1      36.789  31.542  28.505  1.00  0.00     0.010 A 
ATOM     34  C   UNL A   1      35.890  29.334  28.913  1.00  0.00     0.010 A 
ATOM     35  C   UNL A   1      36.928  30.265  29.070  1.00  0.00    -0.014 A 
BRANCH  35  36
ATOM     36  C   UNL A   1      38.165  29.880  29.797  1.00  0.00     0.031 A 
ATOM     37  C   UNL A   1      38.423  30.408  31.183  1.00  0.00     0.074 A 
ATOM     38  C   UNL A   1      39.078  29.090  29.200  1.00  0.00     0.049 A 
ATOM     39  N   UNL A   1      39.459  30.223  31.964  1.00  0.00    -0.248 NA
ATOM     40  C   UNL A   1      37.389  31.280  31.761  1.00  0.00     0.031 C 
ATOM     41  C   UNL A   1      38.969  28.547  27.846  1.00  0.00     0.029 A 
ATOM     42  N   UNL A   1      40.283  28.610  29.654  1.00  0.00    -0.354 N 
ATOM     43  C   UNL A   1      39.207  30.966  33.110  1.00  0.00     0.074 A 
ATOM     44  C   UNL A   1      37.950  31.650  32.901  1.00  0.00     0.031 C 
ATOM     45  C   UNL A   1      40.047  27.789  27.588  1.00  0.00     0.029 A 
ATOM     46  C   UNL A   1      40.941  27.823  28.741  1.00  0.00     0.049 A 
ATOM     47  H   UNL A   1      40.641  28.813  30.548  1.00  0.00     0.167 HD
ATOM     48  C   UNL A   1      39.942  31.048  34.245  1.00  0.00     0.037 A 
ATOM     49  C   UNL A   1      42.133  27.200  28.825  1.00  0.00     0.037 A 
ATOM     50  C   UNL A   1      41.180  30.346  34.459  1.00  0.00     0.049 A 
ATOM     51  C   UNL A   1      42.935  27.314  30.095  1.00  0.00     0.074 A 
ATOM     52  C   UNL A   1      41.974  30.323  35.594  1.00  0.00     0.029 A 
ATOM     53  N   UNL A   1      41.808  29.544  33.518  1.00  0.00    -0.354 N 
ATOM     54  N   UNL A   1      42.653  27.965  31.198  1.00  0.00    -0.248 NA
ATOM     55  C   UNL A   1      44.216  26.597  30.133  1.00  0.00     0.031 C 
ATOM     56  C   UNL A   1      43.106  29.548  35.321  1.00  0.00     0.029 A 
ATOM     57  C   UNL A   1      42.988  29.038  34.038  1.00  0.00     0.049 A 
ATOM     58  H   UNL A   1      41.464  29.361  32.613  1.00  0.00     0.167 HD
ATOM     59  C   UNL A   1      43.701  27.706  32.072  1.00  0.00     0.074 A 
ATOM     60  C   UNL A   1      44.619  26.829  31.375  1.00  0.00     0.031 C 
ATOM     61  C   UNL A   1      43.885  28.154  33.338  1.00  0.00     0.037 A 
BRANCH  48  62
ATOM     62  C   UNL A   1      39.424  31.929  35.345  1.00  0.00     0.064 A 
ATOM     63  C   UNL A   1      39.756  33.290  35.420  1.00  0.00     0.173 A 
ATOM     64  C   UNL A   1      38.557  31.413  36.322  1.00  0.00     0.173 A 
ATOM     65  F   UNL A   1      40.589  33.832  34.518  1.00  0.00    -0.203 F 
ATOM     66  C   UNL A   1      39.268  34.094  36.447  1.00  0.00     0.198 A 
ATOM     67  C   UNL A   1      38.045  32.228  37.328  1.00  0.00     0.198 A 
ATOM     68  F   UNL A   1      38.201  30.120  36.296  1.00  0.00    -0.203 F 
ATOM     69  F   UNL A   1      39.646  35.378  36.527  1.00  0.00    -0.200 F 
ATOM     70  C   UNL A   1      38.407  33.564  37.396  1.00  0.00     0.200 A 
ATOM     71  F   UNL A   1      37.201  31.717  38.237  1.00  0.00    -0.200 F 
ATOM     72  F   UNL A   1      37.933  34.340  38.380  1.00  0.00    -0.200 F 
ENDBRANCH  48  62
BRANCH  49  73
ATOM     73  C   UNL A   1      42.630  26.388  27.683  1.00  0.00     0.064 A 
ATOM     74  C   UNL A   1      42.211  25.062  27.506  1.00  0.00     0.173 A 
ATOM     75  C   UNL A   1      43.543  26.912  26.757  1.00  0.00     0.173 A 
ATOM     76  F   UNL A   1      41.355  24.509  28.377  1.00  0.00    -0.203 F 
ATOM     77  C   UNL A   1      42.704  24.284  26.461  1.00  0.00     0.198 A 
ATOM     78  C   UNL A   1      44.013  26.143  25.694  1.00  0.00     0.198 A 
ATOM     79  F   UNL A   1      43.973  28.177  26.879  1.00  0.00    -0.203 F 
ATOM     80  F   UNL A   1      42.327  23.003  26.346  1.00  0.00    -0.200 F 
ATOM     81  C   UNL A   1      43.601  24.826  25.553  1.00  0.00     0.200 A 
ATOM     82  F   UNL A   1      44.867  26.676  24.810  1.00  0.00    -0.200 F 
ATOM     83  F   UNL A   1      44.074  24.079  24.547  1.00  0.00    -0.200 F 
ENDBRANCH  49  73
BRANCH  61  84
ATOM     84  C   UNL A   1      45.100  27.664  34.074  1.00  0.00     0.064 A 
ATOM     85  C   UNL A   1      45.085  26.479  34.825  1.00  0.00     0.173 A 
ATOM     86  C   UNL A   1      46.308  28.375  33.995  1.00  0.00     0.173 A 
ATOM     87  F   UNL A   1      43.953  25.769  34.942  1.00  0.00    -0.203 F 
ATOM     88  C   UNL A   1      46.226  26.040  35.493  1.00  0.00     0.198 A 
ATOM     89  C   UNL A   1      47.455  27.916  34.637  1.00  0.00     0.198 A 
ATOM     90  F   UNL A   1      46.380  29.511  33.284  1.00  0.00    -0.203 F 
ATOM     91  F   UNL A   1      46.173  24.934  36.246  1.00  0.00    -0.200 F 
ATOM     92  C   UNL A   1      47.411  26.754  35.392  1.00  0.00     0.200 A 
ATOM     93  F   UNL A   1      48.603  28.599  34.526  1.00  0.00    -0.200 F 
ATOM     94  F   UNL A   1      48.508  26.326  36.030  1.00  0.00    -0.200 F 
ENDBRANCH  61  84
ENDBRANCH  35  36
ENDBRANCH  27  30
ENDBRANCH  25  26
ENDBRANCH  24  25
ENDBRANCH   1  24
TORSDOF 14
ENDMDL
