MODEL 1
REMARK VINA RESULT:     -12.5      0.000      0.000
REMARK SMILES Cc1ccn2c([C@@H]3C[C@H]3C(=O)NCCCNC(=O)c3ccc(-c4c5nc(c(-c6c(F)c(F)c(F)c(F)c6F)c6ccc([nH]6)c(-c6c(F)c(F)c(F)c(F)c6F)c6nc(c(-c7c(F)c(F)c(F)c(F)c7F)c7ccc4[nH]7)C=C6)C=C5)cc3)nnc2c1
REMARK SMILES IDX 14 1 13 2 12 3 10 4 11 5 9 7 7 8 8 9 6 10 1 11 2 12 3 13
REMARK SMILES IDX 85 14 4 15 84 16 5 17 83 18 82 19 15 20 16 21 17 22 18 24
REMARK SMILES IDX 19 25 20 26 81 27 21 28 80 29 22 30 23 31 24 32 74 33 25 34
REMARK SMILES IDX 79 35 73 36 75 37 26 38 78 39 72 40 71 41 27 43 59 44 39 45
REMARK SMILES IDX 58 46 40 47 43 48 57 49 76 50 41 51 42 52 56 54 77 55 44 56
REMARK SMILES IDX 28 57 29 58 37 59 30 60 31 61 35 62 38 63 32 64 33 65 36 66
REMARK SMILES IDX 34 67 60 68 61 69 69 70 62 71 63 72 67 73 70 74 64 75 65 76
REMARK SMILES IDX 68 77 66 78 45 79 46 80 54 81 47 82 48 83 52 84 55 85 49 86
REMARK SMILES IDX 50 87 53 88 51 89
REMARK H PARENT 12 6 16 23 75 42 43 53
REMARK Flexibility Score: inf
ROOT
ATOM      1  C   UNL A   1      34.398  35.729  28.459  1.00  0.00     0.042 C 
ENDROOT
BRANCH   1   2
ATOM      2  C   UNL A   1      33.016  35.795  29.112  1.00  0.00     0.117 C 
BRANCH   2   3
ATOM      3  N   UNL A   1      32.922  36.826  30.135  1.00  0.00    -0.356 N 
ATOM      4  C   UNL A   1      33.183  36.871  31.476  1.00  0.00     0.223 C 
ATOM      5  O   UNL A   1      33.046  37.961  32.037  1.00  0.00    -0.275 OA
ATOM      6  H   UNL A   1      32.597  37.685  29.781  1.00  0.00     0.163 HD
BRANCH   4   7
ATOM      7  C   UNL A   1      33.642  35.726  32.312  1.00  0.00     0.090 C 
ATOM      8  C   UNL A   1      35.070  35.275  32.461  1.00  0.00     0.071 C 
ATOM      9  C   UNL A   1      34.341  35.939  33.618  1.00  0.00     0.026 C 
BRANCH   8  10
ATOM     10  C   UNL A   1      35.508  33.823  32.646  1.00  0.00     0.141 A 
ATOM     11  C   UNL A   1      39.319  30.650  35.261  1.00  0.00     0.044 C 
ATOM     12  C   UNL A   1      38.291  31.513  34.593  1.00  0.00    -0.046 A 
ATOM     13  C   UNL A   1      38.199  32.904  35.034  1.00  0.00     0.022 A 
ATOM     14  C   UNL A   1      37.471  31.049  33.626  1.00  0.00     0.053 A 
ATOM     15  C   UNL A   1      37.309  33.728  34.453  1.00  0.00     0.095 A 
ATOM     16  C   UNL A   1      36.511  31.913  33.030  1.00  0.00     0.161 A 
ATOM     17  N   UNL A   1      36.475  33.241  33.445  1.00  0.00    -0.286 N 
ATOM     18  N   UNL A   1      35.594  31.703  32.115  1.00  0.00    -0.130 NA
ATOM     19  N   UNL A   1      34.957  32.895  31.886  1.00  0.00    -0.134 NA
ENDBRANCH   8  10
ENDBRANCH   4   7
ENDBRANCH   2   3
ENDBRANCH   1   2
BRANCH   1  20
ATOM     20  C   UNL A   1      35.159  34.425  28.707  1.00  0.00     0.118 C 
BRANCH  20  21
ATOM     21  N   UNL A   1      34.510  33.238  28.182  1.00  0.00    -0.352 N 
ATOM     22  C   UNL A   1      34.797  31.903  28.120  1.00  0.00     0.251 C 
ATOM     23  H   UNL A   1      33.644  33.447  27.762  1.00  0.00     0.163 HD
ATOM     24  O   UNL A   1      33.875  31.181  27.727  1.00  0.00    -0.269 OA
BRANCH  22  25
ATOM     25  C   UNL A   1      36.110  31.265  28.420  1.00  0.00     0.039 A 
ATOM     26  C   UNL A   1      37.212  31.888  29.002  1.00  0.00     0.014 A 
ATOM     27  C   UNL A   1      36.240  29.917  28.018  1.00  0.00     0.014 A 
ATOM     28  C   UNL A   1      38.427  31.206  29.102  1.00  0.00     0.010 A 
ATOM     29  C   UNL A   1      37.448  29.230  28.127  1.00  0.00     0.010 A 
ATOM     30  C   UNL A   1      38.558  29.887  28.637  1.00  0.00    -0.014 A 
BRANCH  30  31
ATOM     31  C   UNL A   1      39.826  29.189  28.871  1.00  0.00     0.031 A 
ATOM     32  C   UNL A   1      40.160  29.044  30.312  1.00  0.00     0.074 A 
ATOM     33  C   UNL A   1      40.619  28.632  27.928  1.00  0.00     0.049 A 
ATOM     34  N   UNL A   1      41.119  29.630  30.949  1.00  0.00    -0.248 NA
ATOM     35  C   UNL A   1      39.259  28.266  31.175  1.00  0.00     0.031 C 
ATOM     36  C   UNL A   1      40.313  28.435  26.510  1.00  0.00     0.029 A 
ATOM     37  N   UNL A   1      41.858  28.050  28.058  1.00  0.00    -0.354 N 
ATOM     38  C   UNL A   1      41.068  29.145  32.253  1.00  0.00     0.074 A 
ATOM     39  C   UNL A   1      39.824  28.434  32.374  1.00  0.00     0.031 C 
ATOM     40  C   UNL A   1      41.231  27.602  25.962  1.00  0.00     0.029 A 
ATOM     41  C   UNL A   1      42.270  27.327  26.941  1.00  0.00     0.049 A 
ATOM     42  H   UNL A   1      42.405  28.136  28.871  1.00  0.00     0.167 HD
ATOM     43  C   UNL A   1      42.190  29.150  33.024  1.00  0.00     0.037 A 
ATOM     44  C   UNL A   1      43.378  26.551  26.825  1.00  0.00     0.037 A 
ATOM     45  C   UNL A   1      43.196  30.008  32.452  1.00  0.00     0.049 A 
ATOM     46  C   UNL A   1      44.368  27.027  27.814  1.00  0.00     0.074 A 
ATOM     47  C   UNL A   1      43.443  31.358  32.360  1.00  0.00     0.029 A 
ATOM     48  N   UNL A   1      43.969  29.384  31.514  1.00  0.00    -0.354 N 
ATOM     49  N   UNL A   1      44.987  28.169  27.723  1.00  0.00    -0.248 NA
ATOM     50  C   UNL A   1      44.495  26.342  29.097  1.00  0.00     0.031 C 
ATOM     51  C   UNL A   1      44.293  31.532  31.226  1.00  0.00     0.029 A 
ATOM     52  C   UNL A   1      44.565  30.281  30.676  1.00  0.00     0.049 A 
ATOM     53  H   UNL A   1      44.081  28.408  31.450  1.00  0.00     0.167 HD
ATOM     54  C   UNL A   1      45.187  28.542  29.033  1.00  0.00     0.074 A 
ATOM     55  C   UNL A   1      45.057  27.319  29.812  1.00  0.00     0.031 C 
ATOM     56  C   UNL A   1      45.082  29.849  29.399  1.00  0.00     0.037 A 
BRANCH  43  57
ATOM     57  C   UNL A   1      42.604  28.027  33.958  1.00  0.00     0.064 A 
ATOM     58  C   UNL A   1      42.811  28.324  35.324  1.00  0.00     0.173 A 
ATOM     59  C   UNL A   1      43.142  26.798  33.521  1.00  0.00     0.173 A 
ATOM     60  F   UNL A   1      42.362  29.473  35.851  1.00  0.00    -0.203 F 
ATOM     61  C   UNL A   1      43.572  27.497  36.157  1.00  0.00     0.198 A 
ATOM     62  C   UNL A   1      43.859  25.953  34.368  1.00  0.00     0.198 A 
ATOM     63  F   UNL A   1      43.103  26.418  32.240  1.00  0.00    -0.203 F 
ATOM     64  F   UNL A   1      43.850  27.885  37.409  1.00  0.00    -0.200 F 
ATOM     65  C   UNL A   1      44.102  26.316  35.675  1.00  0.00     0.200 A 
ATOM     66  F   UNL A   1      44.388  24.824  33.874  1.00  0.00    -0.200 F 
ATOM     67  F   UNL A   1      44.885  25.553  36.449  1.00  0.00    -0.200 F 
ENDBRANCH  43  57
BRANCH  44  68
ATOM     68  C   UNL A   1      43.626  25.316  26.035  1.00  0.00     0.064 A 
ATOM     69  C   UNL A   1      44.821  25.148  25.307  1.00  0.00     0.173 A 
ATOM     70  C   UNL A   1      42.855  24.158  26.239  1.00  0.00     0.173 A 
ATOM     71  F   UNL A   1      45.631  26.193  25.083  1.00  0.00    -0.203 F 
ATOM     72  C   UNL A   1      45.250  23.890  24.874  1.00  0.00     0.198 A 
ATOM     73  C   UNL A   1      43.282  22.902  25.797  1.00  0.00     0.198 A 
ATOM     74  F   UNL A   1      41.726  24.204  26.959  1.00  0.00    -0.203 F 
ATOM     75  F   UNL A   1      46.436  23.761  24.262  1.00  0.00    -0.200 F 
ATOM     76  C   UNL A   1      44.490  22.765  25.136  1.00  0.00     0.200 A 
ATOM     77  F   UNL A   1      42.551  21.815  26.083  1.00  0.00    -0.200 F 
ATOM     78  F   UNL A   1      44.936  21.549  24.794  1.00  0.00    -0.200 F 
ENDBRANCH  44  68
BRANCH  56  79
ATOM     79  C   UNL A   1      45.340  30.886  28.357  1.00  0.00     0.064 A 
ATOM     80  C   UNL A   1      44.386  31.350  27.438  1.00  0.00     0.173 A 
ATOM     81  C   UNL A   1      46.600  31.501  28.360  1.00  0.00     0.173 A 
ATOM     82  F   UNL A   1      43.143  30.853  27.422  1.00  0.00    -0.203 F 
ATOM     83  C   UNL A   1      44.697  32.374  26.545  1.00  0.00     0.198 A 
ATOM     84  C   UNL A   1      46.893  32.547  27.495  1.00  0.00     0.198 A 
ATOM     85  F   UNL A   1      47.535  31.112  29.242  1.00  0.00    -0.203 F 
ATOM     86  F   UNL A   1      43.778  32.797  25.664  1.00  0.00    -0.200 F 
ATOM     87  C   UNL A   1      45.944  32.978  26.583  1.00  0.00     0.200 A 
ATOM     88  F   UNL A   1      48.086  33.152  27.563  1.00  0.00    -0.200 F 
ATOM     89  F   UNL A   1      46.226  33.993  25.753  1.00  0.00    -0.200 F 
ENDBRANCH  56  79
ENDBRANCH  30  31
ENDBRANCH  22  25
ENDBRANCH  20  21
ENDBRANCH   1  20
TORSDOF 11
ENDMDL
MODEL 2
REMARK VINA RESULT:     -12.4      3.921     11.669
REMARK SMILES Cc1ccn2c([C@@H]3C[C@H]3C(=O)NCCCNC(=O)c3ccc(-c4c5nc(c(-c6c(F)c(F)c(F)c(F)c6F)c6ccc([nH]6)c(-c6c(F)c(F)c(F)c(F)c6F)c6nc(c(-c7c(F)c(F)c(F)c(F)c7F)c7ccc4[nH]7)C=C6)C=C5)cc3)nnc2c1
REMARK SMILES IDX 14 1 13 2 12 3 10 4 11 5 9 7 7 8 8 9 6 10 1 11 2 12 3 13
REMARK SMILES IDX 85 14 4 15 84 16 5 17 83 18 82 19 15 20 16 21 17 22 18 24
REMARK SMILES IDX 19 25 20 26 81 27 21 28 80 29 22 30 23 31 24 32 74 33 25 34
REMARK SMILES IDX 79 35 73 36 75 37 26 38 78 39 72 40 71 41 27 43 59 44 39 45
REMARK SMILES IDX 58 46 40 47 43 48 57 49 76 50 41 51 42 52 56 54 77 55 44 56
REMARK SMILES IDX 28 57 29 58 37 59 30 60 31 61 35 62 38 63 32 64 33 65 36 66
REMARK SMILES IDX 34 67 60 68 61 69 69 70 62 71 63 72 67 73 70 74 64 75 65 76
REMARK SMILES IDX 68 77 66 78 45 79 46 80 54 81 47 82 48 83 52 84 55 85 49 86
REMARK SMILES IDX 50 87 53 88 51 89
REMARK H PARENT 12 6 16 23 75 42 43 53
REMARK Flexibility Score: inf
ROOT
ATOM      1  C   UNL A   1      42.215  19.430  27.537  1.00  0.00     0.042 C 
ENDROOT
BRANCH   1   2
ATOM      2  C   UNL A   1      42.325  18.751  26.170  1.00  0.00     0.117 C 
BRANCH   2   3
ATOM      3  N   UNL A   1      43.662  18.249  25.893  1.00  0.00    -0.356 N 
ATOM      4  C   UNL A   1      44.793  18.790  25.349  1.00  0.00     0.223 C 
ATOM      5  O   UNL A   1      45.798  18.075  25.320  1.00  0.00    -0.275 OA
ATOM      6  H   UNL A   1      43.778  17.307  26.155  1.00  0.00     0.163 HD
BRANCH   4   7
ATOM      7  C   UNL A   1      44.926  20.174  24.813  1.00  0.00     0.090 C 
ATOM      8  C   UNL A   1      45.267  21.394  25.626  1.00  0.00     0.071 C 
ATOM      9  C   UNL A   1      46.263  20.820  24.632  1.00  0.00     0.026 C 
BRANCH   8  10
ATOM     10  C   UNL A   1      44.730  22.797  25.355  1.00  0.00     0.141 A 
ATOM     11  C   UNL A   1      46.152  28.212  25.648  1.00  0.00     0.044 C 
ATOM     12  C   UNL A   1      45.801  26.758  25.550  1.00  0.00    -0.046 A 
ATOM     13  C   UNL A   1      46.891  25.796  25.705  1.00  0.00     0.022 A 
ATOM     14  C   UNL A   1      44.540  26.329  25.325  1.00  0.00     0.053 A 
ATOM     15  C   UNL A   1      46.628  24.479  25.649  1.00  0.00     0.095 A 
ATOM     16  C   UNL A   1      44.267  24.937  25.238  1.00  0.00     0.161 A 
ATOM     17  N   UNL A   1      45.319  24.046  25.429  1.00  0.00    -0.286 N 
ATOM     18  N   UNL A   1      43.158  24.276  24.997  1.00  0.00    -0.130 NA
ATOM     19  N   UNL A   1      43.451  22.938  25.056  1.00  0.00    -0.134 NA
ENDBRANCH   8  10
ENDBRANCH   4   7
ENDBRANCH   2   3
ENDBRANCH   1   2
BRANCH   1  20
ATOM     20  C   UNL A   1      41.904  20.926  27.483  1.00  0.00     0.118 C 
BRANCH  20  21
ATOM     21  N   UNL A   1      40.635  21.257  26.862  1.00  0.00    -0.352 N 
ATOM     22  C   UNL A   1      39.920  22.398  26.626  1.00  0.00     0.251 C 
ATOM     23  H   UNL A   1      40.169  20.457  26.526  1.00  0.00     0.163 HD
ATOM     24  O   UNL A   1      38.933  22.263  25.896  1.00  0.00    -0.269 OA
BRANCH  22  25
ATOM     25  C   UNL A   1      40.187  23.745  27.206  1.00  0.00     0.039 A 
ATOM     26  C   UNL A   1      41.290  24.104  27.977  1.00  0.00     0.014 A 
ATOM     27  C   UNL A   1      39.185  24.716  26.982  1.00  0.00     0.014 A 
ATOM     28  C   UNL A   1      41.346  25.367  28.571  1.00  0.00     0.010 A 
ATOM     29  C   UNL A   1      39.243  25.981  27.564  1.00  0.00     0.010 A 
ATOM     30  C   UNL A   1      40.310  26.298  28.392  1.00  0.00    -0.014 A 
BRANCH  30  31
ATOM     31  C   UNL A   1      40.479  27.644  28.949  1.00  0.00     0.031 A 
ATOM     32  C   UNL A   1      41.600  28.399  28.331  1.00  0.00     0.074 A 
ATOM     33  C   UNL A   1      39.684  28.236  29.868  1.00  0.00     0.049 A 
ATOM     34  N   UNL A   1      42.711  28.736  28.894  1.00  0.00    -0.248 NA
ATOM     35  C   UNL A   1      41.542  28.705  26.893  1.00  0.00     0.031 C 
ATOM     36  C   UNL A   1      38.394  27.757  30.371  1.00  0.00     0.029 A 
ATOM     37  N   UNL A   1      39.830  29.446  30.504  1.00  0.00    -0.354 N 
ATOM     38  C   UNL A   1      43.418  29.471  27.945  1.00  0.00     0.074 A 
ATOM     39  C   UNL A   1      42.726  29.292  26.696  1.00  0.00     0.031 C 
ATOM     40  C   UNL A   1      37.782  28.750  31.061  1.00  0.00     0.029 A 
ATOM     41  C   UNL A   1      38.691  29.878  31.180  1.00  0.00     0.049 A 
ATOM     42  H   UNL A   1      40.667  29.962  30.482  1.00  0.00     0.167 HD
ATOM     43  C   UNL A   1      44.352  30.377  28.344  1.00  0.00     0.037 A 
ATOM     44  C   UNL A   1      38.500  31.077  31.787  1.00  0.00     0.037 A 
ATOM     45  C   UNL A   1      44.709  30.165  29.723  1.00  0.00     0.049 A 
ATOM     46  C   UNL A   1      39.828  31.624  32.135  1.00  0.00     0.074 A 
ATOM     47  C   UNL A   1      45.481  29.285  30.446  1.00  0.00     0.029 A 
ATOM     48  N   UNL A   1      43.873  30.795  30.601  1.00  0.00    -0.354 N 
ATOM     49  N   UNL A   1      40.596  31.121  33.059  1.00  0.00    -0.248 NA
ATOM     50  C   UNL A   1      40.458  32.606  31.257  1.00  0.00     0.031 C 
ATOM     51  C   UNL A   1      44.973  29.311  31.780  1.00  0.00     0.029 A 
ATOM     52  C   UNL A   1      43.925  30.227  31.841  1.00  0.00     0.049 A 
ATOM     53  H   UNL A   1      43.304  31.564  30.368  1.00  0.00     0.167 HD
ATOM     54  C   UNL A   1      41.871  31.373  32.602  1.00  0.00     0.074 A 
ATOM     55  C   UNL A   1      41.731  32.442  31.624  1.00  0.00     0.031 C 
ATOM     56  C   UNL A   1      42.861  30.457  32.789  1.00  0.00     0.037 A 
BRANCH  43  57
ATOM     57  C   UNL A   1      44.554  31.745  27.718  1.00  0.00     0.064 A 
ATOM     58  C   UNL A   1      45.780  32.019  27.069  1.00  0.00     0.173 A 
ATOM     59  C   UNL A   1      43.774  32.877  28.034  1.00  0.00     0.173 A 
ATOM     60  F   UNL A   1      46.616  31.024  26.737  1.00  0.00    -0.203 F 
ATOM     61  C   UNL A   1      46.223  33.326  26.839  1.00  0.00     0.198 A 
ATOM     62  C   UNL A   1      44.198  34.177  27.758  1.00  0.00     0.198 A 
ATOM     63  F   UNL A   1      42.633  32.787  28.724  1.00  0.00    -0.203 F 
ATOM     64  F   UNL A   1      47.448  33.536  26.340  1.00  0.00    -0.200 F 
ATOM     65  C   UNL A   1      45.434  34.404  27.191  1.00  0.00     0.200 A 
ATOM     66  F   UNL A   1      43.431  35.212  28.132  1.00  0.00    -0.200 F 
ATOM     67  F   UNL A   1      45.881  35.656  27.032  1.00  0.00    -0.200 F 
ENDBRANCH  43  57
BRANCH  44  68
ATOM     68  C   UNL A   1      37.270  31.892  31.971  1.00  0.00     0.064 A 
ATOM     69  C   UNL A   1      36.813  32.236  33.259  1.00  0.00     0.173 A 
ATOM     70  C   UNL A   1      36.713  32.616  30.902  1.00  0.00     0.173 A 
ATOM     71  F   UNL A   1      37.306  31.615  34.342  1.00  0.00    -0.203 F 
ATOM     72  C   UNL A   1      35.910  33.282  33.467  1.00  0.00     0.198 A 
ATOM     73  C   UNL A   1      35.803  33.656  31.112  1.00  0.00     0.198 A 
ATOM     74  F   UNL A   1      37.116  32.397  29.643  1.00  0.00    -0.203 F 
ATOM     75  F   UNL A   1      35.569  33.634  34.715  1.00  0.00    -0.200 F 
ATOM     76  C   UNL A   1      35.420  34.005  32.394  1.00  0.00     0.200 A 
ATOM     77  F   UNL A   1      35.357  34.368  30.066  1.00  0.00    -0.200 F 
ATOM     78  F   UNL A   1      34.618  35.059  32.595  1.00  0.00    -0.200 F 
ENDBRANCH  44  68
BRANCH  56  79
ATOM     79  C   UNL A   1      42.732  29.520  33.945  1.00  0.00     0.064 A 
ATOM     80  C   UNL A   1      42.052  28.293  33.905  1.00  0.00     0.173 A 
ATOM     81  C   UNL A   1      43.418  29.852  35.121  1.00  0.00     0.173 A 
ATOM     82  F   UNL A   1      41.430  27.882  32.792  1.00  0.00    -0.203 F 
ATOM     83  C   UNL A   1      42.045  27.447  35.013  1.00  0.00     0.198 A 
ATOM     84  C   UNL A   1      43.440  28.990  36.210  1.00  0.00     0.198 A 
ATOM     85  F   UNL A   1      44.107  31.002  35.195  1.00  0.00    -0.203 F 
ATOM     86  F   UNL A   1      41.379  26.284  34.964  1.00  0.00    -0.200 F 
ATOM     87  C   UNL A   1      42.747  27.791  36.158  1.00  0.00     0.200 A 
ATOM     88  F   UNL A   1      44.151  29.310  37.298  1.00  0.00    -0.200 F 
ATOM     89  F   UNL A   1      42.774  26.957  37.207  1.00  0.00    -0.200 F 
ENDBRANCH  56  79
ENDBRANCH  30  31
ENDBRANCH  22  25
ENDBRANCH  20  21
ENDBRANCH   1  20
TORSDOF 11
ENDMDL
MODEL 3
REMARK VINA RESULT:     -12.4      5.049     10.704
REMARK SMILES Cc1ccn2c([C@@H]3C[C@H]3C(=O)NCCCNC(=O)c3ccc(-c4c5nc(c(-c6c(F)c(F)c(F)c(F)c6F)c6ccc([nH]6)c(-c6c(F)c(F)c(F)c(F)c6F)c6nc(c(-c7c(F)c(F)c(F)c(F)c7F)c7ccc4[nH]7)C=C6)C=C5)cc3)nnc2c1
REMARK SMILES IDX 14 1 13 2 12 3 10 4 11 5 9 7 7 8 8 9 6 10 1 11 2 12 3 13
REMARK SMILES IDX 85 14 4 15 84 16 5 17 83 18 82 19 15 20 16 21 17 22 18 24
REMARK SMILES IDX 19 25 20 26 81 27 21 28 80 29 22 30 23 31 24 32 74 33 25 34
REMARK SMILES IDX 79 35 73 36 75 37 26 38 78 39 72 40 71 41 27 43 59 44 39 45
REMARK SMILES IDX 58 46 40 47 43 48 57 49 76 50 41 51 42 52 56 54 77 55 44 56
REMARK SMILES IDX 28 57 29 58 37 59 30 60 31 61 35 62 38 63 32 64 33 65 36 66
REMARK SMILES IDX 34 67 60 68 61 69 69 70 62 71 63 72 67 73 70 74 64 75 65 76
REMARK SMILES IDX 68 77 66 78 45 79 46 80 54 81 47 82 48 83 52 84 55 85 49 86
REMARK SMILES IDX 50 87 53 88 51 89
REMARK H PARENT 12 6 16 23 75 42 43 53
REMARK Flexibility Score: inf
ROOT
ATOM      1  C   UNL A   1      36.377  21.190  25.361  1.00  0.00     0.042 C 
ENDROOT
BRANCH   1   2
ATOM      2  C   UNL A   1      35.134  21.589  26.158  1.00  0.00     0.117 C 
BRANCH   2   3
ATOM      3  N   UNL A   1      34.003  20.703  25.927  1.00  0.00    -0.356 N 
ATOM      4  C   UNL A   1      32.902  20.748  25.119  1.00  0.00     0.223 C 
ATOM      5  O   UNL A   1      32.157  19.765  25.132  1.00  0.00    -0.275 OA
ATOM      6  H   UNL A   1      34.040  19.887  26.477  1.00  0.00     0.163 HD
BRANCH   4   7
ATOM      7  C   UNL A   1      32.537  21.867  24.205  1.00  0.00     0.090 C 
ATOM      8  C   UNL A   1      33.410  22.415  23.107  1.00  0.00     0.071 C 
ATOM      9  C   UNL A   1      32.153  21.624  22.780  1.00  0.00     0.026 C 
BRANCH   8  10
ATOM     10  C   UNL A   1      33.450  23.880  22.679  1.00  0.00     0.141 A 
ATOM     11  C   UNL A   1      33.366  29.095  24.734  1.00  0.00     0.044 C 
ATOM     12  C   UNL A   1      33.415  27.693  24.206  1.00  0.00    -0.046 A 
ATOM     13  C   UNL A   1      33.632  26.621  25.176  1.00  0.00     0.022 A 
ATOM     14  C   UNL A   1      33.273  27.405  22.894  1.00  0.00     0.053 A 
ATOM     15  C   UNL A   1      33.664  25.343  24.760  1.00  0.00     0.095 A 
ATOM     16  C   UNL A   1      33.333  26.057  22.449  1.00  0.00     0.161 A 
ATOM     17  N   UNL A   1      33.502  25.057  23.403  1.00  0.00    -0.286 N 
ATOM     18  N   UNL A   1      33.260  25.526  21.251  1.00  0.00    -0.130 NA
ATOM     19  N   UNL A   1      33.348  24.165  21.393  1.00  0.00    -0.134 NA
ENDBRANCH   8  10
ENDBRANCH   4   7
ENDBRANCH   2   3
ENDBRANCH   1   2
BRANCH   1  20
ATOM     20  C   UNL A   1      37.500  22.229  25.367  1.00  0.00     0.118 C 
BRANCH  20  21
ATOM     21  N   UNL A   1      38.748  21.766  25.945  1.00  0.00    -0.352 N 
ATOM     22  C   UNL A   1      39.692  22.277  26.791  1.00  0.00     0.251 C 
ATOM     23  H   UNL A   1      38.973  20.853  25.654  1.00  0.00     0.163 HD
ATOM     24  O   UNL A   1      40.544  21.473  27.181  1.00  0.00    -0.269 OA
BRANCH  22  25
ATOM     25  C   UNL A   1      39.814  23.698  27.226  1.00  0.00     0.039 A 
ATOM     26  C   UNL A   1      38.947  24.736  26.895  1.00  0.00     0.014 A 
ATOM     27  C   UNL A   1      40.955  24.003  28.001  1.00  0.00     0.014 A 
ATOM     28  C   UNL A   1      39.256  26.048  27.261  1.00  0.00     0.010 A 
ATOM     29  C   UNL A   1      41.262  25.309  28.377  1.00  0.00     0.010 A 
ATOM     30  C   UNL A   1      40.429  26.343  27.975  1.00  0.00    -0.014 A 
BRANCH  30  31
ATOM     31  C   UNL A   1      40.641  27.723  28.425  1.00  0.00     0.031 A 
ATOM     32  C   UNL A   1      41.859  28.348  27.848  1.00  0.00     0.074 A 
ATOM     33  C   UNL A   1      39.813  28.445  29.213  1.00  0.00     0.049 A 
ATOM     34  N   UNL A   1      42.940  28.669  28.478  1.00  0.00    -0.248 NA
ATOM     35  C   UNL A   1      41.945  28.522  26.390  1.00  0.00     0.031 C 
ATOM     36  C   UNL A   1      38.456  28.094  29.636  1.00  0.00     0.029 A 
ATOM     37  N   UNL A   1      39.986  29.698  29.751  1.00  0.00    -0.354 N 
ATOM     38  C   UNL A   1      43.772  29.268  27.536  1.00  0.00     0.074 A 
ATOM     39  C   UNL A   1      43.179  29.015  26.251  1.00  0.00     0.031 C 
ATOM     40  C   UNL A   1      37.856  29.181  30.177  1.00  0.00     0.029 A 
ATOM     41  C   UNL A   1      38.826  30.259  30.279  1.00  0.00     0.049 A 
ATOM     42  H   UNL A   1      40.856  30.159  29.760  1.00  0.00     0.167 HD
ATOM     43  C   UNL A   1      44.729  30.149  27.938  1.00  0.00     0.037 A 
ATOM     44  C   UNL A   1      38.666  31.519  30.759  1.00  0.00     0.037 A 
ATOM     45  C   UNL A   1      44.952  30.046  29.357  1.00  0.00     0.049 A 
ATOM     46  C   UNL A   1      39.994  32.016  31.177  1.00  0.00     0.074 A 
ATOM     47  C   UNL A   1      45.598  29.194  30.222  1.00  0.00     0.029 A 
ATOM     48  N   UNL A   1      44.089  30.805  30.097  1.00  0.00    -0.354 N 
ATOM     49  N   UNL A   1      40.645  31.555  32.208  1.00  0.00    -0.248 NA
ATOM     50  C   UNL A   1      40.762  32.872  30.277  1.00  0.00     0.031 C 
ATOM     51  C   UNL A   1      44.981  29.374  31.497  1.00  0.00     0.029 A 
ATOM     52  C   UNL A   1      43.996  30.353  31.381  1.00  0.00     0.049 A 
ATOM     53  H   UNL A   1      43.596  31.581  29.746  1.00  0.00     0.167 HD
ATOM     54  C   UNL A   1      41.968  31.686  31.848  1.00  0.00     0.074 A 
ATOM     55  C   UNL A   1      41.985  32.666  30.771  1.00  0.00     0.031 C 
ATOM     56  C   UNL A   1      42.873  30.735  32.204  1.00  0.00     0.037 A 
BRANCH  43  57
ATOM     57  C   UNL A   1      45.077  31.439  27.215  1.00  0.00     0.064 A 
ATOM     58  C   UNL A   1      46.409  31.637  26.786  1.00  0.00     0.173 A 
ATOM     59  C   UNL A   1      44.276  32.600  27.250  1.00  0.00     0.173 A 
ATOM     60  F   UNL A   1      47.270  30.610  26.731  1.00  0.00    -0.203 F 
ATOM     61  C   UNL A   1      46.916  32.909  26.502  1.00  0.00     0.198 A 
ATOM     62  C   UNL A   1      44.774  33.860  26.918  1.00  0.00     0.198 A 
ATOM     63  F   UNL A   1      43.023  32.589  27.714  1.00  0.00    -0.203 F 
ATOM     64  F   UNL A   1      48.218  33.061  26.226  1.00  0.00    -0.200 F 
ATOM     65  C   UNL A   1      46.100  34.021  26.576  1.00  0.00     0.200 A 
ATOM     66  F   UNL A   1      43.973  34.931  27.022  1.00  0.00    -0.200 F 
ATOM     67  F   UNL A   1      46.596  35.247  26.369  1.00  0.00    -0.200 F 
ENDBRANCH  43  57
BRANCH  44  68
ATOM     68  C   UNL A   1      37.484  32.420  30.758  1.00  0.00     0.064 A 
ATOM     69  C   UNL A   1      37.134  33.158  29.610  1.00  0.00     0.173 A 
ATOM     70  C   UNL A   1      36.500  32.327  31.759  1.00  0.00     0.173 A 
ATOM     71  F   UNL A   1      38.001  33.282  28.593  1.00  0.00    -0.203 F 
ATOM     72  C   UNL A   1      35.859  33.706  29.444  1.00  0.00     0.198 A 
ATOM     73  C   UNL A   1      35.228  32.883  31.594  1.00  0.00     0.198 A 
ATOM     74  F   UNL A   1      36.717  31.608  32.868  1.00  0.00    -0.203 F 
ATOM     75  F   UNL A   1      35.539  34.324  28.298  1.00  0.00    -0.200 F 
ATOM     76  C   UNL A   1      34.900  33.551  30.429  1.00  0.00     0.200 A 
ATOM     77  F   UNL A   1      34.298  32.703  32.543  1.00  0.00    -0.200 F 
ATOM     78  F   UNL A   1      33.653  34.005  30.239  1.00  0.00    -0.200 F 
ENDBRANCH  44  68
BRANCH  56  79
ATOM     79  C   UNL A   1      42.583  29.919  33.421  1.00  0.00     0.064 A 
ATOM     80  C   UNL A   1      42.835  30.333  34.738  1.00  0.00     0.173 A 
ATOM     81  C   UNL A   1      41.931  28.693  33.233  1.00  0.00     0.173 A 
ATOM     82  F   UNL A   1      43.396  31.522  34.994  1.00  0.00    -0.203 F 
ATOM     83  C   UNL A   1      42.465  29.534  35.818  1.00  0.00     0.198 A 
ATOM     84  C   UNL A   1      41.530  27.917  34.313  1.00  0.00     0.198 A 
ATOM     85  F   UNL A   1      41.643  28.269  31.992  1.00  0.00    -0.203 F 
ATOM     86  F   UNL A   1      42.724  29.938  37.071  1.00  0.00    -0.200 F 
ATOM     87  C   UNL A   1      41.804  28.334  35.605  1.00  0.00     0.200 A 
ATOM     88  F   UNL A   1      40.858  26.778  34.101  1.00  0.00    -0.200 F 
ATOM     89  F   UNL A   1      41.411  27.587  36.647  1.00  0.00    -0.200 F 
ENDBRANCH  56  79
ENDBRANCH  30  31
ENDBRANCH  22  25
ENDBRANCH  20  21
ENDBRANCH   1  20
TORSDOF 11
ENDMDL
