MODEL 1
REMARK VINA RESULT:     -11.2      0.000      0.000
REMARK SMILES COCCS(=O)(=O)N[C@@H]1C=C[C@@H](C(=O)NCCCNC(=O)c2ccc(-c3c4nc(c(-c5c(F)c(F)c(F)c(F)c5F)c5ccc([nH]5)c(-c5c(F)c(F)c(F)c(F)c5F)c5nc(c(-c6c(F)c(F)c(F)c(F)c6F)c6ccc3[nH]6)C=C5)C=C4)cc2)C1
REMARK SMILES IDX 13 1 14 2 15 3 12 5 9 6 10 7 85 8 11 9 8 10 5 12 6 13 7 14
REMARK SMILES IDX 4 15 3 16 2 17 1 18 16 19 17 20 18 21 19 22 20 23 21 25
REMARK SMILES IDX 22 26 23 27 84 28 24 29 83 30 25 31 26 32 27 33 77 34 28 35
REMARK SMILES IDX 82 36 76 37 78 38 29 39 81 40 75 41 74 42 30 44 62 45 42 46
REMARK SMILES IDX 61 47 43 48 46 49 60 50 79 51 44 52 45 53 59 55 80 56 47 57
REMARK SMILES IDX 31 58 32 59 40 60 33 61 34 62 38 63 41 64 35 65 36 66 39 67
REMARK SMILES IDX 37 68 63 69 64 70 72 71 65 72 66 73 70 74 73 75 67 76 68 77
REMARK SMILES IDX 71 78 69 79 48 80 49 81 57 82 50 83 51 84 55 85 58 86 52 87
REMARK SMILES IDX 53 88 56 89 54 90
REMARK H PARENT 15 4 8 11 19 24 78 43 46 54
REMARK Flexibility Score: inf
ROOT
ATOM      1  C   UNL A   1      32.476  29.097  24.698  1.00  0.00     0.226 C 
ATOM      2  O   UNL A   1      33.058  29.096  23.609  1.00  0.00    -0.274 OA
ATOM      3  N   UNL A   1      32.021  30.290  25.152  1.00  0.00    -0.356 N 
ATOM      4  H   UNL A   1      32.105  31.037  24.515  1.00  0.00     0.163 HD
ENDROOT
BRANCH   1   5
ATOM      5  C   UNL A   1      32.301  27.808  25.486  1.00  0.00     0.103 C 
ATOM      6  C   UNL A   1      31.838  25.431  25.401  1.00  0.00     0.093 C 
ATOM      7  C   UNL A   1      33.258  25.690  25.776  1.00  0.00    -0.011 C 
ATOM      8  C   UNL A   1      31.376  26.773  24.852  1.00  0.00     0.042 C 
ATOM      9  C   UNL A   1      33.536  27.003  25.774  1.00  0.00    -0.016 C 
BRANCH   6  10
ATOM     10  N   UNL A   1      31.002  24.901  26.481  1.00  0.00    -0.208 NA
ATOM     11  H   UNL A   1      31.309  25.396  27.318  1.00  0.00     0.141 HD
BRANCH  10  12
ATOM     12  S   UNL A   1      30.865  23.307  26.950  1.00  0.00     0.214 S 
ATOM     13  O   UNL A   1      29.606  23.050  27.607  1.00  0.00    -0.212 OA
ATOM     14  O   UNL A   1      32.114  23.059  27.639  1.00  0.00    -0.212 OA
BRANCH  12  15
ATOM     15  C   UNL A   1      30.943  22.340  25.448  1.00  0.00     0.182 C 
BRANCH  15  16
ATOM     16  C   UNL A   1      32.183  21.484  25.270  1.00  0.00     0.177 C 
BRANCH  16  17
ATOM     17  O   UNL A   1      32.221  20.482  24.252  1.00  0.00    -0.384 OA
ATOM     18  C   UNL A   1      32.577  19.160  24.608  1.00  0.00     0.194 C 
ENDBRANCH  16  17
ENDBRANCH  15  16
ENDBRANCH  12  15
ENDBRANCH  10  12
ENDBRANCH   6  10
ENDBRANCH   1   5
BRANCH   3  19
ATOM     19  C   UNL A   1      31.433  30.638  26.426  1.00  0.00     0.117 C 
BRANCH  19  20
ATOM     20  C   UNL A   1      31.374  32.151  26.596  1.00  0.00     0.042 C 
BRANCH  20  21
ATOM     21  C   UNL A   1      32.686  32.731  27.097  1.00  0.00     0.118 C 
BRANCH  21  22
ATOM     22  N   UNL A   1      32.526  34.115  27.523  1.00  0.00    -0.352 N 
ATOM     23  C   UNL A   1      33.063  34.745  28.616  1.00  0.00     0.251 C 
ATOM     24  H   UNL A   1      31.954  34.673  26.949  1.00  0.00     0.163 HD
ATOM     25  O   UNL A   1      32.563  35.777  29.048  1.00  0.00    -0.269 OA
BRANCH  23  26
ATOM     26  C   UNL A   1      34.259  34.168  29.254  1.00  0.00     0.039 A 
ATOM     27  C   UNL A   1      35.529  34.565  28.835  1.00  0.00     0.014 A 
ATOM     28  C   UNL A   1      34.109  33.213  30.263  1.00  0.00     0.014 A 
ATOM     29  C   UNL A   1      36.653  34.029  29.462  1.00  0.00     0.010 A 
ATOM     30  C   UNL A   1      35.220  32.770  30.960  1.00  0.00     0.010 A 
ATOM     31  C   UNL A   1      36.503  33.146  30.544  1.00  0.00    -0.014 A 
BRANCH  31  32
ATOM     32  C   UNL A   1      37.669  32.542  31.230  1.00  0.00     0.031 A 
ATOM     33  C   UNL A   1      38.421  31.429  30.557  1.00  0.00     0.074 A 
ATOM     34  C   UNL A   1      37.990  32.938  32.475  1.00  0.00     0.049 A 
ATOM     35  N   UNL A   1      39.387  30.680  31.023  1.00  0.00    -0.248 NA
ATOM     36  C   UNL A   1      38.001  31.080  29.189  1.00  0.00     0.031 C 
ATOM     37  C   UNL A   1      37.300  33.978  33.239  1.00  0.00     0.029 A 
ATOM     38  N   UNL A   1      38.973  32.497  33.324  1.00  0.00    -0.354 N 
ATOM     39  C   UNL A   1      39.669  29.764  30.017  1.00  0.00     0.074 A 
ATOM     40  C   UNL A   1      38.728  30.001  28.947  1.00  0.00     0.031 C 
ATOM     41  C   UNL A   1      37.898  34.115  34.434  1.00  0.00     0.029 A 
ATOM     42  C   UNL A   1      38.979  33.139  34.537  1.00  0.00     0.049 A 
ATOM     43  H   UNL A   1      39.612  31.787  33.085  1.00  0.00     0.167 HD
ATOM     44  C   UNL A   1      40.649  28.831  29.978  1.00  0.00     0.037 A 
ATOM     45  C   UNL A   1      39.765  32.950  35.613  1.00  0.00     0.037 A 
ATOM     46  C   UNL A   1      41.596  28.625  31.039  1.00  0.00     0.049 A 
ATOM     47  C   UNL A   1      40.837  31.895  35.550  1.00  0.00     0.074 A 
ATOM     48  C   UNL A   1      42.664  27.747  31.086  1.00  0.00     0.029 A 
ATOM     49  N   UNL A   1      41.587  29.311  32.246  1.00  0.00    -0.354 N 
ATOM     50  N   UNL A   1      41.140  31.077  34.572  1.00  0.00    -0.248 NA
ATOM     51  C   UNL A   1      41.682  31.742  36.743  1.00  0.00     0.031 C 
ATOM     52  C   UNL A   1      43.264  27.860  32.344  1.00  0.00     0.029 A 
ATOM     53  C   UNL A   1      42.615  28.858  33.054  1.00  0.00     0.049 A 
ATOM     54  H   UNL A   1      40.944  30.015  32.491  1.00  0.00     0.167 HD
ATOM     55  C   UNL A   1      42.231  30.339  35.012  1.00  0.00     0.074 A 
ATOM     56  C   UNL A   1      42.543  30.815  36.344  1.00  0.00     0.031 C 
ATOM     57  C   UNL A   1      42.916  29.360  34.372  1.00  0.00     0.037 A 
BRANCH  44  58
ATOM     58  C   UNL A   1      40.739  27.969  28.750  1.00  0.00     0.064 A 
ATOM     59  C   UNL A   1      41.554  28.315  27.661  1.00  0.00     0.173 A 
ATOM     60  C   UNL A   1      40.013  26.771  28.668  1.00  0.00     0.173 A 
ATOM     61  F   UNL A   1      42.260  29.456  27.680  1.00  0.00    -0.203 F 
ATOM     62  C   UNL A   1      41.609  27.515  26.522  1.00  0.00     0.198 A 
ATOM     63  C   UNL A   1      40.101  25.955  27.542  1.00  0.00     0.198 A 
ATOM     64  F   UNL A   1      39.221  26.387  29.680  1.00  0.00    -0.203 F 
ATOM     65  F   UNL A   1      42.346  27.901  25.470  1.00  0.00    -0.200 F 
ATOM     66  C   UNL A   1      40.889  26.333  26.466  1.00  0.00     0.200 A 
ATOM     67  F   UNL A   1      39.416  24.804  27.497  1.00  0.00    -0.200 F 
ATOM     68  F   UNL A   1      40.948  25.561  25.373  1.00  0.00    -0.200 F 
ENDBRANCH  44  58
BRANCH  45  69
ATOM     69  C   UNL A   1      39.586  33.794  36.824  1.00  0.00     0.064 A 
ATOM     70  C   UNL A   1      40.135  35.082  36.890  1.00  0.00     0.173 A 
ATOM     71  C   UNL A   1      38.868  33.335  37.938  1.00  0.00     0.173 A 
ATOM     72  F   UNL A   1      40.843  35.561  35.855  1.00  0.00    -0.203 F 
ATOM     73  C   UNL A   1      39.996  35.868  38.031  1.00  0.00     0.198 A 
ATOM     74  C   UNL A   1      38.702  34.135  39.067  1.00  0.00     0.198 A 
ATOM     75  F   UNL A   1      38.312  32.114  37.924  1.00  0.00    -0.203 F 
ATOM     76  F   UNL A   1      40.574  37.075  38.085  1.00  0.00    -0.200 F 
ATOM     77  C   UNL A   1      39.275  35.395  39.117  1.00  0.00     0.200 A 
ATOM     78  F   UNL A   1      37.987  33.682  40.106  1.00  0.00    -0.200 F 
ATOM     79  F   UNL A   1      39.137  36.153  40.213  1.00  0.00    -0.200 F 
ENDBRANCH  45  69
BRANCH  57  80
ATOM     80  C   UNL A   1      44.105  28.774  35.079  1.00  0.00     0.064 A 
ATOM     81  C   UNL A   1      45.381  29.347  34.982  1.00  0.00     0.173 A 
ATOM     82  C   UNL A   1      43.950  27.652  35.907  1.00  0.00     0.173 A 
ATOM     83  F   UNL A   1      45.585  30.413  34.193  1.00  0.00    -0.203 F 
ATOM     84  C   UNL A   1      46.463  28.800  35.666  1.00  0.00     0.198 A 
ATOM     85  C   UNL A   1      45.025  27.131  36.619  1.00  0.00     0.198 A 
ATOM     86  F   UNL A   1      42.747  27.070  36.042  1.00  0.00    -0.203 F 
ATOM     87  F   UNL A   1      47.685  29.332  35.518  1.00  0.00    -0.200 F 
ATOM     88  C   UNL A   1      46.283  27.700  36.491  1.00  0.00     0.200 A 
ATOM     89  F   UNL A   1      44.844  26.079  37.429  1.00  0.00    -0.200 F 
ATOM     90  F   UNL A   1      47.323  27.183  37.159  1.00  0.00    -0.200 F 
ENDBRANCH  57  80
ENDBRANCH  31  32
ENDBRANCH  23  26
ENDBRANCH  21  22
ENDBRANCH  20  21
ENDBRANCH  19  20
ENDBRANCH   3  19
TORSDOF 15
ENDMDL
MODEL 2
REMARK VINA RESULT:     -11.2      0.701      7.702
REMARK SMILES COCCS(=O)(=O)N[C@@H]1C=C[C@@H](C(=O)NCCCNC(=O)c2ccc(-c3c4nc(c(-c5c(F)c(F)c(F)c(F)c5F)c5ccc([nH]5)c(-c5c(F)c(F)c(F)c(F)c5F)c5nc(c(-c6c(F)c(F)c(F)c(F)c6F)c6ccc3[nH]6)C=C5)C=C4)cc2)C1
REMARK SMILES IDX 13 1 14 2 15 3 12 5 9 6 10 7 85 8 11 9 8 10 5 12 6 13 7 14
REMARK SMILES IDX 4 15 3 16 2 17 1 18 16 19 17 20 18 21 19 22 20 23 21 25
REMARK SMILES IDX 22 26 23 27 84 28 24 29 83 30 25 31 26 32 27 33 77 34 28 35
REMARK SMILES IDX 82 36 76 37 78 38 29 39 81 40 75 41 74 42 30 44 62 45 42 46
REMARK SMILES IDX 61 47 43 48 46 49 60 50 79 51 44 52 45 53 59 55 80 56 47 57
REMARK SMILES IDX 31 58 32 59 40 60 33 61 34 62 38 63 41 64 35 65 36 66 39 67
REMARK SMILES IDX 37 68 63 69 64 70 72 71 65 72 66 73 70 74 73 75 67 76 68 77
REMARK SMILES IDX 71 78 69 79 48 80 49 81 57 82 50 83 51 84 55 85 58 86 52 87
REMARK SMILES IDX 53 88 56 89 54 90
REMARK H PARENT 15 4 8 11 19 24 78 43 46 54
REMARK Flexibility Score: inf
ROOT
ATOM      1  C   UNL A   1      31.440  29.186  24.598  1.00  0.00     0.226 C 
ATOM      2  O   UNL A   1      31.515  29.083  23.370  1.00  0.00    -0.274 OA
ATOM      3  N   UNL A   1      31.273  30.433  25.103  1.00  0.00    -0.356 N 
ATOM      4  H   UNL A   1      31.120  31.136  24.431  1.00  0.00     0.163 HD
ENDROOT
BRANCH   1   5
ATOM      5  C   UNL A   1      31.548  27.957  25.489  1.00  0.00     0.103 C 
ATOM      6  C   UNL A   1      31.722  25.543  25.593  1.00  0.00     0.093 C 
ATOM      7  C   UNL A   1      32.997  26.193  26.014  1.00  0.00    -0.011 C 
ATOM      8  C   UNL A   1      30.970  26.671  24.904  1.00  0.00     0.042 C 
ATOM      9  C   UNL A   1      32.925  27.529  25.908  1.00  0.00    -0.016 C 
BRANCH   6  10
ATOM     10  N   UNL A   1      30.977  24.892  26.673  1.00  0.00    -0.208 NA
ATOM     11  H   UNL A   1      31.367  25.279  27.532  1.00  0.00     0.141 HD
BRANCH  10  12
ATOM     12  S   UNL A   1      30.852  23.253  26.957  1.00  0.00     0.214 S 
ATOM     13  O   UNL A   1      29.612  22.918  27.614  1.00  0.00    -0.212 OA
ATOM     14  O   UNL A   1      32.120  22.931  27.578  1.00  0.00    -0.212 OA
BRANCH  12  15
ATOM     15  C   UNL A   1      30.888  22.468  25.351  1.00  0.00     0.182 C 
BRANCH  15  16
ATOM     16  C   UNL A   1      32.070  21.556  25.081  1.00  0.00     0.177 C 
BRANCH  16  17
ATOM     17  O   UNL A   1      31.942  20.144  25.261  1.00  0.00    -0.384 OA
ATOM     18  C   UNL A   1      32.906  19.291  24.678  1.00  0.00     0.194 C 
ENDBRANCH  16  17
ENDBRANCH  15  16
ENDBRANCH  12  15
ENDBRANCH  10  12
ENDBRANCH   6  10
ENDBRANCH   1   5
BRANCH   3  19
ATOM     19  C   UNL A   1      31.286  30.891  26.474  1.00  0.00     0.117 C 
BRANCH  19  20
ATOM     20  C   UNL A   1      31.384  32.410  26.532  1.00  0.00     0.042 C 
BRANCH  20  21
ATOM     21  C   UNL A   1      32.735  32.886  27.040  1.00  0.00     0.118 C 
BRANCH  21  22
ATOM     22  N   UNL A   1      32.641  34.216  27.629  1.00  0.00    -0.352 N 
ATOM     23  C   UNL A   1      33.204  34.684  28.787  1.00  0.00     0.251 C 
ATOM     24  H   UNL A   1      32.099  34.866  27.126  1.00  0.00     0.163 HD
ATOM     25  O   UNL A   1      32.754  35.681  29.340  1.00  0.00    -0.269 OA
BRANCH  23  26
ATOM     26  C   UNL A   1      34.369  33.978  29.349  1.00  0.00     0.039 A 
ATOM     27  C   UNL A   1      35.658  34.425  29.060  1.00  0.00     0.014 A 
ATOM     28  C   UNL A   1      34.170  32.853  30.152  1.00  0.00     0.014 A 
ATOM     29  C   UNL A   1      36.751  33.762  29.616  1.00  0.00     0.010 A 
ATOM     30  C   UNL A   1      35.247  32.267  30.794  1.00  0.00     0.010 A 
ATOM     31  C   UNL A   1      36.550  32.693  30.505  1.00  0.00    -0.014 A 
BRANCH  31  32
ATOM     32  C   UNL A   1      37.681  31.952  31.108  1.00  0.00     0.031 A 
ATOM     33  C   UNL A   1      38.134  32.304  32.497  1.00  0.00     0.074 A 
ATOM     34  C   UNL A   1      38.342  31.033  30.380  1.00  0.00     0.049 A 
ATOM     35  N   UNL A   1      39.171  31.872  33.167  1.00  0.00    -0.248 NA
ATOM     36  C   UNL A   1      37.335  33.312  33.216  1.00  0.00     0.031 C 
ATOM     37  C   UNL A   1      38.017  30.646  29.007  1.00  0.00     0.029 A 
ATOM     38  N   UNL A   1      39.438  30.269  30.692  1.00  0.00    -0.354 N 
ATOM     39  C   UNL A   1      39.158  32.570  34.368  1.00  0.00     0.074 A 
ATOM     40  C   UNL A   1      38.058  33.504  34.308  1.00  0.00     0.031 C 
ATOM     41  C   UNL A   1      38.877  29.696  28.603  1.00  0.00     0.029 A 
ATOM     42  C   UNL A   1      39.841  29.446  29.670  1.00  0.00     0.049 A 
ATOM     43  H   UNL A   1      39.890  30.308  31.565  1.00  0.00     0.167 HD
ATOM     44  C   UNL A   1      39.973  32.421  35.439  1.00  0.00     0.037 A 
ATOM     45  C   UNL A   1      40.882  28.594  29.604  1.00  0.00     0.037 A 
ATOM     46  C   UNL A   1      41.047  31.467  35.494  1.00  0.00     0.049 A 
ATOM     47  C   UNL A   1      41.783  28.458  30.802  1.00  0.00     0.074 A 
ATOM     48  C   UNL A   1      41.903  31.190  36.546  1.00  0.00     0.029 A 
ATOM     49  N   UNL A   1      41.414  30.632  34.448  1.00  0.00    -0.354 N 
ATOM     50  N   UNL A   1      41.726  29.074  31.957  1.00  0.00    -0.248 NA
ATOM     51  C   UNL A   1      42.891  27.500  30.687  1.00  0.00     0.031 C 
ATOM     52  C   UNL A   1      42.823  30.230  36.115  1.00  0.00     0.029 A 
ATOM     53  C   UNL A   1      42.499  29.857  34.820  1.00  0.00     0.049 A 
ATOM     54  H   UNL A   1      40.968  30.597  33.570  1.00  0.00     0.167 HD
ATOM     55  C   UNL A   1      42.764  28.554  32.721  1.00  0.00     0.074 A 
ATOM     56  C   UNL A   1      43.427  27.563  31.899  1.00  0.00     0.031 C 
ATOM     57  C   UNL A   1      43.132  28.864  33.988  1.00  0.00     0.037 A 
BRANCH  44  58
ATOM     58  C   UNL A   1      39.730  33.308  36.627  1.00  0.00     0.064 A 
ATOM     59  C   UNL A   1      38.825  32.956  37.641  1.00  0.00     0.173 A 
ATOM     60  C   UNL A   1      40.425  34.519  36.763  1.00  0.00     0.173 A 
ATOM     61  F   UNL A   1      38.123  31.815  37.554  1.00  0.00    -0.203 F 
ATOM     62  C   UNL A   1      38.595  33.800  38.724  1.00  0.00     0.198 A 
ATOM     63  C   UNL A   1      40.220  35.343  37.868  1.00  0.00     0.198 A 
ATOM     64  F   UNL A   1      41.305  34.905  35.828  1.00  0.00    -0.203 F 
ATOM     65  F   UNL A   1      37.678  33.471  39.645  1.00  0.00    -0.200 F 
ATOM     66  C   UNL A   1      39.298  34.988  38.841  1.00  0.00     0.200 A 
ATOM     67  F   UNL A   1      40.913  36.484  37.988  1.00  0.00    -0.200 F 
ATOM     68  F   UNL A   1      39.082  35.797  39.888  1.00  0.00    -0.200 F 
ENDBRANCH  44  58
BRANCH  45  69
ATOM     69  C   UNL A   1      41.107  27.789  28.375  1.00  0.00     0.064 A 
ATOM     70  C   UNL A   1      40.511  26.529  28.222  1.00  0.00     0.173 A 
ATOM     71  C   UNL A   1      41.921  28.254  27.332  1.00  0.00     0.173 A 
ATOM     72  F   UNL A   1      39.734  26.033  29.198  1.00  0.00    -0.203 F 
ATOM     73  C   UNL A   1      40.739  25.756  27.087  1.00  0.00     0.198 A 
ATOM     74  C   UNL A   1      42.124  27.493  26.183  1.00  0.00     0.198 A 
ATOM     75  F   UNL A   1      42.508  29.457  27.422  1.00  0.00    -0.203 F 
ATOM     76  F   UNL A   1      40.197  24.534  26.990  1.00  0.00    -0.200 F 
ATOM     77  C   UNL A   1      41.542  26.241  26.066  1.00  0.00     0.200 A 
ATOM     78  F   UNL A   1      42.883  27.974  25.189  1.00  0.00    -0.200 F 
ATOM     79  F   UNL A   1      41.759  25.499  24.971  1.00  0.00    -0.200 F 
ENDBRANCH  45  69
BRANCH  57  80
ATOM     80  C   UNL A   1      44.270  28.088  34.586  1.00  0.00     0.064 A 
ATOM     81  C   UNL A   1      44.069  26.866  35.246  1.00  0.00     0.173 A 
ATOM     82  C   UNL A   1      45.588  28.550  34.448  1.00  0.00     0.173 A 
ATOM     83  F   UNL A   1      42.827  26.388  35.415  1.00  0.00    -0.203 F 
ATOM     84  C   UNL A   1      45.143  26.153  35.770  1.00  0.00     0.198 A 
ATOM     85  C   UNL A   1      46.662  27.816  34.940  1.00  0.00     0.198 A 
ATOM     86  F   UNL A   1      45.836  29.709  33.817  1.00  0.00    -0.203 F 
ATOM     87  F   UNL A   1      44.923  25.014  36.443  1.00  0.00    -0.200 F 
ATOM     88  C   UNL A   1      46.438  26.622  35.608  1.00  0.00     0.200 A 
ATOM     89  F   UNL A   1      47.913  28.263  34.766  1.00  0.00    -0.200 F 
ATOM     90  F   UNL A   1      47.471  25.926  36.102  1.00  0.00    -0.200 F 
ENDBRANCH  57  80
ENDBRANCH  31  32
ENDBRANCH  23  26
ENDBRANCH  21  22
ENDBRANCH  20  21
ENDBRANCH  19  20
ENDBRANCH   3  19
TORSDOF 15
ENDMDL
MODEL 3
REMARK VINA RESULT:     -11.0      1.558      3.079
REMARK SMILES COCCS(=O)(=O)N[C@@H]1C=C[C@@H](C(=O)NCCCNC(=O)c2ccc(-c3c4nc(c(-c5c(F)c(F)c(F)c(F)c5F)c5ccc([nH]5)c(-c5c(F)c(F)c(F)c(F)c5F)c5nc(c(-c6c(F)c(F)c(F)c(F)c6F)c6ccc3[nH]6)C=C5)C=C4)cc2)C1
REMARK SMILES IDX 13 1 14 2 15 3 12 5 9 6 10 7 85 8 11 9 8 10 5 12 6 13 7 14
REMARK SMILES IDX 4 15 3 16 2 17 1 18 16 19 17 20 18 21 19 22 20 23 21 25
REMARK SMILES IDX 22 26 23 27 84 28 24 29 83 30 25 31 26 32 27 33 77 34 28 35
REMARK SMILES IDX 82 36 76 37 78 38 29 39 81 40 75 41 74 42 30 44 62 45 42 46
REMARK SMILES IDX 61 47 43 48 46 49 60 50 79 51 44 52 45 53 59 55 80 56 47 57
REMARK SMILES IDX 31 58 32 59 40 60 33 61 34 62 38 63 41 64 35 65 36 66 39 67
REMARK SMILES IDX 37 68 63 69 64 70 72 71 65 72 66 73 70 74 73 75 67 76 68 77
REMARK SMILES IDX 71 78 69 79 48 80 49 81 57 82 50 83 51 84 55 85 58 86 52 87
REMARK SMILES IDX 53 88 56 89 54 90
REMARK H PARENT 15 4 8 11 19 24 78 43 46 54
REMARK Flexibility Score: inf
ROOT
ATOM      1  C   UNL A   1      31.760  28.366  27.151  1.00  0.00     0.226 C 
ATOM      2  O   UNL A   1      31.654  27.846  28.265  1.00  0.00    -0.274 OA
ATOM      3  N   UNL A   1      31.597  29.709  27.079  1.00  0.00    -0.356 N 
ATOM      4  H   UNL A   1      31.513  30.165  27.949  1.00  0.00     0.163 HD
ENDROOT
BRANCH   1   5
ATOM      5  C   UNL A   1      32.046  27.516  25.921  1.00  0.00     0.103 C 
ATOM      6  C   UNL A   1      33.601  26.031  24.805  1.00  0.00     0.093 C 
ATOM      7  C   UNL A   1      32.389  25.294  25.265  1.00  0.00    -0.011 C 
ATOM      8  C   UNL A   1      33.522  27.341  25.575  1.00  0.00     0.042 C 
ATOM      9  C   UNL A   1      31.547  26.100  25.931  1.00  0.00    -0.016 C 
BRANCH   6  10
ATOM     10  N   UNL A   1      33.711  26.191  23.353  1.00  0.00    -0.208 NA
ATOM     11  H   UNL A   1      33.549  27.184  23.185  1.00  0.00     0.141 HD
BRANCH  10  12
ATOM     12  S   UNL A   1      32.813  25.405  22.189  1.00  0.00     0.214 S 
ATOM     13  O   UNL A   1      32.641  24.006  22.500  1.00  0.00    -0.212 OA
ATOM     14  O   UNL A   1      33.454  25.807  20.953  1.00  0.00    -0.212 OA
BRANCH  12  15
ATOM     15  C   UNL A   1      31.211  26.198  22.180  1.00  0.00     0.182 C 
BRANCH  15  16
ATOM     16  C   UNL A   1      31.214  27.708  22.318  1.00  0.00     0.177 C 
BRANCH  16  17
ATOM     17  O   UNL A   1      29.979  28.428  22.342  1.00  0.00    -0.384 OA
ATOM     18  C   UNL A   1      29.959  29.765  21.882  1.00  0.00     0.194 C 
ENDBRANCH  16  17
ENDBRANCH  15  16
ENDBRANCH  12  15
ENDBRANCH  10  12
ENDBRANCH   6  10
ENDBRANCH   1   5
BRANCH   3  19
ATOM     19  C   UNL A   1      31.528  30.579  25.926  1.00  0.00     0.117 C 
BRANCH  19  20
ATOM     20  C   UNL A   1      31.388  32.033  26.358  1.00  0.00     0.042 C 
BRANCH  20  21
ATOM     21  C   UNL A   1      32.530  32.487  27.251  1.00  0.00     0.118 C 
BRANCH  21  22
ATOM     22  N   UNL A   1      32.441  33.912  27.543  1.00  0.00    -0.352 N 
ATOM     23  C   UNL A   1      33.058  34.624  28.539  1.00  0.00     0.251 C 
ATOM     24  H   UNL A   1      31.860  34.433  26.944  1.00  0.00     0.163 HD
ATOM     25  O   UNL A   1      32.618  35.713  28.888  1.00  0.00    -0.269 OA
BRANCH  23  26
ATOM     26  C   UNL A   1      34.266  34.066  29.172  1.00  0.00     0.039 A 
ATOM     27  C   UNL A   1      35.528  34.460  28.728  1.00  0.00     0.014 A 
ATOM     28  C   UNL A   1      34.134  33.129  30.200  1.00  0.00     0.014 A 
ATOM     29  C   UNL A   1      36.663  33.942  29.350  1.00  0.00     0.010 A 
ATOM     30  C   UNL A   1      35.256  32.705  30.891  1.00  0.00     0.010 A 
ATOM     31  C   UNL A   1      36.532  33.079  30.450  1.00  0.00    -0.014 A 
BRANCH  31  32
ATOM     32  C   UNL A   1      37.709  32.494  31.132  1.00  0.00     0.031 A 
ATOM     33  C   UNL A   1      38.469  31.384  30.462  1.00  0.00     0.074 A 
ATOM     34  C   UNL A   1      38.036  32.903  32.371  1.00  0.00     0.049 A 
ATOM     35  N   UNL A   1      39.448  30.649  30.926  1.00  0.00    -0.248 NA
ATOM     36  C   UNL A   1      38.043  31.019  29.100  1.00  0.00     0.031 C 
ATOM     37  C   UNL A   1      37.340  33.941  33.132  1.00  0.00     0.029 A 
ATOM     38  N   UNL A   1      39.030  32.480  33.216  1.00  0.00    -0.354 N 
ATOM     39  C   UNL A   1      39.733  29.729  29.925  1.00  0.00     0.074 A 
ATOM     40  C   UNL A   1      38.781  29.947  28.861  1.00  0.00     0.031 C 
ATOM     41  C   UNL A   1      37.945  34.094  34.321  1.00  0.00     0.029 A 
ATOM     42  C   UNL A   1      39.038  33.132  34.424  1.00  0.00     0.049 A 
ATOM     43  H   UNL A   1      39.676  31.776  32.978  1.00  0.00     0.167 HD
ATOM     44  C   UNL A   1      40.722  28.807  29.885  1.00  0.00     0.037 A 
ATOM     45  C   UNL A   1      39.834  32.960  35.495  1.00  0.00     0.037 A 
ATOM     46  C   UNL A   1      41.680  28.621  30.941  1.00  0.00     0.049 A 
ATOM     47  C   UNL A   1      40.918  31.917  35.433  1.00  0.00     0.074 A 
ATOM     48  C   UNL A   1      42.758  27.755  30.987  1.00  0.00     0.029 A 
ATOM     49  N   UNL A   1      41.672  29.316  32.143  1.00  0.00    -0.354 N 
ATOM     50  N   UNL A   1      41.223  31.095  34.458  1.00  0.00    -0.248 NA
ATOM     51  C   UNL A   1      41.774  31.783  36.619  1.00  0.00     0.031 C 
ATOM     52  C   UNL A   1      43.367  27.885  32.239  1.00  0.00     0.029 A 
ATOM     53  C   UNL A   1      42.712  28.880  32.946  1.00  0.00     0.049 A 
ATOM     54  H   UNL A   1      41.023  30.014  32.387  1.00  0.00     0.167 HD
ATOM     55  C   UNL A   1      42.326  30.373  34.895  1.00  0.00     0.074 A 
ATOM     56  C   UNL A   1      42.642  30.863  36.221  1.00  0.00     0.031 C 
ATOM     57  C   UNL A   1      43.017  29.396  34.258  1.00  0.00     0.037 A 
BRANCH  44  58
ATOM     58  C   UNL A   1      40.813  27.936  28.664  1.00  0.00     0.064 A 
ATOM     59  C   UNL A   1      40.082  26.743  28.549  1.00  0.00     0.173 A 
ATOM     60  C   UNL A   1      41.628  28.309  27.584  1.00  0.00     0.173 A 
ATOM     61  F   UNL A   1      39.297  26.332  29.557  1.00  0.00    -0.203 F 
ATOM     62  C   UNL A   1      40.194  25.938  27.419  1.00  0.00     0.198 A 
ATOM     63  C   UNL A   1      41.707  27.519  26.439  1.00  0.00     0.198 A 
ATOM     64  F   UNL A   1      42.346  29.441  27.636  1.00  0.00    -0.203 F 
ATOM     65  F   UNL A   1      39.535  24.771  27.362  1.00  0.00    -0.200 F 
ATOM     66  C   UNL A   1      41.000  26.330  26.363  1.00  0.00     0.200 A 
ATOM     67  F   UNL A   1      42.475  27.908  25.412  1.00  0.00    -0.200 F 
ATOM     68  F   UNL A   1      41.102  25.557  25.272  1.00  0.00    -0.200 F 
ENDBRANCH  44  58
BRANCH  45  69
ATOM     69  C   UNL A   1      39.655  33.811  36.701  1.00  0.00     0.064 A 
ATOM     70  C   UNL A   1      38.854  33.385  37.769  1.00  0.00     0.173 A 
ATOM     71  C   UNL A   1      40.274  35.065  36.811  1.00  0.00     0.173 A 
ATOM     72  F   UNL A   1      38.229  32.199  37.706  1.00  0.00    -0.203 F 
ATOM     73  C   UNL A   1      38.659  34.189  38.890  1.00  0.00     0.198 A 
ATOM     74  C   UNL A   1      40.103  35.855  37.947  1.00  0.00     0.198 A 
ATOM     75  F   UNL A   1      41.059  35.517  35.822  1.00  0.00    -0.203 F 
ATOM     76  F   UNL A   1      37.848  33.777  39.874  1.00  0.00    -0.200 F 
ATOM     77  C   UNL A   1      39.288  35.421  38.980  1.00  0.00     0.200 A 
ATOM     78  F   UNL A   1      40.729  37.036  38.038  1.00  0.00    -0.200 F 
ATOM     79  F   UNL A   1      39.103  36.193  40.059  1.00  0.00    -0.200 F 
ENDBRANCH  45  69
BRANCH  57  80
ATOM     80  C   UNL A   1      44.218  28.830  34.960  1.00  0.00     0.064 A 
ATOM     81  C   UNL A   1      44.132  27.693  35.777  1.00  0.00     0.173 A 
ATOM     82  C   UNL A   1      45.483  29.406  34.767  1.00  0.00     0.173 A 
ATOM     83  F   UNL A   1      42.944  27.113  36.004  1.00  0.00    -0.203 F 
ATOM     84  C   UNL A   1      45.264  27.172  36.397  1.00  0.00     0.198 A 
ATOM     85  C   UNL A   1      46.618  28.860  35.358  1.00  0.00     0.198 A 
ATOM     86  F   UNL A   1      45.622  30.490  33.987  1.00  0.00    -0.203 F 
ATOM     87  F   UNL A   1      45.151  26.117  37.215  1.00  0.00    -0.200 F 
ATOM     88  C   UNL A   1      46.506  27.749  36.179  1.00  0.00     0.200 A 
ATOM     89  F   UNL A   1      47.819  29.409  35.131  1.00  0.00    -0.200 F 
ATOM     90  F   UNL A   1      47.597  27.238  36.767  1.00  0.00    -0.200 F 
ENDBRANCH  57  80
ENDBRANCH  31  32
ENDBRANCH  23  26
ENDBRANCH  21  22
ENDBRANCH  20  21
ENDBRANCH  19  20
ENDBRANCH   3  19
TORSDOF 15
ENDMDL
