MODEL 1
REMARK VINA RESULT:     -13.3      0.000      0.000
REMARK SMILES C[C@@H](C(=O)NCCCNC(=O)c1ccc(-c2c3nc(c(-c4c(F)c(F)c(F)c(F)c4F)c4ccc([nH]4)c(-c4c(F)c(F)c(F)c(F)c4F)c4nc(c(-c5c(F)c(F)c(F)c(F)c5F)c5ccc2[nH]5)C=C4)C=C3)cc1)c1ccc2c3cc(Cl)ccc3n(C(=O)c3cocn3)c2c1
REMARK SMILES IDX 6 1 5 2 3 3 4 4 2 6 1 7 75 8 76 9 95 10 77 11 94 12 78 13
REMARK SMILES IDX 86 14 79 15 85 16 80 17 84 18 81 19 83 20 82 21 87 22 88 23
REMARK SMILES IDX 89 24 90 25 93 26 91 27 92 28 7 29 8 30 9 31 10 32 11 34
REMARK SMILES IDX 12 35 13 36 74 37 14 38 73 39 15 40 16 41 17 42 67 43 18 44
REMARK SMILES IDX 72 45 66 46 68 47 19 48 71 49 65 50 64 51 20 53 52 54 32 55
REMARK SMILES IDX 51 56 33 57 36 58 50 59 69 60 34 61 35 62 49 64 70 65 37 66
REMARK SMILES IDX 21 67 22 68 30 69 23 70 24 71 28 72 31 73 25 74 26 75 29 76
REMARK SMILES IDX 27 77 53 78 54 79 62 80 55 81 56 82 60 83 63 84 57 85 58 86
REMARK SMILES IDX 61 87 59 88 38 89 39 90 47 91 40 92 41 93 45 94 48 95 42 96
REMARK SMILES IDX 43 97 46 98 44 99
REMARK H PARENT 5 5 9 33 68 52 36 63
REMARK Flexibility Score: inf
ROOT
ATOM      1  C   UNL A   1      31.340  28.603  24.317  1.00  0.00     0.117 C 
ENDROOT
BRANCH   1   2
ATOM      2  N   UNL A   1      31.121  27.719  25.445  1.00  0.00    -0.356 N 
ATOM      3  C   UNL A   1      30.917  26.370  25.455  1.00  0.00     0.227 C 
ATOM      4  O   UNL A   1      30.278  25.919  26.408  1.00  0.00    -0.274 OA
ATOM      5  H   UNL A   1      31.119  28.154  26.328  1.00  0.00     0.163 HD
BRANCH   3   6
ATOM      6  C   UNL A   1      31.449  25.504  24.301  1.00  0.00     0.105 C 
ATOM      7  C   UNL A   1      30.278  24.640  23.817  1.00  0.00     0.023 C 
BRANCH   6   8
ATOM      8  C   UNL A   1      32.691  24.663  24.640  1.00  0.00    -0.034 A 
ATOM      9  C   UNL A   1      33.838  25.272  25.163  1.00  0.00     0.005 A 
ATOM     10  C   UNL A   1      32.703  23.266  24.477  1.00  0.00     0.032 A 
ATOM     11  C   UNL A   1      34.995  24.536  25.446  1.00  0.00     0.011 A 
ATOM     12  C   UNL A   1      33.891  22.530  24.688  1.00  0.00     0.058 A 
ATOM     13  C   UNL A   1      35.030  23.153  25.185  1.00  0.00     0.008 A 
ATOM     14  N   UNL A   1      34.180  21.168  24.490  1.00  0.00    -0.274 N 
ATOM     15  C   UNL A   1      36.048  22.168  25.296  1.00  0.00     0.009 A 
ATOM     16  C   UNL A   1      35.537  20.962  24.799  1.00  0.00     0.057 A 
ATOM     17  C   UNL A   1      37.392  22.236  25.724  1.00  0.00     0.031 A 
ATOM     18  C   UNL A   1      36.388  19.851  24.627  1.00  0.00     0.029 A 
ATOM     19  C   UNL A   1      38.209  21.115  25.606  1.00  0.00     0.041 A 
ATOM     20  C   UNL A   1      37.721  19.942  25.051  1.00  0.00     0.023 A 
ATOM     21  Cl  UNL A   1      39.851  21.204  26.116  1.00  0.00    -0.084 Cl
BRANCH  14  22
ATOM     22  C   UNL A   1      33.249  20.209  24.000  1.00  0.00     0.284 C 
ATOM     23  O   UNL A   1      32.453  20.611  23.144  1.00  0.00    -0.266 OA
BRANCH  22  24
ATOM     24  C   UNL A   1      33.146  18.827  24.452  1.00  0.00     0.167 A 
ATOM     25  C   UNL A   1      33.709  17.693  23.906  1.00  0.00     0.231 A 
ATOM     26  N   UNL A   1      32.528  18.475  25.645  1.00  0.00    -0.211 NA
ATOM     27  O   UNL A   1      33.431  16.634  24.721  1.00  0.00    -0.451 OA
ATOM     28  C   UNL A   1      32.733  17.186  25.751  1.00  0.00     0.308 A 
ENDBRANCH  22  24
ENDBRANCH  14  22
ENDBRANCH   6   8
ENDBRANCH   3   6
ENDBRANCH   1   2
BRANCH   1  29
ATOM     29  C   UNL A   1      32.825  28.938  24.162  1.00  0.00     0.042 C 
BRANCH  29  30
ATOM     30  C   UNL A   1      33.515  29.355  25.458  1.00  0.00     0.118 C 
BRANCH  30  31
ATOM     31  N   UNL A   1      33.064  30.651  25.934  1.00  0.00    -0.352 N 
ATOM     32  C   UNL A   1      33.466  31.371  27.030  1.00  0.00     0.251 C 
ATOM     33  H   UNL A   1      32.366  31.078  25.386  1.00  0.00     0.163 HD
ATOM     34  O   UNL A   1      32.825  32.362  27.369  1.00  0.00    -0.269 OA
BRANCH  32  35
ATOM     35  C   UNL A   1      34.650  30.962  27.822  1.00  0.00     0.039 A 
ATOM     36  C   UNL A   1      35.692  31.881  27.982  1.00  0.00     0.014 A 
ATOM     37  C   UNL A   1      34.775  29.674  28.350  1.00  0.00     0.014 A 
ATOM     38  C   UNL A   1      36.839  31.522  28.692  1.00  0.00     0.010 A 
ATOM     39  C   UNL A   1      35.889  29.338  29.119  1.00  0.00     0.010 A 
ATOM     40  C   UNL A   1      36.942  30.252  29.280  1.00  0.00    -0.014 A 
BRANCH  40  41
ATOM     41  C   UNL A   1      38.165  29.854  30.024  1.00  0.00     0.031 A 
ATOM     42  C   UNL A   1      38.400  30.365  31.420  1.00  0.00     0.074 A 
ATOM     43  C   UNL A   1      39.079  29.059  29.436  1.00  0.00     0.049 A 
ATOM     44  N   UNL A   1      39.416  30.155  32.220  1.00  0.00    -0.248 NA
ATOM     45  C   UNL A   1      37.368  31.250  31.981  1.00  0.00     0.031 C 
ATOM     46  C   UNL A   1      38.992  28.535  28.073  1.00  0.00     0.029 A 
ATOM     47  N   UNL A   1      40.266  28.558  29.911  1.00  0.00    -0.354 N 
ATOM     48  C   UNL A   1      39.153  30.894  33.365  1.00  0.00     0.074 A 
ATOM     49  C   UNL A   1      37.907  31.596  33.140  1.00  0.00     0.031 C 
ATOM     50  C   UNL A   1      40.067  27.770  27.827  1.00  0.00     0.029 A 
ATOM     51  C   UNL A   1      40.931  27.769  29.006  1.00  0.00     0.049 A 
ATOM     52  H   UNL A   1      40.607  28.747  30.815  1.00  0.00     0.167 HD
ATOM     53  C   UNL A   1      39.871  30.965  34.512  1.00  0.00     0.037 A 
ATOM     54  C   UNL A   1      42.103  27.116  29.115  1.00  0.00     0.037 A 
ATOM     55  C   UNL A   1      41.092  30.241  34.750  1.00  0.00     0.049 A 
ATOM     56  C   UNL A   1      42.867  27.184  30.409  1.00  0.00     0.074 A 
ATOM     57  C   UNL A   1      41.866  30.204  35.896  1.00  0.00     0.029 A 
ATOM     58  N   UNL A   1      41.715  29.421  33.820  1.00  0.00    -0.354 N 
ATOM     59  N   UNL A   1      42.577  27.837  31.508  1.00  0.00    -0.248 NA
ATOM     60  C   UNL A   1      44.116  26.413  30.483  1.00  0.00     0.031 C 
ATOM     61  C   UNL A   1      42.974  29.385  35.651  1.00  0.00     0.029 A 
ATOM     62  C   UNL A   1      42.868  28.880  34.366  1.00  0.00     0.049 A 
ATOM     63  H   UNL A   1      41.385  29.249  32.909  1.00  0.00     0.167 HD
ATOM     64  C   UNL A   1      43.587  27.535  32.410  1.00  0.00     0.074 A 
ATOM     65  C   UNL A   1      44.493  26.628  31.734  1.00  0.00     0.031 C 
ATOM     66  C   UNL A   1      43.752  27.970  33.683  1.00  0.00     0.037 A 
BRANCH  53  67
ATOM     67  C   UNL A   1      39.347  31.852  35.603  1.00  0.00     0.064 A 
ATOM     68  C   UNL A   1      39.723  33.200  35.696  1.00  0.00     0.173 A 
ATOM     69  C   UNL A   1      38.436  31.359  36.548  1.00  0.00     0.173 A 
ATOM     70  F   UNL A   1      40.601  33.718  34.824  1.00  0.00    -0.203 F 
ATOM     71  C   UNL A   1      39.231  34.014  36.714  1.00  0.00     0.198 A 
ATOM     72  C   UNL A   1      37.924  32.182  37.548  1.00  0.00     0.198 A 
ATOM     73  F   UNL A   1      38.038  30.078  36.501  1.00  0.00    -0.203 F 
ATOM     74  F   UNL A   1      39.643  35.285  36.811  1.00  0.00    -0.200 F 
ATOM     75  C   UNL A   1      38.327  33.506  37.634  1.00  0.00     0.200 A 
ATOM     76  F   UNL A   1      37.041  31.693  38.430  1.00  0.00    -0.200 F 
ATOM     77  F   UNL A   1      37.851  34.291  38.610  1.00  0.00    -0.200 F 
ENDBRANCH  53  67
BRANCH  54  78
ATOM     78  C   UNL A   1      42.608  26.307  27.976  1.00  0.00     0.064 A 
ATOM     79  C   UNL A   1      43.436  26.879  27.000  1.00  0.00     0.173 A 
ATOM     80  C   UNL A   1      42.277  24.952  27.841  1.00  0.00     0.173 A 
ATOM     81  F   UNL A   1      43.763  28.178  27.077  1.00  0.00    -0.203 F 
ATOM     82  C   UNL A   1      43.899  26.131  25.921  1.00  0.00     0.198 A 
ATOM     83  C   UNL A   1      42.761  24.197  26.775  1.00  0.00     0.198 A 
ATOM     84  F   UNL A   1      41.493  24.358  28.751  1.00  0.00    -0.203 F 
ATOM     85  F   UNL A   1      44.657  26.711  24.980  1.00  0.00    -0.200 F 
ATOM     86  C   UNL A   1      43.566  24.789  25.812  1.00  0.00     0.200 A 
ATOM     87  F   UNL A   1      42.448  22.898  26.679  1.00  0.00    -0.200 F 
ATOM     88  F   UNL A   1      44.015  24.067  24.776  1.00  0.00    -0.200 F 
ENDBRANCH  54  78
BRANCH  66  89
ATOM     89  C   UNL A   1      44.934  27.444  34.441  1.00  0.00     0.064 A 
ATOM     90  C   UNL A   1      46.162  28.120  34.449  1.00  0.00     0.173 A 
ATOM     91  C   UNL A   1      44.825  26.265  35.194  1.00  0.00     0.173 A 
ATOM     92  F   UNL A   1      46.319  29.243  33.732  1.00  0.00    -0.203 F 
ATOM     93  C   UNL A   1      47.248  27.621  35.164  1.00  0.00     0.198 A 
ATOM     94  C   UNL A   1      45.905  25.783  35.929  1.00  0.00     0.198 A 
ATOM     95  F   UNL A   1      43.669  25.585  35.222  1.00  0.00    -0.203 F 
ATOM     96  F   UNL A   1      48.425  28.259  35.121  1.00  0.00    -0.200 F 
ATOM     97  C   UNL A   1      47.116  26.458  35.908  1.00  0.00     0.200 A 
ATOM     98  F   UNL A   1      45.773  24.665  36.655  1.00  0.00    -0.200 F 
ATOM     99  F   UNL A   1      48.161  25.981  36.598  1.00  0.00    -0.200 F 
ENDBRANCH  66  89
ENDBRANCH  40  41
ENDBRANCH  32  35
ENDBRANCH  30  31
ENDBRANCH  29  30
ENDBRANCH   1  29
TORSDOF 13
ENDMDL
MODEL 2
REMARK VINA RESULT:     -13.0      4.535     10.366
REMARK SMILES C[C@@H](C(=O)NCCCNC(=O)c1ccc(-c2c3nc(c(-c4c(F)c(F)c(F)c(F)c4F)c4ccc([nH]4)c(-c4c(F)c(F)c(F)c(F)c4F)c4nc(c(-c5c(F)c(F)c(F)c(F)c5F)c5ccc2[nH]5)C=C4)C=C3)cc1)c1ccc2c3cc(Cl)ccc3n(C(=O)c3cocn3)c2c1
REMARK SMILES IDX 6 1 5 2 3 3 4 4 2 6 1 7 75 8 76 9 95 10 77 11 94 12 78 13
REMARK SMILES IDX 86 14 79 15 85 16 80 17 84 18 81 19 83 20 82 21 87 22 88 23
REMARK SMILES IDX 89 24 90 25 93 26 91 27 92 28 7 29 8 30 9 31 10 32 11 34
REMARK SMILES IDX 12 35 13 36 74 37 14 38 73 39 15 40 16 41 17 42 67 43 18 44
REMARK SMILES IDX 72 45 66 46 68 47 19 48 71 49 65 50 64 51 20 53 52 54 32 55
REMARK SMILES IDX 51 56 33 57 36 58 50 59 69 60 34 61 35 62 49 64 70 65 37 66
REMARK SMILES IDX 21 67 22 68 30 69 23 70 24 71 28 72 31 73 25 74 26 75 29 76
REMARK SMILES IDX 27 77 53 78 54 79 62 80 55 81 56 82 60 83 63 84 57 85 58 86
REMARK SMILES IDX 61 87 59 88 38 89 39 90 47 91 40 92 41 93 45 94 48 95 42 96
REMARK SMILES IDX 43 97 46 98 44 99
REMARK H PARENT 5 5 9 33 68 52 36 63
REMARK Flexibility Score: inf
ROOT
ATOM      1  C   UNL A   1      36.390  23.422  25.720  1.00  0.00     0.117 C 
ENDROOT
BRANCH   1   2
ATOM      2  N   UNL A   1      36.114  23.699  24.324  1.00  0.00    -0.356 N 
ATOM      3  C   UNL A   1      34.959  23.511  23.621  1.00  0.00     0.227 C 
ATOM      4  O   UNL A   1      35.079  23.335  22.407  1.00  0.00    -0.274 OA
ATOM      5  H   UNL A   1      36.865  24.075  23.811  1.00  0.00     0.163 HD
BRANCH   3   6
ATOM      6  C   UNL A   1      33.608  23.497  24.355  1.00  0.00     0.105 C 
ATOM      7  C   UNL A   1      32.940  22.155  24.029  1.00  0.00     0.023 C 
BRANCH   6   8
ATOM      8  C   UNL A   1      32.690  24.693  24.047  1.00  0.00    -0.034 A 
ATOM      9  C   UNL A   1      31.994  24.756  22.834  1.00  0.00     0.005 A 
ATOM     10  C   UNL A   1      32.489  25.727  24.978  1.00  0.00     0.032 A 
ATOM     11  C   UNL A   1      31.181  25.850  22.512  1.00  0.00     0.011 A 
ATOM     12  C   UNL A   1      31.732  26.869  24.628  1.00  0.00     0.058 A 
ATOM     13  C   UNL A   1      31.065  26.929  23.410  1.00  0.00     0.008 A 
ATOM     14  N   UNL A   1      31.483  28.060  25.331  1.00  0.00    -0.274 N 
ATOM     15  C   UNL A   1      30.393  28.178  23.347  1.00  0.00     0.009 A 
ATOM     16  C   UNL A   1      30.712  28.899  24.505  1.00  0.00     0.057 A 
ATOM     17  C   UNL A   1      29.585  28.772  22.352  1.00  0.00     0.031 A 
ATOM     18  C   UNL A   1      30.320  30.249  24.628  1.00  0.00     0.029 A 
ATOM     19  C   UNL A   1      29.152  30.086  22.512  1.00  0.00     0.041 A 
ATOM     20  C   UNL A   1      29.526  30.821  23.626  1.00  0.00     0.023 A 
ATOM     21  Cl  UNL A   1      28.180  30.813  21.291  1.00  0.00    -0.084 Cl
BRANCH  14  22
ATOM     22  C   UNL A   1      31.992  28.354  26.627  1.00  0.00     0.284 C 
ATOM     23  O   UNL A   1      31.366  27.877  27.579  1.00  0.00    -0.266 OA
BRANCH  22  24
ATOM     24  C   UNL A   1      33.155  29.189  26.907  1.00  0.00     0.167 A 
ATOM     25  C   UNL A   1      33.201  30.523  27.251  1.00  0.00     0.231 A 
ATOM     26  N   UNL A   1      34.442  28.673  26.988  1.00  0.00    -0.211 NA
ATOM     27  O   UNL A   1      34.496  30.858  27.520  1.00  0.00    -0.451 OA
ATOM     28  C   UNL A   1      35.178  29.692  27.356  1.00  0.00     0.308 A 
ENDBRANCH  22  24
ENDBRANCH  14  22
ENDBRANCH   6   8
ENDBRANCH   3   6
ENDBRANCH   1   2
BRANCH   1  29
ATOM     29  C   UNL A   1      36.816  21.965  25.917  1.00  0.00     0.042 C 
BRANCH  29  30
ATOM     30  C   UNL A   1      38.127  21.594  25.231  1.00  0.00     0.118 C 
BRANCH  30  31
ATOM     31  N   UNL A   1      38.909  20.646  26.006  1.00  0.00    -0.352 N 
ATOM     32  C   UNL A   1      40.038  20.848  26.757  1.00  0.00     0.251 C 
ATOM     33  H   UNL A   1      38.577  19.719  25.989  1.00  0.00     0.163 HD
ATOM     34  O   UNL A   1      40.661  19.878  27.181  1.00  0.00    -0.269 OA
BRANCH  32  35
ATOM     35  C   UNL A   1      40.528  22.215  27.051  1.00  0.00     0.039 A 
ATOM     36  C   UNL A   1      40.091  23.267  26.239  1.00  0.00     0.014 A 
ATOM     37  C   UNL A   1      41.454  22.463  28.069  1.00  0.00     0.014 A 
ATOM     38  C   UNL A   1      40.557  24.564  26.464  1.00  0.00     0.010 A 
ATOM     39  C   UNL A   1      41.865  23.768  28.338  1.00  0.00     0.010 A 
ATOM     40  C   UNL A   1      41.437  24.829  27.525  1.00  0.00    -0.014 A 
BRANCH  40  41
ATOM     41  C   UNL A   1      41.951  26.202  27.763  1.00  0.00     0.031 A 
ATOM     42  C   UNL A   1      43.312  26.597  27.257  1.00  0.00     0.074 A 
ATOM     43  C   UNL A   1      41.210  27.085  28.459  1.00  0.00     0.049 A 
ATOM     44  N   UNL A   1      43.948  27.736  27.388  1.00  0.00    -0.248 NA
ATOM     45  C   UNL A   1      44.071  25.568  26.529  1.00  0.00     0.031 C 
ATOM     46  C   UNL A   1      39.897  26.811  29.043  1.00  0.00     0.029 A 
ATOM     47  N   UNL A   1      41.461  28.391  28.799  1.00  0.00    -0.354 N 
ATOM     48  C   UNL A   1      45.181  27.552  26.777  1.00  0.00     0.074 A 
ATOM     49  C   UNL A   1      45.226  26.181  26.318  1.00  0.00     0.031 C 
ATOM     50  C   UNL A   1      39.447  27.920  29.651  1.00  0.00     0.029 A 
ATOM     51  C   UNL A   1      40.450  28.975  29.521  1.00  0.00     0.049 A 
ATOM     52  H   UNL A   1      42.288  28.864  28.549  1.00  0.00     0.167 HD
ATOM     53  C   UNL A   1      46.178  28.451  26.594  1.00  0.00     0.037 A 
ATOM     54  C   UNL A   1      40.343  30.221  30.020  1.00  0.00     0.037 A 
ATOM     55  C   UNL A   1      46.121  29.824  27.020  1.00  0.00     0.049 A 
ATOM     56  C   UNL A   1      41.449  31.210  29.776  1.00  0.00     0.074 A 
ATOM     57  C   UNL A   1      47.056  30.827  26.835  1.00  0.00     0.029 A 
ATOM     58  N   UNL A   1      45.062  30.389  27.716  1.00  0.00    -0.354 N 
ATOM     59  N   UNL A   1      42.585  31.042  29.143  1.00  0.00    -0.248 NA
ATOM     60  C   UNL A   1      41.253  32.567  30.305  1.00  0.00     0.031 C 
ATOM     61  C   UNL A   1      46.577  31.992  27.445  1.00  0.00     0.029 A 
ATOM     62  C   UNL A   1      45.325  31.724  27.975  1.00  0.00     0.049 A 
ATOM     63  H   UNL A   1      44.244  29.910  27.985  1.00  0.00     0.167 HD
ATOM     64  C   UNL A   1      43.224  32.274  29.173  1.00  0.00     0.074 A 
ATOM     65  C   UNL A   1      42.344  33.185  29.875  1.00  0.00     0.031 C 
ATOM     66  C   UNL A   1      44.433  32.619  28.665  1.00  0.00     0.037 A 
BRANCH  53  67
ATOM     67  C   UNL A   1      47.417  27.976  25.891  1.00  0.00     0.064 A 
ATOM     68  C   UNL A   1      47.480  27.891  24.493  1.00  0.00     0.173 A 
ATOM     69  C   UNL A   1      48.563  27.630  26.622  1.00  0.00     0.173 A 
ATOM     70  F   UNL A   1      46.407  28.199  23.748  1.00  0.00    -0.203 F 
ATOM     71  C   UNL A   1      48.635  27.449  23.852  1.00  0.00     0.198 A 
ATOM     72  C   UNL A   1      49.725  27.214  25.977  1.00  0.00     0.198 A 
ATOM     73  F   UNL A   1      48.558  27.698  27.962  1.00  0.00    -0.203 F 
ATOM     74  F   UNL A   1      48.655  27.329  22.518  1.00  0.00    -0.200 F 
ATOM     75  C   UNL A   1      49.758  27.117  24.595  1.00  0.00     0.200 A 
ATOM     76  F   UNL A   1      50.814  26.905  26.695  1.00  0.00    -0.200 F 
ATOM     77  F   UNL A   1      50.870  26.695  23.976  1.00  0.00    -0.200 F 
ENDBRANCH  53  67
BRANCH  54  78
ATOM     78  C   UNL A   1      39.122  30.615  30.767  1.00  0.00     0.064 A 
ATOM     79  C   UNL A   1      39.067  30.504  32.164  1.00  0.00     0.173 A 
ATOM     80  C   UNL A   1      37.991  31.112  30.106  1.00  0.00     0.173 A 
ATOM     81  F   UNL A   1      40.118  30.014  32.838  1.00  0.00    -0.203 F 
ATOM     82  C   UNL A   1      37.919  30.856  32.869  1.00  0.00     0.198 A 
ATOM     83  C   UNL A   1      36.851  31.488  30.814  1.00  0.00     0.198 A 
ATOM     84  F   UNL A   1      37.996  31.243  28.772  1.00  0.00    -0.203 F 
ATOM     85  F   UNL A   1      37.878  30.702  34.200  1.00  0.00    -0.200 F 
ATOM     86  C   UNL A   1      36.814  31.353  32.194  1.00  0.00     0.200 A 
ATOM     87  F   UNL A   1      35.790  31.980  30.161  1.00  0.00    -0.200 F 
ATOM     88  F   UNL A   1      35.710  31.697  32.873  1.00  0.00    -0.200 F 
ENDBRANCH  54  78
BRANCH  66  89
ATOM     89  C   UNL A   1      44.858  34.049  28.818  1.00  0.00     0.064 A 
ATOM     90  C   UNL A   1      45.621  34.475  29.914  1.00  0.00     0.173 A 
ATOM     91  C   UNL A   1      44.524  34.997  27.839  1.00  0.00     0.173 A 
ATOM     92  F   UNL A   1      45.952  33.610  30.884  1.00  0.00    -0.203 F 
ATOM     93  C   UNL A   1      46.014  35.806  30.037  1.00  0.00     0.198 A 
ATOM     94  C   UNL A   1      44.941  36.320  27.951  1.00  0.00     0.198 A 
ATOM     95  F   UNL A   1      43.799  34.636  26.769  1.00  0.00    -0.203 F 
ATOM     96  F   UNL A   1      46.704  36.201  31.116  1.00  0.00    -0.200 F 
ATOM     97  C   UNL A   1      45.679  36.725  29.053  1.00  0.00     0.200 A 
ATOM     98  F   UNL A   1      44.625  37.204  26.995  1.00  0.00    -0.200 F 
ATOM     99  F   UNL A   1      46.060  38.003  29.172  1.00  0.00    -0.200 F 
ENDBRANCH  66  89
ENDBRANCH  40  41
ENDBRANCH  32  35
ENDBRANCH  30  31
ENDBRANCH  29  30
ENDBRANCH   1  29
TORSDOF 13
ENDMDL
MODEL 3
REMARK VINA RESULT:     -12.9      1.841      3.138
REMARK SMILES C[C@@H](C(=O)NCCCNC(=O)c1ccc(-c2c3nc(c(-c4c(F)c(F)c(F)c(F)c4F)c4ccc([nH]4)c(-c4c(F)c(F)c(F)c(F)c4F)c4nc(c(-c5c(F)c(F)c(F)c(F)c5F)c5ccc2[nH]5)C=C4)C=C3)cc1)c1ccc2c3cc(Cl)ccc3n(C(=O)c3cocn3)c2c1
REMARK SMILES IDX 6 1 5 2 3 3 4 4 2 6 1 7 75 8 76 9 95 10 77 11 94 12 78 13
REMARK SMILES IDX 86 14 79 15 85 16 80 17 84 18 81 19 83 20 82 21 87 22 88 23
REMARK SMILES IDX 89 24 90 25 93 26 91 27 92 28 7 29 8 30 9 31 10 32 11 34
REMARK SMILES IDX 12 35 13 36 74 37 14 38 73 39 15 40 16 41 17 42 67 43 18 44
REMARK SMILES IDX 72 45 66 46 68 47 19 48 71 49 65 50 64 51 20 53 52 54 32 55
REMARK SMILES IDX 51 56 33 57 36 58 50 59 69 60 34 61 35 62 49 64 70 65 37 66
REMARK SMILES IDX 21 67 22 68 30 69 23 70 24 71 28 72 31 73 25 74 26 75 29 76
REMARK SMILES IDX 27 77 53 78 54 79 62 80 55 81 56 82 60 83 63 84 57 85 58 86
REMARK SMILES IDX 61 87 59 88 38 89 39 90 47 91 40 92 41 93 45 94 48 95 42 96
REMARK SMILES IDX 43 97 46 98 44 99
REMARK H PARENT 5 5 9 33 68 52 36 63
REMARK Flexibility Score: inf
ROOT
ATOM      1  C   UNL A   1      31.749  29.895  25.463  1.00  0.00     0.117 C 
ENDROOT
BRANCH   1   2
ATOM      2  N   UNL A   1      31.770  28.675  26.246  1.00  0.00    -0.356 N 
ATOM      3  C   UNL A   1      31.350  27.423  25.900  1.00  0.00     0.227 C 
ATOM      4  O   UNL A   1      30.997  26.688  26.825  1.00  0.00    -0.274 OA
ATOM      5  H   UNL A   1      32.138  28.762  27.155  1.00  0.00     0.163 HD
BRANCH   3   6
ATOM      6  C   UNL A   1      31.308  27.009  24.420  1.00  0.00     0.105 C 
ATOM      7  C   UNL A   1      29.925  27.406  23.887  1.00  0.00     0.023 C 
BRANCH   6   8
ATOM      8  C   UNL A   1      31.631  25.529  24.150  1.00  0.00    -0.034 A 
ATOM      9  C   UNL A   1      30.887  24.802  23.213  1.00  0.00     0.005 A 
ATOM     10  C   UNL A   1      32.697  24.877  24.796  1.00  0.00     0.032 A 
ATOM     11  C   UNL A   1      31.135  23.445  22.974  1.00  0.00     0.011 A 
ATOM     12  C   UNL A   1      32.902  23.490  24.616  1.00  0.00     0.058 A 
ATOM     13  C   UNL A   1      32.139  22.775  23.699  1.00  0.00     0.008 A 
ATOM     14  N   UNL A   1      33.812  22.607  25.222  1.00  0.00    -0.274 N 
ATOM     15  C   UNL A   1      32.575  21.424  23.735  1.00  0.00     0.009 A 
ATOM     16  C   UNL A   1      33.559  21.315  24.727  1.00  0.00     0.057 A 
ATOM     17  C   UNL A   1      32.153  20.271  23.036  1.00  0.00     0.031 A 
ATOM     18  C   UNL A   1      34.047  20.045  25.102  1.00  0.00     0.029 A 
ATOM     19  C   UNL A   1      32.687  19.030  23.372  1.00  0.00     0.041 A 
ATOM     20  C   UNL A   1      33.609  18.914  24.400  1.00  0.00     0.023 A 
ATOM     21  Cl  UNL A   1      32.160  17.624  22.528  1.00  0.00    -0.084 Cl
BRANCH  14  22
ATOM     22  C   UNL A   1      34.767  22.984  26.208  1.00  0.00     0.284 C 
ATOM     23  O   UNL A   1      34.311  23.338  27.300  1.00  0.00    -0.266 OA
BRANCH  22  24
ATOM     24  C   UNL A   1      36.212  23.015  26.014  1.00  0.00     0.167 A 
ATOM     25  C   UNL A   1      37.079  24.079  26.133  1.00  0.00     0.231 A 
ATOM     26  N   UNL A   1      36.960  21.865  25.793  1.00  0.00    -0.211 NA
ATOM     27  O   UNL A   1      38.354  23.622  25.963  1.00  0.00    -0.451 OA
ATOM     28  C   UNL A   1      38.201  22.283  25.779  1.00  0.00     0.308 A 
ENDBRANCH  22  24
ENDBRANCH  14  22
ENDBRANCH   6   8
ENDBRANCH   3   6
ENDBRANCH   1   2
BRANCH   1  29
ATOM     29  C   UNL A   1      31.474  31.111  26.349  1.00  0.00     0.042 C 
BRANCH  29  30
ATOM     30  C   UNL A   1      32.633  31.501  27.262  1.00  0.00     0.118 C 
BRANCH  30  31
ATOM     31  N   UNL A   1      32.800  32.940  27.363  1.00  0.00    -0.352 N 
ATOM     32  C   UNL A   1      33.744  33.667  28.043  1.00  0.00     0.251 C 
ATOM     33  H   UNL A   1      32.136  33.473  26.869  1.00  0.00     0.163 HD
ATOM     34  O   UNL A   1      33.599  34.881  28.160  1.00  0.00    -0.269 OA
BRANCH  32  35
ATOM     35  C   UNL A   1      34.926  33.010  28.650  1.00  0.00     0.039 A 
ATOM     36  C   UNL A   1      34.719  31.897  29.471  1.00  0.00     0.014 A 
ATOM     37  C   UNL A   1      36.218  33.513  28.475  1.00  0.00     0.014 A 
ATOM     38  C   UNL A   1      35.804  31.272  30.089  1.00  0.00     0.010 A 
ATOM     39  C   UNL A   1      37.309  32.847  29.035  1.00  0.00     0.010 A 
ATOM     40  C   UNL A   1      37.111  31.733  29.865  1.00  0.00    -0.014 A 
BRANCH  40  41
ATOM     41  C   UNL A   1      38.271  31.085  30.529  1.00  0.00     0.031 A 
ATOM     42  C   UNL A   1      38.617  31.434  31.952  1.00  0.00     0.074 A 
ATOM     43  C   UNL A   1      39.032  30.209  29.847  1.00  0.00     0.049 A 
ATOM     44  N   UNL A   1      39.605  31.000  32.695  1.00  0.00    -0.248 NA
ATOM     45  C   UNL A   1      37.754  32.420  32.619  1.00  0.00     0.031 C 
ATOM     46  C   UNL A   1      38.830  29.822  28.451  1.00  0.00     0.029 A 
ATOM     47  N   UNL A   1      40.134  29.488  30.238  1.00  0.00    -0.354 N 
ATOM     48  C   UNL A   1      39.490  31.672  33.905  1.00  0.00     0.074 A 
ATOM     49  C   UNL A   1      38.369  32.577  33.782  1.00  0.00     0.031 C 
ATOM     50  C   UNL A   1      39.763  28.920  28.106  1.00  0.00     0.029 A 
ATOM     51  C   UNL A   1      40.642  28.683  29.248  1.00  0.00     0.049 A 
ATOM     52  H   UNL A   1      40.522  29.544  31.140  1.00  0.00     0.167 HD
ATOM     53  C   UNL A   1      40.237  31.531  35.026  1.00  0.00     0.037 A 
ATOM     54  C   UNL A   1      41.697  27.847  29.263  1.00  0.00     0.037 A 
ATOM     55  C   UNL A   1      41.331  30.606  35.162  1.00  0.00     0.049 A 
ATOM     56  C   UNL A   1      42.492  27.684  30.529  1.00  0.00     0.074 A 
ATOM     57  C   UNL A   1      42.116  30.351  36.272  1.00  0.00     0.029 A 
ATOM     58  N   UNL A   1      41.793  29.779  34.148  1.00  0.00    -0.354 N 
ATOM     59  N   UNL A   1      42.336  28.280  31.687  1.00  0.00    -0.248 NA
ATOM     60  C   UNL A   1      43.602  26.722  30.496  1.00  0.00     0.031 C 
ATOM     61  C   UNL A   1      43.072  29.390  35.923  1.00  0.00     0.029 A 
ATOM     62  C   UNL A   1      42.857  29.019  34.606  1.00  0.00     0.049 A 
ATOM     63  H   UNL A   1      41.419  29.739  33.238  1.00  0.00     0.167 HD
ATOM     64  C   UNL A   1      43.305  27.747  32.524  1.00  0.00     0.074 A 
ATOM     65  C   UNL A   1      44.038  26.769  31.746  1.00  0.00     0.031 C 
ATOM     66  C   UNL A   1      43.567  28.042  33.821  1.00  0.00     0.037 A 
BRANCH  53  67
ATOM     67  C   UNL A   1      39.888  32.394  36.203  1.00  0.00     0.064 A 
ATOM     68  C   UNL A   1      40.609  33.561  36.497  1.00  0.00     0.173 A 
ATOM     69  C   UNL A   1      38.802  32.070  37.029  1.00  0.00     0.173 A 
ATOM     70  F   UNL A   1      41.664  33.910  35.744  1.00  0.00    -0.203 F 
ATOM     71  C   UNL A   1      40.276  34.355  37.591  1.00  0.00     0.198 A 
ATOM     72  C   UNL A   1      38.454  32.880  38.108  1.00  0.00     0.198 A 
ATOM     73  F   UNL A   1      38.075  30.968  36.790  1.00  0.00    -0.203 F 
ATOM     74  F   UNL A   1      41.011  35.437  37.880  1.00  0.00    -0.200 F 
ATOM     75  C   UNL A   1      39.195  34.017  38.391  1.00  0.00     0.200 A 
ATOM     76  F   UNL A   1      37.402  32.559  38.873  1.00  0.00    -0.200 F 
ATOM     77  F   UNL A   1      38.873  34.784  39.443  1.00  0.00    -0.200 F 
ENDBRANCH  53  67
BRANCH  54  78
ATOM     78  C   UNL A   1      42.039  27.068  28.046  1.00  0.00     0.064 A 
ATOM     79  C   UNL A   1      41.502  25.789  27.837  1.00  0.00     0.173 A 
ATOM     80  C   UNL A   1      42.902  27.582  27.069  1.00  0.00     0.173 A 
ATOM     81  F   UNL A   1      40.687  25.248  28.754  1.00  0.00    -0.203 F 
ATOM     82  C   UNL A   1      41.831  25.047  26.706  1.00  0.00     0.198 A 
ATOM     83  C   UNL A   1      43.211  26.849  25.925  1.00  0.00     0.198 A 
ATOM     84  F   UNL A   1      43.437  28.802  27.220  1.00  0.00    -0.203 F 
ATOM     85  F   UNL A   1      41.336  23.811  26.550  1.00  0.00    -0.200 F 
ATOM     86  C   UNL A   1      42.681  25.579  25.748  1.00  0.00     0.200 A 
ATOM     87  F   UNL A   1      44.023  27.371  24.996  1.00  0.00    -0.200 F 
ATOM     88  F   UNL A   1      42.995  24.866  24.657  1.00  0.00    -0.200 F 
ENDBRANCH  54  78
BRANCH  66  89
ATOM     89  C   UNL A   1      44.666  27.273  34.491  1.00  0.00     0.064 A 
ATOM     90  C   UNL A   1      44.425  26.042  35.118  1.00  0.00     0.173 A 
ATOM     91  C   UNL A   1      45.983  27.759  34.477  1.00  0.00     0.173 A 
ATOM     92  F   UNL A   1      43.181  25.543  35.171  1.00  0.00    -0.203 F 
ATOM     93  C   UNL A   1      45.459  25.337  35.730  1.00  0.00     0.198 A 
ATOM     94  C   UNL A   1      47.018  27.039  35.066  1.00  0.00     0.198 A 
ATOM     95  F   UNL A   1      46.265  28.929  33.885  1.00  0.00    -0.203 F 
ATOM     96  F   UNL A   1      45.198  24.185  36.363  1.00  0.00    -0.200 F 
ATOM     97  C   UNL A   1      46.754  25.833  35.698  1.00  0.00     0.200 A 
ATOM     98  F   UNL A   1      48.270  27.514  35.026  1.00  0.00    -0.200 F 
ATOM     99  F   UNL A   1      47.748  25.152  36.284  1.00  0.00    -0.200 F 
ENDBRANCH  66  89
ENDBRANCH  40  41
ENDBRANCH  32  35
ENDBRANCH  30  31
ENDBRANCH  29  30
ENDBRANCH   1  29
TORSDOF 13
ENDMDL
