MODEL 1
REMARK VINA RESULT:     -14.4      0.000      0.000
REMARK SMILES O=C(NCCCNC(=O)c1ccc(-c2c3nc(c(-c4c(F)c(F)c(F)c(F)c4F)c4ccc([nH]4)c(-c4c(F)c(F)c(F)c(F)c4F)c4nc(c(-c5c(F)c(F)c(F)c(F)c5F)c5ccc2[nH]5)C=C4)C=C3)cc1)C1=NN(c2ccc(S(=O)(=O)[O-])cc2)C(=O)/C1=C/Nc1ccccc1
REMARK SMILES IDX 5 1 4 2 3 3 1 4 2 5 73 7 74 8 88 9 75 10 86 11 89 12 87 13
REMARK SMILES IDX 76 14 77 15 85 16 78 17 84 18 79 19 80 20 81 21 82 22 83 23
REMARK SMILES IDX 90 24 91 26 92 27 96 28 93 29 95 30 94 31 6 32 7 33 8 34
REMARK SMILES IDX 9 36 10 37 11 38 72 39 12 40 71 41 13 42 14 43 15 44 65 45
REMARK SMILES IDX 16 46 70 47 64 48 66 49 17 50 69 51 63 52 62 53 18 55 50 56
REMARK SMILES IDX 30 57 49 58 31 59 34 60 48 61 67 62 32 63 33 64 47 66 68 67
REMARK SMILES IDX 35 68 19 69 20 70 28 71 21 72 22 73 26 74 29 75 23 76 24 77
REMARK SMILES IDX 27 78 25 79 51 80 52 81 60 82 53 83 54 84 58 85 61 86 55 87
REMARK SMILES IDX 56 88 59 89 57 90 36 91 37 92 45 93 38 94 39 95 43 96 46 97
REMARK SMILES IDX 40 98 41 99 44 100 42 101
REMARK H PARENT 3 6 90 25 7 35 66 54 34 65
REMARK Flexibility Score: inf
ROOT
ATOM      1  C   UNL A   1      33.263  29.176  24.506  1.00  0.00     0.042 C 
ENDROOT
BRANCH   1   2
ATOM      2  C   UNL A   1      33.907  27.841  24.179  1.00  0.00     0.118 C 
BRANCH   2   3
ATOM      3  N   UNL A   1      33.907  27.549  22.754  1.00  0.00    -0.351 N 
ATOM      4  O   UNL A   1      33.335  26.394  20.894  1.00  0.00    -0.267 OA
ATOM      5  C   UNL A   1      33.422  26.437  22.114  1.00  0.00     0.272 C 
ATOM      6  H   UNL A   1      34.307  28.239  22.175  1.00  0.00     0.163 HD
BRANCH   5   7
ATOM      7  C   UNL A   1      32.908  25.285  22.915  1.00  0.00     0.163 C 
ATOM      8  N   UNL A   1      33.566  24.167  23.084  1.00  0.00    -0.158 NA
ATOM      9  C   UNL A   1      31.601  25.284  23.572  1.00  0.00     0.091 C 
ATOM     10  N   UNL A   1      32.711  23.349  23.830  1.00  0.00    -0.196 N 
ATOM     11  C   UNL A   1      31.532  23.983  24.257  1.00  0.00     0.282 C 
ATOM     12  C   UNL A   1      30.620  26.190  23.584  1.00  0.00     0.099 C 
ATOM     13  O   UNL A   1      30.620  23.609  24.970  1.00  0.00    -0.267 OA
BRANCH  10  14
ATOM     14  C   UNL A   1      32.974  21.961  23.874  1.00  0.00     0.069 A 
ATOM     15  C   UNL A   1      32.202  21.053  23.131  1.00  0.00     0.030 A 
ATOM     16  C   UNL A   1      33.951  21.456  24.745  1.00  0.00     0.030 A 
ATOM     17  C   UNL A   1      32.406  19.673  23.256  1.00  0.00     0.021 A 
ATOM     18  C   UNL A   1      34.140  20.081  24.900  1.00  0.00     0.021 A 
ATOM     19  C   UNL A   1      33.369  19.197  24.149  1.00  0.00     0.054 A 
BRANCH  19  20
ATOM     20  S   UNL A   1      33.569  17.453  24.364  1.00  0.00     0.124 S 
ATOM     21  O   UNL A   1      32.886  17.069  25.580  1.00  0.00    -0.237 OA
ATOM     22  O   UNL A   1      33.285  16.816  23.099  1.00  0.00    -0.237 OA
ATOM     23  O   UNL A   1      35.144  17.226  24.635  1.00  0.00    -0.744 OA
ENDBRANCH  19  20
ENDBRANCH  10  14
BRANCH  12  24
ATOM     24  N   UNL A   1      30.504  27.334  22.839  1.00  0.00    -0.361 N 
ATOM     25  H   UNL A   1      31.136  27.430  22.090  1.00  0.00     0.166 HD
BRANCH  24  26
ATOM     26  C   UNL A   1      29.592  28.384  23.017  1.00  0.00     0.038 A 
ATOM     27  C   UNL A   1      28.220  28.101  22.964  1.00  0.00     0.026 A 
ATOM     28  C   UNL A   1      29.992  29.699  23.284  1.00  0.00     0.026 A 
ATOM     29  C   UNL A   1      27.272  29.108  23.144  1.00  0.00     0.002 A 
ATOM     30  C   UNL A   1      29.045  30.714  23.443  1.00  0.00     0.002 A 
ATOM     31  C   UNL A   1      27.685  30.417  23.373  1.00  0.00     0.000 A 
ENDBRANCH  24  26
ENDBRANCH  12  24
ENDBRANCH   5   7
ENDBRANCH   2   3
ENDBRANCH   1   2
BRANCH   1  32
ATOM     32  C   UNL A   1      32.824  29.322  25.957  1.00  0.00     0.118 C 
BRANCH  32  33
ATOM     33  N   UNL A   1      32.513  30.694  26.339  1.00  0.00    -0.352 N 
ATOM     34  C   UNL A   1      33.209  31.568  27.145  1.00  0.00     0.251 C 
ATOM     35  H   UNL A   1      31.677  31.053  25.963  1.00  0.00     0.163 HD
ATOM     36  O   UNL A   1      32.719  32.651  27.444  1.00  0.00    -0.269 OA
BRANCH  34  37
ATOM     37  C   UNL A   1      34.530  31.186  27.691  1.00  0.00     0.039 A 
ATOM     38  C   UNL A   1      35.515  32.168  27.825  1.00  0.00     0.014 A 
ATOM     39  C   UNL A   1      34.794  29.875  28.091  1.00  0.00     0.014 A 
ATOM     40  C   UNL A   1      36.724  31.858  28.454  1.00  0.00     0.010 A 
ATOM     41  C   UNL A   1      35.955  29.591  28.803  1.00  0.00     0.010 A 
ATOM     42  C   UNL A   1      36.931  30.581  28.999  1.00  0.00    -0.014 A 
BRANCH  42  43
ATOM     43  C   UNL A   1      38.146  30.255  29.789  1.00  0.00     0.031 A 
ATOM     44  C   UNL A   1      39.160  29.288  29.245  1.00  0.00     0.074 A 
ATOM     45  C   UNL A   1      38.290  30.752  31.034  1.00  0.00     0.049 A 
ATOM     46  N   UNL A   1      40.214  28.774  29.829  1.00  0.00    -0.248 NA
ATOM     47  C   UNL A   1      38.943  28.807  27.871  1.00  0.00     0.031 C 
ATOM     48  C   UNL A   1      37.352  31.661  31.696  1.00  0.00     0.029 A 
ATOM     49  N   UNL A   1      39.271  30.548  31.972  1.00  0.00    -0.354 N 
ATOM     50  C   UNL A   1      40.765  27.896  28.907  1.00  0.00     0.074 A 
ATOM     51  C   UNL A   1      39.905  27.906  27.743  1.00  0.00     0.031 C 
ATOM     52  C   UNL A   1      37.811  31.949  32.925  1.00  0.00     0.029 A 
ATOM     53  C   UNL A   1      39.051  31.213  33.154  1.00  0.00     0.049 A 
ATOM     54  H   UNL A   1      40.059  29.978  31.812  1.00  0.00     0.167 HD
ATOM     55  C   UNL A   1      41.899  27.163  29.011  1.00  0.00     0.037 A 
ATOM     56  C   UNL A   1      39.761  31.216  34.299  1.00  0.00     0.037 A 
ATOM     57  C   UNL A   1      42.774  27.183  30.154  1.00  0.00     0.049 A 
ATOM     58  C   UNL A   1      41.019  30.397  34.388  1.00  0.00     0.074 A 
ATOM     59  C   UNL A   1      43.983  26.532  30.326  1.00  0.00     0.029 A 
ATOM     60  N   UNL A   1      42.533  27.894  31.319  1.00  0.00    -0.354 N 
ATOM     61  N   UNL A   1      41.566  29.620  33.485  1.00  0.00    -0.248 NA
ATOM     62  C   UNL A   1      41.761  30.457  35.655  1.00  0.00     0.031 C 
ATOM     63  C   UNL A   1      44.453  26.815  31.613  1.00  0.00     0.029 A 
ATOM     64  C   UNL A   1      43.560  27.682  32.224  1.00  0.00     0.049 A 
ATOM     65  H   UNL A   1      41.748  28.466  31.481  1.00  0.00     0.167 HD
ATOM     66  C   UNL A   1      42.726  29.122  34.061  1.00  0.00     0.074 A 
ATOM     67  C   UNL A   1      42.812  29.694  35.388  1.00  0.00     0.031 C 
ATOM     68  C   UNL A   1      43.638  28.268  33.537  1.00  0.00     0.037 A 
BRANCH  55  69
ATOM     69  C   UNL A   1      42.264  26.278  27.854  1.00  0.00     0.064 A 
ATOM     70  C   UNL A   1      41.692  25.007  27.692  1.00  0.00     0.173 A 
ATOM     71  C   UNL A   1      43.168  26.720  26.877  1.00  0.00     0.173 A 
ATOM     72  F   UNL A   1      40.830  24.532  28.605  1.00  0.00    -0.203 F 
ATOM     73  C   UNL A   1      42.033  24.200  26.610  1.00  0.00     0.198 A 
ATOM     74  C   UNL A   1      43.485  25.923  25.781  1.00  0.00     0.198 A 
ATOM     75  F   UNL A   1      43.739  27.930  26.982  1.00  0.00    -0.203 F 
ATOM     76  F   UNL A   1      41.512  22.970  26.503  1.00  0.00    -0.200 F 
ATOM     77  C   UNL A   1      42.923  24.661  25.652  1.00  0.00     0.200 A 
ATOM     78  F   UNL A   1      44.335  26.374  24.849  1.00  0.00    -0.200 F 
ATOM     79  F   UNL A   1      43.246  23.886  24.608  1.00  0.00    -0.200 F 
ENDBRANCH  55  69
BRANCH  56  80
ATOM     80  C   UNL A   1      39.307  32.042  35.449  1.00  0.00     0.064 A 
ATOM     81  C   UNL A   1      38.491  31.493  36.448  1.00  0.00     0.173 A 
ATOM     82  C   UNL A   1      39.673  33.389  35.571  1.00  0.00     0.173 A 
ATOM     83  F   UNL A   1      38.097  30.214  36.363  1.00  0.00    -0.203 F 
ATOM     84  C   UNL A   1      38.043  32.267  37.517  1.00  0.00     0.198 A 
ATOM     85  C   UNL A   1      39.247  34.155  36.656  1.00  0.00     0.198 A 
ATOM     86  F   UNL A   1      40.457  33.960  34.645  1.00  0.00    -0.203 F 
ATOM     87  F   UNL A   1      37.228  31.730  38.435  1.00  0.00    -0.200 F 
ATOM     88  C   UNL A   1      38.426  33.596  37.623  1.00  0.00     0.200 A 
ATOM     89  F   UNL A   1      39.632  35.434  36.762  1.00  0.00    -0.200 F 
ATOM     90  F   UNL A   1      37.999  34.338  38.653  1.00  0.00    -0.200 F 
ENDBRANCH  56  80
BRANCH  68  91
ATOM     91  C   UNL A   1      44.830  27.927  34.382  1.00  0.00     0.064 A 
ATOM     92  C   UNL A   1      45.988  28.717  34.375  1.00  0.00     0.173 A 
ATOM     93  C   UNL A   1      44.790  26.822  35.247  1.00  0.00     0.173 A 
ATOM     94  F   UNL A   1      46.079  29.773  33.553  1.00  0.00    -0.203 F 
ATOM     95  C   UNL A   1      47.071  28.403  35.191  1.00  0.00     0.198 A 
ATOM     96  C   UNL A   1      45.864  26.529  36.083  1.00  0.00     0.198 A 
ATOM     97  F   UNL A   1      43.703  26.039  35.296  1.00  0.00    -0.203 F 
ATOM     98  F   UNL A   1      48.184  29.148  35.139  1.00  0.00    -0.200 F 
ATOM     99  C   UNL A   1      47.005  27.315  36.049  1.00  0.00     0.200 A 
ATOM    100  F   UNL A   1      45.794  25.485  36.921  1.00  0.00    -0.200 F 
ATOM    101  F   UNL A   1      48.046  27.022  36.842  1.00  0.00    -0.200 F 
ENDBRANCH  68  91
ENDBRANCH  42  43
ENDBRANCH  34  37
ENDBRANCH  32  33
ENDBRANCH   1  32
TORSDOF 14
ENDMDL
MODEL 2
REMARK VINA RESULT:     -14.3      0.269      2.053
REMARK SMILES O=C(NCCCNC(=O)c1ccc(-c2c3nc(c(-c4c(F)c(F)c(F)c(F)c4F)c4ccc([nH]4)c(-c4c(F)c(F)c(F)c(F)c4F)c4nc(c(-c5c(F)c(F)c(F)c(F)c5F)c5ccc2[nH]5)C=C4)C=C3)cc1)C1=NN(c2ccc(S(=O)(=O)[O-])cc2)C(=O)/C1=C/Nc1ccccc1
REMARK SMILES IDX 5 1 4 2 3 3 1 4 2 5 73 7 74 8 88 9 75 10 86 11 89 12 87 13
REMARK SMILES IDX 76 14 77 15 85 16 78 17 84 18 79 19 80 20 81 21 82 22 83 23
REMARK SMILES IDX 90 24 91 26 92 27 96 28 93 29 95 30 94 31 6 32 7 33 8 34
REMARK SMILES IDX 9 36 10 37 11 38 72 39 12 40 71 41 13 42 14 43 15 44 65 45
REMARK SMILES IDX 16 46 70 47 64 48 66 49 17 50 69 51 63 52 62 53 18 55 50 56
REMARK SMILES IDX 30 57 49 58 31 59 34 60 48 61 67 62 32 63 33 64 47 66 68 67
REMARK SMILES IDX 35 68 19 69 20 70 28 71 21 72 22 73 26 74 29 75 23 76 24 77
REMARK SMILES IDX 27 78 25 79 51 80 52 81 60 82 53 83 54 84 58 85 61 86 55 87
REMARK SMILES IDX 56 88 59 89 57 90 36 91 37 92 45 93 38 94 39 95 43 96 46 97
REMARK SMILES IDX 40 98 41 99 44 100 42 101
REMARK H PARENT 3 6 90 25 7 35 66 54 34 65
REMARK Flexibility Score: inf
ROOT
ATOM      1  C   UNL A   1      33.252  28.997  24.339  1.00  0.00     0.042 C 
ENDROOT
BRANCH   1   2
ATOM      2  C   UNL A   1      34.030  27.735  24.016  1.00  0.00     0.118 C 
BRANCH   2   3
ATOM      3  N   UNL A   1      33.961  27.374  22.609  1.00  0.00    -0.351 N 
ATOM      4  O   UNL A   1      33.260  26.161  20.832  1.00  0.00    -0.267 OA
ATOM      5  C   UNL A   1      33.395  26.259  22.044  1.00  0.00     0.272 C 
ATOM      6  H   UNL A   1      34.373  28.011  21.982  1.00  0.00     0.163 HD
BRANCH   5   7
ATOM      7  C   UNL A   1      32.853  25.177  22.920  1.00  0.00     0.163 C 
ATOM      8  N   UNL A   1      33.474  24.049  23.149  1.00  0.00    -0.158 NA
ATOM      9  C   UNL A   1      31.557  25.262  23.592  1.00  0.00     0.091 C 
ATOM     10  N   UNL A   1      32.602  23.308  23.955  1.00  0.00    -0.196 N 
ATOM     11  C   UNL A   1      31.452  24.009  24.357  1.00  0.00     0.282 C 
ATOM     12  C   UNL A   1      30.608  26.202  23.561  1.00  0.00     0.099 C 
ATOM     13  O   UNL A   1      30.538  23.711  25.103  1.00  0.00    -0.267 OA
BRANCH  10  14
ATOM     14  C   UNL A   1      32.817  21.917  24.080  1.00  0.00     0.069 A 
ATOM     15  C   UNL A   1      33.766  21.407  24.980  1.00  0.00     0.030 A 
ATOM     16  C   UNL A   1      32.152  21.022  23.227  1.00  0.00     0.030 A 
ATOM     17  C   UNL A   1      34.041  20.034  25.028  1.00  0.00     0.021 A 
ATOM     18  C   UNL A   1      32.442  19.657  23.245  1.00  0.00     0.021 A 
ATOM     19  C   UNL A   1      33.382  19.169  24.150  1.00  0.00     0.054 A 
BRANCH  19  20
ATOM     20  S   UNL A   1      33.790  17.449  24.156  1.00  0.00     0.124 S 
ATOM     21  O   UNL A   1      35.184  17.318  24.517  1.00  0.00    -0.237 OA
ATOM     22  O   UNL A   1      32.749  16.750  24.876  1.00  0.00    -0.237 OA
ATOM     23  O   UNL A   1      33.670  16.968  22.619  1.00  0.00    -0.744 OA
ENDBRANCH  19  20
ENDBRANCH  10  14
BRANCH  12  24
ATOM     24  N   UNL A   1      30.521  27.301  22.749  1.00  0.00    -0.361 N 
ATOM     25  H   UNL A   1      31.226  27.395  22.068  1.00  0.00     0.166 HD
BRANCH  24  26
ATOM     26  C   UNL A   1      29.546  28.310  22.773  1.00  0.00     0.038 A 
ATOM     27  C   UNL A   1      29.906  29.603  22.371  1.00  0.00     0.026 A 
ATOM     28  C   UNL A   1      28.219  28.072  23.148  1.00  0.00     0.026 A 
ATOM     29  C   UNL A   1      28.971  30.640  22.370  1.00  0.00     0.002 A 
ATOM     30  C   UNL A   1      27.286  29.112  23.168  1.00  0.00     0.002 A 
ATOM     31  C   UNL A   1      27.664  30.396  22.778  1.00  0.00     0.000 A 
ENDBRANCH  24  26
ENDBRANCH  12  24
ENDBRANCH   5   7
ENDBRANCH   2   3
ENDBRANCH   1   2
BRANCH   1  32
ATOM     32  C   UNL A   1      32.777  29.090  25.783  1.00  0.00     0.118 C 
BRANCH  32  33
ATOM     33  N   UNL A   1      32.412  30.440  26.192  1.00  0.00    -0.352 N 
ATOM     34  C   UNL A   1      33.067  31.321  27.024  1.00  0.00     0.251 C 
ATOM     35  H   UNL A   1      31.565  30.775  25.818  1.00  0.00     0.163 HD
ATOM     36  O   UNL A   1      32.533  32.378  27.343  1.00  0.00    -0.269 OA
BRANCH  34  37
ATOM     37  C   UNL A   1      34.397  30.977  27.573  1.00  0.00     0.039 A 
ATOM     38  C   UNL A   1      35.360  31.983  27.691  1.00  0.00     0.014 A 
ATOM     39  C   UNL A   1      34.691  29.679  27.993  1.00  0.00     0.014 A 
ATOM     40  C   UNL A   1      36.577  31.710  28.322  1.00  0.00     0.010 A 
ATOM     41  C   UNL A   1      35.860  29.432  28.707  1.00  0.00     0.010 A 
ATOM     42  C   UNL A   1      36.813  30.446  28.886  1.00  0.00    -0.014 A 
BRANCH  42  43
ATOM     43  C   UNL A   1      38.036  30.159  29.678  1.00  0.00     0.031 A 
ATOM     44  C   UNL A   1      39.076  29.216  29.141  1.00  0.00     0.074 A 
ATOM     45  C   UNL A   1      38.167  30.670  30.918  1.00  0.00     0.049 A 
ATOM     46  N   UNL A   1      40.144  28.735  29.729  1.00  0.00    -0.248 NA
ATOM     47  C   UNL A   1      38.872  28.718  27.772  1.00  0.00     0.031 C 
ATOM     48  C   UNL A   1      37.205  31.558  31.574  1.00  0.00     0.029 A 
ATOM     49  N   UNL A   1      39.153  30.500  31.858  1.00  0.00    -0.354 N 
ATOM     50  C   UNL A   1      40.719  27.865  28.814  1.00  0.00     0.074 A 
ATOM     51  C   UNL A   1      39.858  27.843  27.651  1.00  0.00     0.031 C 
ATOM     52  C   UNL A   1      37.656  31.868  32.800  1.00  0.00     0.029 A 
ATOM     53  C   UNL A   1      38.915  31.168  33.035  1.00  0.00     0.049 A 
ATOM     54  H   UNL A   1      39.956  29.951  31.703  1.00  0.00     0.167 HD
ATOM     55  C   UNL A   1      41.872  27.164  28.924  1.00  0.00     0.037 A 
ATOM     56  C   UNL A   1      39.624  31.200  34.180  1.00  0.00     0.037 A 
ATOM     57  C   UNL A   1      42.746  27.216  30.067  1.00  0.00     0.049 A 
ATOM     58  C   UNL A   1      40.904  30.415  34.275  1.00  0.00     0.074 A 
ATOM     59  C   UNL A   1      43.972  26.600  30.243  1.00  0.00     0.029 A 
ATOM     60  N   UNL A   1      42.485  27.930  31.226  1.00  0.00    -0.354 N 
ATOM     61  N   UNL A   1      41.472  29.647  33.378  1.00  0.00    -0.248 NA
ATOM     62  C   UNL A   1      41.644  30.506  35.541  1.00  0.00     0.031 C 
ATOM     63  C   UNL A   1      44.434  26.906  31.528  1.00  0.00     0.029 A 
ATOM     64  C   UNL A   1      43.518  27.753  32.132  1.00  0.00     0.049 A 
ATOM     65  H   UNL A   1      41.685  28.482  31.384  1.00  0.00     0.167 HD
ATOM     66  C   UNL A   1      42.645  29.185  33.958  1.00  0.00     0.074 A 
ATOM     67  C   UNL A   1      42.715  29.769  35.281  1.00  0.00     0.031 C 
ATOM     68  C   UNL A   1      43.579  28.351  33.441  1.00  0.00     0.037 A 
BRANCH  55  69
ATOM     69  C   UNL A   1      42.261  26.280  27.774  1.00  0.00     0.064 A 
ATOM     70  C   UNL A   1      43.185  26.699  26.806  1.00  0.00     0.173 A 
ATOM     71  C   UNL A   1      41.730  24.987  27.660  1.00  0.00     0.173 A 
ATOM     72  F   UNL A   1      43.713  27.931  26.863  1.00  0.00    -0.203 F 
ATOM     73  C   UNL A   1      43.543  25.866  25.748  1.00  0.00     0.198 A 
ATOM     74  C   UNL A   1      42.112  24.145  26.618  1.00  0.00     0.198 A 
ATOM     75  F   UNL A   1      40.847  24.535  28.563  1.00  0.00    -0.203 F 
ATOM     76  F   UNL A   1      44.389  26.306  24.807  1.00  0.00    -0.200 F 
ATOM     77  C   UNL A   1      43.011  24.588  25.660  1.00  0.00     0.200 A 
ATOM     78  F   UNL A   1      41.608  22.906  26.541  1.00  0.00    -0.200 F 
ATOM     79  F   UNL A   1      43.361  23.785  24.645  1.00  0.00    -0.200 F 
ENDBRANCH  55  69
BRANCH  56  80
ATOM     80  C   UNL A   1      39.148  32.022  35.324  1.00  0.00     0.064 A 
ATOM     81  C   UNL A   1      39.460  33.386  35.404  1.00  0.00     0.173 A 
ATOM     82  C   UNL A   1      38.383  31.464  36.357  1.00  0.00     0.173 A 
ATOM     83  F   UNL A   1      40.209  33.960  34.450  1.00  0.00    -0.203 F 
ATOM     84  C   UNL A   1      39.038  34.158  36.485  1.00  0.00     0.198 A 
ATOM     85  C   UNL A   1      37.938  32.244  37.423  1.00  0.00     0.198 A 
ATOM     86  F   UNL A   1      38.054  30.165  36.324  1.00  0.00    -0.203 F 
ATOM     87  F   UNL A   1      39.386  35.450  36.559  1.00  0.00    -0.200 F 
ATOM     88  C   UNL A   1      38.272  33.588  37.491  1.00  0.00     0.200 A 
ATOM     89  F   UNL A   1      37.186  31.692  38.385  1.00  0.00    -0.200 F 
ATOM     90  F   UNL A   1      37.863  34.331  38.527  1.00  0.00    -0.200 F 
ENDBRANCH  56  80
BRANCH  68  91
ATOM     91  C   UNL A   1      44.780  28.049  34.289  1.00  0.00     0.064 A 
ATOM     92  C   UNL A   1      44.820  26.935  35.139  1.00  0.00     0.173 A 
ATOM     93  C   UNL A   1      45.923  28.860  34.210  1.00  0.00     0.173 A 
ATOM     94  F   UNL A   1      43.746  26.140  35.259  1.00  0.00    -0.203 F 
ATOM     95  C   UNL A   1      45.955  26.652  35.892  1.00  0.00     0.198 A 
ATOM     96  C   UNL A   1      47.067  28.557  34.944  1.00  0.00     0.198 A 
ATOM     97  F   UNL A   1      45.938  29.934  33.408  1.00  0.00    -0.203 F 
ATOM     98  F   UNL A   1      45.958  25.604  36.728  1.00  0.00    -0.200 F 
ATOM     99  C   UNL A   1      47.079  27.458  35.789  1.00  0.00     0.200 A 
ATOM    100  F   UNL A   1      48.156  29.329  34.833  1.00  0.00    -0.200 F 
ATOM    101  F   UNL A   1      48.175  27.177  36.508  1.00  0.00    -0.200 F 
ENDBRANCH  68  91
ENDBRANCH  42  43
ENDBRANCH  34  37
ENDBRANCH  32  33
ENDBRANCH   1  32
TORSDOF 14
ENDMDL
MODEL 3
REMARK VINA RESULT:     -14.2      4.423      8.081
REMARK SMILES O=C(NCCCNC(=O)c1ccc(-c2c3nc(c(-c4c(F)c(F)c(F)c(F)c4F)c4ccc([nH]4)c(-c4c(F)c(F)c(F)c(F)c4F)c4nc(c(-c5c(F)c(F)c(F)c(F)c5F)c5ccc2[nH]5)C=C4)C=C3)cc1)C1=NN(c2ccc(S(=O)(=O)[O-])cc2)C(=O)/C1=C/Nc1ccccc1
REMARK SMILES IDX 5 1 4 2 3 3 1 4 2 5 73 7 74 8 88 9 75 10 86 11 89 12 87 13
REMARK SMILES IDX 76 14 77 15 85 16 78 17 84 18 79 19 80 20 81 21 82 22 83 23
REMARK SMILES IDX 90 24 91 26 92 27 96 28 93 29 95 30 94 31 6 32 7 33 8 34
REMARK SMILES IDX 9 36 10 37 11 38 72 39 12 40 71 41 13 42 14 43 15 44 65 45
REMARK SMILES IDX 16 46 70 47 64 48 66 49 17 50 69 51 63 52 62 53 18 55 50 56
REMARK SMILES IDX 30 57 49 58 31 59 34 60 48 61 67 62 32 63 33 64 47 66 68 67
REMARK SMILES IDX 35 68 19 69 20 70 28 71 21 72 22 73 26 74 29 75 23 76 24 77
REMARK SMILES IDX 27 78 25 79 51 80 52 81 60 82 53 83 54 84 58 85 61 86 55 87
REMARK SMILES IDX 56 88 59 89 57 90 36 91 37 92 45 93 38 94 39 95 43 96 46 97
REMARK SMILES IDX 40 98 41 99 44 100 42 101
REMARK H PARENT 3 6 90 25 7 35 66 54 34 65
REMARK Flexibility Score: inf
ROOT
ATOM      1  C   UNL A   1      36.141  21.632  25.682  1.00  0.00     0.042 C 
ENDROOT
BRANCH   1   2
ATOM      2  C   UNL A   1      35.557  22.912  26.251  1.00  0.00     0.118 C 
BRANCH   2   3
ATOM      3  N   UNL A   1      34.578  22.668  27.298  1.00  0.00    -0.351 N 
ATOM      4  O   UNL A   1      32.495  22.383  28.136  1.00  0.00    -0.267 OA
ATOM      5  C   UNL A   1      33.212  22.781  27.228  1.00  0.00     0.272 C 
ATOM      6  H   UNL A   1      34.941  22.385  28.169  1.00  0.00     0.163 HD
BRANCH   5   7
ATOM      7  C   UNL A   1      32.575  23.319  25.988  1.00  0.00     0.163 C 
ATOM      8  N   UNL A   1      32.286  24.582  25.809  1.00  0.00    -0.158 NA
ATOM      9  C   UNL A   1      32.186  22.478  24.856  1.00  0.00     0.091 C 
ATOM     10  N   UNL A   1      31.653  24.640  24.563  1.00  0.00    -0.196 N 
ATOM     11  C   UNL A   1      31.638  23.420  23.866  1.00  0.00     0.282 C 
ATOM     12  C   UNL A   1      32.249  21.156  24.677  1.00  0.00     0.099 C 
ATOM     13  O   UNL A   1      31.249  23.125  22.752  1.00  0.00    -0.267 OA
BRANCH  10  14
ATOM     14  C   UNL A   1      30.904  25.794  24.240  1.00  0.00     0.069 A 
ATOM     15  C   UNL A   1      29.500  25.765  24.219  1.00  0.00     0.030 A 
ATOM     16  C   UNL A   1      31.558  26.968  23.834  1.00  0.00     0.030 A 
ATOM     17  C   UNL A   1      28.769  26.885  23.803  1.00  0.00     0.021 A 
ATOM     18  C   UNL A   1      30.838  28.078  23.387  1.00  0.00     0.021 A 
ATOM     19  C   UNL A   1      29.447  28.032  23.380  1.00  0.00     0.054 A 
BRANCH  19  20
ATOM     20  S   UNL A   1      28.522  29.415  22.779  1.00  0.00     0.124 S 
ATOM     21  O   UNL A   1      28.937  29.676  21.418  1.00  0.00    -0.237 OA
ATOM     22  O   UNL A   1      27.135  29.204  23.124  1.00  0.00    -0.237 OA
ATOM     23  O   UNL A   1      29.013  30.679  23.656  1.00  0.00    -0.744 OA
ENDBRANCH  19  20
ENDBRANCH  10  14
BRANCH  12  24
ATOM     24  N   UNL A   1      32.561  20.185  25.591  1.00  0.00    -0.361 N 
ATOM     25  H   UNL A   1      32.395  20.408  26.536  1.00  0.00     0.166 HD
BRANCH  24  26
ATOM     26  C   UNL A   1      33.090  18.910  25.340  1.00  0.00     0.038 A 
ATOM     27  C   UNL A   1      34.207  18.798  24.501  1.00  0.00     0.026 A 
ATOM     28  C   UNL A   1      32.572  17.746  25.921  1.00  0.00     0.026 A 
ATOM     29  C   UNL A   1      34.775  17.554  24.226  1.00  0.00     0.002 A 
ATOM     30  C   UNL A   1      33.126  16.497  25.630  1.00  0.00     0.002 A 
ATOM     31  C   UNL A   1      34.228  16.403  24.783  1.00  0.00     0.000 A 
ENDBRANCH  24  26
ENDBRANCH  12  24
ENDBRANCH   5   7
ENDBRANCH   2   3
ENDBRANCH   1   2
BRANCH   1  32
ATOM     32  C   UNL A   1      37.542  21.784  25.104  1.00  0.00     0.118 C 
BRANCH  32  33
ATOM     33  N   UNL A   1      38.498  20.814  25.623  1.00  0.00    -0.352 N 
ATOM     34  C   UNL A   1      39.654  21.011  26.346  1.00  0.00     0.251 C 
ATOM     35  H   UNL A   1      38.285  19.873  25.428  1.00  0.00     0.163 HD
ATOM     36  O   UNL A   1      40.394  20.063  26.591  1.00  0.00    -0.269 OA
BRANCH  34  37
ATOM     37  C   UNL A   1      40.034  22.370  26.789  1.00  0.00     0.039 A 
ATOM     38  C   UNL A   1      41.039  22.510  27.749  1.00  0.00     0.014 A 
ATOM     39  C   UNL A   1      39.423  23.503  26.248  1.00  0.00     0.014 A 
ATOM     40  C   UNL A   1      41.501  23.786  28.090  1.00  0.00     0.010 A 
ATOM     41  C   UNL A   1      39.948  24.763  26.514  1.00  0.00     0.010 A 
ATOM     42  C   UNL A   1      40.998  24.919  27.432  1.00  0.00    -0.014 A 
BRANCH  42  43
ATOM     43  C   UNL A   1      41.556  26.274  27.672  1.00  0.00     0.031 A 
ATOM     44  C   UNL A   1      42.946  26.609  27.205  1.00  0.00     0.074 A 
ATOM     45  C   UNL A   1      40.853  27.172  28.391  1.00  0.00     0.049 A 
ATOM     46  N   UNL A   1      43.660  27.684  27.429  1.00  0.00    -0.248 NA
ATOM     47  C   UNL A   1      43.639  25.585  26.408  1.00  0.00     0.031 C 
ATOM     48  C   UNL A   1      39.515  26.952  28.943  1.00  0.00     0.029 A 
ATOM     49  N   UNL A   1      41.175  28.443  28.798  1.00  0.00    -0.354 N 
ATOM     50  C   UNL A   1      44.888  27.453  26.825  1.00  0.00     0.074 A 
ATOM     51  C   UNL A   1      44.842  26.119  26.267  1.00  0.00     0.031 C 
ATOM     52  C   UNL A   1      39.124  28.055  29.601  1.00  0.00     0.029 A 
ATOM     53  C   UNL A   1      40.197  29.043  29.555  1.00  0.00     0.049 A 
ATOM     54  H   UNL A   1      42.025  28.883  28.569  1.00  0.00     0.167 HD
ATOM     55  C   UNL A   1      45.950  28.287  26.725  1.00  0.00     0.037 A 
ATOM     56  C   UNL A   1      40.176  30.248  30.158  1.00  0.00     0.037 A 
ATOM     57  C   UNL A   1      45.980  29.628  27.247  1.00  0.00     0.049 A 
ATOM     58  C   UNL A   1      41.368  31.156  30.027  1.00  0.00     0.074 A 
ATOM     59  C   UNL A   1      46.981  30.576  27.133  1.00  0.00     0.029 A 
ATOM     60  N   UNL A   1      44.957  30.211  27.980  1.00  0.00    -0.354 N 
ATOM     61  N   UNL A   1      42.499  30.953  29.398  1.00  0.00    -0.248 NA
ATOM     62  C   UNL A   1      41.278  32.466  30.689  1.00  0.00     0.031 C 
ATOM     63  C   UNL A   1      46.583  31.719  27.835  1.00  0.00     0.029 A 
ATOM     64  C   UNL A   1      45.313  31.500  28.344  1.00  0.00     0.049 A 
ATOM     65  H   UNL A   1      44.105  29.775  28.209  1.00  0.00     0.167 HD
ATOM     66  C   UNL A   1      43.243  32.113  29.563  1.00  0.00     0.074 A 
ATOM     67  C   UNL A   1      42.430  33.023  30.342  1.00  0.00     0.031 C 
ATOM     68  C   UNL A   1      44.487  32.398  29.109  1.00  0.00     0.037 A 
BRANCH  55  69
ATOM     69  C   UNL A   1      47.171  27.775  26.018  1.00  0.00     0.064 A 
ATOM     70  C   UNL A   1      48.264  27.248  26.724  1.00  0.00     0.173 A 
ATOM     71  C   UNL A   1      47.236  27.776  24.617  1.00  0.00     0.173 A 
ATOM     72  F   UNL A   1      48.257  27.235  28.066  1.00  0.00    -0.203 F 
ATOM     73  C   UNL A   1      49.387  26.770  26.055  1.00  0.00     0.198 A 
ATOM     74  C   UNL A   1      48.348  27.269  23.949  1.00  0.00     0.198 A 
ATOM     75  F   UNL A   1      46.216  28.263  23.893  1.00  0.00    -0.203 F 
ATOM     76  F   UNL A   1      50.438  26.318  26.753  1.00  0.00    -0.200 F 
ATOM     77  C   UNL A   1      49.425  26.773  24.669  1.00  0.00     0.200 A 
ATOM     78  F   UNL A   1      48.379  27.262  22.610  1.00  0.00    -0.200 F 
ATOM     79  F   UNL A   1      50.504  26.306  24.026  1.00  0.00    -0.200 F 
ENDBRANCH  55  69
BRANCH  56  80
ATOM     80  C   UNL A   1      38.975  30.673  30.923  1.00  0.00     0.064 A 
ATOM     81  C   UNL A   1      37.891  31.282  30.275  1.00  0.00     0.173 A 
ATOM     82  C   UNL A   1      38.887  30.486  32.309  1.00  0.00     0.173 A 
ATOM     83  F   UNL A   1      37.938  31.501  28.953  1.00  0.00    -0.203 F 
ATOM     84  C   UNL A   1      36.771  31.704  30.989  1.00  0.00     0.198 A 
ATOM     85  C   UNL A   1      37.754  30.885  33.018  1.00  0.00     0.198 A 
ATOM     86  F   UNL A   1      39.895  29.905  32.975  1.00  0.00    -0.203 F 
ATOM     87  F   UNL A   1      35.767  32.322  30.352  1.00  0.00    -0.200 F 
ATOM     88  C   UNL A   1      36.701  31.500  32.360  1.00  0.00     0.200 A 
ATOM     89  F   UNL A   1      37.685  30.672  34.339  1.00  0.00    -0.200 F 
ATOM     90  F   UNL A   1      35.623  31.902  33.044  1.00  0.00    -0.200 F 
ENDBRANCH  56  80
BRANCH  68  91
ATOM     91  C   UNL A   1      45.035  33.762  29.409  1.00  0.00     0.064 A 
ATOM     92  C   UNL A   1      45.814  34.009  30.549  1.00  0.00     0.173 A 
ATOM     93  C   UNL A   1      44.819  34.823  28.516  1.00  0.00     0.173 A 
ATOM     94  F   UNL A   1      46.034  33.031  31.440  1.00  0.00    -0.203 F 
ATOM     95  C   UNL A   1      46.342  35.274  30.792  1.00  0.00     0.198 A 
ATOM     96  C   UNL A   1      45.373  36.079  28.749  1.00  0.00     0.198 A 
ATOM     97  F   UNL A   1      44.087  34.637  27.408  1.00  0.00    -0.203 F 
ATOM     98  F   UNL A   1      47.049  35.498  31.909  1.00  0.00    -0.200 F 
ATOM     99  C   UNL A   1      46.128  36.305  29.890  1.00  0.00     0.200 A 
ATOM    100  F   UNL A   1      45.176  37.070  27.868  1.00  0.00    -0.200 F 
ATOM    101  F   UNL A   1      46.646  37.519  30.121  1.00  0.00    -0.200 F 
ENDBRANCH  68  91
ENDBRANCH  42  43
ENDBRANCH  34  37
ENDBRANCH  32  33
ENDBRANCH   1  32
TORSDOF 14
ENDMDL
