MODEL 1
REMARK VINA RESULT:     -12.0      0.000      0.000
REMARK SMILES CC[C@@H](C(=O)NCCCNC(=O)c1ccc(-c2c3nc(c(-c4c(F)c(F)c(F)c(F)c4F)c4ccc([nH]4)c(-c4c(F)c(F)c(F)c(F)c4F)c4nc(c(-c5c(F)c(F)c(F)c(F)c5F)c5ccc2[nH]5)C=C4)C=C3)cc1)N1C(=O)/C(=C/c2ccccc2[N+](=O)[O-])SC1=S
REMARK SMILES IDX 7 1 6 2 4 3 5 4 3 6 2 7 1 8 76 9 77 10 91 11 78 12 79 13
REMARK SMILES IDX 90 14 92 15 80 16 81 17 82 18 86 19 83 20 85 21 84 22 87 23
REMARK SMILES IDX 88 24 89 25 8 26 9 27 10 28 11 29 12 31 13 32 14 33 75 34
REMARK SMILES IDX 15 35 74 36 16 37 17 38 18 39 68 40 19 41 73 42 67 43 69 44
REMARK SMILES IDX 20 45 72 46 66 47 65 48 21 50 53 51 33 52 52 53 34 54 37 55
REMARK SMILES IDX 51 56 70 57 35 58 36 59 50 61 71 62 38 63 22 64 23 65 31 66
REMARK SMILES IDX 24 67 25 68 29 69 32 70 26 71 27 72 30 73 28 74 54 75 55 76
REMARK SMILES IDX 63 77 56 78 57 79 61 80 64 81 58 82 59 83 62 84 60 85 39 86
REMARK SMILES IDX 40 87 48 88 41 89 42 90 46 91 49 92 43 93 44 94 47 95 45 96
REMARK H PARENT 6 5 10 30 69 49 37 60
REMARK Flexibility Score: inf
ROOT
ATOM      1  C   UNL A   1      31.834  28.229  27.014  1.00  0.00     0.117 C 
ENDROOT
BRANCH   1   2
ATOM      2  N   UNL A   1      30.985  27.050  27.117  1.00  0.00    -0.354 N 
ATOM      3  C   UNL A   1      30.554  26.150  26.184  1.00  0.00     0.243 C 
ATOM      4  O   UNL A   1      29.648  25.380  26.521  1.00  0.00    -0.273 OA
ATOM      5  H   UNL A   1      30.660  26.868  28.029  1.00  0.00     0.163 HD
BRANCH   3   6
ATOM      6  C   UNL A   1      31.124  26.141  24.742  1.00  0.00     0.181 C 
BRANCH   6   7
ATOM      7  C   UNL A   1      29.881  25.908  23.831  1.00  0.00     0.032 C 
ATOM      8  C   UNL A   1      29.095  27.163  23.499  1.00  0.00     0.006 C 
ENDBRANCH   6   7
BRANCH   6   9
ATOM      9  N   UNL A   1      32.112  25.037  24.532  1.00  0.00    -0.280 N 
ATOM     10  C   UNL A   1      32.586  24.271  25.587  1.00  0.00     0.266 C 
ATOM     11  C   UNL A   1      32.906  24.912  23.408  1.00  0.00     0.149 C 
ATOM     12  O   UNL A   1      32.484  24.524  26.784  1.00  0.00    -0.268 OA
ATOM     13  C   UNL A   1      33.398  23.129  25.074  1.00  0.00     0.081 C 
ATOM     14  S   UNL A   1      33.626  23.311  23.382  1.00  0.00    -0.054 SA
ATOM     15  S   UNL A   1      33.279  26.046  22.240  1.00  0.00    -0.052 S 
ATOM     16  C   UNL A   1      33.888  22.149  25.848  1.00  0.00     0.036 C 
BRANCH  16  17
ATOM     17  C   UNL A   1      34.703  21.023  25.355  1.00  0.00     0.054 A 
ATOM     18  C   UNL A   1      36.098  21.198  25.361  1.00  0.00     0.015 A 
ATOM     19  C   UNL A   1      34.204  19.772  24.940  1.00  0.00     0.276 A 
ATOM     20  C   UNL A   1      36.957  20.152  25.001  1.00  0.00     0.001 A 
ATOM     21  C   UNL A   1      35.064  18.717  24.591  1.00  0.00     0.086 A 
ATOM     22  C   UNL A   1      36.443  18.912  24.628  1.00  0.00     0.007 A 
BRANCH  19  23
ATOM     23  N   UNL A   1      32.767  19.517  24.855  1.00  0.00     0.063 N 
ATOM     24  O   UNL A   1      32.153  20.044  23.915  1.00  0.00    -0.258 OA
ATOM     25  O   UNL A   1      32.250  18.817  25.735  1.00  0.00    -0.258 OA
ENDBRANCH  19  23
ENDBRANCH  16  17
ENDBRANCH   6   9
ENDBRANCH   3   6
ENDBRANCH   1   2
BRANCH   1  26
ATOM     26  C   UNL A   1      33.313  27.855  26.872  1.00  0.00     0.042 C 
BRANCH  26  27
ATOM     27  C   UNL A   1      34.165  28.885  26.135  1.00  0.00     0.118 C 
BRANCH  27  28
ATOM     28  N   UNL A   1      33.958  30.232  26.639  1.00  0.00    -0.352 N 
ATOM     29  C   UNL A   1      34.620  30.921  27.627  1.00  0.00     0.251 C 
ATOM     30  H   UNL A   1      33.228  30.730  26.202  1.00  0.00     0.163 HD
ATOM     31  O   UNL A   1      34.149  31.981  28.032  1.00  0.00    -0.269 OA
BRANCH  29  32
ATOM     32  C   UNL A   1      35.879  30.411  28.228  1.00  0.00     0.039 A 
ATOM     33  C   UNL A   1      37.073  30.589  27.520  1.00  0.00     0.014 A 
ATOM     34  C   UNL A   1      35.897  29.695  29.429  1.00  0.00     0.014 A 
ATOM     35  C   UNL A   1      38.278  30.093  28.031  1.00  0.00     0.010 A 
ATOM     36  C   UNL A   1      37.109  29.261  29.972  1.00  0.00     0.010 A 
ATOM     37  C   UNL A   1      38.312  29.441  29.273  1.00  0.00    -0.014 A 
BRANCH  37  38
ATOM     38  C   UNL A   1      39.592  28.923  29.831  1.00  0.00     0.031 A 
ATOM     39  C   UNL A   1      40.238  29.596  31.012  1.00  0.00     0.074 A 
ATOM     40  C   UNL A   1      40.196  27.864  29.257  1.00  0.00     0.049 A 
ATOM     41  N   UNL A   1      41.370  29.316  31.612  1.00  0.00    -0.248 NA
ATOM     42  C   UNL A   1      39.531  30.753  31.583  1.00  0.00     0.031 C 
ATOM     43  C   UNL A   1      39.702  27.140  28.087  1.00  0.00     0.029 A 
ATOM     44  N   UNL A   1      41.364  27.215  29.581  1.00  0.00    -0.354 N 
ATOM     45  C   UNL A   1      41.515  30.267  32.614  1.00  0.00     0.074 A 
ATOM     46  C   UNL A   1      40.381  31.161  32.514  1.00  0.00     0.031 C 
ATOM     47  C   UNL A   1      40.544  26.133  27.804  1.00  0.00     0.029 A 
ATOM     48  C   UNL A   1      41.655  26.158  28.752  1.00  0.00     0.049 A 
ATOM     49  H   UNL A   1      41.938  27.481  30.334  1.00  0.00     0.167 HD
ATOM     50  C   UNL A   1      42.490  30.374  33.548  1.00  0.00     0.037 A 
ATOM     51  C   UNL A   1      42.698  25.307  28.755  1.00  0.00     0.037 A 
ATOM     52  C   UNL A   1      43.603  29.468  33.675  1.00  0.00     0.049 A 
ATOM     53  C   UNL A   1      43.765  25.443  29.807  1.00  0.00     0.074 A 
ATOM     54  C   UNL A   1      44.611  29.465  34.625  1.00  0.00     0.029 A 
ATOM     55  N   UNL A   1      43.852  28.401  32.825  1.00  0.00    -0.354 N 
ATOM     56  N   UNL A   1      43.859  26.312  30.782  1.00  0.00    -0.248 NA
ATOM     57  C   UNL A   1      44.867  24.471  29.761  1.00  0.00     0.031 C 
ATOM     58  C   UNL A   1      45.489  28.418  34.329  1.00  0.00     0.029 A 
ATOM     59  C   UNL A   1      45.005  27.742  33.220  1.00  0.00     0.049 A 
ATOM     60  H   UNL A   1      43.292  28.149  32.055  1.00  0.00     0.167 HD
ATOM     61  C   UNL A   1      45.012  25.979  31.480  1.00  0.00     0.074 A 
ATOM     62  C   UNL A   1      45.577  24.818  30.825  1.00  0.00     0.031 C 
ATOM     63  C   UNL A   1      45.554  26.582  32.566  1.00  0.00     0.037 A 
BRANCH  50  64
ATOM     64  C   UNL A   1      42.396  31.514  34.520  1.00  0.00     0.064 A 
ATOM     65  C   UNL A   1      41.698  31.389  35.731  1.00  0.00     0.173 A 
ATOM     66  C   UNL A   1      43.043  32.731  34.258  1.00  0.00     0.173 A 
ATOM     67  F   UNL A   1      41.054  30.251  36.025  1.00  0.00    -0.203 F 
ATOM     68  C   UNL A   1      41.626  32.451  36.629  1.00  0.00     0.198 A 
ATOM     69  C   UNL A   1      42.993  33.781  35.172  1.00  0.00     0.198 A 
ATOM     70  F   UNL A   1      43.731  32.900  33.118  1.00  0.00    -0.203 F 
ATOM     71  F   UNL A   1      40.914  32.325  37.758  1.00  0.00    -0.200 F 
ATOM     72  C   UNL A   1      42.279  33.644  36.352  1.00  0.00     0.200 A 
ATOM     73  F   UNL A   1      43.634  34.928  34.908  1.00  0.00    -0.200 F 
ATOM     74  F   UNL A   1      42.213  34.662  37.221  1.00  0.00    -0.200 F 
ENDBRANCH  50  64
BRANCH  51  75
ATOM     75  C   UNL A   1      42.770  24.222  27.741  1.00  0.00     0.064 A 
ATOM     76  C   UNL A   1      42.353  22.920  28.052  1.00  0.00     0.173 A 
ATOM     77  C   UNL A   1      43.259  24.461  26.449  1.00  0.00     0.173 A 
ATOM     78  F   UNL A   1      41.900  22.639  29.283  1.00  0.00    -0.203 F 
ATOM     79  C   UNL A   1      42.438  21.894  27.115  1.00  0.00     0.198 A 
ATOM     80  C   UNL A   1      43.319  23.439  25.504  1.00  0.00     0.198 A 
ATOM     81  F   UNL A   1      43.667  25.690  26.102  1.00  0.00    -0.203 F 
ATOM     82  F   UNL A   1      42.072  20.649  27.452  1.00  0.00    -0.200 F 
ATOM     83  C   UNL A   1      42.916  22.156  25.839  1.00  0.00     0.200 A 
ATOM     84  F   UNL A   1      43.771  23.698  24.269  1.00  0.00    -0.200 F 
ATOM     85  F   UNL A   1      42.994  21.169  24.935  1.00  0.00    -0.200 F 
ENDBRANCH  51  75
BRANCH  63  86
ATOM     86  C   UNL A   1      46.805  25.980  33.135  1.00  0.00     0.064 A 
ATOM     87  C   UNL A   1      46.759  24.945  34.079  1.00  0.00     0.173 A 
ATOM     88  C   UNL A   1      48.065  26.424  32.705  1.00  0.00     0.173 A 
ATOM     89  F   UNL A   1      45.578  24.498  34.532  1.00  0.00    -0.203 F 
ATOM     90  C   UNL A   1      47.929  24.392  34.590  1.00  0.00     0.198 A 
ATOM     91  C   UNL A   1      49.233  25.850  33.199  1.00  0.00     0.198 A 
ATOM     92  F   UNL A   1      48.162  27.408  31.799  1.00  0.00    -0.203 F 
ATOM     93  F   UNL A   1      47.862  23.433  35.525  1.00  0.00    -0.200 F 
ATOM     94  C   UNL A   1      49.164  24.839  34.145  1.00  0.00     0.200 A 
ATOM     95  F   UNL A   1      50.426  26.277  32.761  1.00  0.00    -0.200 F 
ATOM     96  F   UNL A   1      50.290  24.302  34.637  1.00  0.00    -0.200 F 
ENDBRANCH  63  86
ENDBRANCH  37  38
ENDBRANCH  29  32
ENDBRANCH  27  28
ENDBRANCH  26  27
ENDBRANCH   1  26
TORSDOF 14
ENDMDL
MODEL 2
REMARK VINA RESULT:     -11.9      1.997      2.843
REMARK SMILES CC[C@@H](C(=O)NCCCNC(=O)c1ccc(-c2c3nc(c(-c4c(F)c(F)c(F)c(F)c4F)c4ccc([nH]4)c(-c4c(F)c(F)c(F)c(F)c4F)c4nc(c(-c5c(F)c(F)c(F)c(F)c5F)c5ccc2[nH]5)C=C4)C=C3)cc1)N1C(=O)/C(=C/c2ccccc2[N+](=O)[O-])SC1=S
REMARK SMILES IDX 7 1 6 2 4 3 5 4 3 6 2 7 1 8 76 9 77 10 91 11 78 12 79 13
REMARK SMILES IDX 90 14 92 15 80 16 81 17 82 18 86 19 83 20 85 21 84 22 87 23
REMARK SMILES IDX 88 24 89 25 8 26 9 27 10 28 11 29 12 31 13 32 14 33 75 34
REMARK SMILES IDX 15 35 74 36 16 37 17 38 18 39 68 40 19 41 73 42 67 43 69 44
REMARK SMILES IDX 20 45 72 46 66 47 65 48 21 50 53 51 33 52 52 53 34 54 37 55
REMARK SMILES IDX 51 56 70 57 35 58 36 59 50 61 71 62 38 63 22 64 23 65 31 66
REMARK SMILES IDX 24 67 25 68 29 69 32 70 26 71 27 72 30 73 28 74 54 75 55 76
REMARK SMILES IDX 63 77 56 78 57 79 61 80 64 81 58 82 59 83 62 84 60 85 39 86
REMARK SMILES IDX 40 87 48 88 41 89 42 90 46 91 49 92 43 93 44 94 47 95 45 96
REMARK H PARENT 6 5 10 30 69 49 37 60
REMARK Flexibility Score: inf
ROOT
ATOM      1  C   UNL A   1      32.177  27.855  27.193  1.00  0.00     0.117 C 
ENDROOT
BRANCH   1   2
ATOM      2  N   UNL A   1      31.091  26.886  27.152  1.00  0.00    -0.354 N 
ATOM      3  C   UNL A   1      30.563  26.147  26.132  1.00  0.00     0.243 C 
ATOM      4  O   UNL A   1      29.487  25.578  26.348  1.00  0.00    -0.273 OA
ATOM      5  H   UNL A   1      30.655  26.736  28.023  1.00  0.00     0.163 HD
BRANCH   3   6
ATOM      6  C   UNL A   1      31.243  26.082  24.741  1.00  0.00     0.181 C 
BRANCH   6   7
ATOM      7  C   UNL A   1      30.072  26.229  23.724  1.00  0.00     0.032 C 
ATOM      8  C   UNL A   1      29.814  27.649  23.255  1.00  0.00     0.006 C 
ENDBRANCH   6   7
BRANCH   6   9
ATOM      9  N   UNL A   1      31.943  24.779  24.514  1.00  0.00    -0.280 N 
ATOM     10  C   UNL A   1      32.444  24.027  25.566  1.00  0.00     0.266 C 
ATOM     11  C   UNL A   1      32.477  24.388  23.301  1.00  0.00     0.149 C 
ATOM     12  O   UNL A   1      32.615  24.402  26.722  1.00  0.00    -0.268 OA
ATOM     13  C   UNL A   1      32.911  22.697  25.075  1.00  0.00     0.081 C 
ATOM     14  S   UNL A   1      32.856  22.675  23.360  1.00  0.00    -0.054 SA
ATOM     15  S   UNL A   1      32.842  25.308  21.955  1.00  0.00    -0.052 S 
ATOM     16  C   UNL A   1      33.335  21.708  25.876  1.00  0.00     0.036 C 
BRANCH  16  17
ATOM     17  C   UNL A   1      33.811  20.395  25.403  1.00  0.00     0.054 A 
ATOM     18  C   UNL A   1      32.865  19.356  25.350  1.00  0.00     0.015 A 
ATOM     19  C   UNL A   1      35.114  20.115  24.943  1.00  0.00     0.276 A 
ATOM     20  C   UNL A   1      33.200  18.102  24.826  1.00  0.00     0.001 A 
ATOM     21  C   UNL A   1      35.448  18.861  24.404  1.00  0.00     0.086 A 
ATOM     22  C   UNL A   1      34.484  17.858  24.344  1.00  0.00     0.007 A 
BRANCH  19  23
ATOM     23  N   UNL A   1      36.174  21.119  25.006  1.00  0.00     0.063 N 
ATOM     24  O   UNL A   1      36.359  21.812  23.995  1.00  0.00    -0.258 OA
ATOM     25  O   UNL A   1      36.837  21.197  26.049  1.00  0.00    -0.258 OA
ENDBRANCH  19  23
ENDBRANCH  16  17
ENDBRANCH   6   9
ENDBRANCH   3   6
ENDBRANCH   1   2
BRANCH   1  26
ATOM     26  C   UNL A   1      31.718  29.244  26.736  1.00  0.00     0.042 C 
BRANCH  26  27
ATOM     27  C   UNL A   1      32.807  30.095  26.087  1.00  0.00     0.118 C 
BRANCH  27  28
ATOM     28  N   UNL A   1      32.662  31.506  26.399  1.00  0.00    -0.352 N 
ATOM     29  C   UNL A   1      33.351  32.293  27.291  1.00  0.00     0.251 C 
ATOM     30  H   UNL A   1      31.959  31.973  25.891  1.00  0.00     0.163 HD
ATOM     31  O   UNL A   1      32.929  33.419  27.542  1.00  0.00    -0.269 OA
BRANCH  29  32
ATOM     32  C   UNL A   1      34.582  31.812  27.970  1.00  0.00     0.039 A 
ATOM     33  C   UNL A   1      34.561  30.544  28.562  1.00  0.00     0.014 A 
ATOM     34  C   UNL A   1      35.722  32.610  28.105  1.00  0.00     0.014 A 
ATOM     35  C   UNL A   1      35.684  30.063  29.244  1.00  0.00     0.010 A 
ATOM     36  C   UNL A   1      36.867  32.103  28.725  1.00  0.00     0.010 A 
ATOM     37  C   UNL A   1      36.857  30.830  29.315  1.00  0.00    -0.014 A 
BRANCH  37  38
ATOM     38  C   UNL A   1      38.063  30.321  30.026  1.00  0.00     0.031 A 
ATOM     39  C   UNL A   1      38.358  30.756  31.436  1.00  0.00     0.074 A 
ATOM     40  C   UNL A   1      38.917  29.492  29.394  1.00  0.00     0.049 A 
ATOM     41  N   UNL A   1      39.378  30.454  32.203  1.00  0.00    -0.248 NA
ATOM     42  C   UNL A   1      37.391  31.670  32.063  1.00  0.00     0.031 C 
ATOM     43  C   UNL A   1      38.775  29.021  28.017  1.00  0.00     0.029 A 
ATOM     44  N   UNL A   1      40.080  28.902  29.829  1.00  0.00    -0.354 N 
ATOM     45  C   UNL A   1      39.181  31.150  33.389  1.00  0.00     0.074 A 
ATOM     46  C   UNL A   1      37.972  31.928  33.226  1.00  0.00     0.031 C 
ATOM     47  C   UNL A   1      39.794  28.196  27.726  1.00  0.00     0.029 A 
ATOM     48  C   UNL A   1      40.680  28.105  28.884  1.00  0.00     0.049 A 
ATOM     49  H   UNL A   1      40.449  29.038  30.731  1.00  0.00     0.167 HD
ATOM     50  C   UNL A   1      39.927  31.128  34.520  1.00  0.00     0.037 A 
ATOM     51  C   UNL A   1      41.814  27.383  28.943  1.00  0.00     0.037 A 
ATOM     52  C   UNL A   1      41.113  30.331  34.701  1.00  0.00     0.049 A 
ATOM     53  C   UNL A   1      42.621  27.370  30.213  1.00  0.00     0.074 A 
ATOM     54  C   UNL A   1      41.903  30.202  35.832  1.00  0.00     0.029 A 
ATOM     55  N   UNL A   1      41.678  29.525  33.725  1.00  0.00    -0.354 N 
ATOM     56  N   UNL A   1      42.393  27.989  31.344  1.00  0.00    -0.248 NA
ATOM     57  C   UNL A   1      43.841  26.549  30.214  1.00  0.00     0.031 C 
ATOM     58  C   UNL A   1      42.966  29.345  35.528  1.00  0.00     0.029 A 
ATOM     59  C   UNL A   1      42.814  28.907  34.223  1.00  0.00     0.049 A 
ATOM     60  H   UNL A   1      41.324  29.408  32.814  1.00  0.00     0.167 HD
ATOM     61  C   UNL A   1      43.422  27.614  32.198  1.00  0.00     0.074 A 
ATOM     62  C   UNL A   1      44.269  26.701  31.459  1.00  0.00     0.031 C 
ATOM     63  C   UNL A   1      43.645  27.993  33.480  1.00  0.00     0.037 A 
BRANCH  50  64
ATOM     64  C   UNL A   1      39.477  31.991  35.663  1.00  0.00     0.064 A 
ATOM     65  C   UNL A   1      38.516  31.547  36.583  1.00  0.00     0.173 A 
ATOM     66  C   UNL A   1      40.041  33.260  35.865  1.00  0.00     0.173 A 
ATOM     67  F   UNL A   1      37.939  30.346  36.430  1.00  0.00    -0.203 F 
ATOM     68  C   UNL A   1      38.114  32.353  37.646  1.00  0.00     0.198 A 
ATOM     69  C   UNL A   1      39.657  34.052  36.944  1.00  0.00     0.198 A 
ATOM     70  F   UNL A   1      40.971  33.729  35.018  1.00  0.00    -0.203 F 
ATOM     71  F   UNL A   1      37.160  31.927  38.485  1.00  0.00    -0.200 F 
ATOM     72  C   UNL A   1      38.690  33.602  37.829  1.00  0.00     0.200 A 
ATOM     73  F   UNL A   1      40.224  35.253  37.127  1.00  0.00    -0.200 F 
ATOM     74  F   UNL A   1      38.306  34.373  38.855  1.00  0.00    -0.200 F 
ENDBRANCH  50  64
BRANCH  51  75
ATOM     75  C   UNL A   1      42.243  26.581  27.767  1.00  0.00     0.064 A 
ATOM     76  C   UNL A   1      41.729  25.295  27.550  1.00  0.00     0.173 A 
ATOM     77  C   UNL A   1      43.173  27.078  26.844  1.00  0.00     0.173 A 
ATOM     78  F   UNL A   1      40.854  24.768  28.420  1.00  0.00    -0.203 F 
ATOM     79  C   UNL A   1      42.142  24.529  26.463  1.00  0.00     0.198 A 
ATOM     80  C   UNL A   1      43.567  26.321  25.743  1.00  0.00     0.198 A 
ATOM     81  F   UNL A   1      43.692  28.303  27.007  1.00  0.00    -0.203 F 
ATOM     82  F   UNL A   1      41.667  23.286  26.302  1.00  0.00    -0.200 F 
ATOM     83  C   UNL A   1      43.056  25.045  25.556  1.00  0.00     0.200 A 
ATOM     84  F   UNL A   1      44.442  26.827  24.863  1.00  0.00    -0.200 F 
ATOM     85  F   UNL A   1      43.452  24.310  24.508  1.00  0.00    -0.200 F 
ENDBRANCH  51  75
BRANCH  63  86
ATOM     86  C   UNL A   1      44.833  27.399  34.177  1.00  0.00     0.064 A 
ATOM     87  C   UNL A   1      46.089  28.021  34.150  1.00  0.00     0.173 A 
ATOM     88  C   UNL A   1      44.704  26.208  34.909  1.00  0.00     0.173 A 
ATOM     89  F   UNL A   1      46.266  29.153  33.451  1.00  0.00    -0.203 F 
ATOM     90  C   UNL A   1      47.179  27.461  34.810  1.00  0.00     0.198 A 
ATOM     91  C   UNL A   1      45.790  25.665  35.590  1.00  0.00     0.198 A 
ATOM     92  F   UNL A   1      43.522  25.578  34.970  1.00  0.00    -0.203 F 
ATOM     93  F   UNL A   1      48.381  28.050  34.733  1.00  0.00    -0.200 F 
ATOM     94  C   UNL A   1      47.027  26.288  35.534  1.00  0.00     0.200 A 
ATOM     95  F   UNL A   1      45.640  24.537  36.297  1.00  0.00    -0.200 F 
ATOM     96  F   UNL A   1      48.078  25.752  36.171  1.00  0.00    -0.200 F 
ENDBRANCH  63  86
ENDBRANCH  37  38
ENDBRANCH  29  32
ENDBRANCH  27  28
ENDBRANCH  26  27
ENDBRANCH   1  26
TORSDOF 14
ENDMDL
MODEL 3
REMARK VINA RESULT:     -11.9      3.843      8.074
REMARK SMILES CC[C@@H](C(=O)NCCCNC(=O)c1ccc(-c2c3nc(c(-c4c(F)c(F)c(F)c(F)c4F)c4ccc([nH]4)c(-c4c(F)c(F)c(F)c(F)c4F)c4nc(c(-c5c(F)c(F)c(F)c(F)c5F)c5ccc2[nH]5)C=C4)C=C3)cc1)N1C(=O)/C(=C/c2ccccc2[N+](=O)[O-])SC1=S
REMARK SMILES IDX 7 1 6 2 4 3 5 4 3 6 2 7 1 8 76 9 77 10 91 11 78 12 79 13
REMARK SMILES IDX 90 14 92 15 80 16 81 17 82 18 86 19 83 20 85 21 84 22 87 23
REMARK SMILES IDX 88 24 89 25 8 26 9 27 10 28 11 29 12 31 13 32 14 33 75 34
REMARK SMILES IDX 15 35 74 36 16 37 17 38 18 39 68 40 19 41 73 42 67 43 69 44
REMARK SMILES IDX 20 45 72 46 66 47 65 48 21 50 53 51 33 52 52 53 34 54 37 55
REMARK SMILES IDX 51 56 70 57 35 58 36 59 50 61 71 62 38 63 22 64 23 65 31 66
REMARK SMILES IDX 24 67 25 68 29 69 32 70 26 71 27 72 30 73 28 74 54 75 55 76
REMARK SMILES IDX 63 77 56 78 57 79 61 80 64 81 58 82 59 83 62 84 60 85 39 86
REMARK SMILES IDX 40 87 48 88 41 89 42 90 46 91 49 92 43 93 44 94 47 95 45 96
REMARK H PARENT 6 5 10 30 69 49 37 60
REMARK Flexibility Score: inf
ROOT
ATOM      1  C   UNL A   1      36.405  20.273  25.023  1.00  0.00     0.117 C 
ENDROOT
BRANCH   1   2
ATOM      2  N   UNL A   1      36.258  21.431  24.152  1.00  0.00    -0.354 N 
ATOM      3  C   UNL A   1      35.185  22.222  23.857  1.00  0.00     0.243 C 
ATOM      4  O   UNL A   1      35.302  22.995  22.899  1.00  0.00    -0.273 OA
ATOM      5  H   UNL A   1      37.088  21.692  23.690  1.00  0.00     0.163 HD
BRANCH   3   6
ATOM      6  C   UNL A   1      33.852  22.107  24.640  1.00  0.00     0.181 C 
BRANCH   6   7
ATOM      7  C   UNL A   1      32.866  21.434  23.639  1.00  0.00     0.032 C 
ATOM      8  C   UNL A   1      32.660  19.946  23.856  1.00  0.00     0.006 C 
ENDBRANCH   6   7
BRANCH   6   9
ATOM      9  N   UNL A   1      33.318  23.444  25.046  1.00  0.00    -0.280 N 
ATOM     10  C   UNL A   1      34.159  24.498  25.369  1.00  0.00     0.266 C 
ATOM     11  C   UNL A   1      32.028  23.660  25.492  1.00  0.00     0.149 C 
ATOM     12  O   UNL A   1      35.361  24.434  25.608  1.00  0.00    -0.268 OA
ATOM     13  C   UNL A   1      33.371  25.754  25.544  1.00  0.00     0.081 C 
ATOM     14  S   UNL A   1      31.696  25.383  25.496  1.00  0.00    -0.054 SA
ATOM     15  S   UNL A   1      30.901  22.562  26.055  1.00  0.00    -0.052 S 
ATOM     16  C   UNL A   1      33.919  26.962  25.740  1.00  0.00     0.036 C 
BRANCH  16  17
ATOM     17  C   UNL A   1      33.151  28.209  25.929  1.00  0.00     0.054 A 
ATOM     18  C   UNL A   1      32.997  28.667  27.249  1.00  0.00     0.015 A 
ATOM     19  C   UNL A   1      32.618  29.003  24.895  1.00  0.00     0.276 A 
ATOM     20  C   UNL A   1      32.366  29.887  27.518  1.00  0.00     0.001 A 
ATOM     21  C   UNL A   1      31.996  30.235  25.162  1.00  0.00     0.086 A 
ATOM     22  C   UNL A   1      31.877  30.675  26.478  1.00  0.00     0.007 A 
BRANCH  19  23
ATOM     23  N   UNL A   1      32.688  28.581  23.497  1.00  0.00     0.063 N 
ATOM     24  O   UNL A   1      33.687  28.927  22.850  1.00  0.00    -0.258 OA
ATOM     25  O   UNL A   1      31.738  27.930  23.040  1.00  0.00    -0.258 OA
ENDBRANCH  19  23
ENDBRANCH  16  17
ENDBRANCH   6   9
ENDBRANCH   3   6
ENDBRANCH   1   2
BRANCH   1  26
ATOM     26  C   UNL A   1      37.781  19.617  24.871  1.00  0.00     0.042 C 
BRANCH  26  27
ATOM     27  C   UNL A   1      38.840  20.116  25.851  1.00  0.00     0.118 C 
BRANCH  27  28
ATOM     28  N   UNL A   1      40.010  19.256  25.883  1.00  0.00    -0.352 N 
ATOM     29  C   UNL A   1      41.332  19.564  26.097  1.00  0.00     0.251 C 
ATOM     30  H   UNL A   1      39.826  18.301  25.727  1.00  0.00     0.163 HD
ATOM     31  O   UNL A   1      42.186  18.709  25.880  1.00  0.00    -0.269 OA
BRANCH  29  32
ATOM     32  C   UNL A   1      41.756  20.908  26.567  1.00  0.00     0.039 A 
ATOM     33  C   UNL A   1      42.167  21.846  25.613  1.00  0.00     0.014 A 
ATOM     34  C   UNL A   1      41.832  21.236  27.924  1.00  0.00     0.014 A 
ATOM     35  C   UNL A   1      42.609  23.113  26.012  1.00  0.00     0.010 A 
ATOM     36  C   UNL A   1      42.206  22.524  28.318  1.00  0.00     0.010 A 
ATOM     37  C   UNL A   1      42.614  23.473  27.368  1.00  0.00    -0.014 A 
BRANCH  37  38
ATOM     38  C   UNL A   1      43.068  24.823  27.801  1.00  0.00     0.031 A 
ATOM     39  C   UNL A   1      42.066  25.888  28.157  1.00  0.00     0.074 A 
ATOM     40  C   UNL A   1      44.385  25.108  27.844  1.00  0.00     0.049 A 
ATOM     41  N   UNL A   1      42.268  27.133  28.516  1.00  0.00    -0.248 NA
ATOM     42  C   UNL A   1      40.646  25.513  28.078  1.00  0.00     0.031 C 
ATOM     43  C   UNL A   1      45.462  24.185  27.491  1.00  0.00     0.029 A 
ATOM     44  N   UNL A   1      45.040  26.263  28.201  1.00  0.00    -0.354 N 
ATOM     45  C   UNL A   1      41.006  27.689  28.688  1.00  0.00     0.074 A 
ATOM     46  C   UNL A   1      40.044  26.662  28.350  1.00  0.00     0.031 C 
ATOM     47  C   UNL A   1      46.643  24.797  27.670  1.00  0.00     0.029 A 
ATOM     48  C   UNL A   1      46.408  26.167  28.121  1.00  0.00     0.049 A 
ATOM     49  H   UNL A   1      44.574  27.081  28.486  1.00  0.00     0.167 HD
ATOM     50  C   UNL A   1      40.677  28.933  29.111  1.00  0.00     0.037 A 
ATOM     51  C   UNL A   1      47.364  27.078  28.380  1.00  0.00     0.037 A 
ATOM     52  C   UNL A   1      41.629  29.948  29.482  1.00  0.00     0.049 A 
ATOM     53  C   UNL A   1      46.973  28.451  28.855  1.00  0.00     0.074 A 
ATOM     54  C   UNL A   1      41.388  31.220  29.975  1.00  0.00     0.029 A 
ATOM     55  N   UNL A   1      43.006  29.805  29.402  1.00  0.00    -0.354 N 
ATOM     56  N   UNL A   1      45.779  28.944  29.067  1.00  0.00    -0.248 NA
ATOM     57  C   UNL A   1      48.068  29.392  29.134  1.00  0.00     0.031 C 
ATOM     58  C   UNL A   1      42.619  31.859  30.160  1.00  0.00     0.029 A 
ATOM     59  C   UNL A   1      43.627  30.970  29.823  1.00  0.00     0.049 A 
ATOM     60  H   UNL A   1      43.473  28.995  29.092  1.00  0.00     0.167 HD
ATOM     61  C   UNL A   1      45.976  30.239  29.528  1.00  0.00     0.074 A 
ATOM     62  C   UNL A   1      47.407  30.451  29.579  1.00  0.00     0.031 C 
ATOM     63  C   UNL A   1      45.053  31.168  29.877  1.00  0.00     0.037 A 
BRANCH  50  64
ATOM     64  C   UNL A   1      39.217  29.268  29.206  1.00  0.00     0.064 A 
ATOM     65  C   UNL A   1      38.545  29.280  30.437  1.00  0.00     0.173 A 
ATOM     66  C   UNL A   1      38.490  29.621  28.058  1.00  0.00     0.173 A 
ATOM     67  F   UNL A   1      39.192  28.942  31.562  1.00  0.00    -0.203 F 
ATOM     68  C   UNL A   1      37.192  29.604  30.513  1.00  0.00     0.198 A 
ATOM     69  C   UNL A   1      37.144  29.971  28.141  1.00  0.00     0.198 A 
ATOM     70  F   UNL A   1      39.087  29.634  26.857  1.00  0.00    -0.203 F 
ATOM     71  F   UNL A   1      36.561  29.563  31.694  1.00  0.00    -0.200 F 
ATOM     72  C   UNL A   1      36.495  29.955  29.366  1.00  0.00     0.200 A 
ATOM     73  F   UNL A   1      36.476  30.323  27.035  1.00  0.00    -0.200 F 
ATOM     74  F   UNL A   1      35.195  30.272  29.442  1.00  0.00    -0.200 F 
ENDBRANCH  50  64
BRANCH  51  75
ATOM     75  C   UNL A   1      48.797  26.711  28.226  1.00  0.00     0.064 A 
ATOM     76  C   UNL A   1      49.551  26.287  29.329  1.00  0.00     0.173 A 
ATOM     77  C   UNL A   1      49.439  26.781  26.982  1.00  0.00     0.173 A 
ATOM     78  F   UNL A   1      48.985  26.228  30.544  1.00  0.00    -0.203 F 
ATOM     79  C   UNL A   1      50.899  25.963  29.198  1.00  0.00     0.198 A 
ATOM     80  C   UNL A   1      50.781  26.432  26.847  1.00  0.00     0.198 A 
ATOM     81  F   UNL A   1      48.760  27.179  25.897  1.00  0.00    -0.203 F 
ATOM     82  F   UNL A   1      51.608  25.601  30.276  1.00  0.00    -0.200 F 
ATOM     83  C   UNL A   1      51.511  26.030  27.955  1.00  0.00     0.200 A 
ATOM     84  F   UNL A   1      51.367  26.487  25.642  1.00  0.00    -0.200 F 
ATOM     85  F   UNL A   1      52.808  25.714  27.827  1.00  0.00    -0.200 F 
ENDBRANCH  51  75
BRANCH  63  86
ATOM     86  C   UNL A   1      45.561  32.489  30.374  1.00  0.00     0.064 A 
ATOM     87  C   UNL A   1      45.837  32.707  31.732  1.00  0.00     0.173 A 
ATOM     88  C   UNL A   1      45.805  33.539  29.476  1.00  0.00     0.173 A 
ATOM     89  F   UNL A   1      45.605  31.738  32.631  1.00  0.00    -0.203 F 
ATOM     90  C   UNL A   1      46.316  33.936  32.176  1.00  0.00     0.198 A 
ATOM     91  C   UNL A   1      46.309  34.759  29.920  1.00  0.00     0.198 A 
ATOM     92  F   UNL A   1      45.562  33.379  28.167  1.00  0.00    -0.203 F 
ATOM     93  F   UNL A   1      46.531  34.136  33.484  1.00  0.00    -0.200 F 
ATOM     94  C   UNL A   1      46.558  34.957  31.270  1.00  0.00     0.200 A 
ATOM     95  F   UNL A   1      46.552  35.742  29.043  1.00  0.00    -0.200 F 
ATOM     96  F   UNL A   1      47.023  36.139  31.699  1.00  0.00    -0.200 F 
ENDBRANCH  63  86
ENDBRANCH  37  38
ENDBRANCH  29  32
ENDBRANCH  27  28
ENDBRANCH  26  27
ENDBRANCH   1  26
TORSDOF 14
ENDMDL
