MODEL 1
REMARK VINA RESULT:     -12.6      0.000      0.000
REMARK SMILES COc1cccc(O[C@@H](C)c2nnc(SCC(=O)NCCCNC(=O)c3ccc(-c4c5nc(c(-c6c(F)c(F)c(F)c(F)c6F)c6ccc([nH]6)c(-c6c(F)c(F)c(F)c(F)c6F)c6nc(c(-c7c(F)c(F)c(F)c(F)c7F)c7ccc4[nH]7)C=C6)C=C5)cc3)n2C)c1
REMARK SMILES IDX 17 1 18 2 19 3 16 5 15 6 14 7 11 8 12 9 89 10 13 11 90 12
REMARK SMILES IDX 9 13 10 14 8 15 7 16 3 17 4 18 91 19 5 20 6 21 2 22 1 23
REMARK SMILES IDX 20 24 21 25 22 26 23 27 24 28 25 30 26 31 27 32 88 33 28 34
REMARK SMILES IDX 87 35 29 36 30 37 31 38 81 39 32 40 86 41 80 42 82 43 33 44
REMARK SMILES IDX 85 45 79 46 78 47 34 49 66 50 46 51 65 52 47 53 50 54 64 55
REMARK SMILES IDX 83 56 48 57 49 58 63 60 84 61 51 62 35 63 36 64 44 65 37 66
REMARK SMILES IDX 38 67 42 68 45 69 39 70 40 71 43 72 41 73 67 74 68 75 76 76
REMARK SMILES IDX 69 77 70 78 74 79 77 80 71 81 72 82 75 83 73 84 52 85 53 86
REMARK SMILES IDX 61 87 54 88 55 89 59 90 62 91 56 92 57 93 60 94 58 95
REMARK H PARENT 19 4 23 29 82 48 50 59
REMARK Flexibility Score: inf
ROOT
ATOM      1  C   UNL A   1      31.631  28.205  26.790  1.00  0.00     0.230 C 
ATOM      2  O   UNL A   1      31.498  27.516  27.807  1.00  0.00    -0.274 OA
ATOM      3  N   UNL A   1      31.505  29.549  26.927  1.00  0.00    -0.355 N 
ATOM      4  H   UNL A   1      31.201  29.855  27.813  1.00  0.00     0.163 HD
ENDROOT
BRANCH   1   5
ATOM      5  C   UNL A   1      31.987  27.567  25.466  1.00  0.00     0.178 C 
BRANCH   5   6
ATOM      6  S   UNL A   1      30.706  26.594  24.693  1.00  0.00    -0.076 SA
BRANCH   6   7
ATOM      7  C   UNL A   1      31.076  24.913  24.557  1.00  0.00     0.191 A 
ATOM      8  C   UNL A   1      31.961  22.897  24.681  1.00  0.00     0.174 A 
ATOM      9  N   UNL A   1      31.476  23.076  23.466  1.00  0.00    -0.130 NA
ATOM     10  N   UNL A   1      31.616  24.009  25.443  1.00  0.00    -0.306 N 
ATOM     11  N   UNL A   1      30.935  24.323  23.391  1.00  0.00    -0.123 NA
ATOM     12  C   UNL A   1      31.763  24.149  26.862  1.00  0.00     0.154 C 
BRANCH   8  13
ATOM     13  C   UNL A   1      32.725  21.654  25.064  1.00  0.00     0.238 C 
ATOM     14  C   UNL A   1      34.134  21.416  24.549  1.00  0.00     0.062 C 
BRANCH  13  15
ATOM     15  O   UNL A   1      31.908  20.470  24.958  1.00  0.00    -0.483 OA
BRANCH  15  16
ATOM     16  C   UNL A   1      32.372  19.245  24.580  1.00  0.00     0.124 A 
ATOM     17  C   UNL A   1      33.401  17.061  24.876  1.00  0.00     0.122 A 
ATOM     18  C   UNL A   1      33.387  16.858  23.500  1.00  0.00     0.046 A 
ATOM     19  C   UNL A   1      32.899  18.254  25.403  1.00  0.00     0.092 A 
ATOM     20  C   UNL A   1      32.840  17.827  22.662  1.00  0.00     0.008 A 
ATOM     21  C   UNL A   1      32.338  19.013  23.202  1.00  0.00     0.047 A 
BRANCH  17  22
ATOM     22  O   UNL A   1      33.992  16.076  25.622  1.00  0.00    -0.497 OA
ATOM     23  C   UNL A   1      35.362  15.825  25.322  1.00  0.00     0.278 C 
ENDBRANCH  17  22
ENDBRANCH  15  16
ENDBRANCH  13  15
ENDBRANCH   8  13
ENDBRANCH   6   7
ENDBRANCH   5   6
ENDBRANCH   1   5
BRANCH   3  24
ATOM     24  C   UNL A   1      31.753  30.601  25.961  1.00  0.00     0.117 C 
BRANCH  24  25
ATOM     25  C   UNL A   1      31.449  31.986  26.517  1.00  0.00     0.042 C 
BRANCH  25  26
ATOM     26  C   UNL A   1      32.613  32.627  27.264  1.00  0.00     0.118 C 
BRANCH  26  27
ATOM     27  N   UNL A   1      32.374  34.029  27.587  1.00  0.00    -0.352 N 
ATOM     28  C   UNL A   1      32.951  34.827  28.541  1.00  0.00     0.251 C 
ATOM     29  H   UNL A   1      31.691  34.472  27.033  1.00  0.00     0.163 HD
ATOM     30  O   UNL A   1      32.466  35.929  28.793  1.00  0.00    -0.269 OA
BRANCH  28  31
ATOM     31  C   UNL A   1      34.143  34.363  29.278  1.00  0.00     0.039 A 
ATOM     32  C   UNL A   1      33.986  33.831  30.561  1.00  0.00     0.014 A 
ATOM     33  C   UNL A   1      35.414  34.463  28.711  1.00  0.00     0.014 A 
ATOM     34  C   UNL A   1      35.096  33.330  31.243  1.00  0.00     0.010 A 
ATOM     35  C   UNL A   1      36.504  33.886  29.353  1.00  0.00     0.010 A 
ATOM     36  C   UNL A   1      36.357  33.317  30.627  1.00  0.00    -0.014 A 
BRANCH  36  37
ATOM     37  C   UNL A   1      37.542  32.714  31.287  1.00  0.00     0.031 A 
ATOM     38  C   UNL A   1      38.257  31.562  30.639  1.00  0.00     0.074 A 
ATOM     39  C   UNL A   1      37.912  33.135  32.512  1.00  0.00     0.049 A 
ATOM     40  N   UNL A   1      39.225  30.816  31.107  1.00  0.00    -0.248 NA
ATOM     41  C   UNL A   1      37.798  31.177  29.296  1.00  0.00     0.031 C 
ATOM     42  C   UNL A   1      37.268  34.213  33.264  1.00  0.00     0.029 A 
ATOM     43  N   UNL A   1      38.903  32.689  33.351  1.00  0.00    -0.354 N 
ATOM     44  C   UNL A   1      39.469  29.860  30.130  1.00  0.00     0.074 A 
ATOM     45  C   UNL A   1      38.517  30.089  29.066  1.00  0.00     0.031 C 
ATOM     46  C   UNL A   1      37.884  34.350  34.449  1.00  0.00     0.029 A 
ATOM     47  C   UNL A   1      38.933  33.340  34.561  1.00  0.00     0.049 A 
ATOM     48  H   UNL A   1      39.532  31.972  33.109  1.00  0.00     0.167 HD
ATOM     49  C   UNL A   1      40.415  28.890  30.116  1.00  0.00     0.037 A 
ATOM     50  C   UNL A   1      39.702  33.132  35.646  1.00  0.00     0.037 A 
ATOM     51  C   UNL A   1      41.372  28.684  31.171  1.00  0.00     0.049 A 
ATOM     52  C   UNL A   1      40.740  32.042  35.614  1.00  0.00     0.074 A 
ATOM     53  C   UNL A   1      42.420  27.782  31.221  1.00  0.00     0.029 A 
ATOM     54  N   UNL A   1      41.391  29.385  32.370  1.00  0.00    -0.354 N 
ATOM     55  N   UNL A   1      41.018  31.194  34.653  1.00  0.00    -0.248 NA
ATOM     56  C   UNL A   1      41.574  31.885  36.812  1.00  0.00     0.031 C 
ATOM     57  C   UNL A   1      43.029  27.890  32.474  1.00  0.00     0.029 A 
ATOM     58  C   UNL A   1      42.409  28.908  33.179  1.00  0.00     0.049 A 
ATOM     59  H   UNL A   1      40.771  30.111  32.609  1.00  0.00     0.167 HD
ATOM     60  C   UNL A   1      42.074  30.423  35.117  1.00  0.00     0.074 A 
ATOM     61  C   UNL A   1      42.394  30.909  36.443  1.00  0.00     0.031 C 
ATOM     62  C   UNL A   1      42.724  29.409  34.495  1.00  0.00     0.037 A 
BRANCH  49  63
ATOM     63  C   UNL A   1      40.448  27.968  28.930  1.00  0.00     0.064 A 
ATOM     64  C   UNL A   1      39.726  26.764  28.906  1.00  0.00     0.173 A 
ATOM     65  C   UNL A   1      41.199  28.302  27.794  1.00  0.00     0.173 A 
ATOM     66  F   UNL A   1      38.997  26.391  29.969  1.00  0.00    -0.203 F 
ATOM     67  C   UNL A   1      39.790  25.911  27.807  1.00  0.00     0.198 A 
ATOM     68  C   UNL A   1      41.230  27.465  26.681  1.00  0.00     0.198 A 
ATOM     69  F   UNL A   1      41.902  29.444  27.756  1.00  0.00    -0.203 F 
ATOM     70  F   UNL A   1      39.145  24.736  27.834  1.00  0.00    -0.200 F 
ATOM     71  C   UNL A   1      40.536  26.265  26.693  1.00  0.00     0.200 A 
ATOM     72  F   UNL A   1      41.939  27.816  25.599  1.00  0.00    -0.200 F 
ATOM     73  F   UNL A   1      40.595  25.444  25.636  1.00  0.00    -0.200 F 
ENDBRANCH  49  63
BRANCH  50  74
ATOM     74  C   UNL A   1      39.521  33.987  36.849  1.00  0.00     0.064 A 
ATOM     75  C   UNL A   1      38.756  33.547  37.938  1.00  0.00     0.173 A 
ATOM     76  C   UNL A   1      40.126  35.249  36.945  1.00  0.00     0.173 A 
ATOM     77  F   UNL A   1      38.142  32.357  37.886  1.00  0.00    -0.203 F 
ATOM     78  C   UNL A   1      38.595  34.341  39.071  1.00  0.00     0.198 A 
ATOM     79  C   UNL A   1      39.989  36.029  38.090  1.00  0.00     0.198 A 
ATOM     80  F   UNL A   1      40.873  35.714  35.932  1.00  0.00    -0.203 F 
ATOM     81  F   UNL A   1      37.828  33.911  40.083  1.00  0.00    -0.200 F 
ATOM     82  C   UNL A   1      39.219  35.577  39.151  1.00  0.00     0.200 A 
ATOM     83  F   UNL A   1      40.608  37.215  38.170  1.00  0.00    -0.200 F 
ATOM     84  F   UNL A   1      39.073  36.334  40.247  1.00  0.00    -0.200 F 
ENDBRANCH  50  74
BRANCH  62  85
ATOM     85  C   UNL A   1      43.880  28.775  35.215  1.00  0.00     0.064 A 
ATOM     86  C   UNL A   1      45.191  29.251  35.076  1.00  0.00     0.173 A 
ATOM     87  C   UNL A   1      43.655  27.723  36.118  1.00  0.00     0.173 A 
ATOM     88  F   UNL A   1      45.462  30.245  34.216  1.00  0.00    -0.203 F 
ATOM     89  C   UNL A   1      46.237  28.688  35.805  1.00  0.00     0.198 A 
ATOM     90  C   UNL A   1      44.697  27.186  36.868  1.00  0.00     0.198 A 
ATOM     91  F   UNL A   1      42.418  27.235  36.293  1.00  0.00    -0.203 F 
ATOM     92  F   UNL A   1      47.489  29.134  35.630  1.00  0.00    -0.200 F 
ATOM     93  C   UNL A   1      45.987  27.666  36.708  1.00  0.00     0.200 A 
ATOM     94  F   UNL A   1      44.449  26.210  37.753  1.00  0.00    -0.200 F 
ATOM     95  F   UNL A   1      46.992  27.140  37.423  1.00  0.00    -0.200 F 
ENDBRANCH  62  85
ENDBRANCH  36  37
ENDBRANCH  28  31
ENDBRANCH  26  27
ENDBRANCH  25  26
ENDBRANCH  24  25
ENDBRANCH   3  24
TORSDOF 16
ENDMDL
MODEL 2
REMARK VINA RESULT:     -12.4      5.582     11.563
REMARK SMILES COc1cccc(O[C@@H](C)c2nnc(SCC(=O)NCCCNC(=O)c3ccc(-c4c5nc(c(-c6c(F)c(F)c(F)c(F)c6F)c6ccc([nH]6)c(-c6c(F)c(F)c(F)c(F)c6F)c6nc(c(-c7c(F)c(F)c(F)c(F)c7F)c7ccc4[nH]7)C=C6)C=C5)cc3)n2C)c1
REMARK SMILES IDX 17 1 18 2 19 3 16 5 15 6 14 7 11 8 12 9 89 10 13 11 90 12
REMARK SMILES IDX 9 13 10 14 8 15 7 16 3 17 4 18 91 19 5 20 6 21 2 22 1 23
REMARK SMILES IDX 20 24 21 25 22 26 23 27 24 28 25 30 26 31 27 32 88 33 28 34
REMARK SMILES IDX 87 35 29 36 30 37 31 38 81 39 32 40 86 41 80 42 82 43 33 44
REMARK SMILES IDX 85 45 79 46 78 47 34 49 66 50 46 51 65 52 47 53 50 54 64 55
REMARK SMILES IDX 83 56 48 57 49 58 63 60 84 61 51 62 35 63 36 64 44 65 37 66
REMARK SMILES IDX 38 67 42 68 45 69 39 70 40 71 43 72 41 73 67 74 68 75 76 76
REMARK SMILES IDX 69 77 70 78 74 79 77 80 71 81 72 82 75 83 73 84 52 85 53 86
REMARK SMILES IDX 61 87 54 88 55 89 59 90 62 91 56 92 57 93 60 94 58 95
REMARK H PARENT 19 4 23 29 82 48 50 59
REMARK Flexibility Score: inf
ROOT
ATOM      1  C   UNL A   1      34.425  19.557  24.903  1.00  0.00     0.230 C 
ATOM      2  O   UNL A   1      33.783  18.510  24.769  1.00  0.00    -0.274 OA
ATOM      3  N   UNL A   1      35.775  19.452  24.997  1.00  0.00    -0.355 N 
ATOM      4  H   UNL A   1      36.122  18.532  25.066  1.00  0.00     0.163 HD
ENDROOT
BRANCH   1   5
ATOM      5  C   UNL A   1      33.727  20.898  24.893  1.00  0.00     0.178 C 
BRANCH   5   6
ATOM      6  S   UNL A   1      33.596  21.728  26.468  1.00  0.00    -0.076 SA
BRANCH   6   7
ATOM      7  C   UNL A   1      32.586  23.127  26.451  1.00  0.00     0.191 A 
ATOM      8  C   UNL A   1      31.752  25.167  26.383  1.00  0.00     0.174 A 
ATOM      9  N   UNL A   1      31.058  24.451  27.249  1.00  0.00    -0.130 NA
ATOM     10  N   UNL A   1      32.663  24.317  25.765  1.00  0.00    -0.306 N 
ATOM     11  N   UNL A   1      31.579  23.194  27.292  1.00  0.00    -0.123 NA
ATOM     12  C   UNL A   1      33.475  24.623  24.624  1.00  0.00     0.154 C 
BRANCH   8  13
ATOM     13  C   UNL A   1      31.499  26.639  26.176  1.00  0.00     0.238 C 
ATOM     14  C   UNL A   1      31.403  27.588  27.358  1.00  0.00     0.062 C 
BRANCH  13  15
ATOM     15  O   UNL A   1      30.447  26.872  25.216  1.00  0.00    -0.483 OA
BRANCH  15  16
ATOM     16  C   UNL A   1      30.528  27.759  24.183  1.00  0.00     0.124 A 
ATOM     17  C   UNL A   1      29.700  29.159  22.376  1.00  0.00     0.122 A 
ATOM     18  C   UNL A   1      31.004  29.464  22.002  1.00  0.00     0.046 A 
ATOM     19  C   UNL A   1      29.473  28.305  23.458  1.00  0.00     0.092 A 
ATOM     20  C   UNL A   1      32.073  28.948  22.732  1.00  0.00     0.008 A 
ATOM     21  C   UNL A   1      31.833  28.099  23.815  1.00  0.00     0.047 A 
BRANCH  17  22
ATOM     22  O   UNL A   1      28.711  29.675  21.580  1.00  0.00    -0.497 OA
ATOM     23  C   UNL A   1      28.029  30.805  22.114  1.00  0.00     0.278 C 
ENDBRANCH  17  22
ENDBRANCH  15  16
ENDBRANCH  13  15
ENDBRANCH   8  13
ENDBRANCH   6   7
ENDBRANCH   5   6
ENDBRANCH   1   5
BRANCH   3  24
ATOM     24  C   UNL A   1      36.781  20.496  25.009  1.00  0.00     0.117 C 
BRANCH  24  25
ATOM     25  C   UNL A   1      38.181  19.957  24.744  1.00  0.00     0.042 C 
BRANCH  25  26
ATOM     26  C   UNL A   1      39.178  20.232  25.865  1.00  0.00     0.118 C 
BRANCH  26  27
ATOM     27  N   UNL A   1      40.201  19.200  25.977  1.00  0.00    -0.352 N 
ATOM     28  C   UNL A   1      41.560  19.315  26.126  1.00  0.00     0.251 C 
ATOM     29  H   UNL A   1      39.864  18.275  25.940  1.00  0.00     0.163 HD
ATOM     30  O   UNL A   1      42.276  18.324  25.994  1.00  0.00    -0.269 OA
BRANCH  28  31
ATOM     31  C   UNL A   1      42.167  20.625  26.428  1.00  0.00     0.039 A 
ATOM     32  C   UNL A   1      42.567  21.451  25.373  1.00  0.00     0.014 A 
ATOM     33  C   UNL A   1      42.354  21.036  27.749  1.00  0.00     0.014 A 
ATOM     34  C   UNL A   1      43.083  22.719  25.642  1.00  0.00     0.010 A 
ATOM     35  C   UNL A   1      42.786  22.331  28.014  1.00  0.00     0.010 A 
ATOM     36  C   UNL A   1      43.159  23.184  26.965  1.00  0.00    -0.014 A 
BRANCH  36  37
ATOM     37  C   UNL A   1      43.621  24.558  27.284  1.00  0.00     0.031 A 
ATOM     38  C   UNL A   1      42.644  25.579  27.796  1.00  0.00     0.074 A 
ATOM     39  C   UNL A   1      44.893  24.915  27.018  1.00  0.00     0.049 A 
ATOM     40  N   UNL A   1      42.815  26.858  28.010  1.00  0.00    -0.248 NA
ATOM     41  C   UNL A   1      41.281  25.101  28.072  1.00  0.00     0.031 C 
ATOM     42  C   UNL A   1      45.922  24.027  26.477  1.00  0.00     0.029 A 
ATOM     43  N   UNL A   1      45.529  26.125  27.145  1.00  0.00    -0.354 N 
ATOM     44  C   UNL A   1      41.579  27.341  28.418  1.00  0.00     0.074 A 
ATOM     45  C   UNL A   1      40.655  26.229  28.374  1.00  0.00     0.031 C 
ATOM     46  C   UNL A   1      47.063  24.719  26.324  1.00  0.00     0.029 A 
ATOM     47  C   UNL A   1      46.832  26.108  26.709  1.00  0.00     0.049 A 
ATOM     48  H   UNL A   1      45.093  26.927  27.511  1.00  0.00     0.167 HD
ATOM     49  C   UNL A   1      41.250  28.595  28.810  1.00  0.00     0.037 A 
ATOM     50  C   UNL A   1      47.732  27.105  26.610  1.00  0.00     0.037 A 
ATOM     51  C   UNL A   1      42.183  29.690  28.870  1.00  0.00     0.049 A 
ATOM     52  C   UNL A   1      47.343  28.493  27.041  1.00  0.00     0.074 A 
ATOM     53  C   UNL A   1      41.970  30.979  29.326  1.00  0.00     0.029 A 
ATOM     54  N   UNL A   1      43.504  29.627  28.450  1.00  0.00    -0.354 N 
ATOM     55  N   UNL A   1      46.193  28.923  27.502  1.00  0.00    -0.248 NA
ATOM     56  C   UNL A   1      48.377  29.532  26.944  1.00  0.00     0.031 C 
ATOM     57  C   UNL A   1      43.141  31.713  29.119  1.00  0.00     0.029 A 
ATOM     58  C   UNL A   1      44.107  30.865  28.602  1.00  0.00     0.049 A 
ATOM     59  H   UNL A   1      43.946  28.823  28.094  1.00  0.00     0.167 HD
ATOM     60  C   UNL A   1      46.372  30.272  27.777  1.00  0.00     0.074 A 
ATOM     61  C   UNL A   1      47.744  30.589  27.439  1.00  0.00     0.031 C 
ATOM     62  C   UNL A   1      45.479  31.164  28.272  1.00  0.00     0.037 A 
BRANCH  49  63
ATOM     63  C   UNL A   1      39.819  28.853  29.187  1.00  0.00     0.064 A 
ATOM     64  C   UNL A   1      38.871  29.288  28.247  1.00  0.00     0.173 A 
ATOM     65  C   UNL A   1      39.384  28.644  30.504  1.00  0.00     0.173 A 
ATOM     66  F   UNL A   1      39.232  29.511  26.975  1.00  0.00    -0.203 F 
ATOM     67  C   UNL A   1      37.554  29.545  28.623  1.00  0.00     0.198 A 
ATOM     68  C   UNL A   1      38.058  28.866  30.868  1.00  0.00     0.198 A 
ATOM     69  F   UNL A   1      40.244  28.220  31.443  1.00  0.00    -0.203 F 
ATOM     70  F   UNL A   1      36.683  30.023  27.722  1.00  0.00    -0.200 F 
ATOM     71  C   UNL A   1      37.147  29.328  29.930  1.00  0.00     0.200 A 
ATOM     72  F   UNL A   1      37.663  28.640  32.129  1.00  0.00    -0.200 F 
ATOM     73  F   UNL A   1      35.880  29.573  30.289  1.00  0.00    -0.200 F 
ENDBRANCH  49  63
BRANCH  50  74
ATOM     74  C   UNL A   1      49.094  26.813  26.089  1.00  0.00     0.064 A 
ATOM     75  C   UNL A   1      50.094  26.303  26.929  1.00  0.00     0.173 A 
ATOM     76  C   UNL A   1      49.417  27.014  24.739  1.00  0.00     0.173 A 
ATOM     77  F   UNL A   1      49.840  26.113  28.231  1.00  0.00    -0.203 F 
ATOM     78  C   UNL A   1      51.367  26.018  26.441  1.00  0.00     0.198 A 
ATOM     79  C   UNL A   1      50.681  26.700  24.246  1.00  0.00     0.198 A 
ATOM     80  F   UNL A   1      48.494  27.494  23.892  1.00  0.00    -0.203 F 
ATOM     81  F   UNL A   1      52.315  25.566  27.273  1.00  0.00    -0.200 F 
ATOM     82  C   UNL A   1      51.657  26.206  25.098  1.00  0.00     0.200 A 
ATOM     83  F   UNL A   1      50.951  26.868  22.943  1.00  0.00    -0.200 F 
ATOM     84  F   UNL A   1      52.878  25.918  24.627  1.00  0.00    -0.200 F 
ENDBRANCH  50  74
BRANCH  62  85
ATOM     85  C   UNL A   1      45.960  32.564  28.524  1.00  0.00     0.064 A 
ATOM     86  C   UNL A   1      45.809  33.583  27.573  1.00  0.00     0.173 A 
ATOM     87  C   UNL A   1      46.511  32.905  29.770  1.00  0.00     0.173 A 
ATOM     88  F   UNL A   1      45.301  33.307  26.362  1.00  0.00    -0.203 F 
ATOM     89  C   UNL A   1      46.204  34.889  27.855  1.00  0.00     0.198 A 
ATOM     90  C   UNL A   1      46.874  34.217  30.060  1.00  0.00     0.198 A 
ATOM     91  F   UNL A   1      46.671  31.970  30.718  1.00  0.00    -0.203 F 
ATOM     92  F   UNL A   1      46.085  35.840  26.918  1.00  0.00    -0.200 F 
ATOM     93  C   UNL A   1      46.724  35.207  29.100  1.00  0.00     0.200 A 
ATOM     94  F   UNL A   1      47.360  34.525  31.270  1.00  0.00    -0.200 F 
ATOM     95  F   UNL A   1      47.085  36.468  29.377  1.00  0.00    -0.200 F 
ENDBRANCH  62  85
ENDBRANCH  36  37
ENDBRANCH  28  31
ENDBRANCH  26  27
ENDBRANCH  25  26
ENDBRANCH  24  25
ENDBRANCH   3  24
TORSDOF 16
ENDMDL
MODEL 3
REMARK VINA RESULT:     -12.4      5.619     11.553
REMARK SMILES COc1cccc(O[C@@H](C)c2nnc(SCC(=O)NCCCNC(=O)c3ccc(-c4c5nc(c(-c6c(F)c(F)c(F)c(F)c6F)c6ccc([nH]6)c(-c6c(F)c(F)c(F)c(F)c6F)c6nc(c(-c7c(F)c(F)c(F)c(F)c7F)c7ccc4[nH]7)C=C6)C=C5)cc3)n2C)c1
REMARK SMILES IDX 17 1 18 2 19 3 16 5 15 6 14 7 11 8 12 9 89 10 13 11 90 12
REMARK SMILES IDX 9 13 10 14 8 15 7 16 3 17 4 18 91 19 5 20 6 21 2 22 1 23
REMARK SMILES IDX 20 24 21 25 22 26 23 27 24 28 25 30 26 31 27 32 88 33 28 34
REMARK SMILES IDX 87 35 29 36 30 37 31 38 81 39 32 40 86 41 80 42 82 43 33 44
REMARK SMILES IDX 85 45 79 46 78 47 34 49 66 50 46 51 65 52 47 53 50 54 64 55
REMARK SMILES IDX 83 56 48 57 49 58 63 60 84 61 51 62 35 63 36 64 44 65 37 66
REMARK SMILES IDX 38 67 42 68 45 69 39 70 40 71 43 72 41 73 67 74 68 75 76 76
REMARK SMILES IDX 69 77 70 78 74 79 77 80 71 81 72 82 75 83 73 84 52 85 53 86
REMARK SMILES IDX 61 87 54 88 55 89 59 90 62 91 56 92 57 93 60 94 58 95
REMARK H PARENT 19 4 23 29 82 48 50 59
REMARK Flexibility Score: inf
ROOT
ATOM      1  C   UNL A   1      35.801  22.863  25.712  1.00  0.00     0.230 C 
ATOM      2  O   UNL A   1      36.061  24.045  25.465  1.00  0.00    -0.274 OA
ATOM      3  N   UNL A   1      36.532  21.917  25.072  1.00  0.00    -0.355 N 
ATOM      4  H   UNL A   1      37.136  22.255  24.370  1.00  0.00     0.163 HD
ENDROOT
BRANCH   1   5
ATOM      5  C   UNL A   1      34.754  22.503  26.742  1.00  0.00     0.178 C 
BRANCH   5   6
ATOM      6  S   UNL A   1      33.165  22.000  26.103  1.00  0.00    -0.076 SA
BRANCH   6   7
ATOM      7  C   UNL A   1      31.997  23.269  26.027  1.00  0.00     0.191 A 
ATOM      8  C   UNL A   1      30.857  25.109  25.607  1.00  0.00     0.174 A 
ATOM      9  N   UNL A   1      30.693  24.786  26.876  1.00  0.00    -0.130 NA
ATOM     10  N   UNL A   1      31.590  24.093  25.003  1.00  0.00    -0.306 N 
ATOM     11  N   UNL A   1      31.402  23.654  27.134  1.00  0.00    -0.123 NA
ATOM     12  C   UNL A   1      31.827  23.932  23.598  1.00  0.00     0.154 C 
BRANCH   8  13
ATOM     13  C   UNL A   1      30.288  26.378  25.023  1.00  0.00     0.238 C 
ATOM     14  C   UNL A   1      29.153  26.332  24.014  1.00  0.00     0.062 C 
BRANCH  13  15
ATOM     15  O   UNL A   1      31.326  27.295  24.620  1.00  0.00    -0.483 OA
BRANCH  15  16
ATOM     16  C   UNL A   1      32.046  28.071  25.479  1.00  0.00     0.124 A 
ATOM     17  C   UNL A   1      32.628  30.086  26.711  1.00  0.00     0.122 A 
ATOM     18  C   UNL A   1      33.795  29.481  27.166  1.00  0.00     0.046 A 
ATOM     19  C   UNL A   1      31.767  29.378  25.867  1.00  0.00     0.092 A 
ATOM     20  C   UNL A   1      34.079  28.165  26.808  1.00  0.00     0.008 A 
ATOM     21  C   UNL A   1      33.207  27.467  25.968  1.00  0.00     0.047 A 
BRANCH  17  22
ATOM     22  O   UNL A   1      32.448  31.393  27.076  1.00  0.00    -0.497 OA
ATOM     23  C   UNL A   1      31.315  32.036  26.500  1.00  0.00     0.278 C 
ENDBRANCH  17  22
ENDBRANCH  15  16
ENDBRANCH  13  15
ENDBRANCH   8  13
ENDBRANCH   6   7
ENDBRANCH   5   6
ENDBRANCH   1   5
BRANCH   3  24
ATOM     24  C   UNL A   1      36.555  20.481  25.269  1.00  0.00     0.117 C 
BRANCH  24  25
ATOM     25  C   UNL A   1      37.886  19.859  24.864  1.00  0.00     0.042 C 
BRANCH  25  26
ATOM     26  C   UNL A   1      39.058  20.261  25.753  1.00  0.00     0.118 C 
BRANCH  26  27
ATOM     27  N   UNL A   1      40.049  19.200  25.894  1.00  0.00    -0.352 N 
ATOM     28  C   UNL A   1      41.407  19.278  26.069  1.00  0.00     0.251 C 
ATOM     29  H   UNL A   1      39.686  18.286  25.859  1.00  0.00     0.163 HD
ATOM     30  O   UNL A   1      42.096  18.265  25.960  1.00  0.00    -0.269 OA
BRANCH  28  31
ATOM     31  C   UNL A   1      42.047  20.573  26.371  1.00  0.00     0.039 A 
ATOM     32  C   UNL A   1      42.466  21.388  25.315  1.00  0.00     0.014 A 
ATOM     33  C   UNL A   1      42.243  20.979  27.692  1.00  0.00     0.014 A 
ATOM     34  C   UNL A   1      43.014  22.643  25.585  1.00  0.00     0.010 A 
ATOM     35  C   UNL A   1      42.707  22.263  27.957  1.00  0.00     0.010 A 
ATOM     36  C   UNL A   1      43.101  23.107  26.908  1.00  0.00    -0.014 A 
BRANCH  36  37
ATOM     37  C   UNL A   1      43.596  24.469  27.227  1.00  0.00     0.031 A 
ATOM     38  C   UNL A   1      42.638  25.523  27.704  1.00  0.00     0.074 A 
ATOM     39  C   UNL A   1      44.885  24.784  26.992  1.00  0.00     0.049 A 
ATOM     40  N   UNL A   1      42.843  26.799  27.912  1.00  0.00    -0.248 NA
ATOM     41  C   UNL A   1      41.255  25.090  27.949  1.00  0.00     0.031 C 
ATOM     42  C   UNL A   1      45.900  23.860  26.485  1.00  0.00     0.029 A 
ATOM     43  N   UNL A   1      45.554  25.975  27.124  1.00  0.00    -0.354 N 
ATOM     44  C   UNL A   1      41.612  27.323  28.283  1.00  0.00     0.074 A 
ATOM     45  C   UNL A   1      40.656  26.239  28.225  1.00  0.00     0.031 C 
ATOM     46  C   UNL A   1      47.065  24.516  26.356  1.00  0.00     0.029 A 
ATOM     47  C   UNL A   1      46.867  25.914  26.723  1.00  0.00     0.049 A 
ATOM     48  H   UNL A   1      45.134  26.794  27.472  1.00  0.00     0.167 HD
ATOM     49  C   UNL A   1      41.312  28.590  28.655  1.00  0.00     0.037 A 
ATOM     50  C   UNL A   1      47.800  26.882  26.639  1.00  0.00     0.037 A 
ATOM     51  C   UNL A   1      42.275  29.657  28.730  1.00  0.00     0.049 A 
ATOM     52  C   UNL A   1      47.443  28.286  27.047  1.00  0.00     0.074 A 
ATOM     53  C   UNL A   1      42.091  30.956  29.169  1.00  0.00     0.029 A 
ATOM     54  N   UNL A   1      43.605  29.550  28.345  1.00  0.00    -0.354 N 
ATOM     55  N   UNL A   1      46.295  28.755  27.474  1.00  0.00    -0.248 NA
ATOM     56  C   UNL A   1      48.510  29.292  26.969  1.00  0.00     0.031 C 
ATOM     57  C   UNL A   1      43.289  31.652  28.987  1.00  0.00     0.029 A 
ATOM     58  C   UNL A   1      44.241  30.770  28.502  1.00  0.00     0.049 A 
ATOM     59  H   UNL A   1      44.031  28.729  28.008  1.00  0.00     0.167 HD
ATOM     60  C   UNL A   1      46.507  30.101  27.742  1.00  0.00     0.074 A 
ATOM     61  C   UNL A   1      47.897  30.372  27.437  1.00  0.00     0.031 C 
ATOM     62  C   UNL A   1      45.630  31.024  28.205  1.00  0.00     0.037 A 
BRANCH  49  63
ATOM     63  C   UNL A   1      39.879  28.895  28.992  1.00  0.00     0.064 A 
ATOM     64  C   UNL A   1      39.382  28.775  30.300  1.00  0.00     0.173 A 
ATOM     65  C   UNL A   1      38.995  29.330  27.995  1.00  0.00     0.173 A 
ATOM     66  F   UNL A   1      40.182  28.355  31.292  1.00  0.00    -0.203 F 
ATOM     67  C   UNL A   1      38.045  29.038  30.586  1.00  0.00     0.198 A 
ATOM     68  C   UNL A   1      37.667  29.630  28.292  1.00  0.00     0.198 A 
ATOM     69  F   UNL A   1      39.416  29.472  26.729  1.00  0.00    -0.203 F 
ATOM     70  F   UNL A   1      37.578  28.853  31.829  1.00  0.00    -0.200 F 
ATOM     71  C   UNL A   1      37.190  29.471  29.584  1.00  0.00     0.200 A 
ATOM     72  F   UNL A   1      36.847  30.064  27.325  1.00  0.00    -0.200 F 
ATOM     73  F   UNL A   1      35.905  29.727  29.861  1.00  0.00    -0.200 F 
ENDBRANCH  49  63
BRANCH  50  74
ATOM     74  C   UNL A   1      49.165  26.545  26.156  1.00  0.00     0.064 A 
ATOM     75  C   UNL A   1      49.544  26.800  24.831  1.00  0.00     0.173 A 
ATOM     76  C   UNL A   1      50.124  25.985  27.013  1.00  0.00     0.173 A 
ATOM     77  F   UNL A   1      48.657  27.316  23.969  1.00  0.00    -0.203 F 
ATOM     78  C   UNL A   1      50.827  26.496  24.379  1.00  0.00     0.198 A 
ATOM     79  C   UNL A   1      51.415  25.709  26.567  1.00  0.00     0.198 A 
ATOM     80  F   UNL A   1      49.813  25.727  28.292  1.00  0.00    -0.203 F 
ATOM     81  F   UNL A   1      51.152  26.716  23.098  1.00  0.00    -0.200 F 
ATOM     82  C   UNL A   1      51.764  25.960  25.249  1.00  0.00     0.200 A 
ATOM     83  F   UNL A   1      52.322  25.208  27.417  1.00  0.00    -0.200 F 
ATOM     84  F   UNL A   1      53.002  25.681  24.817  1.00  0.00    -0.200 F 
ENDBRANCH  50  74
BRANCH  62  85
ATOM     85  C   UNL A   1      46.146  32.411  28.458  1.00  0.00     0.064 A 
ATOM     86  C   UNL A   1      46.737  32.773  29.677  1.00  0.00     0.173 A 
ATOM     87  C   UNL A   1      46.117  33.371  27.433  1.00  0.00     0.173 A 
ATOM     88  F   UNL A   1      46.778  31.897  30.693  1.00  0.00    -0.203 F 
ATOM     89  C   UNL A   1      47.268  34.047  29.866  1.00  0.00     0.198 A 
ATOM     90  C   UNL A   1      46.677  34.632  27.614  1.00  0.00     0.198 A 
ATOM     91  F   UNL A   1      45.568  33.075  26.245  1.00  0.00    -0.203 F 
ATOM     92  F   UNL A   1      47.796  34.382  31.051  1.00  0.00    -0.200 F 
ATOM     93  C   UNL A   1      47.248  34.970  28.831  1.00  0.00     0.200 A 
ATOM     94  F   UNL A   1      46.672  35.516  26.607  1.00  0.00    -0.200 F 
ATOM     95  F   UNL A   1      47.777  36.189  29.008  1.00  0.00    -0.200 F 
ENDBRANCH  62  85
ENDBRANCH  36  37
ENDBRANCH  28  31
ENDBRANCH  26  27
ENDBRANCH  25  26
ENDBRANCH  24  25
ENDBRANCH   3  24
TORSDOF 16
ENDMDL
