MODEL 1
REMARK VINA RESULT:     -14.0      0.000      0.000
REMARK SMILES COc1ccc(N2C(=O)/C(=C/c3c(C(=O)NCCCNC(=O)c4ccc(-c5c6nc(c(-c7c(F)c(F)c(F)c(F)c7F)c7ccc([nH]7)c(-c7c(F)c(F)c(F)c(F)c7F)c7nc(c(-c8c(F)c(F)c(F)c(F)c8F)c8ccc5[nH]8)C=C7)C=C6)cc4)[nH]c4cc(OC)ccc34)SC2=S)cc1
REMARK SMILES IDX 17 1 16 2 14 3 15 4 13 6 12 7 94 8 86 9 87 10 93 11 88 13
REMARK SMILES IDX 92 14 89 15 11 16 7 17 8 18 96 19 9 20 10 21 95 22 97 23
REMARK SMILES IDX 6 24 3 25 4 26 99 27 5 28 98 29 2 30 1 31 90 32 91 33 18 34
REMARK SMILES IDX 19 35 20 36 21 37 22 39 23 40 24 41 85 42 25 43 84 44 26 45
REMARK SMILES IDX 27 46 28 47 78 48 29 49 83 50 77 51 79 52 30 53 82 54 76 55
REMARK SMILES IDX 75 56 31 58 63 59 43 60 62 61 44 62 47 63 61 64 80 65 45 66
REMARK SMILES IDX 46 67 60 69 81 70 48 71 32 72 33 73 41 74 34 75 35 76 39 77
REMARK SMILES IDX 42 78 36 79 37 80 40 81 38 82 64 83 65 84 73 85 66 86 67 87
REMARK SMILES IDX 71 88 74 89 68 90 69 91 72 92 70 93 49 94 50 95 58 96 51 97
REMARK SMILES IDX 52 98 56 99 59 100 53 101 54 102 57 103 55 104
REMARK H PARENT 16 5 86 12 20 38 79 57 47 68
REMARK Flexibility Score: inf
ROOT
ATOM      1  C   UNL A   1      33.521  27.723  26.119  1.00  0.00     0.118 C 
ENDROOT
BRANCH   1   2
ATOM      2  N   UNL A   1      34.095  28.273  24.899  1.00  0.00    -0.351 N 
ATOM      3  C   UNL A   1      33.414  28.682  23.775  1.00  0.00     0.268 C 
ATOM      4  O   UNL A   1      34.053  28.905  22.749  1.00  0.00    -0.268 OA
ATOM      5  H   UNL A   1      35.075  28.361  24.876  1.00  0.00     0.163 HD
BRANCH   3   6
ATOM      6  C   UNL A   1      31.974  28.715  23.818  1.00  0.00     0.112 A 
ATOM      7  C   UNL A   1      30.964  27.885  23.322  1.00  0.00     0.014 A 
ATOM      8  C   UNL A   1      29.818  28.764  23.155  1.00  0.00     0.008 A 
ATOM      9  N   UNL A   1      31.340  29.753  24.446  1.00  0.00    -0.350 N 
ATOM     10  C   UNL A   1      30.128  29.942  23.841  1.00  0.00     0.050 A 
ATOM     11  C   UNL A   1      28.581  28.758  22.459  1.00  0.00     0.015 A 
ATOM     12  H   UNL A   1      31.695  30.274  25.201  1.00  0.00     0.167 HD
ATOM     13  C   UNL A   1      29.339  31.092  23.839  1.00  0.00     0.073 A 
ATOM     14  C   UNL A   1      27.778  29.935  22.420  1.00  0.00     0.047 A 
ATOM     15  C   UNL A   1      28.167  31.092  23.091  1.00  0.00     0.120 A 
BRANCH   7  16
ATOM     16  C   UNL A   1      31.247  26.556  22.803  1.00  0.00     0.032 C 
ATOM     17  N   UNL A   1      32.448  23.537  24.414  1.00  0.00    -0.261 N 
ATOM     18  C   UNL A   1      32.203  24.264  23.239  1.00  0.00     0.270 C 
ATOM     19  C   UNL A   1      31.765  23.950  25.548  1.00  0.00     0.152 C 
ATOM     20  O   UNL A   1      32.763  24.145  22.157  1.00  0.00    -0.268 OA
ATOM     21  C   UNL A   1      31.274  25.416  23.540  1.00  0.00     0.081 C 
ATOM     22  S   UNL A   1      30.587  25.177  25.105  1.00  0.00    -0.054 SA
ATOM     23  S   UNL A   1      31.920  23.428  27.129  1.00  0.00    -0.051 S 
BRANCH  17  24
ATOM     24  C   UNL A   1      33.440  22.512  24.471  1.00  0.00     0.051 A 
ATOM     25  C   UNL A   1      35.387  20.493  24.819  1.00  0.00     0.119 A 
ATOM     26  C   UNL A   1      35.750  21.835  24.849  1.00  0.00     0.048 A 
ATOM     27  C   UNL A   1      34.041  20.157  24.683  1.00  0.00     0.048 A 
ATOM     28  C   UNL A   1      34.788  22.839  24.674  1.00  0.00     0.030 A 
ATOM     29  C   UNL A   1      33.072  21.161  24.499  1.00  0.00     0.030 A 
BRANCH  25  30
ATOM     30  O   UNL A   1      36.413  19.603  24.985  1.00  0.00    -0.497 OA
ATOM     31  C   UNL A   1      37.720  20.169  24.927  1.00  0.00     0.278 C 
ENDBRANCH  25  30
ENDBRANCH  17  24
ENDBRANCH   7  16
BRANCH  15  32
ATOM     32  O   UNL A   1      27.563  32.318  23.068  1.00  0.00    -0.497 OA
ATOM     33  C   UNL A   1      28.365  33.457  22.811  1.00  0.00     0.278 C 
ENDBRANCH  15  32
ENDBRANCH   3   6
ENDBRANCH   1   2
BRANCH   1  34
ATOM     34  C   UNL A   1      33.450  28.699  27.278  1.00  0.00     0.042 C 
BRANCH  34  35
ATOM     35  C   UNL A   1      33.669  30.146  26.865  1.00  0.00     0.118 C 
BRANCH  35  36
ATOM     36  N   UNL A   1      33.854  31.097  27.953  1.00  0.00    -0.352 N 
ATOM     37  C   UNL A   1      34.890  31.219  28.858  1.00  0.00     0.251 C 
ATOM     38  H   UNL A   1      33.128  31.753  28.061  1.00  0.00     0.163 HD
ATOM     39  O   UNL A   1      34.807  32.063  29.748  1.00  0.00    -0.269 OA
BRANCH  37  40
ATOM     40  C   UNL A   1      36.067  30.312  28.834  1.00  0.00     0.039 A 
ATOM     41  C   UNL A   1      36.890  30.335  27.699  1.00  0.00     0.014 A 
ATOM     42  C   UNL A   1      36.418  29.489  29.905  1.00  0.00     0.014 A 
ATOM     43  C   UNL A   1      38.133  29.707  27.724  1.00  0.00     0.010 A 
ATOM     44  C   UNL A   1      37.683  28.934  29.975  1.00  0.00     0.010 A 
ATOM     45  C   UNL A   1      38.572  29.113  28.914  1.00  0.00    -0.014 A 
BRANCH  45  46
ATOM     46  C   UNL A   1      40.008  28.919  29.196  1.00  0.00     0.031 A 
ATOM     47  C   UNL A   1      40.835  30.023  29.765  1.00  0.00     0.074 A 
ATOM     48  C   UNL A   1      40.567  27.793  28.706  1.00  0.00     0.049 A 
ATOM     49  N   UNL A   1      42.127  30.070  29.953  1.00  0.00    -0.248 NA
ATOM     50  C   UNL A   1      40.126  31.261  30.127  1.00  0.00     0.031 C 
ATOM     51  C   UNL A   1      39.837  26.730  28.001  1.00  0.00     0.029 A 
ATOM     52  N   UNL A   1      41.866  27.363  28.683  1.00  0.00    -0.354 N 
ATOM     53  C   UNL A   1      42.388  31.335  30.458  1.00  0.00     0.074 A 
ATOM     54  C   UNL A   1      41.130  32.050  30.484  1.00  0.00     0.031 C 
ATOM     55  C   UNL A   1      40.693  25.766  27.636  1.00  0.00     0.029 A 
ATOM     56  C   UNL A   1      42.031  26.154  28.049  1.00  0.00     0.049 A 
ATOM     57  H   UNL A   1      42.609  27.869  29.083  1.00  0.00     0.167 HD
ATOM     58  C   UNL A   1      43.576  31.833  30.877  1.00  0.00     0.037 A 
ATOM     59  C   UNL A   1      43.149  25.440  27.827  1.00  0.00     0.037 A 
ATOM     60  C   UNL A   1      44.808  31.088  30.813  1.00  0.00     0.049 A 
ATOM     61  C   UNL A   1      44.442  25.993  28.345  1.00  0.00     0.074 A 
ATOM     62  C   UNL A   1      46.065  31.448  31.263  1.00  0.00     0.029 A 
ATOM     63  N   UNL A   1      44.932  29.823  30.248  1.00  0.00    -0.354 N 
ATOM     64  N   UNL A   1      44.665  27.143  28.936  1.00  0.00    -0.248 NA
ATOM     65  C   UNL A   1      45.632  25.152  28.188  1.00  0.00     0.031 C 
ATOM     66  C   UNL A   1      46.956  30.421  30.932  1.00  0.00     0.029 A 
ATOM     67  C   UNL A   1      46.247  29.395  30.325  1.00  0.00     0.049 A 
ATOM     68  H   UNL A   1      44.193  29.308  29.851  1.00  0.00     0.167 HD
ATOM     69  C   UNL A   1      46.013  27.154  29.251  1.00  0.00     0.074 A 
ATOM     70  C   UNL A   1      46.553  25.887  28.796  1.00  0.00     0.031 C 
ATOM     71  C   UNL A   1      46.741  28.120  29.862  1.00  0.00     0.037 A 
BRANCH  58  72
ATOM     72  C   UNL A   1      43.590  33.224  31.444  1.00  0.00     0.064 A 
ATOM     73  C   UNL A   1      43.755  34.350  30.619  1.00  0.00     0.173 A 
ATOM     74  C   UNL A   1      43.408  33.448  32.817  1.00  0.00     0.173 A 
ATOM     75  F   UNL A   1      43.939  34.199  29.299  1.00  0.00    -0.203 F 
ATOM     76  C   UNL A   1      43.773  35.638  31.151  1.00  0.00     0.198 A 
ATOM     77  C   UNL A   1      43.394  34.740  33.342  1.00  0.00     0.198 A 
ATOM     78  F   UNL A   1      43.240  32.413  33.655  1.00  0.00    -0.203 F 
ATOM     79  F   UNL A   1      43.986  36.689  30.347  1.00  0.00    -0.200 F 
ATOM     80  C   UNL A   1      43.586  35.832  32.510  1.00  0.00     0.200 A 
ATOM     81  F   UNL A   1      43.199  34.926  34.655  1.00  0.00    -0.200 F 
ATOM     82  F   UNL A   1      43.597  37.072  33.019  1.00  0.00    -0.200 F 
ENDBRANCH  58  72
BRANCH  59  83
ATOM     83  C   UNL A   1      43.060  24.114  27.161  1.00  0.00     0.064 A 
ATOM     84  C   UNL A   1      43.436  23.963  25.819  1.00  0.00     0.173 A 
ATOM     85  C   UNL A   1      42.657  22.964  27.857  1.00  0.00     0.173 A 
ATOM     86  F   UNL A   1      43.826  25.032  25.111  1.00  0.00    -0.203 F 
ATOM     87  C   UNL A   1      43.392  22.720  25.192  1.00  0.00     0.198 A 
ATOM     88  C   UNL A   1      42.641  21.715  27.237  1.00  0.00     0.198 A 
ATOM     89  F   UNL A   1      42.311  23.047  29.151  1.00  0.00    -0.203 F 
ATOM     90  F   UNL A   1      43.724  22.613  23.899  1.00  0.00    -0.200 F 
ATOM     91  C   UNL A   1      43.001  21.595  25.903  1.00  0.00     0.200 A 
ATOM     92  F   UNL A   1      42.286  20.627  27.934  1.00  0.00    -0.200 F 
ATOM     93  F   UNL A   1      42.971  20.398  25.303  1.00  0.00    -0.200 F 
ENDBRANCH  59  83
BRANCH  71  94
ATOM     94  C   UNL A   1      48.189  27.819  30.101  1.00  0.00     0.064 A 
ATOM     95  C   UNL A   1      49.176  28.174  29.172  1.00  0.00     0.173 A 
ATOM     96  C   UNL A   1      48.592  27.197  31.292  1.00  0.00     0.173 A 
ATOM     97  F   UNL A   1      48.835  28.753  28.010  1.00  0.00    -0.203 F 
ATOM     98  C   UNL A   1      50.517  27.896  29.417  1.00  0.00     0.198 A 
ATOM     99  C   UNL A   1      49.936  26.950  31.548  1.00  0.00     0.198 A 
ATOM    100  F   UNL A   1      47.682  26.841  32.211  1.00  0.00    -0.203 F 
ATOM    101  F   UNL A   1      51.441  28.200  28.495  1.00  0.00    -0.200 F 
ATOM    102  C   UNL A   1      50.896  27.293  30.607  1.00  0.00     0.200 A 
ATOM    103  F   UNL A   1      50.302  26.378  32.704  1.00  0.00    -0.200 F 
ATOM    104  F   UNL A   1      52.189  27.035  30.846  1.00  0.00    -0.200 F 
ENDBRANCH  71  94
ENDBRANCH  45  46
ENDBRANCH  37  40
ENDBRANCH  35  36
ENDBRANCH  34  35
ENDBRANCH   1  34
TORSDOF 14
ENDMDL
MODEL 2
REMARK VINA RESULT:     -13.9      3.333      7.935
REMARK SMILES COc1ccc(N2C(=O)/C(=C/c3c(C(=O)NCCCNC(=O)c4ccc(-c5c6nc(c(-c7c(F)c(F)c(F)c(F)c7F)c7ccc([nH]7)c(-c7c(F)c(F)c(F)c(F)c7F)c7nc(c(-c8c(F)c(F)c(F)c(F)c8F)c8ccc5[nH]8)C=C7)C=C6)cc4)[nH]c4cc(OC)ccc34)SC2=S)cc1
REMARK SMILES IDX 17 1 16 2 14 3 15 4 13 6 12 7 94 8 86 9 87 10 93 11 88 13
REMARK SMILES IDX 92 14 89 15 11 16 7 17 8 18 96 19 9 20 10 21 95 22 97 23
REMARK SMILES IDX 6 24 3 25 4 26 99 27 5 28 98 29 2 30 1 31 90 32 91 33 18 34
REMARK SMILES IDX 19 35 20 36 21 37 22 39 23 40 24 41 85 42 25 43 84 44 26 45
REMARK SMILES IDX 27 46 28 47 78 48 29 49 83 50 77 51 79 52 30 53 82 54 76 55
REMARK SMILES IDX 75 56 31 58 63 59 43 60 62 61 44 62 47 63 61 64 80 65 45 66
REMARK SMILES IDX 46 67 60 69 81 70 48 71 32 72 33 73 41 74 34 75 35 76 39 77
REMARK SMILES IDX 42 78 36 79 37 80 40 81 38 82 64 83 65 84 73 85 66 86 67 87
REMARK SMILES IDX 71 88 74 89 68 90 69 91 72 92 70 93 49 94 50 95 58 96 51 97
REMARK SMILES IDX 52 98 56 99 59 100 53 101 54 102 57 103 55 104
REMARK H PARENT 16 5 86 12 20 38 79 57 47 68
REMARK Flexibility Score: inf
ROOT
ATOM      1  C   UNL A   1      34.006  28.608  25.885  1.00  0.00     0.118 C 
ENDROOT
BRANCH   1   2
ATOM      2  N   UNL A   1      34.401  28.717  24.488  1.00  0.00    -0.351 N 
ATOM      3  C   UNL A   1      33.574  28.680  23.389  1.00  0.00     0.268 C 
ATOM      4  O   UNL A   1      34.081  28.555  22.275  1.00  0.00    -0.268 OA
ATOM      5  H   UNL A   1      35.363  28.830  24.311  1.00  0.00     0.163 HD
BRANCH   3   6
ATOM      6  C   UNL A   1      32.149  28.671  23.601  1.00  0.00     0.112 A 
ATOM      7  C   UNL A   1      31.117  27.794  23.253  1.00  0.00     0.014 A 
ATOM      8  C   UNL A   1      29.930  28.630  23.195  1.00  0.00     0.008 A 
ATOM      9  N   UNL A   1      31.557  29.710  24.266  1.00  0.00    -0.350 N 
ATOM     10  C   UNL A   1      30.277  29.841  23.803  1.00  0.00     0.050 A 
ATOM     11  C   UNL A   1      28.621  28.562  22.652  1.00  0.00     0.015 A 
ATOM     12  H   UNL A   1      31.980  30.267  24.958  1.00  0.00     0.167 HD
ATOM     13  C   UNL A   1      29.454  30.965  23.859  1.00  0.00     0.073 A 
ATOM     14  C   UNL A   1      27.779  29.712  22.671  1.00  0.00     0.047 A 
ATOM     15  C   UNL A   1      28.204  30.903  23.256  1.00  0.00     0.120 A 
BRANCH   7  16
ATOM     16  C   UNL A   1      31.383  26.456  22.746  1.00  0.00     0.032 C 
ATOM     17  N   UNL A   1      32.534  23.433  24.385  1.00  0.00    -0.261 N 
ATOM     18  C   UNL A   1      32.305  24.154  23.203  1.00  0.00     0.270 C 
ATOM     19  C   UNL A   1      31.852  23.864  25.512  1.00  0.00     0.152 C 
ATOM     20  O   UNL A   1      32.867  24.020  22.125  1.00  0.00    -0.268 OA
ATOM     21  C   UNL A   1      31.391  25.322  23.491  1.00  0.00     0.081 C 
ATOM     22  S   UNL A   1      30.694  25.105  25.054  1.00  0.00    -0.054 SA
ATOM     23  S   UNL A   1      31.993  23.353  27.098  1.00  0.00    -0.051 S 
BRANCH  17  24
ATOM     24  C   UNL A   1      33.511  22.394  24.453  1.00  0.00     0.051 A 
ATOM     25  C   UNL A   1      35.422  20.345  24.826  1.00  0.00     0.119 A 
ATOM     26  C   UNL A   1      35.801  21.682  24.884  1.00  0.00     0.048 A 
ATOM     27  C   UNL A   1      34.075  20.029  24.649  1.00  0.00     0.048 A 
ATOM     28  C   UNL A   1      34.856  22.701  24.697  1.00  0.00     0.030 A 
ATOM     29  C   UNL A   1      33.124  21.049  24.453  1.00  0.00     0.030 A 
BRANCH  25  30
ATOM     30  O   UNL A   1      36.431  19.440  25.007  1.00  0.00    -0.497 OA
ATOM     31  C   UNL A   1      37.748  19.970  24.882  1.00  0.00     0.278 C 
ENDBRANCH  25  30
ENDBRANCH  17  24
ENDBRANCH   7  16
BRANCH  15  32
ATOM     32  O   UNL A   1      27.559  32.108  23.266  1.00  0.00    -0.497 OA
ATOM     33  C   UNL A   1      28.245  33.241  22.766  1.00  0.00     0.278 C 
ENDBRANCH  15  32
ENDBRANCH   3   6
ENDBRANCH   1   2
BRANCH   1  34
ATOM     34  C   UNL A   1      34.294  29.840  26.720  1.00  0.00     0.042 C 
BRANCH  34  35
ATOM     35  C   UNL A   1      33.115  30.285  27.571  1.00  0.00     0.118 C 
BRANCH  35  36
ATOM     36  N   UNL A   1      32.553  31.589  27.248  1.00  0.00    -0.352 N 
ATOM     37  C   UNL A   1      32.967  32.851  27.624  1.00  0.00     0.251 C 
ATOM     38  H   UNL A   1      31.754  31.567  26.673  1.00  0.00     0.163 HD
ATOM     39  O   UNL A   1      32.296  33.824  27.287  1.00  0.00    -0.269 OA
BRANCH  37  40
ATOM     40  C   UNL A   1      34.158  33.064  28.488  1.00  0.00     0.039 A 
ATOM     41  C   UNL A   1      34.047  32.744  29.848  1.00  0.00     0.014 A 
ATOM     42  C   UNL A   1      35.386  33.508  27.996  1.00  0.00     0.014 A 
ATOM     43  C   UNL A   1      35.188  32.677  30.646  1.00  0.00     0.010 A 
ATOM     44  C   UNL A   1      36.535  33.364  28.753  1.00  0.00     0.010 A 
ATOM     45  C   UNL A   1      36.444  32.870  30.055  1.00  0.00    -0.014 A 
BRANCH  45  46
ATOM     46  C   UNL A   1      37.671  32.309  30.654  1.00  0.00     0.031 A 
ATOM     47  C   UNL A   1      38.402  31.185  29.996  1.00  0.00     0.074 A 
ATOM     48  C   UNL A   1      37.958  32.704  31.911  1.00  0.00     0.049 A 
ATOM     49  N   UNL A   1      39.414  30.491  30.443  1.00  0.00    -0.248 NA
ATOM     50  C   UNL A   1      37.899  30.748  28.684  1.00  0.00     0.031 C 
ATOM     51  C   UNL A   1      37.193  33.698  32.675  1.00  0.00     0.029 A 
ATOM     52  N   UNL A   1      38.931  32.303  32.786  1.00  0.00    -0.354 N 
ATOM     53  C   UNL A   1      39.674  29.538  29.469  1.00  0.00     0.074 A 
ATOM     54  C   UNL A   1      38.672  29.699  28.438  1.00  0.00     0.031 C 
ATOM     55  C   UNL A   1      37.736  33.844  33.891  1.00  0.00     0.029 A 
ATOM     56  C   UNL A   1      38.864  32.933  34.006  1.00  0.00     0.049 A 
ATOM     57  H   UNL A   1      39.613  31.629  32.564  1.00  0.00     0.167 HD
ATOM     58  C   UNL A   1      40.678  28.629  29.445  1.00  0.00     0.037 A 
ATOM     59  C   UNL A   1      39.633  32.787  35.099  1.00  0.00     0.037 A 
ATOM     60  C   UNL A   1      41.644  28.493  30.506  1.00  0.00     0.049 A 
ATOM     61  C   UNL A   1      40.768  31.810  35.024  1.00  0.00     0.074 A 
ATOM     62  C   UNL A   1      42.746  27.662  30.577  1.00  0.00     0.029 A 
ATOM     63  N   UNL A   1      41.607  29.212  31.697  1.00  0.00    -0.354 N 
ATOM     64  N   UNL A   1      41.085  30.993  34.048  1.00  0.00    -0.248 NA
ATOM     65  C   UNL A   1      41.660  31.741  36.186  1.00  0.00     0.031 C 
ATOM     66  C   UNL A   1      43.351  27.847  31.825  1.00  0.00     0.029 A 
ATOM     67  C   UNL A   1      42.659  28.833  32.513  1.00  0.00     0.049 A 
ATOM     68  H   UNL A   1      40.932  29.891  31.925  1.00  0.00     0.167 HD
ATOM     69  C   UNL A   1      42.232  30.336  34.459  1.00  0.00     0.074 A 
ATOM     70  C   UNL A   1      42.560  30.860  35.772  1.00  0.00     0.031 C 
ATOM     71  C   UNL A   1      42.952  29.386  33.813  1.00  0.00     0.037 A 
BRANCH  58  72
ATOM     72  C   UNL A   1      40.784  27.737  28.240  1.00  0.00     0.064 A 
ATOM     73  C   UNL A   1      41.534  28.113  27.113  1.00  0.00     0.173 A 
ATOM     74  C   UNL A   1      40.159  26.481  28.212  1.00  0.00     0.173 A 
ATOM     75  F   UNL A   1      42.149  29.306  27.078  1.00  0.00    -0.203 F 
ATOM     76  C   UNL A   1      41.623  27.286  25.995  1.00  0.00     0.198 A 
ATOM     77  C   UNL A   1      40.278  25.641  27.106  1.00  0.00     0.198 A 
ATOM     78  F   UNL A   1      39.433  26.062  29.261  1.00  0.00    -0.203 F 
ATOM     79  F   UNL A   1      42.301  27.694  24.914  1.00  0.00    -0.200 F 
ATOM     80  C   UNL A   1      41.001  26.047  25.996  1.00  0.00     0.200 A 
ATOM     81  F   UNL A   1      39.687  24.437  27.114  1.00  0.00    -0.200 F 
ATOM     82  F   UNL A   1      41.094  25.249  24.923  1.00  0.00    -0.200 F 
ENDBRANCH  58  72
BRANCH  59  83
ATOM     83  C   UNL A   1      39.394  33.639  36.293  1.00  0.00     0.064 A 
ATOM     84  C   UNL A   1      38.669  33.147  37.387  1.00  0.00     0.173 A 
ATOM     85  C   UNL A   1      39.927  34.933  36.395  1.00  0.00     0.173 A 
ATOM     86  F   UNL A   1      38.139  31.916  37.337  1.00  0.00    -0.203 F 
ATOM     87  C   UNL A   1      38.467  33.921  38.527  1.00  0.00     0.198 A 
ATOM     88  C   UNL A   1      39.748  35.696  37.548  1.00  0.00     0.198 A 
ATOM     89  F   UNL A   1      40.650  35.445  35.388  1.00  0.00    -0.203 F 
ATOM     90  F   UNL A   1      37.740  33.435  39.543  1.00  0.00    -0.200 F 
ATOM     91  C   UNL A   1      39.012  35.193  38.611  1.00  0.00     0.200 A 
ATOM     92  F   UNL A   1      40.298  36.916  37.635  1.00  0.00    -0.200 F 
ATOM     93  F   UNL A   1      38.828  35.932  39.712  1.00  0.00    -0.200 F 
ENDBRANCH  59  83
BRANCH  71  94
ATOM     94  C   UNL A   1      44.181  28.888  34.510  1.00  0.00     0.064 A 
ATOM     95  C   UNL A   1      45.420  29.527  34.361  1.00  0.00     0.173 A 
ATOM     96  C   UNL A   1      44.106  27.777  35.363  1.00  0.00     0.173 A 
ATOM     97  F   UNL A   1      45.543  30.581  33.539  1.00  0.00    -0.203 F 
ATOM     98  C   UNL A   1      46.548  29.056  35.025  1.00  0.00     0.198 A 
ATOM     99  C   UNL A   1      45.228  27.329  36.051  1.00  0.00     0.198 A 
ATOM    100  F   UNL A   1      42.941  27.136  35.538  1.00  0.00    -0.203 F 
ATOM    101  F   UNL A   1      47.733  29.650  34.832  1.00  0.00    -0.200 F 
ATOM    102  C   UNL A   1      46.449  27.964  35.876  1.00  0.00     0.200 A 
ATOM    103  F   UNL A   1      45.129  26.282  36.881  1.00  0.00    -0.200 F 
ATOM    104  F   UNL A   1      47.534  27.518  36.522  1.00  0.00    -0.200 F 
ENDBRANCH  71  94
ENDBRANCH  45  46
ENDBRANCH  37  40
ENDBRANCH  35  36
ENDBRANCH  34  35
ENDBRANCH   1  34
TORSDOF 14
ENDMDL
MODEL 3
REMARK VINA RESULT:     -13.4      3.526      5.093
REMARK SMILES COc1ccc(N2C(=O)/C(=C/c3c(C(=O)NCCCNC(=O)c4ccc(-c5c6nc(c(-c7c(F)c(F)c(F)c(F)c7F)c7ccc([nH]7)c(-c7c(F)c(F)c(F)c(F)c7F)c7nc(c(-c8c(F)c(F)c(F)c(F)c8F)c8ccc5[nH]8)C=C7)C=C6)cc4)[nH]c4cc(OC)ccc34)SC2=S)cc1
REMARK SMILES IDX 17 1 16 2 14 3 15 4 13 6 12 7 94 8 86 9 87 10 93 11 88 13
REMARK SMILES IDX 92 14 89 15 11 16 7 17 8 18 96 19 9 20 10 21 95 22 97 23
REMARK SMILES IDX 6 24 3 25 4 26 99 27 5 28 98 29 2 30 1 31 90 32 91 33 18 34
REMARK SMILES IDX 19 35 20 36 21 37 22 39 23 40 24 41 85 42 25 43 84 44 26 45
REMARK SMILES IDX 27 46 28 47 78 48 29 49 83 50 77 51 79 52 30 53 82 54 76 55
REMARK SMILES IDX 75 56 31 58 63 59 43 60 62 61 44 62 47 63 61 64 80 65 45 66
REMARK SMILES IDX 46 67 60 69 81 70 48 71 32 72 33 73 41 74 34 75 35 76 39 77
REMARK SMILES IDX 42 78 36 79 37 80 40 81 38 82 64 83 65 84 73 85 66 86 67 87
REMARK SMILES IDX 71 88 74 89 68 90 69 91 72 92 70 93 49 94 50 95 58 96 51 97
REMARK SMILES IDX 52 98 56 99 59 100 53 101 54 102 57 103 55 104
REMARK H PARENT 16 5 86 12 20 38 79 57 47 68
REMARK Flexibility Score: inf
ROOT
ATOM      1  C   UNL A   1      33.333  28.803  26.707  1.00  0.00     0.118 C 
ENDROOT
BRANCH   1   2
ATOM      2  N   UNL A   1      34.055  28.944  25.451  1.00  0.00    -0.351 N 
ATOM      3  C   UNL A   1      33.523  28.914  24.183  1.00  0.00     0.268 C 
ATOM      4  O   UNL A   1      34.289  28.817  23.226  1.00  0.00    -0.268 OA
ATOM      5  H   UNL A   1      35.029  29.074  25.517  1.00  0.00     0.163 HD
BRANCH   3   6
ATOM      6  C   UNL A   1      32.090  28.880  24.039  1.00  0.00     0.112 A 
ATOM      7  C   UNL A   1      31.196  28.035  23.372  1.00  0.00     0.014 A 
ATOM      8  C   UNL A   1      30.037  28.869  23.103  1.00  0.00     0.008 A 
ATOM      9  N   UNL A   1      31.327  29.849  24.631  1.00  0.00    -0.350 N 
ATOM     10  C   UNL A   1      30.194  30.018  23.884  1.00  0.00     0.050 A 
ATOM     11  C   UNL A   1      28.901  28.847  22.253  1.00  0.00     0.015 A 
ATOM     12  H   UNL A   1      31.555  30.340  25.453  1.00  0.00     0.167 HD
ATOM     13  C   UNL A   1      29.352  31.128  23.840  1.00  0.00     0.073 A 
ATOM     14  C   UNL A   1      28.049  29.986  22.170  1.00  0.00     0.047 A 
ATOM     15  C   UNL A   1      28.287  31.119  22.946  1.00  0.00     0.120 A 
BRANCH   7  16
ATOM     16  C   UNL A   1      31.614  26.753  22.826  1.00  0.00     0.032 C 
ATOM     17  N   UNL A   1      33.039  23.808  24.390  1.00  0.00    -0.261 N 
ATOM     18  C   UNL A   1      32.762  24.544  23.228  1.00  0.00     0.270 C 
ATOM     19  C   UNL A   1      32.289  24.123  25.513  1.00  0.00     0.152 C 
ATOM     20  O   UNL A   1      33.360  24.509  22.161  1.00  0.00    -0.268 OA
ATOM     21  C   UNL A   1      31.724  25.598  23.532  1.00  0.00     0.081 C 
ATOM     22  S   UNL A   1      31.018  25.251  25.068  1.00  0.00    -0.054 SA
ATOM     23  S   UNL A   1      32.447  23.570  27.083  1.00  0.00    -0.051 S 
BRANCH  17  24
ATOM     24  C   UNL A   1      34.118  22.874  24.448  1.00  0.00     0.051 A 
ATOM     25  C   UNL A   1      36.258  21.062  24.799  1.00  0.00     0.119 A 
ATOM     26  C   UNL A   1      36.503  22.424  24.658  1.00  0.00     0.048 A 
ATOM     27  C   UNL A   1      34.940  20.610  24.834  1.00  0.00     0.048 A 
ATOM     28  C   UNL A   1      35.444  23.325  24.481  1.00  0.00     0.030 A 
ATOM     29  C   UNL A   1      33.873  21.510  24.649  1.00  0.00     0.030 A 
BRANCH  25  30
ATOM     30  O   UNL A   1      37.369  20.277  24.949  1.00  0.00    -0.497 OA
ATOM     31  C   UNL A   1      38.537  20.962  25.395  1.00  0.00     0.278 C 
ENDBRANCH  25  30
ENDBRANCH  17  24
ENDBRANCH   7  16
BRANCH  15  32
ATOM     32  O   UNL A   1      27.627  32.315  22.908  1.00  0.00    -0.497 OA
ATOM     33  C   UNL A   1      28.394  33.506  22.908  1.00  0.00     0.278 C 
ENDBRANCH  15  32
ENDBRANCH   3   6
ENDBRANCH   1   2
BRANCH   1  34
ATOM     34  C   UNL A   1      32.646  30.068  27.185  1.00  0.00     0.042 C 
BRANCH  34  35
ATOM     35  C   UNL A   1      33.601  31.233  27.395  1.00  0.00     0.118 C 
BRANCH  35  36
ATOM     36  N   UNL A   1      32.999  32.559  27.384  1.00  0.00    -0.352 N 
ATOM     37  C   UNL A   1      33.286  33.671  28.151  1.00  0.00     0.251 C 
ATOM     38  H   UNL A   1      32.274  32.681  26.729  1.00  0.00     0.163 HD
ATOM     39  O   UNL A   1      32.597  34.680  28.018  1.00  0.00    -0.269 OA
BRANCH  37  40
ATOM     40  C   UNL A   1      34.354  33.659  29.185  1.00  0.00     0.039 A 
ATOM     41  C   UNL A   1      34.027  33.180  30.461  1.00  0.00     0.014 A 
ATOM     42  C   UNL A   1      35.670  34.045  28.925  1.00  0.00     0.014 A 
ATOM     43  C   UNL A   1      35.033  32.905  31.384  1.00  0.00     0.010 A 
ATOM     44  C   UNL A   1      36.685  33.698  29.799  1.00  0.00     0.010 A 
ATOM     45  C   UNL A   1      36.372  33.053  30.996  1.00  0.00    -0.014 A 
BRANCH  45  46
ATOM     46  C   UNL A   1      37.456  32.308  31.666  1.00  0.00     0.031 A 
ATOM     47  C   UNL A   1      37.994  32.756  32.985  1.00  0.00     0.074 A 
ATOM     48  C   UNL A   1      38.074  31.361  30.932  1.00  0.00     0.049 A 
ATOM     49  N   UNL A   1      39.022  32.302  33.650  1.00  0.00    -0.248 NA
ATOM     50  C   UNL A   1      37.319  33.899  33.620  1.00  0.00     0.031 C 
ATOM     51  C   UNL A   1      37.691  30.971  29.568  1.00  0.00     0.029 A 
ATOM     52  N   UNL A   1      39.167  30.581  31.195  1.00  0.00    -0.354 N 
ATOM     53  C   UNL A   1      39.118  33.097  34.782  1.00  0.00     0.074 A 
ATOM     54  C   UNL A   1      38.085  34.105  34.683  1.00  0.00     0.031 C 
ATOM     55  C   UNL A   1      38.519  30.016  29.125  1.00  0.00     0.029 A 
ATOM     56  C   UNL A   1      39.509  29.749  30.155  1.00  0.00     0.049 A 
ATOM     57  H   UNL A   1      39.661  30.613  32.046  1.00  0.00     0.167 HD
ATOM     58  C   UNL A   1      39.986  32.970  35.815  1.00  0.00     0.037 A 
ATOM     59  C   UNL A   1      40.517  28.865  30.050  1.00  0.00     0.037 A 
ATOM     60  C   UNL A   1      41.012  31.958  35.861  1.00  0.00     0.049 A 
ATOM     61  C   UNL A   1      41.432  28.711  31.229  1.00  0.00     0.074 A 
ATOM     62  C   UNL A   1      41.910  31.678  36.874  1.00  0.00     0.029 A 
ATOM     63  N   UNL A   1      41.278  31.063  34.830  1.00  0.00    -0.354 N 
ATOM     64  N   UNL A   1      41.442  29.385  32.354  1.00  0.00    -0.248 NA
ATOM     65  C   UNL A   1      42.459  27.669  31.137  1.00  0.00     0.031 C 
ATOM     66  C   UNL A   1      42.747  30.644  36.439  1.00  0.00     0.029 A 
ATOM     67  C   UNL A   1      42.336  30.240  35.177  1.00  0.00     0.049 A 
ATOM     68  H   UNL A   1      40.786  31.021  33.978  1.00  0.00     0.167 HD
ATOM     69  C   UNL A   1      42.452  28.831  33.121  1.00  0.00     0.074 A 
ATOM     70  C   UNL A   1      43.024  27.754  32.333  1.00  0.00     0.031 C 
ATOM     71  C   UNL A   1      42.871  29.175  34.363  1.00  0.00     0.037 A 
BRANCH  58  72
ATOM     72  C   UNL A   1      39.849  33.927  36.964  1.00  0.00     0.064 A 
ATOM     73  C   UNL A   1      39.049  33.625  38.080  1.00  0.00     0.173 A 
ATOM     74  C   UNL A   1      40.542  35.148  36.975  1.00  0.00     0.173 A 
ATOM     75  F   UNL A   1      38.358  32.475  38.123  1.00  0.00    -0.203 F 
ATOM     76  C   UNL A   1      38.921  34.519  39.140  1.00  0.00     0.198 A 
ATOM     77  C   UNL A   1      40.437  36.026  38.053  1.00  0.00     0.198 A 
ATOM     78  F   UNL A   1      41.326  35.491  35.942  1.00  0.00    -0.203 F 
ATOM     79  F   UNL A   1      38.109  34.227  40.165  1.00  0.00    -0.200 F 
ATOM     80  C   UNL A   1      39.620  35.716  39.129  1.00  0.00     0.200 A 
ATOM     81  F   UNL A   1      41.125  37.177  38.047  1.00  0.00    -0.200 F 
ATOM     82  F   UNL A   1      39.501  36.572  40.153  1.00  0.00    -0.200 F 
ENDBRANCH  58  72
BRANCH  59  83
ATOM     83  C   UNL A   1      40.644  28.027  28.830  1.00  0.00     0.064 A 
ATOM     84  C   UNL A   1      39.942  26.818  28.719  1.00  0.00     0.173 A 
ATOM     85  C   UNL A   1      41.416  28.433  27.731  1.00  0.00     0.173 A 
ATOM     86  F   UNL A   1      39.192  26.386  29.743  1.00  0.00    -0.203 F 
ATOM     87  C   UNL A   1      40.023  26.039  27.568  1.00  0.00     0.198 A 
ATOM     88  C   UNL A   1      41.473  27.667  26.568  1.00  0.00     0.198 A 
ATOM     89  F   UNL A   1      42.088  29.594  27.773  1.00  0.00    -0.203 F 
ATOM     90  F   UNL A   1      39.367  24.872  27.505  1.00  0.00    -0.200 F 
ATOM     91  C   UNL A   1      40.783  26.466  26.489  1.00  0.00     0.200 A 
ATOM     92  F   UNL A   1      42.189  28.096  25.519  1.00  0.00    -0.200 F 
ATOM     93  F   UNL A   1      40.850  25.723  25.378  1.00  0.00    -0.200 F 
ENDBRANCH  59  83
BRANCH  71  94
ATOM     94  C   UNL A   1      43.976  28.352  34.950  1.00  0.00     0.064 A 
ATOM     95  C   UNL A   1      45.322  28.715  34.800  1.00  0.00     0.173 A 
ATOM     96  C   UNL A   1      43.678  27.206  35.701  1.00  0.00     0.173 A 
ATOM     97  F   UNL A   1      45.655  29.793  34.073  1.00  0.00    -0.203 F 
ATOM     98  C   UNL A   1      46.334  27.944  35.363  1.00  0.00     0.198 A 
ATOM     99  C   UNL A   1      44.691  26.455  36.289  1.00  0.00     0.198 A 
ATOM    100  F   UNL A   1      42.405  26.822  35.873  1.00  0.00    -0.203 F 
ATOM    101  F   UNL A   1      47.616  28.280  35.167  1.00  0.00    -0.200 F 
ATOM    102  C   UNL A   1      46.017  26.821  36.114  1.00  0.00     0.200 A 
ATOM    103  F   UNL A   1      44.382  25.378  37.025  1.00  0.00    -0.200 F 
ATOM    104  F   UNL A   1      46.992  26.085  36.663  1.00  0.00    -0.200 F 
ENDBRANCH  71  94
ENDBRANCH  45  46
ENDBRANCH  37  40
ENDBRANCH  35  36
ENDBRANCH  34  35
ENDBRANCH   1  34
TORSDOF 14
ENDMDL
