MODEL 1
REMARK VINA RESULT:     -10.4      0.000      0.000
REMARK SMILES CC1(C)CC[C@@]2(C(=O)NCCCNC(=O)c3ccc(-c4c5nc(c(-c6c(F)c(F)c(F)c(F)c6F)c6ccc([nH]6)c(-c6c(F)c(F)c(F)c(F)c6F)c6nc(c(-c7c(F)c(F)c(F)c(F)c7F)c7ccc4[nH]7)C=C6)C=C5)cc3)CC[C@@]3(C)C(=CC[C@H]4[C@@]5(C)CC[C@H](O)C(C)(C)[C@@H]5CC[C@]43C)[C@@H]2C1
REMARK SMILES IDX 11 1 10 2 9 3 7 4 8 5 6 7 1 8 2 9 3 10 4 11 102 12 5 13
REMARK SMILES IDX 101 14 83 15 79 16 81 17 84 18 80 19 82 20 99 21 85 22 86 23
REMARK SMILES IDX 98 24 100 25 87 26 97 27 88 28 89 29 96 30 90 31 93 32 91 33
REMARK SMILES IDX 94 34 95 35 92 36 12 38 13 39 14 40 15 42 16 43 17 44 78 45
REMARK SMILES IDX 18 46 77 47 19 48 20 49 21 50 71 51 22 52 76 53 70 54 72 55
REMARK SMILES IDX 23 56 75 57 69 58 68 59 24 61 56 62 36 63 55 64 37 65 40 66
REMARK SMILES IDX 54 67 73 68 38 69 39 70 53 72 74 73 41 74 25 75 26 76 34 77
REMARK SMILES IDX 27 78 28 79 32 80 35 81 29 82 30 83 33 84 31 85 57 86 58 87
REMARK SMILES IDX 66 88 59 89 60 90 64 91 67 92 61 93 62 94 65 95 63 96 42 97
REMARK SMILES IDX 43 98 51 99 44 100 45 101 49 102 52 103 46 104 47 105 50 106
REMARK SMILES IDX 48 107
REMARK H PARENT 9 6 92 37 13 41 72 60 40 71
REMARK Flexibility Score: inf
ROOT
ATOM      1  C   UNL A   1      50.160  26.439  32.974  1.00  0.00     0.042 C 
ENDROOT
BRANCH   1   2
ATOM      2  C   UNL A   1      49.953  26.859  31.501  1.00  0.00     0.117 C 
BRANCH   2   3
ATOM      3  N   UNL A   1      49.514  28.151  31.034  1.00  0.00    -0.356 N 
ATOM      4  C   UNL A   1      48.520  28.312  30.074  1.00  0.00     0.226 C 
ATOM      5  O   UNL A   1      48.825  28.727  28.955  1.00  0.00    -0.274 OA
ATOM      6  H   UNL A   1      49.937  28.956  31.413  1.00  0.00     0.163 HD
BRANCH   4   7
ATOM      7  C   UNL A   1      47.007  28.065  30.451  1.00  0.00     0.056 C 
ATOM      8  C   UNL A   1      44.504  31.293  31.267  1.00  0.00     0.011 C 
ATOM      9  C   UNL A   1      45.837  30.887  30.598  1.00  0.00    -0.035 C 
ATOM     10  C   UNL A   1      46.452  32.257  30.146  1.00  0.00     0.011 C 
ATOM     11  C   UNL A   1      46.762  30.283  31.679  1.00  0.00     0.007 C 
ATOM     12  C   UNL A   1      45.508  29.920  29.367  1.00  0.00     0.015 C 
ATOM     13  C   UNL A   1      46.704  28.777  31.781  1.00  0.00     0.018 C 
ATOM     14  C   UNL A   1      45.978  28.406  29.363  1.00  0.00     0.031 C 
ATOM     15  C   UNL A   1      46.450  27.664  28.058  1.00  0.00    -0.064 C 
ATOM     16  C   UNL A   1      46.775  26.556  30.752  1.00  0.00     0.018 C 
ATOM     17  C   UNL A   1      46.739  26.120  28.134  1.00  0.00    -0.006 C 
ATOM     18  C   UNL A   1      46.578  28.283  26.875  1.00  0.00    -0.027 C 
ATOM     19  C   UNL A   1      47.111  25.643  29.579  1.00  0.00     0.013 C 
ATOM     20  C   UNL A   1      45.282  25.564  27.905  1.00  0.00     0.017 C 
ATOM     21  C   UNL A   1      47.855  25.507  26.956  1.00  0.00    -0.020 C 
ATOM     22  C   UNL A   1      47.242  27.689  25.677  1.00  0.00     0.032 C 
ATOM     23  C   UNL A   1      48.364  26.646  25.959  1.00  0.00     0.006 C 
ATOM     24  C   UNL A   1      49.096  24.674  27.523  1.00  0.00     0.008 C 
ATOM     25  C   UNL A   1      47.107  24.453  26.009  1.00  0.00     0.012 C 
ATOM     26  C   UNL A   1      49.923  27.145  26.006  1.00  0.00    -0.025 C 
ATOM     27  C   UNL A   1      50.536  25.224  27.524  1.00  0.00     0.005 C 
ATOM     28  C   UNL A   1      50.587  26.543  24.728  1.00  0.00     0.012 C 
ATOM     29  C   UNL A   1      50.062  28.664  25.833  1.00  0.00     0.010 C 
ATOM     30  C   UNL A   1      50.657  26.721  27.319  1.00  0.00     0.003 C 
ATOM     31  C   UNL A   1      51.411  29.301  26.164  1.00  0.00     0.033 C 
ATOM     32  C   UNL A   1      52.121  27.337  27.570  1.00  0.00    -0.006 C 
ATOM     33  C   UNL A   1      51.973  28.876  27.511  1.00  0.00     0.120 C 
ATOM     34  C   UNL A   1      53.242  26.892  26.602  1.00  0.00     0.014 C 
ATOM     35  C   UNL A   1      52.649  26.966  28.980  1.00  0.00     0.014 C 
BRANCH  33  36
ATOM     36  O   UNL A   1      53.195  29.568  27.772  1.00  0.00    -0.393 OA
ATOM     37  H   UNL A   1      53.567  29.260  28.613  1.00  0.00     0.210 HD
ENDBRANCH  33  36
ENDBRANCH   4   7
ENDBRANCH   2   3
ENDBRANCH   1   2
BRANCH   1  38
ATOM     38  C   UNL A   1      48.892  26.347  33.843  1.00  0.00     0.118 C 
BRANCH  38  39
ATOM     39  N   UNL A   1      48.967  26.869  35.194  1.00  0.00    -0.352 N 
ATOM     40  C   UNL A   1      47.955  27.168  36.086  1.00  0.00     0.251 C 
ATOM     41  H   UNL A   1      49.878  27.035  35.527  1.00  0.00     0.163 HD
ATOM     42  O   UNL A   1      48.197  27.275  37.273  1.00  0.00    -0.269 OA
BRANCH  40  43
ATOM     43  C   UNL A   1      46.595  27.490  35.596  1.00  0.00     0.039 A 
ATOM     44  C   UNL A   1      46.364  28.814  35.224  1.00  0.00     0.014 A 
ATOM     45  C   UNL A   1      45.555  26.567  35.525  1.00  0.00     0.014 A 
ATOM     46  C   UNL A   1      45.125  29.191  34.698  1.00  0.00     0.010 A 
ATOM     47  C   UNL A   1      44.344  26.929  34.914  1.00  0.00     0.010 A 
ATOM     48  C   UNL A   1      44.112  28.242  34.474  1.00  0.00    -0.014 A 
BRANCH  48  49
ATOM     49  C   UNL A   1      42.847  28.655  33.784  1.00  0.00     0.031 A 
ATOM     50  C   UNL A   1      41.825  29.530  34.466  1.00  0.00     0.074 A 
ATOM     51  C   UNL A   1      42.613  28.257  32.513  1.00  0.00     0.049 A 
ATOM     52  N   UNL A   1      40.728  30.059  33.975  1.00  0.00    -0.248 NA
ATOM     53  C   UNL A   1      42.034  29.825  35.890  1.00  0.00     0.031 C 
ATOM     54  C   UNL A   1      43.453  27.336  31.745  1.00  0.00     0.029 A 
ATOM     55  N   UNL A   1      41.610  28.594  31.631  1.00  0.00    -0.354 N 
ATOM     56  C   UNL A   1      40.125  30.736  35.027  1.00  0.00     0.074 A 
ATOM     57  C   UNL A   1      40.927  30.482  36.202  1.00  0.00     0.031 C 
ATOM     58  C   UNL A   1      42.980  27.244  30.492  1.00  0.00     0.029 A 
ATOM     59  C   UNL A   1      41.777  28.062  30.372  1.00  0.00     0.049 A 
ATOM     60  H   UNL A   1      40.845  29.161  31.878  1.00  0.00     0.167 HD
ATOM     61  C   UNL A   1      39.029  31.535  35.016  1.00  0.00     0.037 A 
ATOM     62  C   UNL A   1      41.058  28.223  29.242  1.00  0.00     0.037 A 
ATOM     63  C   UNL A   1      38.242  31.827  33.848  1.00  0.00     0.049 A 
ATOM     64  C   UNL A   1      39.853  29.128  29.250  1.00  0.00     0.074 A 
ATOM     65  C   UNL A   1      37.160  32.684  33.729  1.00  0.00     0.029 A 
ATOM     66  N   UNL A   1      38.447  31.270  32.595  1.00  0.00    -0.354 N 
ATOM     67  N   UNL A   1      39.362  29.847  30.230  1.00  0.00    -0.248 NA
ATOM     68  C   UNL A   1      39.105  29.248  27.989  1.00  0.00     0.031 C 
ATOM     69  C   UNL A   1      36.677  32.602  32.420  1.00  0.00     0.029 A 
ATOM     70  C   UNL A   1      37.495  31.743  31.705  1.00  0.00     0.049 A 
ATOM     71  H   UNL A   1      39.163  30.633  32.371  1.00  0.00     0.167 HD
ATOM     72  C   UNL A   1      38.272  30.524  29.697  1.00  0.00     0.074 A 
ATOM     73  C   UNL A   1      38.184  30.148  28.304  1.00  0.00     0.031 C 
ATOM     74  C   UNL A   1      37.419  31.378  30.313  1.00  0.00     0.037 A 
BRANCH  61  75
ATOM     75  C   UNL A   1      38.623  32.172  36.317  1.00  0.00     0.064 A 
ATOM     76  C   UNL A   1      37.921  31.457  37.300  1.00  0.00     0.173 A 
ATOM     77  C   UNL A   1      38.972  33.502  36.600  1.00  0.00     0.173 A 
ATOM     78  F   UNL A   1      37.556  30.185  37.078  1.00  0.00    -0.203 F 
ATOM     79  C   UNL A   1      37.547  32.061  38.498  1.00  0.00     0.198 A 
ATOM     80  C   UNL A   1      38.629  34.091  37.815  1.00  0.00     0.198 A 
ATOM     81  F   UNL A   1      39.653  34.230  35.703  1.00  0.00    -0.203 F 
ATOM     82  F   UNL A   1      36.822  31.375  39.393  1.00  0.00    -0.200 F 
ATOM     83  C   UNL A   1      37.907  33.373  38.757  1.00  0.00     0.200 A 
ATOM     84  F   UNL A   1      38.992  35.355  38.071  1.00  0.00    -0.200 F 
ATOM     85  F   UNL A   1      37.551  33.951  39.913  1.00  0.00    -0.200 F 
ENDBRANCH  61  75
BRANCH  62  86
ATOM     86  C   UNL A   1      41.472  27.539  27.984  1.00  0.00     0.064 A 
ATOM     87  C   UNL A   1      40.930  26.297  27.622  1.00  0.00     0.173 A 
ATOM     88  C   UNL A   1      42.443  28.094  27.138  1.00  0.00     0.173 A 
ATOM     89  F   UNL A   1      40.017  25.709  28.410  1.00  0.00    -0.203 F 
ATOM     90  C   UNL A   1      41.363  25.625  26.480  1.00  0.00     0.198 A 
ATOM     91  C   UNL A   1      42.849  27.438  25.977  1.00  0.00     0.198 A 
ATOM     92  F   UNL A   1      42.996  29.278  27.437  1.00  0.00    -0.203 F 
ATOM     93  F   UNL A   1      40.870  24.412  26.192  1.00  0.00    -0.200 F 
ATOM     94  C   UNL A   1      42.317  26.198  25.656  1.00  0.00     0.200 A 
ATOM     95  F   UNL A   1      43.764  28.001  25.177  1.00  0.00    -0.200 F 
ATOM     96  F   UNL A   1      42.733  25.551  24.558  1.00  0.00    -0.200 F 
ENDBRANCH  62  86
BRANCH  74  97
ATOM     97  C   UNL A   1      36.333  32.004  29.482  1.00  0.00     0.064 A 
ATOM     98  C   UNL A   1      35.247  31.259  29.001  1.00  0.00     0.173 A 
ATOM     99  C   UNL A   1      36.358  33.380  29.205  1.00  0.00     0.173 A 
ATOM    100  F   UNL A   1      35.181  29.938  29.226  1.00  0.00    -0.203 F 
ATOM    101  C   UNL A   1      34.240  31.862  28.251  1.00  0.00     0.198 A 
ATOM    102  C   UNL A   1      35.332  33.986  28.485  1.00  0.00     0.198 A 
ATOM    103  F   UNL A   1      37.369  34.142  29.649  1.00  0.00    -0.203 F 
ATOM    104  F   UNL A   1      33.237  31.120  27.759  1.00  0.00    -0.200 F 
ATOM    105  C   UNL A   1      34.279  33.226  28.001  1.00  0.00     0.200 A 
ATOM    106  F   UNL A   1      35.362  35.307  28.261  1.00  0.00    -0.200 F 
ATOM    107  F   UNL A   1      33.303  33.807  27.290  1.00  0.00    -0.200 F 
ENDBRANCH  74  97
ENDBRANCH  48  49
ENDBRANCH  40  43
ENDBRANCH  38  39
ENDBRANCH   1  38
TORSDOF 11
ENDMDL
MODEL 2
REMARK VINA RESULT:     -10.1      3.124      8.129
REMARK SMILES CC1(C)CC[C@@]2(C(=O)NCCCNC(=O)c3ccc(-c4c5nc(c(-c6c(F)c(F)c(F)c(F)c6F)c6ccc([nH]6)c(-c6c(F)c(F)c(F)c(F)c6F)c6nc(c(-c7c(F)c(F)c(F)c(F)c7F)c7ccc4[nH]7)C=C6)C=C5)cc3)CC[C@@]3(C)C(=CC[C@H]4[C@@]5(C)CC[C@H](O)C(C)(C)[C@@H]5CC[C@]43C)[C@@H]2C1
REMARK SMILES IDX 11 1 10 2 9 3 7 4 8 5 6 7 1 8 2 9 3 10 4 11 102 12 5 13
REMARK SMILES IDX 101 14 83 15 79 16 81 17 84 18 80 19 82 20 99 21 85 22 86 23
REMARK SMILES IDX 98 24 100 25 87 26 97 27 88 28 89 29 96 30 90 31 93 32 91 33
REMARK SMILES IDX 94 34 95 35 92 36 12 38 13 39 14 40 15 42 16 43 17 44 78 45
REMARK SMILES IDX 18 46 77 47 19 48 20 49 21 50 71 51 22 52 76 53 70 54 72 55
REMARK SMILES IDX 23 56 75 57 69 58 68 59 24 61 56 62 36 63 55 64 37 65 40 66
REMARK SMILES IDX 54 67 73 68 38 69 39 70 53 72 74 73 41 74 25 75 26 76 34 77
REMARK SMILES IDX 27 78 28 79 32 80 35 81 29 82 30 83 33 84 31 85 57 86 58 87
REMARK SMILES IDX 66 88 59 89 60 90 64 91 67 92 61 93 62 94 65 95 63 96 42 97
REMARK SMILES IDX 43 98 51 99 44 100 45 101 49 102 52 103 46 104 47 105 50 106
REMARK SMILES IDX 48 107
REMARK H PARENT 9 6 92 37 13 41 72 60 40 71
REMARK Flexibility Score: inf
ROOT
ATOM      1  C   UNL A   1      43.605  24.115  26.501  1.00  0.00     0.042 C 
ENDROOT
BRANCH   1   2
ATOM      2  C   UNL A   1      44.845  24.718  27.200  1.00  0.00     0.117 C 
BRANCH   2   3
ATOM      3  N   UNL A   1      45.414  24.284  28.453  1.00  0.00    -0.356 N 
ATOM      4  C   UNL A   1      45.567  25.130  29.547  1.00  0.00     0.226 C 
ATOM      5  O   UNL A   1      46.700  25.473  29.889  1.00  0.00    -0.274 OA
ATOM      6  H   UNL A   1      45.707  23.348  28.537  1.00  0.00     0.163 HD
BRANCH   4   7
ATOM      7  C   UNL A   1      44.309  25.556  30.400  1.00  0.00     0.056 C 
ATOM      8  C   UNL A   1      43.844  24.136  34.288  1.00  0.00     0.011 C 
ATOM      9  C   UNL A   1      44.872  24.352  33.155  1.00  0.00    -0.035 C 
ATOM     10  C   UNL A   1      46.185  23.710  33.725  1.00  0.00     0.011 C 
ATOM     11  C   UNL A   1      44.429  23.522  31.929  1.00  0.00     0.007 C 
ATOM     12  C   UNL A   1      45.014  25.925  32.897  1.00  0.00     0.015 C 
ATOM     13  C   UNL A   1      43.608  24.289  30.919  1.00  0.00     0.018 C 
ATOM     14  C   UNL A   1      44.570  26.574  31.520  1.00  0.00     0.031 C 
ATOM     15  C   UNL A   1      45.340  27.776  30.858  1.00  0.00    -0.064 C 
ATOM     16  C   UNL A   1      43.255  26.241  29.484  1.00  0.00     0.018 C 
ATOM     17  C   UNL A   1      44.723  28.450  29.578  1.00  0.00    -0.006 C 
ATOM     18  C   UNL A   1      46.480  28.275  31.360  1.00  0.00    -0.027 C 
ATOM     19  C   UNL A   1      43.778  27.489  28.782  1.00  0.00     0.013 C 
ATOM     20  C   UNL A   1      43.744  29.477  30.265  1.00  0.00     0.017 C 
ATOM     21  C   UNL A   1      45.855  29.242  28.529  1.00  0.00    -0.020 C 
ATOM     22  C   UNL A   1      47.366  29.242  30.648  1.00  0.00     0.032 C 
ATOM     23  C   UNL A   1      47.348  29.174  29.092  1.00  0.00     0.006 C 
ATOM     24  C   UNL A   1      45.822  28.802  26.993  1.00  0.00     0.008 C 
ATOM     25  C   UNL A   1      45.522  30.808  28.469  1.00  0.00     0.012 C 
ATOM     26  C   UNL A   1      48.478  28.276  28.319  1.00  0.00    -0.025 C 
ATOM     27  C   UNL A   1      46.937  27.955  26.347  1.00  0.00     0.005 C 
ATOM     28  C   UNL A   1      49.412  29.308  27.612  1.00  0.00     0.012 C 
ATOM     29  C   UNL A   1      49.399  27.524  29.290  1.00  0.00     0.010 C 
ATOM     30  C   UNL A   1      47.857  27.247  27.320  1.00  0.00     0.003 C 
ATOM     31  C   UNL A   1      50.288  26.418  28.723  1.00  0.00     0.033 C 
ATOM     32  C   UNL A   1      48.856  26.168  26.667  1.00  0.00    -0.006 C 
ATOM     33  C   UNL A   1      49.543  25.430  27.840  1.00  0.00     0.120 C 
ATOM     34  C   UNL A   1      49.934  26.709  25.699  1.00  0.00     0.014 C 
ATOM     35  C   UNL A   1      48.075  25.116  25.837  1.00  0.00     0.014 C 
BRANCH  33  36
ATOM     36  O   UNL A   1      50.427  24.394  27.410  1.00  0.00    -0.393 OA
ATOM     37  H   UNL A   1      50.901  24.683  26.615  1.00  0.00     0.210 HD
ENDBRANCH  33  36
ENDBRANCH   4   7
ENDBRANCH   2   3
ENDBRANCH   1   2
BRANCH   1  38
ATOM     38  C   UNL A   1      42.380  25.037  26.369  1.00  0.00     0.118 C 
BRANCH  38  39
ATOM     39  N   UNL A   1      41.076  24.409  26.269  1.00  0.00    -0.352 N 
ATOM     40  C   UNL A   1      39.829  24.895  26.613  1.00  0.00     0.251 C 
ATOM     41  H   UNL A   1      41.081  23.496  25.901  1.00  0.00     0.163 HD
ATOM     42  O   UNL A   1      38.826  24.379  26.160  1.00  0.00    -0.269 OA
BRANCH  40  43
ATOM     43  C   UNL A   1      39.695  25.960  27.633  1.00  0.00     0.039 A 
ATOM     44  C   UNL A   1      39.053  25.608  28.820  1.00  0.00     0.014 A 
ATOM     45  C   UNL A   1      40.136  27.268  27.454  1.00  0.00     0.014 A 
ATOM     46  C   UNL A   1      38.934  26.537  29.857  1.00  0.00     0.010 A 
ATOM     47  C   UNL A   1      40.095  28.170  28.530  1.00  0.00     0.010 A 
ATOM     48  C   UNL A   1      39.509  27.816  29.756  1.00  0.00    -0.014 A 
BRANCH  48  49
ATOM     49  C   UNL A   1      39.480  28.739  30.937  1.00  0.00     0.031 A 
ATOM     50  C   UNL A   1      40.468  28.604  32.070  1.00  0.00     0.074 A 
ATOM     51  C   UNL A   1      38.565  29.733  30.992  1.00  0.00     0.049 A 
ATOM     52  N   UNL A   1      40.642  29.381  33.114  1.00  0.00    -0.248 NA
ATOM     53  C   UNL A   1      41.352  27.430  32.056  1.00  0.00     0.031 C 
ATOM     54  C   UNL A   1      37.485  29.945  30.027  1.00  0.00     0.029 A 
ATOM     55  N   UNL A   1      38.410  30.770  31.886  1.00  0.00    -0.354 N 
ATOM     56  C   UNL A   1      41.643  28.786  33.871  1.00  0.00     0.074 A 
ATOM     57  C   UNL A   1      41.979  27.542  33.217  1.00  0.00     0.031 C 
ATOM     58  C   UNL A   1      36.832  31.078  30.332  1.00  0.00     0.029 A 
ATOM     59  C   UNL A   1      37.415  31.656  31.540  1.00  0.00     0.049 A 
ATOM     60  H   UNL A   1      38.959  30.867  32.697  1.00  0.00     0.167 HD
ATOM     61  C   UNL A   1      42.263  29.247  34.985  1.00  0.00     0.037 A 
ATOM     62  C   UNL A   1      37.021  32.812  32.114  1.00  0.00     0.037 A 
ATOM     63  C   UNL A   1      41.966  30.501  35.627  1.00  0.00     0.049 A 
ATOM     64  C   UNL A   1      37.736  33.312  33.343  1.00  0.00     0.074 A 
ATOM     65  C   UNL A   1      42.595  31.082  36.715  1.00  0.00     0.029 A 
ATOM     66  N   UNL A   1      40.954  31.366  35.243  1.00  0.00    -0.354 N 
ATOM     67  N   UNL A   1      38.754  32.790  33.981  1.00  0.00    -0.248 NA
ATOM     68  C   UNL A   1      37.247  34.571  33.928  1.00  0.00     0.031 C 
ATOM     69  C   UNL A   1      41.928  32.271  37.024  1.00  0.00     0.029 A 
ATOM     70  C   UNL A   1      40.923  32.464  36.090  1.00  0.00     0.049 A 
ATOM     71  H   UNL A   1      40.347  31.223  34.481  1.00  0.00     0.167 HD
ATOM     72  C   UNL A   1      39.046  33.667  35.018  1.00  0.00     0.074 A 
ATOM     73  C   UNL A   1      38.112  34.766  34.914  1.00  0.00     0.031 C 
ATOM     74  C   UNL A   1      40.001  33.565  35.974  1.00  0.00     0.037 A 
BRANCH  61  75
ATOM     75  C   UNL A   1      43.351  28.393  35.577  1.00  0.00     0.064 A 
ATOM     76  C   UNL A   1      44.696  28.554  35.209  1.00  0.00     0.173 A 
ATOM     77  C   UNL A   1      43.051  27.427  36.550  1.00  0.00     0.173 A 
ATOM     78  F   UNL A   1      45.038  29.457  34.277  1.00  0.00    -0.203 F 
ATOM     79  C   UNL A   1      45.693  27.753  35.760  1.00  0.00     0.198 A 
ATOM     80  C   UNL A   1      44.056  26.653  37.127  1.00  0.00     0.198 A 
ATOM     81  F   UNL A   1      41.785  27.238  36.949  1.00  0.00    -0.203 F 
ATOM     82  F   UNL A   1      46.960  27.884  35.344  1.00  0.00    -0.200 F 
ATOM     83  C   UNL A   1      45.373  26.809  36.723  1.00  0.00     0.200 A 
ATOM     84  F   UNL A   1      43.747  25.754  38.070  1.00  0.00    -0.200 F 
ATOM     85  F   UNL A   1      46.334  26.043  37.257  1.00  0.00    -0.200 F 
ENDBRANCH  61  75
BRANCH  62  86
ATOM     86  C   UNL A   1      35.911  33.607  31.518  1.00  0.00     0.064 A 
ATOM     87  C   UNL A   1      34.726  33.844  32.230  1.00  0.00     0.173 A 
ATOM     88  C   UNL A   1      35.996  34.114  30.213  1.00  0.00     0.173 A 
ATOM     89  F   UNL A   1      34.581  33.358  33.472  1.00  0.00    -0.203 F 
ATOM     90  C   UNL A   1      33.660  34.532  31.651  1.00  0.00     0.198 A 
ATOM     91  C   UNL A   1      34.944  34.833  29.647  1.00  0.00     0.198 A 
ATOM     92  F   UNL A   1      37.105  33.915  29.487  1.00  0.00    -0.203 F 
ATOM     93  F   UNL A   1      32.518  34.691  32.334  1.00  0.00    -0.200 F 
ATOM     94  C   UNL A   1      33.772  35.030  30.363  1.00  0.00     0.200 A 
ATOM     95  F   UNL A   1      35.060  35.323  28.406  1.00  0.00    -0.200 F 
ATOM     96  F   UNL A   1      32.748  35.691  29.806  1.00  0.00    -0.200 F 
ENDBRANCH  62  86
BRANCH  74  97
ATOM     97  C   UNL A   1      40.121  34.687  36.967  1.00  0.00     0.064 A 
ATOM     98  C   UNL A   1      39.258  34.798  38.067  1.00  0.00     0.173 A 
ATOM     99  C   UNL A   1      41.145  35.639  36.840  1.00  0.00     0.173 A 
ATOM    100  F   UNL A   1      38.254  33.923  38.229  1.00  0.00    -0.203 F 
ATOM    101  C   UNL A   1      39.399  35.834  38.988  1.00  0.00     0.198 A 
ATOM    102  C   UNL A   1      41.306  36.652  37.781  1.00  0.00     0.198 A 
ATOM    103  F   UNL A   1      42.005  35.575  35.812  1.00  0.00    -0.203 F 
ATOM    104  F   UNL A   1      38.532  35.948  40.004  1.00  0.00    -0.200 F 
ATOM    105  C   UNL A   1      40.428  36.755  38.849  1.00  0.00     0.200 A 
ATOM    106  F   UNL A   1      42.311  37.529  37.655  1.00  0.00    -0.200 F 
ATOM    107  F   UNL A   1      40.570  37.742  39.743  1.00  0.00    -0.200 F 
ENDBRANCH  74  97
ENDBRANCH  48  49
ENDBRANCH  40  43
ENDBRANCH  38  39
ENDBRANCH   1  38
TORSDOF 11
ENDMDL
MODEL 3
REMARK VINA RESULT:      -9.9      2.699      7.974
REMARK SMILES CC1(C)CC[C@@]2(C(=O)NCCCNC(=O)c3ccc(-c4c5nc(c(-c6c(F)c(F)c(F)c(F)c6F)c6ccc([nH]6)c(-c6c(F)c(F)c(F)c(F)c6F)c6nc(c(-c7c(F)c(F)c(F)c(F)c7F)c7ccc4[nH]7)C=C6)C=C5)cc3)CC[C@@]3(C)C(=CC[C@H]4[C@@]5(C)CC[C@H](O)C(C)(C)[C@@H]5CC[C@]43C)[C@@H]2C1
REMARK SMILES IDX 11 1 10 2 9 3 7 4 8 5 6 7 1 8 2 9 3 10 4 11 102 12 5 13
REMARK SMILES IDX 101 14 83 15 79 16 81 17 84 18 80 19 82 20 99 21 85 22 86 23
REMARK SMILES IDX 98 24 100 25 87 26 97 27 88 28 89 29 96 30 90 31 93 32 91 33
REMARK SMILES IDX 94 34 95 35 92 36 12 38 13 39 14 40 15 42 16 43 17 44 78 45
REMARK SMILES IDX 18 46 77 47 19 48 20 49 21 50 71 51 22 52 76 53 70 54 72 55
REMARK SMILES IDX 23 56 75 57 69 58 68 59 24 61 56 62 36 63 55 64 37 65 40 66
REMARK SMILES IDX 54 67 73 68 38 69 39 70 53 72 74 73 41 74 25 75 26 76 34 77
REMARK SMILES IDX 27 78 28 79 32 80 35 81 29 82 30 83 33 84 31 85 57 86 58 87
REMARK SMILES IDX 66 88 59 89 60 90 64 91 67 92 61 93 62 94 65 95 63 96 42 97
REMARK SMILES IDX 43 98 51 99 44 100 45 101 49 102 52 103 46 104 47 105 50 106
REMARK SMILES IDX 48 107
REMARK H PARENT 9 6 92 37 13 41 72 60 40 71
REMARK Flexibility Score: inf
ROOT
ATOM      1  C   UNL A   1      46.899  24.553  25.091  1.00  0.00     0.042 C 
ENDROOT
BRANCH   1   2
ATOM      2  C   UNL A   1      47.672  25.605  25.918  1.00  0.00     0.117 C 
BRANCH   2   3
ATOM      3  N   UNL A   1      48.688  26.503  25.424  1.00  0.00    -0.356 N 
ATOM      4  C   UNL A   1      49.695  27.024  26.230  1.00  0.00     0.226 C 
ATOM      5  O   UNL A   1      49.682  28.224  26.510  1.00  0.00    -0.274 OA
ATOM      6  H   UNL A   1      48.667  26.757  24.473  1.00  0.00     0.163 HD
BRANCH   4   7
ATOM      7  C   UNL A   1      50.894  26.107  26.691  1.00  0.00     0.056 C 
ATOM      8  C   UNL A   1      54.800  27.085  25.623  1.00  0.00     0.011 C 
ATOM      9  C   UNL A   1      53.369  27.650  25.768  1.00  0.00    -0.035 C 
ATOM     10  C   UNL A   1      53.498  29.116  25.227  1.00  0.00     0.011 C 
ATOM     11  C   UNL A   1      52.437  26.869  24.813  1.00  0.00     0.007 C 
ATOM     12  C   UNL A   1      52.959  27.595  27.314  1.00  0.00     0.015 C 
ATOM     13  C   UNL A   1      51.717  25.707  25.454  1.00  0.00     0.018 C 
ATOM     14  C   UNL A   1      51.775  26.668  27.817  1.00  0.00     0.031 C 
ATOM     15  C   UNL A   1      50.799  27.089  28.977  1.00  0.00    -0.064 C 
ATOM     16  C   UNL A   1      50.349  24.763  27.252  1.00  0.00     0.018 C 
ATOM     17  C   UNL A   1      49.764  26.031  29.509  1.00  0.00    -0.006 C 
ATOM     18  C   UNL A   1      50.838  28.296  29.559  1.00  0.00    -0.027 C 
ATOM     19  C   UNL A   1      49.417  24.934  28.446  1.00  0.00     0.013 C 
ATOM     20  C   UNL A   1      50.666  25.280  30.561  1.00  0.00     0.017 C 
ATOM     21  C   UNL A   1      48.332  26.684  30.238  1.00  0.00    -0.020 C 
ATOM     22  C   UNL A   1      49.793  28.824  30.485  1.00  0.00     0.032 C 
ATOM     23  C   UNL A   1      48.349  28.281  30.273  1.00  0.00     0.006 C 
ATOM     24  C   UNL A   1      46.939  26.159  29.655  1.00  0.00     0.008 C 
ATOM     25  C   UNL A   1      48.272  26.252  31.779  1.00  0.00     0.012 C 
ATOM     26  C   UNL A   1      47.304  29.136  29.346  1.00  0.00    -0.025 C 
ATOM     27  C   UNL A   1      46.014  27.039  28.791  1.00  0.00     0.005 C 
ATOM     28  C   UNL A   1      46.242  29.705  30.339  1.00  0.00     0.012 C 
ATOM     29  C   UNL A   1      47.952  30.378  28.719  1.00  0.00     0.010 C 
ATOM     30  C   UNL A   1      46.661  28.278  28.208  1.00  0.00     0.003 C 
ATOM     31  C   UNL A   1      47.198  31.089  27.596  1.00  0.00     0.033 C 
ATOM     32  C   UNL A   1      45.788  29.062  27.108  1.00  0.00    -0.006 C 
ATOM     33  C   UNL A   1      46.704  30.153  26.505  1.00  0.00     0.120 C 
ATOM     34  C   UNL A   1      44.469  29.710  27.593  1.00  0.00     0.014 C 
ATOM     35  C   UNL A   1      45.360  28.114  25.956  1.00  0.00     0.014 C 
BRANCH  33  36
ATOM     36  O   UNL A   1      46.075  30.902  25.464  1.00  0.00    -0.393 OA
ATOM     37  H   UNL A   1      45.309  31.375  25.824  1.00  0.00     0.210 HD
ENDBRANCH  33  36
ENDBRANCH   4   7
ENDBRANCH   2   3
ENDBRANCH   1   2
BRANCH   1  38
ATOM     38  C   UNL A   1      45.405  24.835  24.852  1.00  0.00     0.118 C 
BRANCH  38  39
ATOM     39  N   UNL A   1      44.489  23.713  24.941  1.00  0.00    -0.352 N 
ATOM     40  C   UNL A   1      43.175  23.672  25.366  1.00  0.00     0.251 C 
ATOM     41  H   UNL A   1      44.862  22.848  24.655  1.00  0.00     0.163 HD
ATOM     42  O   UNL A   1      42.463  22.734  25.065  1.00  0.00    -0.269 OA
BRANCH  40  43
ATOM     43  C   UNL A   1      42.656  24.701  26.298  1.00  0.00     0.039 A 
ATOM     44  C   UNL A   1      42.407  24.287  27.606  1.00  0.00     0.014 A 
ATOM     45  C   UNL A   1      42.381  26.015  25.930  1.00  0.00     0.014 A 
ATOM     46  C   UNL A   1      41.971  25.207  28.564  1.00  0.00     0.010 A 
ATOM     47  C   UNL A   1      42.029  26.953  26.914  1.00  0.00     0.010 A 
ATOM     48  C   UNL A   1      41.834  26.571  28.251  1.00  0.00    -0.014 A 
BRANCH  48  49
ATOM     49  C   UNL A   1      41.495  27.550  29.334  1.00  0.00     0.031 A 
ATOM     50  C   UNL A   1      40.264  28.420  29.256  1.00  0.00     0.074 A 
ATOM     51  C   UNL A   1      42.293  27.655  30.421  1.00  0.00     0.049 A 
ATOM     52  N   UNL A   1      39.775  29.244  30.153  1.00  0.00    -0.248 NA
ATOM     53  C   UNL A   1      39.499  28.393  28.002  1.00  0.00     0.031 C 
ATOM     54  C   UNL A   1      43.565  26.955  30.609  1.00  0.00     0.029 A 
ATOM     55  N   UNL A   1      42.141  28.370  31.588  1.00  0.00    -0.354 N 
ATOM     56  C   UNL A   1      38.659  29.829  29.567  1.00  0.00     0.074 A 
ATOM     57  C   UNL A   1      38.591  29.333  28.211  1.00  0.00     0.031 C 
ATOM     58  C   UNL A   1      44.035  27.212  31.840  1.00  0.00     0.029 A 
ATOM     59  C   UNL A   1      43.125  28.129  32.519  1.00  0.00     0.049 A 
ATOM     60  H   UNL A   1      41.397  28.998  31.741  1.00  0.00     0.167 HD
ATOM     61  C   UNL A   1      37.744  30.667  30.114  1.00  0.00     0.037 A 
ATOM     62  C   UNL A   1      43.276  28.576  33.783  1.00  0.00     0.037 A 
ATOM     63  C   UNL A   1      37.778  31.140  31.473  1.00  0.00     0.049 A 
ATOM     64  C   UNL A   1      42.238  29.495  34.375  1.00  0.00     0.074 A 
ATOM     65  C   UNL A   1      36.853  31.931  32.133  1.00  0.00     0.029 A 
ATOM     66  N   UNL A   1      38.790  30.869  32.381  1.00  0.00    -0.354 N 
ATOM     67  N   UNL A   1      41.131  29.949  33.841  1.00  0.00    -0.248 NA
ATOM     68  C   UNL A   1      42.470  29.958  35.752  1.00  0.00     0.031 C 
ATOM     69  C   UNL A   1      37.333  32.185  33.421  1.00  0.00     0.029 A 
ATOM     70  C   UNL A   1      38.525  31.500  33.586  1.00  0.00     0.049 A 
ATOM     71  H   UNL A   1      39.579  30.310  32.196  1.00  0.00     0.167 HD
ATOM     72  C   UNL A   1      40.523  30.723  34.822  1.00  0.00     0.074 A 
ATOM     73  C   UNL A   1      41.371  30.661  35.991  1.00  0.00     0.031 C 
ATOM     74  C   UNL A   1      39.365  31.425  34.754  1.00  0.00     0.037 A 
BRANCH  61  75
ATOM     75  C   UNL A   1      36.606  31.117  29.239  1.00  0.00     0.064 A 
ATOM     76  C   UNL A   1      35.561  30.248  28.887  1.00  0.00     0.173 A 
ATOM     77  C   UNL A   1      36.539  32.441  28.778  1.00  0.00     0.173 A 
ATOM     78  F   UNL A   1      35.579  28.970  29.294  1.00  0.00    -0.203 F 
ATOM     79  C   UNL A   1      34.516  30.675  28.072  1.00  0.00     0.198 A 
ATOM     80  C   UNL A   1      35.472  32.874  27.994  1.00  0.00     0.198 A 
ATOM     81  F   UNL A   1      37.503  33.318  29.094  1.00  0.00    -0.203 F 
ATOM     82  F   UNL A   1      33.564  29.808  27.698  1.00  0.00    -0.200 F 
ATOM     83  C   UNL A   1      34.469  31.988  27.633  1.00  0.00     0.200 A 
ATOM     84  F   UNL A   1      35.419  34.148  27.585  1.00  0.00    -0.200 F 
ATOM     85  F   UNL A   1      33.458  32.399  26.853  1.00  0.00    -0.200 F 
ENDBRANCH  61  75
BRANCH  62  86
ATOM     86  C   UNL A   1      44.441  28.138  34.601  1.00  0.00     0.064 A 
ATOM     87  C   UNL A   1      45.673  28.806  34.525  1.00  0.00     0.173 A 
ATOM     88  C   UNL A   1      44.360  27.022  35.448  1.00  0.00     0.173 A 
ATOM     89  F   UNL A   1      45.813  29.863  33.711  1.00  0.00    -0.203 F 
ATOM     90  C   UNL A   1      46.783  28.359  35.241  1.00  0.00     0.198 A 
ATOM     91  C   UNL A   1      45.461  26.597  36.190  1.00  0.00     0.198 A 
ATOM     92  F   UNL A   1      43.208  26.345  35.557  1.00  0.00    -0.203 F 
ATOM     93  F   UNL A   1      47.962  28.981  35.101  1.00  0.00    -0.200 F 
ATOM     94  C   UNL A   1      46.675  27.259  36.076  1.00  0.00     0.200 A 
ATOM     95  F   UNL A   1      45.350  25.540  37.005  1.00  0.00    -0.200 F 
ATOM     96  F   UNL A   1      47.742  26.829  36.763  1.00  0.00    -0.200 F 
ENDBRANCH  62  86
BRANCH  74  97
ATOM     97  C   UNL A   1      38.917  32.155  35.989  1.00  0.00     0.064 A 
ATOM     98  C   UNL A   1      38.161  31.525  36.988  1.00  0.00     0.173 A 
ATOM     99  C   UNL A   1      39.290  33.492  36.196  1.00  0.00     0.173 A 
ATOM    100  F   UNL A   1      37.766  30.252  36.836  1.00  0.00    -0.203 F 
ATOM    101  C   UNL A   1      37.773  32.213  38.136  1.00  0.00     0.198 A 
ATOM    102  C   UNL A   1      38.932  34.167  37.360  1.00  0.00     0.198 A 
ATOM    103  F   UNL A   1      40.021  34.142  35.277  1.00  0.00    -0.203 F 
ATOM    104  F   UNL A   1      37.009  31.606  39.054  1.00  0.00    -0.200 F 
ATOM    105  C   UNL A   1      38.166  33.531  38.325  1.00  0.00     0.200 A 
ATOM    106  F   UNL A   1      39.328  35.433  37.549  1.00  0.00    -0.200 F 
ATOM    107  F   UNL A   1      37.803  34.187  39.435  1.00  0.00    -0.200 F 
ENDBRANCH  74  97
ENDBRANCH  48  49
ENDBRANCH  40  43
ENDBRANCH  38  39
ENDBRANCH   1  38
TORSDOF 11
ENDMDL
