MODEL 1
REMARK VINA RESULT:     -13.7      0.000      0.000
REMARK SMILES O=C(NCCCNC(=O)[C@H]1CCCN(C(=O)c2ccc(NC(=O)c3ccccc3)cc2)C1)c1ccc(-c2c3nc(c(-c4c(F)c(F)c(F)c(F)c4F)c4ccc([nH]4)c(-c4c(F)c(F)c(F)c(F)c4F)c4nc(c(-c5c(F)c(F)c(F)c(F)c5F)c5ccc2[nH]5)C=C4)C=C3)cc1
REMARK SMILES IDX 6 1 5 2 4 3 3 4 1 5 2 6 33 8 34 9 95 10 35 11 94 12 36 13
REMARK SMILES IDX 37 14 38 15 88 16 39 17 93 18 87 19 89 20 40 21 92 22 86 23
REMARK SMILES IDX 85 24 41 26 73 27 53 28 72 29 54 30 57 31 71 32 90 33 55 34
REMARK SMILES IDX 56 35 70 37 91 38 58 39 42 40 43 41 51 42 44 43 45 44 49 45
REMARK SMILES IDX 52 46 46 47 47 48 50 49 48 50 74 51 75 52 83 53 76 54 77 55
REMARK SMILES IDX 81 56 84 57 78 58 79 59 82 60 80 61 59 62 60 63 68 64 61 65
REMARK SMILES IDX 62 66 66 67 69 68 63 69 64 70 67 71 65 72 7 73 8 74 9 76
REMARK SMILES IDX 10 77 11 78 32 79 12 80 14 81 13 82 15 83 16 84 17 85 18 86
REMARK SMILES IDX 31 87 19 88 30 89 20 90 21 91 22 92 23 94 24 95 25 96 29 97
REMARK SMILES IDX 26 98 28 99 27 100
REMARK H PARENT 3 7 89 25 57 36 7 75 21 93
REMARK Flexibility Score: inf
ROOT
ATOM      1  C   UNL A   1      31.550  30.925  25.922  1.00  0.00     0.117 C 
ENDROOT
BRANCH   1   2
ATOM      2  C   UNL A   1      31.346  32.308  26.541  1.00  0.00     0.042 C 
BRANCH   2   3
ATOM      3  C   UNL A   1      32.593  32.813  27.261  1.00  0.00     0.118 C 
BRANCH   3   4
ATOM      4  N   UNL A   1      32.468  34.220  27.612  1.00  0.00    -0.352 N 
ATOM      5  O   UNL A   1      32.556  36.011  28.961  1.00  0.00    -0.269 OA
ATOM      6  C   UNL A   1      33.029  34.925  28.644  1.00  0.00     0.251 C 
ATOM      7  H   UNL A   1      31.891  34.747  27.014  1.00  0.00     0.163 HD
BRANCH   6   8
ATOM      8  C   UNL A   1      34.210  34.401  29.363  1.00  0.00     0.039 A 
ATOM      9  C   UNL A   1      34.066  33.656  30.537  1.00  0.00     0.014 A 
ATOM     10  C   UNL A   1      35.474  34.570  28.791  1.00  0.00     0.014 A 
ATOM     11  C   UNL A   1      35.190  33.156  31.187  1.00  0.00     0.010 A 
ATOM     12  C   UNL A   1      36.594  34.006  29.404  1.00  0.00     0.010 A 
ATOM     13  C   UNL A   1      36.461  33.303  30.611  1.00  0.00    -0.014 A 
BRANCH  13  14
ATOM     14  C   UNL A   1      37.639  32.655  31.234  1.00  0.00     0.031 A 
ATOM     15  C   UNL A   1      38.347  31.533  30.538  1.00  0.00     0.074 A 
ATOM     16  C   UNL A   1      38.038  33.064  32.452  1.00  0.00     0.049 A 
ATOM     17  N   UNL A   1      39.330  30.783  30.967  1.00  0.00    -0.248 NA
ATOM     18  C   UNL A   1      37.880  31.199  29.184  1.00  0.00     0.031 C 
ATOM     19  C   UNL A   1      37.416  34.142  33.222  1.00  0.00     0.029 A 
ATOM     20  N   UNL A   1      39.049  32.615  33.263  1.00  0.00    -0.354 N 
ATOM     21  C   UNL A   1      39.583  29.873  29.950  1.00  0.00     0.074 A 
ATOM     22  C   UNL A   1      38.636  30.151  28.889  1.00  0.00     0.031 C 
ATOM     23  C   UNL A   1      38.061  34.277  34.389  1.00  0.00     0.029 A 
ATOM     24  C   UNL A   1      39.101  33.257  34.474  1.00  0.00     0.049 A 
ATOM     25  H   UNL A   1      39.676  31.902  33.001  1.00  0.00     0.167 HD
ATOM     26  C   UNL A   1      40.522  28.898  29.911  1.00  0.00     0.037 A 
ATOM     27  C   UNL A   1      39.875  33.027  35.551  1.00  0.00     0.037 A 
ATOM     28  C   UNL A   1      41.462  28.640  30.971  1.00  0.00     0.049 A 
ATOM     29  C   UNL A   1      40.892  31.924  35.495  1.00  0.00     0.074 A 
ATOM     30  C   UNL A   1      42.481  27.706  31.014  1.00  0.00     0.029 A 
ATOM     31  N   UNL A   1      41.490  29.318  32.183  1.00  0.00    -0.354 N 
ATOM     32  N   UNL A   1      41.148  31.091  34.516  1.00  0.00    -0.248 NA
ATOM     33  C   UNL A   1      41.724  31.727  36.688  1.00  0.00     0.031 C 
ATOM     34  C   UNL A   1      43.093  27.784  32.270  1.00  0.00     0.029 A 
ATOM     35  C   UNL A   1      42.492  28.804  32.991  1.00  0.00     0.049 A 
ATOM     36  H   UNL A   1      40.886  30.054  32.432  1.00  0.00     0.167 HD
ATOM     37  C   UNL A   1      42.185  30.286  34.962  1.00  0.00     0.074 A 
ATOM     38  C   UNL A   1      42.513  30.733  36.301  1.00  0.00     0.031 C 
ATOM     39  C   UNL A   1      42.809  29.270  34.318  1.00  0.00     0.037 A 
BRANCH  26  40
ATOM     40  C   UNL A   1      40.553  28.017  28.695  1.00  0.00     0.064 A 
ATOM     41  C   UNL A   1      41.301  28.349  27.557  1.00  0.00     0.173 A 
ATOM     42  C   UNL A   1      39.828  26.815  28.674  1.00  0.00     0.173 A 
ATOM     43  F   UNL A   1      42.003  29.493  27.520  1.00  0.00    -0.203 F 
ATOM     44  C   UNL A   1      41.294  27.531  26.429  1.00  0.00     0.198 A 
ATOM     45  C   UNL A   1      39.848  25.984  27.557  1.00  0.00     0.198 A 
ATOM     46  F   UNL A   1      39.100  26.444  29.738  1.00  0.00    -0.203 F 
ATOM     47  F   UNL A   1      41.972  27.899  25.333  1.00  0.00    -0.200 F 
ATOM     48  C   UNL A   1      40.572  26.347  26.432  1.00  0.00     0.200 A 
ATOM     49  F   UNL A   1      39.158  24.834  27.566  1.00  0.00    -0.200 F 
ATOM     50  F   UNL A   1      40.566  25.562  25.345  1.00  0.00    -0.200 F 
ENDBRANCH  26  40
BRANCH  27  51
ATOM     51  C   UNL A   1      39.694  33.864  36.763  1.00  0.00     0.064 A 
ATOM     52  C   UNL A   1      40.296  35.124  36.866  1.00  0.00     0.173 A 
ATOM     53  C   UNL A   1      38.861  33.448  37.812  1.00  0.00     0.173 A 
ATOM     54  F   UNL A   1      41.112  35.558  35.895  1.00  0.00    -0.203 F 
ATOM     55  C   UNL A   1      40.070  35.939  37.974  1.00  0.00     0.198 A 
ATOM     56  C   UNL A   1      38.616  34.274  38.907  1.00  0.00     0.198 A 
ATOM     57  F   UNL A   1      38.255  32.253  37.755  1.00  0.00    -0.203 F 
ATOM     58  F   UNL A   1      40.672  37.133  38.059  1.00  0.00    -0.200 F 
ATOM     59  C   UNL A   1      39.222  35.518  38.988  1.00  0.00     0.200 A 
ATOM     60  F   UNL A   1      37.780  33.871  39.874  1.00  0.00    -0.200 F 
ATOM     61  F   UNL A   1      38.988  36.312  40.041  1.00  0.00    -0.200 F 
ENDBRANCH  27  51
BRANCH  39  62
ATOM     62  C   UNL A   1      43.941  28.594  35.032  1.00  0.00     0.064 A 
ATOM     63  C   UNL A   1      43.747  27.421  35.774  1.00  0.00     0.173 A 
ATOM     64  C   UNL A   1      45.247  29.093  34.913  1.00  0.00     0.173 A 
ATOM     65  F   UNL A   1      42.515  26.916  35.929  1.00  0.00    -0.203 F 
ATOM     66  C   UNL A   1      44.822  26.775  36.378  1.00  0.00     0.198 A 
ATOM     67  C   UNL A   1      46.322  28.431  35.497  1.00  0.00     0.198 A 
ATOM     68  F   UNL A   1      45.482  30.212  34.210  1.00  0.00    -0.203 F 
ATOM     69  F   UNL A   1      44.613  25.670  37.107  1.00  0.00    -0.200 F 
ATOM     70  C   UNL A   1      46.109  27.274  36.232  1.00  0.00     0.200 A 
ATOM     71  F   UNL A   1      47.564  28.908  35.344  1.00  0.00    -0.200 F 
ATOM     72  F   UNL A   1      47.144  26.641  36.800  1.00  0.00    -0.200 F 
ENDBRANCH  39  62
ENDBRANCH  13  14
ENDBRANCH   6   8
ENDBRANCH   3   4
ENDBRANCH   2   3
ENDBRANCH   1   2
BRANCH   1  73
ATOM     73  N   UNL A   1      30.662  30.716  24.792  1.00  0.00    -0.356 N 
ATOM     74  C   UNL A   1      30.502  29.715  23.892  1.00  0.00     0.224 C 
ATOM     75  H   UNL A   1      30.042  31.467  24.646  1.00  0.00     0.163 HD
ATOM     76  O   UNL A   1      29.683  29.953  22.996  1.00  0.00    -0.275 OA
BRANCH  74  77
ATOM     77  C   UNL A   1      31.166  28.333  23.985  1.00  0.00     0.098 C 
ATOM     78  C   UNL A   1      32.688  28.505  23.809  1.00  0.00     0.017 C 
ATOM     79  C   UNL A   1      30.897  27.540  25.257  1.00  0.00     0.133 C 
ATOM     80  C   UNL A   1      33.415  27.169  23.862  1.00  0.00     0.022 C 
ATOM     81  N   UNL A   1      31.671  26.312  25.401  1.00  0.00    -0.338 N 
ATOM     82  C   UNL A   1      33.104  26.403  25.139  1.00  0.00     0.120 C 
BRANCH  81  83
ATOM     83  C   UNL A   1      31.017  25.235  26.010  1.00  0.00     0.253 C 
ATOM     84  O   UNL A   1      29.917  25.328  26.555  1.00  0.00    -0.269 OA
BRANCH  83  85
ATOM     85  C   UNL A   1      31.588  23.883  25.915  1.00  0.00     0.040 A 
ATOM     86  C   UNL A   1      31.288  23.152  24.766  1.00  0.00     0.016 A 
ATOM     87  C   UNL A   1      32.355  23.313  26.930  1.00  0.00     0.016 A 
ATOM     88  C   UNL A   1      31.849  21.892  24.583  1.00  0.00     0.027 A 
ATOM     89  C   UNL A   1      32.939  22.059  26.723  1.00  0.00     0.027 A 
ATOM     90  C   UNL A   1      32.749  21.374  25.514  1.00  0.00     0.041 A 
BRANCH  90  91
ATOM     91  N   UNL A   1      33.492  20.196  25.315  1.00  0.00    -0.322 N 
ATOM     92  C   UNL A   1      34.790  19.990  24.893  1.00  0.00     0.255 C 
ATOM     93  H   UNL A   1      32.996  19.370  25.513  1.00  0.00     0.170 HD
ATOM     94  O   UNL A   1      35.177  18.852  24.637  1.00  0.00    -0.269 OA
BRANCH  92  95
ATOM     95  C   UNL A   1      35.755  21.104  24.789  1.00  0.00     0.040 A 
ATOM     96  C   UNL A   1      35.442  22.179  23.951  1.00  0.00     0.014 A 
ATOM     97  C   UNL A   1      36.945  21.108  25.529  1.00  0.00     0.014 A 
ATOM     98  C   UNL A   1      36.281  23.293  23.916  1.00  0.00     0.001 A 
ATOM     99  C   UNL A   1      37.774  22.230  25.497  1.00  0.00     0.001 A 
ATOM    100  C   UNL A   1      37.435  23.324  24.700  1.00  0.00     0.000 A 
ENDBRANCH  92  95
ENDBRANCH  90  91
ENDBRANCH  83  85
ENDBRANCH  81  83
ENDBRANCH  74  77
ENDBRANCH   1  73
TORSDOF 14
ENDMDL
MODEL 2
REMARK VINA RESULT:     -13.7      0.232      1.898
REMARK SMILES O=C(NCCCNC(=O)[C@H]1CCCN(C(=O)c2ccc(NC(=O)c3ccccc3)cc2)C1)c1ccc(-c2c3nc(c(-c4c(F)c(F)c(F)c(F)c4F)c4ccc([nH]4)c(-c4c(F)c(F)c(F)c(F)c4F)c4nc(c(-c5c(F)c(F)c(F)c(F)c5F)c5ccc2[nH]5)C=C4)C=C3)cc1
REMARK SMILES IDX 6 1 5 2 4 3 3 4 1 5 2 6 33 8 34 9 95 10 35 11 94 12 36 13
REMARK SMILES IDX 37 14 38 15 88 16 39 17 93 18 87 19 89 20 40 21 92 22 86 23
REMARK SMILES IDX 85 24 41 26 73 27 53 28 72 29 54 30 57 31 71 32 90 33 55 34
REMARK SMILES IDX 56 35 70 37 91 38 58 39 42 40 43 41 51 42 44 43 45 44 49 45
REMARK SMILES IDX 52 46 46 47 47 48 50 49 48 50 74 51 75 52 83 53 76 54 77 55
REMARK SMILES IDX 81 56 84 57 78 58 79 59 82 60 80 61 59 62 60 63 68 64 61 65
REMARK SMILES IDX 62 66 66 67 69 68 63 69 64 70 67 71 65 72 7 73 8 74 9 76
REMARK SMILES IDX 10 77 11 78 32 79 12 80 14 81 13 82 15 83 16 84 17 85 18 86
REMARK SMILES IDX 31 87 19 88 30 89 20 90 21 91 22 92 23 94 24 95 25 96 29 97
REMARK SMILES IDX 26 98 28 99 27 100
REMARK H PARENT 3 7 89 25 57 36 7 75 21 93
REMARK Flexibility Score: inf
ROOT
ATOM      1  C   UNL A   1      31.527  30.974  25.926  1.00  0.00     0.117 C 
ENDROOT
BRANCH   1   2
ATOM      2  C   UNL A   1      31.307  32.345  26.568  1.00  0.00     0.042 C 
BRANCH   2   3
ATOM      3  C   UNL A   1      32.542  32.845  27.311  1.00  0.00     0.118 C 
BRANCH   3   4
ATOM      4  N   UNL A   1      32.430  34.260  27.631  1.00  0.00    -0.352 N 
ATOM      5  O   UNL A   1      32.534  36.079  28.942  1.00  0.00    -0.269 OA
ATOM      6  C   UNL A   1      32.997  34.982  28.649  1.00  0.00     0.251 C 
ATOM      7  H   UNL A   1      31.858  34.779  27.022  1.00  0.00     0.163 HD
BRANCH   6   8
ATOM      8  C   UNL A   1      34.173  34.463  29.380  1.00  0.00     0.039 A 
ATOM      9  C   UNL A   1      34.023  33.768  30.583  1.00  0.00     0.014 A 
ATOM     10  C   UNL A   1      35.435  34.582  28.792  1.00  0.00     0.014 A 
ATOM     11  C   UNL A   1      35.141  33.271  31.245  1.00  0.00     0.010 A 
ATOM     12  C   UNL A   1      36.548  34.020  29.420  1.00  0.00     0.010 A 
ATOM     13  C   UNL A   1      36.410  33.369  30.655  1.00  0.00    -0.014 A 
BRANCH  13  14
ATOM     14  C   UNL A   1      37.580  32.723  31.294  1.00  0.00     0.031 A 
ATOM     15  C   UNL A   1      38.274  31.574  30.627  1.00  0.00     0.074 A 
ATOM     16  C   UNL A   1      37.983  33.157  32.502  1.00  0.00     0.049 A 
ATOM     17  N   UNL A   1      39.248  30.823  31.076  1.00  0.00    -0.248 NA
ATOM     18  C   UNL A   1      37.804  31.212  29.282  1.00  0.00     0.031 C 
ATOM     19  C   UNL A   1      37.374  34.261  33.245  1.00  0.00     0.029 A 
ATOM     20  N   UNL A   1      38.988  32.716  33.326  1.00  0.00    -0.354 N 
ATOM     21  C   UNL A   1      39.490  29.885  30.082  1.00  0.00     0.074 A 
ATOM     22  C   UNL A   1      38.547  30.148  29.014  1.00  0.00     0.031 C 
ATOM     23  C   UNL A   1      38.020  34.418  34.408  1.00  0.00     0.029 A 
ATOM     24  C   UNL A   1      39.047  33.387  34.520  1.00  0.00     0.049 A 
ATOM     25  H   UNL A   1      39.606  31.988  33.082  1.00  0.00     0.167 HD
ATOM     26  C   UNL A   1      40.416  28.897  30.069  1.00  0.00     0.037 A 
ATOM     27  C   UNL A   1      39.818  33.174  35.603  1.00  0.00     0.037 A 
ATOM     28  C   UNL A   1      41.352  28.655  31.136  1.00  0.00     0.049 A 
ATOM     29  C   UNL A   1      40.820  32.058  35.576  1.00  0.00     0.074 A 
ATOM     30  C   UNL A   1      42.360  27.709  31.203  1.00  0.00     0.029 A 
ATOM     31  N   UNL A   1      41.388  29.362  32.330  1.00  0.00    -0.354 N 
ATOM     32  N   UNL A   1      41.067  31.197  34.618  1.00  0.00    -0.248 NA
ATOM     33  C   UNL A   1      41.650  31.880  36.774  1.00  0.00     0.031 C 
ATOM     34  C   UNL A   1      42.972  27.811  32.457  1.00  0.00     0.029 A 
ATOM     35  C   UNL A   1      42.383  28.856  33.152  1.00  0.00     0.049 A 
ATOM     36  H   UNL A   1      40.793  30.111  32.561  1.00  0.00     0.167 HD
ATOM     37  C   UNL A   1      42.093  30.390  35.085  1.00  0.00     0.074 A 
ATOM     38  C   UNL A   1      42.426  30.867  36.413  1.00  0.00     0.031 C 
ATOM     39  C   UNL A   1      42.705  29.351  34.467  1.00  0.00     0.037 A 
BRANCH  26  40
ATOM     40  C   UNL A   1      40.437  27.986  28.875  1.00  0.00     0.064 A 
ATOM     41  C   UNL A   1      39.683  26.804  28.831  1.00  0.00     0.173 A 
ATOM     42  C   UNL A   1      41.218  28.306  27.754  1.00  0.00     0.173 A 
ATOM     43  F   UNL A   1      38.928  26.445  29.881  1.00  0.00    -0.203 F 
ATOM     44  C   UNL A   1      39.737  25.959  27.724  1.00  0.00     0.198 A 
ATOM     45  C   UNL A   1      41.247  27.475  26.638  1.00  0.00     0.198 A 
ATOM     46  F   UNL A   1      41.954  29.427  27.740  1.00  0.00    -0.203 F 
ATOM     47  F   UNL A   1      39.051  24.808  27.729  1.00  0.00    -0.200 F 
ATOM     48  C   UNL A   1      40.515  26.298  26.628  1.00  0.00     0.200 A 
ATOM     49  F   UNL A   1      41.990  27.809  25.573  1.00  0.00    -0.200 F 
ATOM     50  F   UNL A   1      40.567  25.482  25.565  1.00  0.00    -0.200 F 
ENDBRANCH  26  40
BRANCH  27  51
ATOM     51  C   UNL A   1      39.646  34.044  36.793  1.00  0.00     0.064 A 
ATOM     52  C   UNL A   1      38.840  33.648  37.867  1.00  0.00     0.173 A 
ATOM     53  C   UNL A   1      40.340  35.259  36.908  1.00  0.00     0.173 A 
ATOM     54  F   UNL A   1      38.146  32.503  37.796  1.00  0.00    -0.203 F 
ATOM     55  C   UNL A   1      38.734  34.434  39.013  1.00  0.00     0.198 A 
ATOM     56  C   UNL A   1      40.253  36.030  38.065  1.00  0.00     0.198 A 
ATOM     57  F   UNL A   1      41.132  35.676  35.910  1.00  0.00    -0.203 F 
ATOM     58  F   UNL A   1      37.941  34.042  40.020  1.00  0.00    -0.200 F 
ATOM     59  C   UNL A   1      39.449  35.618  39.115  1.00  0.00     0.200 A 
ATOM     60  F   UNL A   1      40.961  37.164  38.166  1.00  0.00    -0.200 F 
ATOM     61  F   UNL A   1      39.364  36.361  40.227  1.00  0.00    -0.200 F 
ENDBRANCH  27  51
BRANCH  39  62
ATOM     62  C   UNL A   1      43.828  28.679  35.199  1.00  0.00     0.064 A 
ATOM     63  C   UNL A   1      45.160  29.083  35.034  1.00  0.00     0.173 A 
ATOM     64  C   UNL A   1      43.555  27.666  36.131  1.00  0.00     0.173 A 
ATOM     65  F   UNL A   1      45.471  30.036  34.143  1.00  0.00    -0.203 F 
ATOM     66  C   UNL A   1      46.181  28.487  35.769  1.00  0.00     0.198 A 
ATOM     67  C   UNL A   1      44.575  27.091  36.882  1.00  0.00     0.198 A 
ATOM     68  F   UNL A   1      42.295  27.249  36.327  1.00  0.00    -0.203 F 
ATOM     69  F   UNL A   1      47.452  28.866  35.575  1.00  0.00    -0.200 F 
ATOM     70  C   UNL A   1      45.888  27.500  36.698  1.00  0.00     0.200 A 
ATOM     71  F   UNL A   1      44.287  26.146  37.787  1.00  0.00    -0.200 F 
ATOM     72  F   UNL A   1      46.870  26.940  37.417  1.00  0.00    -0.200 F 
ENDBRANCH  39  62
ENDBRANCH  13  14
ENDBRANCH   6   8
ENDBRANCH   3   4
ENDBRANCH   2   3
ENDBRANCH   1   2
BRANCH   1  73
ATOM     73  N   UNL A   1      30.644  30.774  24.791  1.00  0.00    -0.356 N 
ATOM     74  C   UNL A   1      30.485  29.778  23.885  1.00  0.00     0.224 C 
ATOM     75  H   UNL A   1      30.025  31.527  24.648  1.00  0.00     0.163 HD
ATOM     76  O   UNL A   1      29.670  30.024  22.987  1.00  0.00    -0.275 OA
BRANCH  74  77
ATOM     77  C   UNL A   1      31.145  28.394  23.972  1.00  0.00     0.098 C 
ATOM     78  C   UNL A   1      32.668  28.564  23.797  1.00  0.00     0.017 C 
ATOM     79  C   UNL A   1      30.874  27.597  25.241  1.00  0.00     0.133 C 
ATOM     80  C   UNL A   1      33.392  27.226  23.846  1.00  0.00     0.022 C 
ATOM     81  N   UNL A   1      31.646  26.366  25.380  1.00  0.00    -0.338 N 
ATOM     82  C   UNL A   1      33.078  26.455  25.119  1.00  0.00     0.120 C 
BRANCH  81  83
ATOM     83  C   UNL A   1      30.988  25.288  25.984  1.00  0.00     0.253 C 
ATOM     84  O   UNL A   1      29.879  25.378  26.512  1.00  0.00    -0.269 OA
BRANCH  83  85
ATOM     85  C   UNL A   1      31.569  23.939  25.905  1.00  0.00     0.040 A 
ATOM     86  C   UNL A   1      31.246  23.180  24.781  1.00  0.00     0.016 A 
ATOM     87  C   UNL A   1      32.368  23.400  26.912  1.00  0.00     0.016 A 
ATOM     88  C   UNL A   1      31.813  21.921  24.611  1.00  0.00     0.027 A 
ATOM     89  C   UNL A   1      32.957  22.146  26.718  1.00  0.00     0.027 A 
ATOM     90  C   UNL A   1      32.742  21.432  25.530  1.00  0.00     0.041 A 
BRANCH  90  91
ATOM     91  N   UNL A   1      33.490  20.256  25.338  1.00  0.00    -0.322 N 
ATOM     92  C   UNL A   1      34.792  20.054  24.926  1.00  0.00     0.255 C 
ATOM     93  H   UNL A   1      32.995  19.429  25.533  1.00  0.00     0.170 HD
ATOM     94  O   UNL A   1      35.184  18.917  24.674  1.00  0.00    -0.269 OA
BRANCH  92  95
ATOM     95  C   UNL A   1      35.754  21.170  24.827  1.00  0.00     0.040 A 
ATOM     96  C   UNL A   1      35.508  22.179  23.890  1.00  0.00     0.014 A 
ATOM     97  C   UNL A   1      36.874  21.243  25.668  1.00  0.00     0.014 A 
ATOM     98  C   UNL A   1      36.339  23.299  23.850  1.00  0.00     0.001 A 
ATOM     99  C   UNL A   1      37.694  22.371  25.628  1.00  0.00     0.001 A 
ATOM    100  C   UNL A   1      37.419  23.402  24.728  1.00  0.00     0.000 A 
ENDBRANCH  92  95
ENDBRANCH  90  91
ENDBRANCH  83  85
ENDBRANCH  81  83
ENDBRANCH  74  77
ENDBRANCH   1  73
TORSDOF 14
ENDMDL
MODEL 3
REMARK VINA RESULT:     -13.5      4.724     10.809
REMARK SMILES O=C(NCCCNC(=O)[C@H]1CCCN(C(=O)c2ccc(NC(=O)c3ccccc3)cc2)C1)c1ccc(-c2c3nc(c(-c4c(F)c(F)c(F)c(F)c4F)c4ccc([nH]4)c(-c4c(F)c(F)c(F)c(F)c4F)c4nc(c(-c5c(F)c(F)c(F)c(F)c5F)c5ccc2[nH]5)C=C4)C=C3)cc1
REMARK SMILES IDX 6 1 5 2 4 3 3 4 1 5 2 6 33 8 34 9 95 10 35 11 94 12 36 13
REMARK SMILES IDX 37 14 38 15 88 16 39 17 93 18 87 19 89 20 40 21 92 22 86 23
REMARK SMILES IDX 85 24 41 26 73 27 53 28 72 29 54 30 57 31 71 32 90 33 55 34
REMARK SMILES IDX 56 35 70 37 91 38 58 39 42 40 43 41 51 42 44 43 45 44 49 45
REMARK SMILES IDX 52 46 46 47 47 48 50 49 48 50 74 51 75 52 83 53 76 54 77 55
REMARK SMILES IDX 81 56 84 57 78 58 79 59 82 60 80 61 59 62 60 63 68 64 61 65
REMARK SMILES IDX 62 66 66 67 69 68 63 69 64 70 67 71 65 72 7 73 8 74 9 76
REMARK SMILES IDX 10 77 11 78 32 79 12 80 14 81 13 82 15 83 16 84 17 85 18 86
REMARK SMILES IDX 31 87 19 88 30 89 20 90 21 91 22 92 23 94 24 95 25 96 29 97
REMARK SMILES IDX 26 98 28 99 27 100
REMARK H PARENT 3 7 89 25 57 36 7 75 21 93
REMARK Flexibility Score: inf
ROOT
ATOM      1  C   UNL A   1      35.355  34.089  31.427  1.00  0.00     0.117 C 
ENDROOT
BRANCH   1   2
ATOM      2  C   UNL A   1      34.739  32.827  30.821  1.00  0.00     0.042 C 
BRANCH   2   3
ATOM      3  C   UNL A   1      35.142  32.627  29.362  1.00  0.00     0.118 C 
BRANCH   3   4
ATOM      4  N   UNL A   1      34.384  31.546  28.748  1.00  0.00    -0.352 N 
ATOM      5  O   UNL A   1      34.052  29.790  27.392  1.00  0.00    -0.269 OA
ATOM      6  C   UNL A   1      34.821  30.410  28.119  1.00  0.00     0.251 C 
ATOM      7  H   UNL A   1      33.407  31.648  28.793  1.00  0.00     0.163 HD
BRANCH   6   8
ATOM      8  C   UNL A   1      36.197  29.912  28.325  1.00  0.00     0.039 A 
ATOM      9  C   UNL A   1      37.177  30.078  27.342  1.00  0.00     0.014 A 
ATOM     10  C   UNL A   1      36.535  29.368  29.567  1.00  0.00     0.014 A 
ATOM     11  C   UNL A   1      38.472  29.620  27.565  1.00  0.00     0.010 A 
ATOM     12  C   UNL A   1      37.851  28.975  29.817  1.00  0.00     0.010 A 
ATOM     13  C   UNL A   1      38.826  29.089  28.815  1.00  0.00    -0.014 A 
BRANCH  13  14
ATOM     14  C   UNL A   1      40.235  28.726  29.096  1.00  0.00     0.031 A 
ATOM     15  C   UNL A   1      41.151  29.698  29.775  1.00  0.00     0.074 A 
ATOM     16  C   UNL A   1      40.689  27.525  28.695  1.00  0.00     0.049 A 
ATOM     17  N   UNL A   1      42.433  29.596  30.016  1.00  0.00    -0.248 NA
ATOM     18  C   UNL A   1      40.550  30.959  30.233  1.00  0.00     0.031 C 
ATOM     19  C   UNL A   1      39.885  26.505  28.018  1.00  0.00     0.029 A 
ATOM     20  N   UNL A   1      41.937  26.961  28.783  1.00  0.00    -0.354 N 
ATOM     21  C   UNL A   1      42.798  30.787  30.629  1.00  0.00     0.074 A 
ATOM     22  C   UNL A   1      41.606  31.605  30.706  1.00  0.00     0.031 C 
ATOM     23  C   UNL A   1      40.656  25.439  27.760  1.00  0.00     0.029 A 
ATOM     24  C   UNL A   1      42.018  25.724  28.197  1.00  0.00     0.049 A 
ATOM     25  H   UNL A   1      42.698  27.402  29.226  1.00  0.00     0.167 HD
ATOM     26  C   UNL A   1      44.019  31.155  31.085  1.00  0.00     0.037 A 
ATOM     27  C   UNL A   1      43.080  24.921  27.997  1.00  0.00     0.037 A 
ATOM     28  C   UNL A   1      45.193  30.326  31.009  1.00  0.00     0.049 A 
ATOM     29  C   UNL A   1      44.428  25.362  28.488  1.00  0.00     0.074 A 
ATOM     30  C   UNL A   1      46.468  30.586  31.480  1.00  0.00     0.029 A 
ATOM     31  N   UNL A   1      45.236  29.072  30.413  1.00  0.00    -0.354 N 
ATOM     32  N   UNL A   1      44.758  26.474  29.099  1.00  0.00    -0.248 NA
ATOM     33  C   UNL A   1      45.550  24.442  28.264  1.00  0.00     0.031 C 
ATOM     34  C   UNL A   1      47.293  29.513  31.125  1.00  0.00     0.029 A 
ATOM     35  C   UNL A   1      46.521  28.558  30.481  1.00  0.00     0.049 A 
ATOM     36  H   UNL A   1      44.467  28.616  30.001  1.00  0.00     0.167 HD
ATOM     37  C   UNL A   1      46.118  26.380  29.353  1.00  0.00     0.074 A 
ATOM     38  C   UNL A   1      46.552  25.099  28.833  1.00  0.00     0.031 C 
ATOM     39  C   UNL A   1      46.931  27.275  29.965  1.00  0.00     0.037 A 
BRANCH  26  40
ATOM     40  C   UNL A   1      44.150  32.530  31.675  1.00  0.00     0.064 A 
ATOM     41  C   UNL A   1      44.116  32.750  33.060  1.00  0.00     0.173 A 
ATOM     42  C   UNL A   1      44.321  33.645  30.840  1.00  0.00     0.173 A 
ATOM     43  F   UNL A   1      43.943  31.720  33.903  1.00  0.00    -0.203 F 
ATOM     44  C   UNL A   1      44.212  34.037  33.585  1.00  0.00     0.198 A 
ATOM     45  C   UNL A   1      44.446  34.927  31.369  1.00  0.00     0.198 A 
ATOM     46  F   UNL A   1      44.366  33.493  29.508  1.00  0.00    -0.203 F 
ATOM     47  F   UNL A   1      44.120  34.227  34.908  1.00  0.00    -0.200 F 
ATOM     48  C   UNL A   1      44.382  35.123  32.740  1.00  0.00     0.200 A 
ATOM     49  F   UNL A   1      44.622  35.975  30.551  1.00  0.00    -0.200 F 
ATOM     50  F   UNL A   1      44.472  36.361  33.247  1.00  0.00    -0.200 F 
ENDBRANCH  26  40
BRANCH  27  51
ATOM     51  C   UNL A   1      42.887  23.630  27.291  1.00  0.00     0.064 A 
ATOM     52  C   UNL A   1      43.276  23.473  25.955  1.00  0.00     0.173 A 
ATOM     53  C   UNL A   1      42.371  22.510  27.960  1.00  0.00     0.173 A 
ATOM     54  F   UNL A   1      43.760  24.519  25.271  1.00  0.00    -0.203 F 
ATOM     55  C   UNL A   1      43.157  22.241  25.314  1.00  0.00     0.198 A 
ATOM     56  C   UNL A   1      42.278  21.273  27.325  1.00  0.00     0.198 A 
ATOM     57  F   UNL A   1      41.993  22.609  29.243  1.00  0.00    -0.203 F 
ATOM     58  F   UNL A   1      43.519  22.120  24.029  1.00  0.00    -0.200 F 
ATOM     59  C   UNL A   1      42.669  21.141  26.003  1.00  0.00     0.200 A 
ATOM     60  F   UNL A   1      41.823  20.208  28.001  1.00  0.00    -0.200 F 
ATOM     61  F   UNL A   1      42.577  19.952  25.391  1.00  0.00    -0.200 F 
ENDBRANCH  27  51
BRANCH  39  62
ATOM     62  C   UNL A   1      48.368  26.888  30.146  1.00  0.00     0.064 A 
ATOM     63  C   UNL A   1      48.775  26.034  31.180  1.00  0.00     0.173 A 
ATOM     64  C   UNL A   1      49.337  27.324  29.229  1.00  0.00     0.173 A 
ATOM     65  F   UNL A   1      47.888  25.605  32.090  1.00  0.00    -0.203 F 
ATOM     66  C   UNL A   1      50.105  25.637  31.294  1.00  0.00     0.198 A 
ATOM     67  C   UNL A   1      50.659  26.905  29.332  1.00  0.00     0.198 A 
ATOM     68  F   UNL A   1      48.994  28.140  28.221  1.00  0.00    -0.203 F 
ATOM     69  F   UNL A   1      50.481  24.843  32.307  1.00  0.00    -0.200 F 
ATOM     70  C   UNL A   1      51.043  26.064  30.366  1.00  0.00     0.200 A 
ATOM     71  F   UNL A   1      51.560  27.309  28.427  1.00  0.00    -0.200 F 
ATOM     72  F   UNL A   1      52.319  25.668  30.468  1.00  0.00    -0.200 F 
ENDBRANCH  39  62
ENDBRANCH  13  14
ENDBRANCH   6   8
ENDBRANCH   3   4
ENDBRANCH   2   3
ENDBRANCH   1   2
BRANCH   1  73
ATOM     73  N   UNL A   1      36.661  34.366  30.857  1.00  0.00    -0.356 N 
ATOM     74  C   UNL A   1      37.934  34.146  31.267  1.00  0.00     0.224 C 
ATOM     75  H   UNL A   1      36.611  34.812  29.980  1.00  0.00     0.163 HD
ATOM     76  O   UNL A   1      38.804  34.625  30.528  1.00  0.00    -0.275 OA
BRANCH  74  77
ATOM     77  C   UNL A   1      38.334  33.288  32.476  1.00  0.00     0.098 C 
ATOM     78  C   UNL A   1      37.832  33.980  33.759  1.00  0.00     0.017 C 
ATOM     79  C   UNL A   1      37.851  31.843  32.467  1.00  0.00     0.133 C 
ATOM     80  C   UNL A   1      38.215  33.198  35.008  1.00  0.00     0.022 C 
ATOM     81  N   UNL A   1      38.092  31.098  33.698  1.00  0.00    -0.338 N 
ATOM     82  C   UNL A   1      37.731  31.758  34.948  1.00  0.00     0.120 C 
BRANCH  81  83
ATOM     83  C   UNL A   1      38.410  29.743  33.548  1.00  0.00     0.253 C 
ATOM     84  O   UNL A   1      37.583  28.879  33.255  1.00  0.00    -0.269 OA
BRANCH  83  85
ATOM     85  C   UNL A   1      39.813  29.308  33.626  1.00  0.00     0.040 A 
ATOM     86  C   UNL A   1      40.189  28.247  32.803  1.00  0.00     0.016 A 
ATOM     87  C   UNL A   1      40.733  29.876  34.506  1.00  0.00     0.016 A 
ATOM     88  C   UNL A   1      41.516  27.828  32.780  1.00  0.00     0.027 A 
ATOM     89  C   UNL A   1      42.070  29.469  34.452  1.00  0.00     0.027 A 
ATOM     90  C   UNL A   1      42.483  28.494  33.533  1.00  0.00     0.041 A 
BRANCH  90  91
ATOM     91  N   UNL A   1      43.864  28.249  33.427  1.00  0.00    -0.322 N 
ATOM     92  C   UNL A   1      44.626  27.143  33.746  1.00  0.00     0.255 C 
ATOM     93  H   UNL A   1      44.379  29.002  33.059  1.00  0.00     0.170 HD
ATOM     94  O   UNL A   1      45.853  27.217  33.716  1.00  0.00    -0.269 OA
BRANCH  92  95
ATOM     95  C   UNL A   1      44.005  25.844  34.074  1.00  0.00     0.040 A 
ATOM     96  C   UNL A   1      44.260  24.755  33.234  1.00  0.00     0.014 A 
ATOM     97  C   UNL A   1      43.204  25.686  35.213  1.00  0.00     0.014 A 
ATOM     98  C   UNL A   1      43.778  23.492  33.578  1.00  0.00     0.001 A 
ATOM     99  C   UNL A   1      42.734  24.418  35.556  1.00  0.00     0.001 A 
ATOM    100  C   UNL A   1      43.031  23.322  34.744  1.00  0.00     0.000 A 
ENDBRANCH  92  95
ENDBRANCH  90  91
ENDBRANCH  83  85
ENDBRANCH  81  83
ENDBRANCH  74  77
ENDBRANCH   1  73
TORSDOF 14
ENDMDL
