MODEL 1
REMARK VINA RESULT:     -14.6      0.000      0.000
REMARK SMILES Cc1ccc(-c2cc(Cl)cc3c2O[C@H](C(F)(F)F)C(C(=O)NCCCNC(=O)c2ccc(-c4c5nc(c(-c6c(F)c(F)c(F)c(F)c6F)c6ccc([nH]6)c(-c6c(F)c(F)c(F)c(F)c6F)c6nc(c(-c7c(F)c(F)c(F)c(F)c7F)c7ccc4[nH]7)C=C6)C=C5)cc2)=C3)cc1F
REMARK SMILES IDX 24 1 23 2 22 3 20 4 21 5 19 7 6 8 7 9 12 10 8 11 11 12 13 13
REMARK SMILES IDX 9 14 10 15 92 16 14 17 5 18 1 19 2 20 3 21 94 22 4 23 93 24
REMARK SMILES IDX 95 25 15 26 16 27 17 28 18 29 25 30 26 31 27 32 28 34 29 35
REMARK SMILES IDX 30 36 91 37 31 38 90 39 32 40 33 41 34 42 84 43 35 44 89 45
REMARK SMILES IDX 83 46 85 47 36 48 88 49 82 50 81 51 37 53 69 54 49 55 68 56
REMARK SMILES IDX 50 57 53 58 67 59 86 60 51 61 52 62 66 64 87 65 54 66 38 67
REMARK SMILES IDX 39 68 47 69 40 70 41 71 45 72 48 73 42 74 43 75 46 76 44 77
REMARK SMILES IDX 70 78 71 79 79 80 72 81 73 82 77 83 80 84 74 85 75 86 78 87
REMARK SMILES IDX 76 88 55 89 56 90 64 91 57 92 58 93 62 94 65 95 59 96 60 97
REMARK SMILES IDX 63 98 61 99
REMARK H PARENT 22 6 26 33 85 52 53 63
REMARK Flexibility Score: inf
ROOT
ATOM      1  C   UNL A   1      32.523  30.983  26.629  1.00  0.00     0.042 C 
ENDROOT
BRANCH   1   2
ATOM      2  C   UNL A   1      31.414  29.967  26.345  1.00  0.00     0.118 C 
BRANCH   2   3
ATOM      3  N   UNL A   1      31.212  29.734  24.931  1.00  0.00    -0.352 N 
ATOM      4  C   UNL A   1      31.307  28.687  24.081  1.00  0.00     0.251 C 
ATOM      5  O   UNL A   1      31.075  28.967  22.899  1.00  0.00    -0.270 OA
ATOM      6  H   UNL A   1      30.933  30.554  24.464  1.00  0.00     0.163 HD
BRANCH   4   7
ATOM      7  C   UNL A   1      31.640  27.271  24.444  1.00  0.00     0.067 C 
ATOM      8  C   UNL A   1      32.321  23.309  25.767  1.00  0.00     0.026 A 
ATOM      9  C   UNL A   1      31.311  22.679  26.517  1.00  0.00     0.033 A 
ATOM     10  C   UNL A   1      32.060  24.597  25.253  1.00  0.00     0.135 A 
ATOM     11  C   UNL A   1      30.089  23.314  26.738  1.00  0.00     0.042 A 
ATOM     12  C   UNL A   1      30.836  25.233  25.482  1.00  0.00     0.019 A 
ATOM     13  O   UNL A   1      33.014  25.187  24.463  1.00  0.00    -0.475 OA
ATOM     14  Cl  UNL A   1      28.870  22.520  27.658  1.00  0.00    -0.084 Cl
ATOM     15  C   UNL A   1      29.846  24.585  26.225  1.00  0.00     0.032 A 
ATOM     16  C   UNL A   1      30.605  26.569  24.946  1.00  0.00     0.025 C 
ATOM     17  C   UNL A   1      33.007  26.644  24.397  1.00  0.00     0.314 C 
BRANCH   8  18
ATOM     18  C   UNL A   1      33.610  22.626  25.561  1.00  0.00    -0.012 A 
ATOM     19  C   UNL A   1      37.417  20.668  24.912  1.00  0.00     0.047 C 
ATOM     20  C   UNL A   1      36.090  21.324  25.142  1.00  0.00    -0.015 A 
ATOM     21  C   UNL A   1      34.898  20.729  24.717  1.00  0.00     0.007 A 
ATOM     22  C   UNL A   1      36.025  22.559  25.787  1.00  0.00     0.126 A 
ATOM     23  C   UNL A   1      33.673  21.373  24.928  1.00  0.00     0.009 A 
ATOM     24  C   UNL A   1      34.809  23.204  26.000  1.00  0.00     0.048 A 
ATOM     25  F   UNL A   1      37.152  23.148  26.210  1.00  0.00    -0.207 F 
ENDBRANCH   8  18
BRANCH  17  26
ATOM     26  C   UNL A   1      33.970  27.187  25.464  1.00  0.00     0.429 C 
ATOM     27  F   UNL A   1      33.319  27.344  26.644  1.00  0.00    -0.167 F 
ATOM     28  F   UNL A   1      35.003  26.348  25.699  1.00  0.00    -0.167 F 
ATOM     29  F   UNL A   1      34.489  28.390  25.130  1.00  0.00    -0.167 F 
ENDBRANCH  17  26
ENDBRANCH   4   7
ENDBRANCH   2   3
ENDBRANCH   1   2
BRANCH   1  30
ATOM     30  C   UNL A   1      33.777  30.448  27.318  1.00  0.00     0.118 C 
BRANCH  30  31
ATOM     31  N   UNL A   1      34.243  31.184  28.478  1.00  0.00    -0.352 N 
ATOM     32  C   UNL A   1      35.387  31.246  29.235  1.00  0.00     0.251 C 
ATOM     33  H   UNL A   1      33.556  31.803  28.814  1.00  0.00     0.163 HD
ATOM     34  O   UNL A   1      35.419  32.117  30.095  1.00  0.00    -0.269 OA
BRANCH  32  35
ATOM     35  C   UNL A   1      36.533  30.297  29.150  1.00  0.00     0.039 A 
ATOM     36  C   UNL A   1      36.863  29.300  30.069  1.00  0.00     0.014 A 
ATOM     37  C   UNL A   1      37.334  30.438  28.003  1.00  0.00     0.014 A 
ATOM     38  C   UNL A   1      38.041  28.541  29.906  1.00  0.00     0.010 A 
ATOM     39  C   UNL A   1      38.493  29.684  27.836  1.00  0.00     0.010 A 
ATOM     40  C   UNL A   1      38.887  28.767  28.815  1.00  0.00    -0.014 A 
BRANCH  40  41
ATOM     41  C   UNL A   1      40.201  28.131  28.646  1.00  0.00     0.031 A 
ATOM     42  C   UNL A   1      40.378  26.676  28.396  1.00  0.00     0.074 A 
ATOM     43  C   UNL A   1      41.329  28.871  28.766  1.00  0.00     0.049 A 
ATOM     44  N   UNL A   1      41.410  26.001  28.800  1.00  0.00    -0.248 NA
ATOM     45  C   UNL A   1      39.409  25.858  27.677  1.00  0.00     0.031 C 
ATOM     46  C   UNL A   1      42.684  28.478  28.389  1.00  0.00     0.029 A 
ATOM     47  N   UNL A   1      41.503  30.098  29.426  1.00  0.00    -0.354 N 
ATOM     48  C   UNL A   1      41.391  24.780  28.168  1.00  0.00     0.074 A 
ATOM     49  C   UNL A   1      40.078  24.700  27.559  1.00  0.00     0.031 C 
ATOM     50  C   UNL A   1      43.564  29.253  29.037  1.00  0.00     0.029 A 
ATOM     51  C   UNL A   1      42.822  30.093  29.952  1.00  0.00     0.049 A 
ATOM     52  H   UNL A   1      40.839  30.821  29.509  1.00  0.00     0.167 HD
ATOM     53  C   UNL A   1      42.527  24.024  28.098  1.00  0.00     0.037 A 
ATOM     54  C   UNL A   1      43.094  30.262  31.284  1.00  0.00     0.037 A 
ATOM     55  C   UNL A   1      43.672  24.675  28.723  1.00  0.00     0.049 A 
ATOM     56  C   UNL A   1      43.860  29.148  31.938  1.00  0.00     0.074 A 
ATOM     57  C   UNL A   1      44.728  25.423  28.226  1.00  0.00     0.029 A 
ATOM     58  N   UNL A   1      43.722  24.806  30.096  1.00  0.00    -0.354 N 
ATOM     59  N   UNL A   1      44.220  28.065  31.320  1.00  0.00    -0.248 NA
ATOM     60  C   UNL A   1      44.141  29.100  33.374  1.00  0.00     0.031 C 
ATOM     61  C   UNL A   1      45.444  25.966  29.321  1.00  0.00     0.029 A 
ATOM     62  C   UNL A   1      44.810  25.567  30.481  1.00  0.00     0.049 A 
ATOM     63  H   UNL A   1      43.071  24.409  30.718  1.00  0.00     0.167 HD
ATOM     64  C   UNL A   1      44.672  27.161  32.238  1.00  0.00     0.074 A 
ATOM     65  C   UNL A   1      44.624  27.854  33.509  1.00  0.00     0.031 C 
ATOM     66  C   UNL A   1      44.996  25.889  31.882  1.00  0.00     0.037 A 
BRANCH  53  67
ATOM     67  C   UNL A   1      42.686  22.787  27.243  1.00  0.00     0.064 A 
ATOM     68  C   UNL A   1      41.990  21.594  27.548  1.00  0.00     0.173 A 
ATOM     69  C   UNL A   1      43.510  22.719  26.108  1.00  0.00     0.173 A 
ATOM     70  F   UNL A   1      41.091  21.534  28.538  1.00  0.00    -0.203 F 
ATOM     71  C   UNL A   1      42.190  20.405  26.846  1.00  0.00     0.198 A 
ATOM     72  C   UNL A   1      43.743  21.515  25.429  1.00  0.00     0.198 A 
ATOM     73  F   UNL A   1      44.080  23.821  25.601  1.00  0.00    -0.203 F 
ATOM     74  F   UNL A   1      41.508  19.304  27.195  1.00  0.00    -0.200 F 
ATOM     75  C   UNL A   1      43.095  20.356  25.808  1.00  0.00     0.200 A 
ATOM     76  F   UNL A   1      44.605  21.488  24.402  1.00  0.00    -0.200 F 
ATOM     77  F   UNL A   1      43.323  19.204  25.164  1.00  0.00    -0.200 F 
ENDBRANCH  53  67
BRANCH  54  78
ATOM     78  C   UNL A   1      42.034  31.022  31.986  1.00  0.00     0.064 A 
ATOM     79  C   UNL A   1      41.864  32.360  31.593  1.00  0.00     0.173 A 
ATOM     80  C   UNL A   1      40.926  30.297  32.439  1.00  0.00     0.173 A 
ATOM     81  F   UNL A   1      42.920  33.090  31.205  1.00  0.00    -0.203 F 
ATOM     82  C   UNL A   1      40.590  32.845  31.363  1.00  0.00     0.198 A 
ATOM     83  C   UNL A   1      39.656  30.789  32.210  1.00  0.00     0.198 A 
ATOM     84  F   UNL A   1      41.063  29.041  32.890  1.00  0.00    -0.203 F 
ATOM     85  F   UNL A   1      40.412  34.044  30.794  1.00  0.00    -0.200 F 
ATOM     86  C   UNL A   1      39.501  32.022  31.586  1.00  0.00     0.200 A 
ATOM     87  F   UNL A   1      38.598  30.017  32.484  1.00  0.00    -0.200 F 
ATOM     88  F   UNL A   1      38.312  32.396  31.105  1.00  0.00    -0.200 F 
ENDBRANCH  54  78
BRANCH  66  89
ATOM     89  C   UNL A   1      45.533  24.870  32.831  1.00  0.00     0.064 A 
ATOM     90  C   UNL A   1      44.700  23.950  33.483  1.00  0.00     0.173 A 
ATOM     91  C   UNL A   1      46.887  24.880  33.220  1.00  0.00     0.173 A 
ATOM     92  F   UNL A   1      43.386  23.901  33.215  1.00  0.00    -0.203 F 
ATOM     93  C   UNL A   1      45.197  23.072  34.448  1.00  0.00     0.198 A 
ATOM     94  C   UNL A   1      47.371  24.038  34.219  1.00  0.00     0.198 A 
ATOM     95  F   UNL A   1      47.776  25.693  32.630  1.00  0.00    -0.203 F 
ATOM     96  F   UNL A   1      44.378  22.177  35.018  1.00  0.00    -0.200 F 
ATOM     97  C   UNL A   1      46.528  23.128  34.826  1.00  0.00     0.200 A 
ATOM     98  F   UNL A   1      48.657  24.115  34.586  1.00  0.00    -0.200 F 
ATOM     99  F   UNL A   1      46.997  22.305  35.772  1.00  0.00    -0.200 F 
ENDBRANCH  66  89
ENDBRANCH  40  41
ENDBRANCH  32  35
ENDBRANCH  30  31
ENDBRANCH   1  30
TORSDOF 12
ENDMDL
MODEL 2
REMARK VINA RESULT:     -14.6      3.433      9.725
REMARK SMILES Cc1ccc(-c2cc(Cl)cc3c2O[C@H](C(F)(F)F)C(C(=O)NCCCNC(=O)c2ccc(-c4c5nc(c(-c6c(F)c(F)c(F)c(F)c6F)c6ccc([nH]6)c(-c6c(F)c(F)c(F)c(F)c6F)c6nc(c(-c7c(F)c(F)c(F)c(F)c7F)c7ccc4[nH]7)C=C6)C=C5)cc2)=C3)cc1F
REMARK SMILES IDX 24 1 23 2 22 3 20 4 21 5 19 7 6 8 7 9 12 10 8 11 11 12 13 13
REMARK SMILES IDX 9 14 10 15 92 16 14 17 5 18 1 19 2 20 3 21 94 22 4 23 93 24
REMARK SMILES IDX 95 25 15 26 16 27 17 28 18 29 25 30 26 31 27 32 28 34 29 35
REMARK SMILES IDX 30 36 91 37 31 38 90 39 32 40 33 41 34 42 84 43 35 44 89 45
REMARK SMILES IDX 83 46 85 47 36 48 88 49 82 50 81 51 37 53 69 54 49 55 68 56
REMARK SMILES IDX 50 57 53 58 67 59 86 60 51 61 52 62 66 64 87 65 54 66 38 67
REMARK SMILES IDX 39 68 47 69 40 70 41 71 45 72 48 73 42 74 43 75 46 76 44 77
REMARK SMILES IDX 70 78 71 79 79 80 72 81 73 82 77 83 80 84 74 85 75 86 78 87
REMARK SMILES IDX 76 88 55 89 56 90 64 91 57 92 58 93 62 94 65 95 59 96 60 97
REMARK SMILES IDX 63 98 61 99
REMARK H PARENT 22 6 26 33 85 52 53 63
REMARK Flexibility Score: inf
ROOT
ATOM      1  C   UNL A   1      37.219  23.881  25.381  1.00  0.00     0.042 C 
ENDROOT
BRANCH   1   2
ATOM      2  C   UNL A   1      35.956  23.743  24.529  1.00  0.00     0.118 C 
BRANCH   2   3
ATOM      3  N   UNL A   1      34.801  23.327  25.296  1.00  0.00    -0.352 N 
ATOM      4  C   UNL A   1      33.646  23.887  25.720  1.00  0.00     0.251 C 
ATOM      5  O   UNL A   1      32.945  23.144  26.417  1.00  0.00    -0.270 OA
ATOM      6  H   UNL A   1      34.877  22.390  25.587  1.00  0.00     0.163 HD
BRANCH   4   7
ATOM      7  C   UNL A   1      33.161  25.272  25.413  1.00  0.00     0.067 C 
ATOM      8  C   UNL A   1      31.854  29.269  24.931  1.00  0.00     0.026 A 
ATOM      9  C   UNL A   1      32.309  30.229  25.852  1.00  0.00     0.033 A 
ATOM     10  C   UNL A   1      32.356  27.955  25.040  1.00  0.00     0.135 A 
ATOM     11  C   UNL A   1      33.235  29.887  26.837  1.00  0.00     0.042 A 
ATOM     12  C   UNL A   1      33.279  27.613  26.033  1.00  0.00     0.019 A 
ATOM     13  O   UNL A   1      31.969  27.031  24.102  1.00  0.00    -0.475 OA
ATOM     14  Cl  UNL A   1      33.777  31.082  27.950  1.00  0.00    -0.084 Cl
ATOM     15  C   UNL A   1      33.722  28.586  26.932  1.00  0.00     0.032 A 
ATOM     16  C   UNL A   1      33.768  26.242  26.123  1.00  0.00     0.025 C 
ATOM     17  C   UNL A   1      32.020  25.627  24.498  1.00  0.00     0.314 C 
BRANCH   8  18
ATOM     18  C   UNL A   1      30.863  29.650  23.909  1.00  0.00    -0.012 A 
ATOM     19  C   UNL A   1      27.903  30.730  20.939  1.00  0.00     0.047 C 
ATOM     20  C   UNL A   1      28.945  30.358  21.949  1.00  0.00    -0.015 A 
ATOM     21  C   UNL A   1      30.040  29.558  21.610  1.00  0.00     0.007 A 
ATOM     22  C   UNL A   1      28.832  30.810  23.265  1.00  0.00     0.126 A 
ATOM     23  C   UNL A   1      30.988  29.210  22.580  1.00  0.00     0.009 A 
ATOM     24  C   UNL A   1      29.772  30.468  24.234  1.00  0.00     0.048 A 
ATOM     25  F   UNL A   1      27.796  31.585  23.615  1.00  0.00    -0.207 F 
ENDBRANCH   8  18
BRANCH  17  26
ATOM     26  C   UNL A   1      30.643  25.222  25.045  1.00  0.00     0.429 C 
ATOM     27  F   UNL A   1      30.630  25.321  26.399  1.00  0.00    -0.167 F 
ATOM     28  F   UNL A   1      29.653  26.020  24.588  1.00  0.00    -0.167 F 
ATOM     29  F   UNL A   1      30.317  23.947  24.734  1.00  0.00    -0.167 F 
ENDBRANCH  17  26
ENDBRANCH   4   7
ENDBRANCH   2   3
ENDBRANCH   1   2
BRANCH   1  30
ATOM     30  C   UNL A   1      37.887  22.581  25.825  1.00  0.00     0.118 C 
BRANCH  30  31
ATOM     31  N   UNL A   1      39.335  22.595  25.920  1.00  0.00    -0.352 N 
ATOM     32  C   UNL A   1      40.297  23.400  26.477  1.00  0.00     0.251 C 
ATOM     33  H   UNL A   1      39.735  21.821  25.461  1.00  0.00     0.163 HD
ATOM     34  O   UNL A   1      41.446  22.981  26.429  1.00  0.00    -0.269 OA
BRANCH  32  35
ATOM     35  C   UNL A   1      40.065  24.758  27.046  1.00  0.00     0.039 A 
ATOM     36  C   UNL A   1      40.364  25.980  26.441  1.00  0.00     0.014 A 
ATOM     37  C   UNL A   1      39.468  24.772  28.318  1.00  0.00     0.014 A 
ATOM     38  C   UNL A   1      40.180  27.188  27.145  1.00  0.00     0.010 A 
ATOM     39  C   UNL A   1      39.279  25.965  29.012  1.00  0.00     0.010 A 
ATOM     40  C   UNL A   1      39.685  27.180  28.454  1.00  0.00    -0.014 A 
BRANCH  40  41
ATOM     41  C   UNL A   1      39.603  28.371  29.311  1.00  0.00     0.031 A 
ATOM     42  C   UNL A   1      38.619  29.465  29.097  1.00  0.00     0.074 A 
ATOM     43  C   UNL A   1      40.486  28.534  30.325  1.00  0.00     0.049 A 
ATOM     44  N   UNL A   1      38.852  30.706  29.399  1.00  0.00    -0.248 NA
ATOM     45  C   UNL A   1      37.296  29.257  28.521  1.00  0.00     0.031 C 
ATOM     46  C   UNL A   1      40.404  29.502  31.415  1.00  0.00     0.029 A 
ATOM     47  N   UNL A   1      41.753  27.950  30.484  1.00  0.00    -0.354 N 
ATOM     48  C   UNL A   1      37.658  31.385  29.340  1.00  0.00     0.074 A 
ATOM     49  C   UNL A   1      36.741  30.467  28.695  1.00  0.00     0.031 C 
ATOM     50  C   UNL A   1      41.621  29.666  31.952  1.00  0.00     0.029 A 
ATOM     51  C   UNL A   1      42.560  28.908  31.153  1.00  0.00     0.049 A 
ATOM     52  H   UNL A   1      42.028  27.052  30.188  1.00  0.00     0.167 HD
ATOM     53  C   UNL A   1      37.523  32.592  29.968  1.00  0.00     0.037 A 
ATOM     54  C   UNL A   1      43.737  29.381  30.638  1.00  0.00     0.037 A 
ATOM     55  C   UNL A   1      38.734  32.996  30.671  1.00  0.00     0.049 A 
ATOM     56  C   UNL A   1      43.813  30.869  30.449  1.00  0.00     0.074 A 
ATOM     57  C   UNL A   1      39.137  32.908  31.994  1.00  0.00     0.029 A 
ATOM     58  N   UNL A   1      39.849  33.379  29.954  1.00  0.00    -0.354 N 
ATOM     59  N   UNL A   1      42.832  31.677  30.709  1.00  0.00    -0.248 NA
ATOM     60  C   UNL A   1      44.943  31.542  29.806  1.00  0.00     0.031 C 
ATOM     61  C   UNL A   1      40.499  33.291  32.071  1.00  0.00     0.029 A 
ATOM     62  C   UNL A   1      40.928  33.590  30.792  1.00  0.00     0.049 A 
ATOM     63  H   UNL A   1      39.872  33.490  28.976  1.00  0.00     0.167 HD
ATOM     64  C   UNL A   1      43.128  32.911  30.206  1.00  0.00     0.074 A 
ATOM     65  C   UNL A   1      44.467  32.789  29.665  1.00  0.00     0.031 C 
ATOM     66  C   UNL A   1      42.219  33.922  30.224  1.00  0.00     0.037 A 
BRANCH  53  67
ATOM     67  C   UNL A   1      36.210  33.316  30.166  1.00  0.00     0.064 A 
ATOM     68  C   UNL A   1      35.540  33.924  29.078  1.00  0.00     0.173 A 
ATOM     69  C   UNL A   1      35.563  33.443  31.406  1.00  0.00     0.173 A 
ATOM     70  F   UNL A   1      35.980  33.803  27.820  1.00  0.00    -0.203 F 
ATOM     71  C   UNL A   1      34.384  34.689  29.238  1.00  0.00     0.198 A 
ATOM     72  C   UNL A   1      34.426  34.244  31.573  1.00  0.00     0.198 A 
ATOM     73  F   UNL A   1      35.989  32.762  32.479  1.00  0.00    -0.203 F 
ATOM     74  F   UNL A   1      33.805  35.250  28.167  1.00  0.00    -0.200 F 
ATOM     75  C   UNL A   1      33.846  34.879  30.492  1.00  0.00     0.200 A 
ATOM     76  F   UNL A   1      33.896  34.397  32.795  1.00  0.00    -0.200 F 
ATOM     77  F   UNL A   1      32.763  35.651  30.653  1.00  0.00    -0.200 F 
ENDBRANCH  53  67
BRANCH  54  78
ATOM     78  C   UNL A   1      44.369  28.424  29.700  1.00  0.00     0.064 A 
ATOM     79  C   UNL A   1      44.785  27.199  30.249  1.00  0.00     0.173 A 
ATOM     80  C   UNL A   1      43.949  28.467  28.366  1.00  0.00     0.173 A 
ATOM     81  F   UNL A   1      45.242  27.143  31.508  1.00  0.00    -0.203 F 
ATOM     82  C   UNL A   1      44.487  26.021  29.588  1.00  0.00     0.198 A 
ATOM     83  C   UNL A   1      43.657  27.288  27.711  1.00  0.00     0.198 A 
ATOM     84  F   UNL A   1      43.614  29.630  27.788  1.00  0.00    -0.203 F 
ATOM     85  F   UNL A   1      44.687  24.839  30.183  1.00  0.00    -0.200 F 
ATOM     86  C   UNL A   1      43.841  26.076  28.366  1.00  0.00     0.200 A 
ATOM     87  F   UNL A   1      43.088  27.338  26.500  1.00  0.00    -0.200 F 
ATOM     88  F   UNL A   1      43.317  24.949  27.874  1.00  0.00    -0.200 F 
ENDBRANCH  54  78
BRANCH  66  89
ATOM     89  C   UNL A   1      42.498  35.302  29.726  1.00  0.00     0.064 A 
ATOM     90  C   UNL A   1      42.019  35.757  28.489  1.00  0.00     0.173 A 
ATOM     91  C   UNL A   1      43.374  36.161  30.417  1.00  0.00     0.173 A 
ATOM     92  F   UNL A   1      41.219  34.986  27.736  1.00  0.00    -0.203 F 
ATOM     93  C   UNL A   1      42.373  37.009  27.986  1.00  0.00     0.198 A 
ATOM     94  C   UNL A   1      43.767  37.389  29.889  1.00  0.00     0.198 A 
ATOM     95  F   UNL A   1      43.857  35.839  31.627  1.00  0.00    -0.203 F 
ATOM     96  F   UNL A   1      41.861  37.427  26.820  1.00  0.00    -0.200 F 
ATOM     97  C   UNL A   1      43.260  37.817  28.679  1.00  0.00     0.200 A 
ATOM     98  F   UNL A   1      44.638  38.153  30.563  1.00  0.00    -0.200 F 
ATOM     99  F   UNL A   1      43.621  39.006  28.180  1.00  0.00    -0.200 F 
ENDBRANCH  66  89
ENDBRANCH  40  41
ENDBRANCH  32  35
ENDBRANCH  30  31
ENDBRANCH   1  30
TORSDOF 12
ENDMDL
MODEL 3
REMARK VINA RESULT:     -14.6      3.108      4.875
REMARK SMILES Cc1ccc(-c2cc(Cl)cc3c2O[C@H](C(F)(F)F)C(C(=O)NCCCNC(=O)c2ccc(-c4c5nc(c(-c6c(F)c(F)c(F)c(F)c6F)c6ccc([nH]6)c(-c6c(F)c(F)c(F)c(F)c6F)c6nc(c(-c7c(F)c(F)c(F)c(F)c7F)c7ccc4[nH]7)C=C6)C=C5)cc2)=C3)cc1F
REMARK SMILES IDX 24 1 23 2 22 3 20 4 21 5 19 7 6 8 7 9 12 10 8 11 11 12 13 13
REMARK SMILES IDX 9 14 10 15 92 16 14 17 5 18 1 19 2 20 3 21 94 22 4 23 93 24
REMARK SMILES IDX 95 25 15 26 16 27 17 28 18 29 25 30 26 31 27 32 28 34 29 35
REMARK SMILES IDX 30 36 91 37 31 38 90 39 32 40 33 41 34 42 84 43 35 44 89 45
REMARK SMILES IDX 83 46 85 47 36 48 88 49 82 50 81 51 37 53 69 54 49 55 68 56
REMARK SMILES IDX 50 57 53 58 67 59 86 60 51 61 52 62 66 64 87 65 54 66 38 67
REMARK SMILES IDX 39 68 47 69 40 70 41 71 45 72 48 73 42 74 43 75 46 76 44 77
REMARK SMILES IDX 70 78 71 79 79 80 72 81 73 82 77 83 80 84 74 85 75 86 78 87
REMARK SMILES IDX 76 88 55 89 56 90 64 91 57 92 58 93 62 94 65 95 59 96 60 97
REMARK SMILES IDX 63 98 61 99
REMARK H PARENT 22 6 26 33 85 52 53 63
REMARK Flexibility Score: inf
ROOT
ATOM      1  C   UNL A   1      33.026  28.545  24.138  1.00  0.00     0.042 C 
ENDROOT
BRANCH   1   2
ATOM      2  C   UNL A   1      32.001  27.477  23.749  1.00  0.00     0.118 C 
BRANCH   2   3
ATOM      3  N   UNL A   1      31.223  27.007  24.876  1.00  0.00    -0.352 N 
ATOM      4  C   UNL A   1      31.182  25.902  25.653  1.00  0.00     0.251 C 
ATOM      5  O   UNL A   1      30.287  25.911  26.506  1.00  0.00    -0.270 OA
ATOM      6  H   UNL A   1      30.543  27.666  25.147  1.00  0.00     0.163 HD
BRANCH   4   7
ATOM      7  C   UNL A   1      32.105  24.724  25.577  1.00  0.00     0.067 C 
ATOM      8  C   UNL A   1      35.003  21.653  25.280  1.00  0.00     0.026 A 
ATOM      9  C   UNL A   1      36.352  21.995  25.484  1.00  0.00     0.033 A 
ATOM     10  C   UNL A   1      34.029  22.658  25.462  1.00  0.00     0.135 A 
ATOM     11  C   UNL A   1      36.708  23.290  25.862  1.00  0.00     0.042 A 
ATOM     12  C   UNL A   1      34.390  23.956  25.835  1.00  0.00     0.019 A 
ATOM     13  O   UNL A   1      32.707  22.313  25.333  1.00  0.00    -0.475 OA
ATOM     14  Cl  UNL A   1      38.367  23.680  26.107  1.00  0.00    -0.084 Cl
ATOM     15  C   UNL A   1      35.736  24.270  26.039  1.00  0.00     0.032 A 
ATOM     16  C   UNL A   1      33.358  24.972  26.004  1.00  0.00     0.025 C 
ATOM     17  C   UNL A   1      31.779  23.382  24.980  1.00  0.00     0.314 C 
BRANCH   8  18
ATOM     18  C   UNL A   1      34.653  20.284  24.864  1.00  0.00    -0.012 A 
ATOM     19  C   UNL A   1      33.583  16.253  23.698  1.00  0.00     0.047 C 
ATOM     20  C   UNL A   1      33.975  17.645  24.090  1.00  0.00    -0.015 A 
ATOM     21  C   UNL A   1      35.285  17.958  24.466  1.00  0.00     0.007 A 
ATOM     22  C   UNL A   1      33.021  18.664  24.090  1.00  0.00     0.126 A 
ATOM     23  C   UNL A   1      35.618  19.263  24.845  1.00  0.00     0.009 A 
ATOM     24  C   UNL A   1      33.347  19.964  24.466  1.00  0.00     0.048 A 
ATOM     25  F   UNL A   1      31.759  18.393  23.728  1.00  0.00    -0.207 F 
ENDBRANCH   8  18
BRANCH  17  26
ATOM     26  C   UNL A   1      31.622  23.410  23.451  1.00  0.00     0.429 C 
ATOM     27  F   UNL A   1      31.814  22.167  22.940  1.00  0.00    -0.167 F 
ATOM     28  F   UNL A   1      30.388  23.802  23.068  1.00  0.00    -0.167 F 
ATOM     29  F   UNL A   1      32.515  24.230  22.855  1.00  0.00    -0.167 F 
ENDBRANCH  17  26
ENDBRANCH   4   7
ENDBRANCH   2   3
ENDBRANCH   1   2
BRANCH   1  30
ATOM     30  C   UNL A   1      33.288  28.727  25.632  1.00  0.00     0.118 C 
BRANCH  30  31
ATOM     31  N   UNL A   1      32.683  29.886  26.261  1.00  0.00    -0.352 N 
ATOM     32  C   UNL A   1      33.100  30.943  27.031  1.00  0.00     0.251 C 
ATOM     33  H   UNL A   1      31.714  29.924  26.091  1.00  0.00     0.163 HD
ATOM     34  O   UNL A   1      32.261  31.801  27.271  1.00  0.00    -0.269 OA
BRANCH  32  35
ATOM     35  C   UNL A   1      34.445  31.078  27.659  1.00  0.00     0.039 A 
ATOM     36  C   UNL A   1      35.183  32.252  27.810  1.00  0.00     0.014 A 
ATOM     37  C   UNL A   1      34.990  29.880  28.153  1.00  0.00     0.014 A 
ATOM     38  C   UNL A   1      36.491  32.211  28.336  1.00  0.00     0.010 A 
ATOM     39  C   UNL A   1      36.279  29.837  28.679  1.00  0.00     0.010 A 
ATOM     40  C   UNL A   1      37.063  30.994  28.724  1.00  0.00    -0.014 A 
BRANCH  40  41
ATOM     41  C   UNL A   1      38.464  30.837  29.139  1.00  0.00     0.031 A 
ATOM     42  C   UNL A   1      39.297  29.660  28.776  1.00  0.00     0.074 A 
ATOM     43  C   UNL A   1      39.040  31.771  29.933  1.00  0.00     0.049 A 
ATOM     44  N   UNL A   1      40.248  29.198  29.528  1.00  0.00    -0.248 NA
ATOM     45  C   UNL A   1      39.126  28.902  27.542  1.00  0.00     0.031 C 
ATOM     46  C   UNL A   1      40.463  31.915  30.231  1.00  0.00     0.029 A 
ATOM     47  N   UNL A   1      38.419  32.700  30.783  1.00  0.00    -0.354 N 
ATOM     48  C   UNL A   1      40.982  28.307  28.780  1.00  0.00     0.074 A 
ATOM     49  C   UNL A   1      40.189  28.083  27.589  1.00  0.00     0.031 C 
ATOM     50  C   UNL A   1      40.607  32.634  31.353  1.00  0.00     0.029 A 
ATOM     51  C   UNL A   1      39.287  32.878  31.893  1.00  0.00     0.049 A 
ATOM     52  H   UNL A   1      37.551  33.142  30.638  1.00  0.00     0.167 HD
ATOM     53  C   UNL A   1      42.246  27.961  29.169  1.00  0.00     0.037 A 
ATOM     54  C   UNL A   1      38.897  32.654  33.187  1.00  0.00     0.037 A 
ATOM     55  C   UNL A   1      42.665  28.648  30.384  1.00  0.00     0.049 A 
ATOM     56  C   UNL A   1      39.704  31.639  33.943  1.00  0.00     0.074 A 
ATOM     57  C   UNL A   1      43.433  29.778  30.619  1.00  0.00     0.029 A 
ATOM     58  N   UNL A   1      42.092  28.315  31.595  1.00  0.00    -0.354 N 
ATOM     59  N   UNL A   1      40.687  30.971  33.422  1.00  0.00    -0.248 NA
ATOM     60  C   UNL A   1      39.366  31.185  35.293  1.00  0.00     0.031 C 
ATOM     61  C   UNL A   1      43.352  30.092  31.998  1.00  0.00     0.029 A 
ATOM     62  C   UNL A   1      42.519  29.167  32.595  1.00  0.00     0.049 A 
ATOM     63  H   UNL A   1      41.464  27.569  31.727  1.00  0.00     0.167 HD
ATOM     64  C   UNL A   1      41.046  29.970  34.278  1.00  0.00     0.074 A 
ATOM     65  C   UNL A   1      40.208  30.150  35.446  1.00  0.00     0.031 C 
ATOM     66  C   UNL A   1      41.968  29.033  33.930  1.00  0.00     0.037 A 
BRANCH  53  67
ATOM     67  C   UNL A   1      43.224  27.180  28.320  1.00  0.00     0.064 A 
ATOM     68  C   UNL A   1      43.886  27.785  27.227  1.00  0.00     0.173 A 
ATOM     69  C   UNL A   1      43.549  25.831  28.538  1.00  0.00     0.173 A 
ATOM     70  F   UNL A   1      43.757  29.090  26.955  1.00  0.00    -0.203 F 
ATOM     71  C   UNL A   1      44.713  27.071  26.358  1.00  0.00     0.198 A 
ATOM     72  C   UNL A   1      44.346  25.105  27.643  1.00  0.00     0.198 A 
ATOM     73  F   UNL A   1      43.140  25.192  29.642  1.00  0.00    -0.203 F 
ATOM     74  F   UNL A   1      45.301  27.702  25.331  1.00  0.00    -0.200 F 
ATOM     75  C   UNL A   1      44.915  25.722  26.546  1.00  0.00     0.200 A 
ATOM     76  F   UNL A   1      44.558  23.797  27.853  1.00  0.00    -0.200 F 
ATOM     77  F   UNL A   1      45.671  25.025  25.686  1.00  0.00    -0.200 F 
ENDBRANCH  53  67
BRANCH  54  78
ATOM     78  C   UNL A   1      37.435  32.810  33.372  1.00  0.00     0.064 A 
ATOM     79  C   UNL A   1      36.970  34.122  33.566  1.00  0.00     0.173 A 
ATOM     80  C   UNL A   1      36.609  31.880  32.731  1.00  0.00     0.173 A 
ATOM     81  F   UNL A   1      37.722  35.015  34.225  1.00  0.00    -0.203 F 
ATOM     82  C   UNL A   1      35.862  34.562  32.865  1.00  0.00     0.198 A 
ATOM     83  C   UNL A   1      35.502  32.326  32.036  1.00  0.00     0.198 A 
ATOM     84  F   UNL A   1      36.990  30.602  32.592  1.00  0.00    -0.203 F 
ATOM     85  F   UNL A   1      35.523  35.857  32.874  1.00  0.00    -0.200 F 
ATOM     86  C   UNL A   1      35.193  33.681  32.034  1.00  0.00     0.200 A 
ATOM     87  F   UNL A   1      34.815  31.461  31.280  1.00  0.00    -0.200 F 
ATOM     88  F   UNL A   1      34.309  34.177  31.163  1.00  0.00    -0.200 F 
ENDBRANCH  54  78
BRANCH  66  89
ATOM     89  C   UNL A   1      42.430  27.941  34.837  1.00  0.00     0.064 A 
ATOM     90  C   UNL A   1      43.616  28.042  35.578  1.00  0.00     0.173 A 
ATOM     91  C   UNL A   1      41.764  26.701  34.880  1.00  0.00     0.173 A 
ATOM     92  F   UNL A   1      44.346  29.169  35.558  1.00  0.00    -0.203 F 
ATOM     93  C   UNL A   1      44.094  26.975  36.340  1.00  0.00     0.198 A 
ATOM     94  C   UNL A   1      42.269  25.621  35.600  1.00  0.00     0.198 A 
ATOM     95  F   UNL A   1      40.601  26.512  34.240  1.00  0.00    -0.203 F 
ATOM     96  F   UNL A   1      45.208  27.124  37.068  1.00  0.00    -0.200 F 
ATOM     97  C   UNL A   1      43.429  25.760  36.337  1.00  0.00     0.200 A 
ATOM     98  F   UNL A   1      41.624  24.447  35.575  1.00  0.00    -0.200 F 
ATOM     99  F   UNL A   1      43.904  24.728  37.045  1.00  0.00    -0.200 F 
ENDBRANCH  66  89
ENDBRANCH  40  41
ENDBRANCH  32  35
ENDBRANCH  30  31
ENDBRANCH   1  30
TORSDOF 12
ENDMDL
