MODEL 1
REMARK VINA RESULT:     -12.3      0.000      0.000
REMARK SMILES [NH3+]CCC1=c2cc([N+](=O)[O-])ccc2=N[C@H]1C(=O)NCCCNC(=O)c1ccc(-c2c3nc(c(-c4c(F)c(F)c(F)c(F)c4F)c4ccc([nH]4)c(-c4c(F)c(F)c(F)c(F)c4F)c4nc(c(-c5c(F)c(F)c(F)c(F)c5F)c5ccc2[nH]5)C=C4)C=C3)cc1
REMARK SMILES IDX 19 1 18 2 16 3 17 4 15 6 4 7 5 8 6 9 13 10 14 11 7 12 12 13
REMARK SMILES IDX 11 14 3 15 2 16 1 17 8 21 9 22 10 23 20 24 21 25 22 26 23 27
REMARK SMILES IDX 24 29 25 30 26 31 87 32 27 33 86 34 28 35 29 36 30 37 80 38
REMARK SMILES IDX 31 39 85 40 79 41 81 42 32 43 84 44 78 45 77 46 33 48 65 49
REMARK SMILES IDX 45 50 64 51 46 52 49 53 63 54 82 55 47 56 48 57 62 59 83 60
REMARK SMILES IDX 50 61 34 62 35 63 43 64 36 65 37 66 41 67 44 68 38 69 39 70
REMARK SMILES IDX 42 71 40 72 66 73 67 74 75 75 68 76 69 77 73 78 76 79 70 80
REMARK SMILES IDX 71 81 74 82 72 83 51 84 52 85 60 86 53 87 54 88 58 89 61 90
REMARK SMILES IDX 55 91 56 92 59 93 57 94
REMARK H PARENT 18 5 1 18 1 19 1 20 22 28 81 47 49 58
REMARK Flexibility Score: inf
ROOT
ATOM      1  C   UNL A   1      32.525  27.242  26.478  1.00  0.00     0.117 C 
ENDROOT
BRANCH   1   2
ATOM      2  N   UNL A   1      33.059  26.747  25.219  1.00  0.00    -0.354 N 
ATOM      3  C   UNL A   1      33.580  25.524  24.899  1.00  0.00     0.249 C 
ATOM      4  O   UNL A   1      34.033  25.382  23.759  1.00  0.00    -0.272 OA
ATOM      5  H   UNL A   1      33.042  27.395  24.478  1.00  0.00     0.163 HD
BRANCH   3   6
ATOM      6  C   UNL A   1      33.524  24.373  25.923  1.00  0.00     0.222 C 
ATOM      7  C   UNL A   1      32.441  23.384  25.575  1.00  0.00    -0.021 C 
ATOM      8  C   UNL A   1      32.977  22.191  25.325  1.00  0.00     0.009 A 
ATOM      9  C   UNL A   1      32.455  20.911  24.959  1.00  0.00     0.096 A 
ATOM     10  C   UNL A   1      34.423  22.427  25.494  1.00  0.00     0.067 A 
ATOM     11  N   UNL A   1      34.808  23.612  25.848  1.00  0.00    -0.267 NA
ATOM     12  C   UNL A   1      33.323  19.900  24.763  1.00  0.00     0.270 A 
ATOM     13  C   UNL A   1      35.310  21.269  25.245  1.00  0.00     0.035 A 
ATOM     14  C   UNL A   1      34.766  20.087  24.900  1.00  0.00     0.088 A 
BRANCH   7  15
ATOM     15  C   UNL A   1      30.988  23.764  25.517  1.00  0.00     0.096 C 
BRANCH  15  16
ATOM     16  C   UNL A   1      30.190  23.536  26.813  1.00  0.00     0.263 C 
BRANCH  16  17
ATOM     17  N   UNL A   1      29.394  22.310  26.792  1.00  0.00    -0.357 N 
ATOM     18  H   UNL A   1      28.405  22.548  26.706  1.00  0.00     0.344 HD
ATOM     19  H   UNL A   1      29.545  21.791  27.656  1.00  0.00     0.344 HD
ATOM     20  H   UNL A   1      29.675  21.736  25.996  1.00  0.00     0.344 HD
ENDBRANCH  16  17
ENDBRANCH  15  16
ENDBRANCH   7  15
BRANCH  12  21
ATOM     21  N   UNL A   1      32.768  18.586  24.412  1.00  0.00     0.062 N 
ATOM     22  O   UNL A   1      31.989  18.042  25.209  1.00  0.00    -0.258 OA
ATOM     23  O   UNL A   1      33.124  18.092  23.332  1.00  0.00    -0.258 OA
ENDBRANCH  12  21
ENDBRANCH   3   6
ENDBRANCH   1   2
BRANCH   1  24
ATOM     24  C   UNL A   1      31.852  28.597  26.325  1.00  0.00     0.042 C 
BRANCH  24  25
ATOM     25  C   UNL A   1      32.773  29.703  25.825  1.00  0.00     0.118 C 
BRANCH  25  26
ATOM     26  N   UNL A   1      32.464  31.018  26.374  1.00  0.00    -0.352 N 
ATOM     27  C   UNL A   1      33.185  31.804  27.244  1.00  0.00     0.251 C 
ATOM     28  H   UNL A   1      31.607  31.403  26.076  1.00  0.00     0.163 HD
ATOM     29  O   UNL A   1      32.705  32.846  27.677  1.00  0.00    -0.269 OA
BRANCH  27  30
ATOM     30  C   UNL A   1      34.523  31.366  27.694  1.00  0.00     0.039 A 
ATOM     31  C   UNL A   1      34.765  30.028  28.008  1.00  0.00     0.014 A 
ATOM     32  C   UNL A   1      35.533  32.317  27.855  1.00  0.00     0.014 A 
ATOM     33  C   UNL A   1      35.932  29.683  28.680  1.00  0.00     0.010 A 
ATOM     34  C   UNL A   1      36.748  31.948  28.439  1.00  0.00     0.010 A 
ATOM     35  C   UNL A   1      36.931  30.643  28.918  1.00  0.00    -0.014 A 
BRANCH  35  36
ATOM     36  C   UNL A   1      38.137  30.255  29.697  1.00  0.00     0.031 A 
ATOM     37  C   UNL A   1      38.309  30.701  31.124  1.00  0.00     0.074 A 
ATOM     38  C   UNL A   1      39.046  29.434  29.135  1.00  0.00     0.049 A 
ATOM     39  N   UNL A   1      39.283  30.433  31.960  1.00  0.00    -0.248 NA
ATOM     40  C   UNL A   1      37.262  31.566  31.691  1.00  0.00     0.031 C 
ATOM     41  C   UNL A   1      38.988  28.931  27.761  1.00  0.00     0.029 A 
ATOM     42  N   UNL A   1      40.175  28.853  29.655  1.00  0.00    -0.354 N 
ATOM     43  C   UNL A   1      38.982  31.117  33.131  1.00  0.00     0.074 A 
ATOM     44  C   UNL A   1      37.744  31.828  32.900  1.00  0.00     0.031 C 
ATOM     45  C   UNL A   1      40.000  28.074  27.565  1.00  0.00     0.029 A 
ATOM     46  C   UNL A   1      40.813  28.013  28.776  1.00  0.00     0.049 A 
ATOM     47  H   UNL A   1      40.498  29.025  30.569  1.00  0.00     0.167 HD
ATOM     48  C   UNL A   1      39.670  31.138  34.297  1.00  0.00     0.037 A 
ATOM     49  C   UNL A   1      41.933  27.281  28.922  1.00  0.00     0.037 A 
ATOM     50  C   UNL A   1      40.872  30.389  34.547  1.00  0.00     0.049 A 
ATOM     51  C   UNL A   1      42.674  27.324  30.227  1.00  0.00     0.074 A 
ATOM     52  C   UNL A   1      41.609  30.309  35.716  1.00  0.00     0.029 A 
ATOM     53  N   UNL A   1      41.508  29.583  33.616  1.00  0.00    -0.354 N 
ATOM     54  N   UNL A   1      42.370  27.968  31.327  1.00  0.00    -0.248 NA
ATOM     55  C   UNL A   1      43.920  26.549  30.308  1.00  0.00     0.031 C 
ATOM     56  C   UNL A   1      42.712  29.482  35.482  1.00  0.00     0.029 A 
ATOM     57  C   UNL A   1      42.641  29.018  34.179  1.00  0.00     0.049 A 
ATOM     58  H   UNL A   1      41.200  29.433  32.693  1.00  0.00     0.167 HD
ATOM     59  C   UNL A   1      43.382  27.680  32.228  1.00  0.00     0.074 A 
ATOM     60  C   UNL A   1      44.298  26.779  31.559  1.00  0.00     0.031 C 
ATOM     61  C   UNL A   1      43.544  28.129  33.496  1.00  0.00     0.037 A 
BRANCH  48  62
ATOM     62  C   UNL A   1      39.149  32.000  35.409  1.00  0.00     0.064 A 
ATOM     63  C   UNL A   1      38.361  31.471  36.440  1.00  0.00     0.173 A 
ATOM     64  C   UNL A   1      39.524  33.349  35.492  1.00  0.00     0.173 A 
ATOM     65  F   UNL A   1      37.969  30.189  36.401  1.00  0.00    -0.203 F 
ATOM     66  C   UNL A   1      37.963  32.265  37.514  1.00  0.00     0.198 A 
ATOM     67  C   UNL A   1      39.141  34.134  36.576  1.00  0.00     0.198 A 
ATOM     68  F   UNL A   1      40.284  33.900  34.533  1.00  0.00    -0.203 F 
ATOM     69  F   UNL A   1      37.194  31.745  38.480  1.00  0.00    -0.200 F 
ATOM     70  C   UNL A   1      38.361  33.592  37.585  1.00  0.00     0.200 A 
ATOM     71  F   UNL A   1      39.538  35.413  36.649  1.00  0.00    -0.200 F 
ATOM     72  F   UNL A   1      37.993  34.348  38.629  1.00  0.00    -0.200 F 
ENDBRANCH  48  62
BRANCH  49  73
ATOM     73  C   UNL A   1      42.416  26.452  27.790  1.00  0.00     0.064 A 
ATOM     74  C   UNL A   1      41.949  25.145  27.602  1.00  0.00     0.173 A 
ATOM     75  C   UNL A   1      43.331  26.962  26.856  1.00  0.00     0.173 A 
ATOM     76  F   UNL A   1      41.089  24.609  28.479  1.00  0.00    -0.203 F 
ATOM     77  C   UNL A   1      42.382  24.377  26.523  1.00  0.00     0.198 A 
ATOM     78  C   UNL A   1      43.742  26.203  25.764  1.00  0.00     0.198 A 
ATOM     79  F   UNL A   1      43.804  28.210  26.992  1.00  0.00    -0.203 F 
ATOM     80  F   UNL A   1      41.942  23.119  26.380  1.00  0.00    -0.200 F 
ATOM     81  C   UNL A   1      43.271  24.909  25.601  1.00  0.00     0.200 A 
ATOM     82  F   UNL A   1      44.589  26.727  24.868  1.00  0.00    -0.200 F 
ATOM     83  F   UNL A   1      43.675  24.175  24.556  1.00  0.00    -0.200 F 
ENDBRANCH  49  73
BRANCH  61  84
ATOM     84  C   UNL A   1      44.755  27.663  34.243  1.00  0.00     0.064 A 
ATOM     85  C   UNL A   1      45.938  28.415  34.246  1.00  0.00     0.173 A 
ATOM     86  C   UNL A   1      44.712  26.493  35.016  1.00  0.00     0.173 A 
ATOM     87  F   UNL A   1      46.028  29.534  33.512  1.00  0.00    -0.203 F 
ATOM     88  C   UNL A   1      47.041  28.007  34.991  1.00  0.00     0.198 A 
ATOM     89  C   UNL A   1      45.809  26.100  35.776  1.00  0.00     0.198 A 
ATOM     90  F   UNL A   1      43.600  25.745  35.048  1.00  0.00    -0.203 F 
ATOM     91  F   UNL A   1      48.171  28.725  34.960  1.00  0.00    -0.200 F 
ATOM     92  C   UNL A   1      46.973  26.855  35.761  1.00  0.00     0.200 A 
ATOM     93  F   UNL A   1      45.739  24.994  36.529  1.00  0.00    -0.200 F 
ATOM     94  F   UNL A   1      48.031  26.470  36.488  1.00  0.00    -0.200 F 
ENDBRANCH  61  84
ENDBRANCH  35  36
ENDBRANCH  27  30
ENDBRANCH  25  26
ENDBRANCH  24  25
ENDBRANCH   1  24
TORSDOF 14
ENDMDL
MODEL 2
REMARK VINA RESULT:     -12.1      1.932      3.154
REMARK SMILES [NH3+]CCC1=c2cc([N+](=O)[O-])ccc2=N[C@H]1C(=O)NCCCNC(=O)c1ccc(-c2c3nc(c(-c4c(F)c(F)c(F)c(F)c4F)c4ccc([nH]4)c(-c4c(F)c(F)c(F)c(F)c4F)c4nc(c(-c5c(F)c(F)c(F)c(F)c5F)c5ccc2[nH]5)C=C4)C=C3)cc1
REMARK SMILES IDX 19 1 18 2 16 3 17 4 15 6 4 7 5 8 6 9 13 10 14 11 7 12 12 13
REMARK SMILES IDX 11 14 3 15 2 16 1 17 8 21 9 22 10 23 20 24 21 25 22 26 23 27
REMARK SMILES IDX 24 29 25 30 26 31 87 32 27 33 86 34 28 35 29 36 30 37 80 38
REMARK SMILES IDX 31 39 85 40 79 41 81 42 32 43 84 44 78 45 77 46 33 48 65 49
REMARK SMILES IDX 45 50 64 51 46 52 49 53 63 54 82 55 47 56 48 57 62 59 83 60
REMARK SMILES IDX 50 61 34 62 35 63 43 64 36 65 37 66 41 67 44 68 38 69 39 70
REMARK SMILES IDX 42 71 40 72 66 73 67 74 75 75 68 76 69 77 73 78 76 79 70 80
REMARK SMILES IDX 71 81 74 82 72 83 51 84 52 85 60 86 53 87 54 88 58 89 61 90
REMARK SMILES IDX 55 91 56 92 59 93 57 94
REMARK H PARENT 18 5 1 18 1 19 1 20 22 28 81 47 49 58
REMARK Flexibility Score: inf
ROOT
ATOM      1  C   UNL A   1      31.890  30.348  26.727  1.00  0.00     0.117 C 
ENDROOT
BRANCH   1   2
ATOM      2  N   UNL A   1      31.893  29.733  25.409  1.00  0.00    -0.354 N 
ATOM      3  C   UNL A   1      32.100  28.433  25.039  1.00  0.00     0.249 C 
ATOM      4  O   UNL A   1      32.117  28.184  23.829  1.00  0.00    -0.272 OA
ATOM      5  H   UNL A   1      31.719  30.352  24.663  1.00  0.00     0.163 HD
BRANCH   3   6
ATOM      6  C   UNL A   1      32.231  27.339  26.117  1.00  0.00     0.222 C 
ATOM      7  C   UNL A   1      31.416  26.122  25.764  1.00  0.00    -0.021 C 
ATOM      8  C   UNL A   1      32.215  25.069  25.606  1.00  0.00     0.009 A 
ATOM      9  C   UNL A   1      32.010  23.692  25.281  1.00  0.00     0.096 A 
ATOM     10  C   UNL A   1      33.560  25.625  25.839  1.00  0.00     0.067 A 
ATOM     11  N   UNL A   1      33.653  26.880  26.151  1.00  0.00    -0.267 NA
ATOM     12  C   UNL A   1      33.089  22.891  25.185  1.00  0.00     0.270 A 
ATOM     13  C   UNL A   1      34.694  24.684  25.699  1.00  0.00     0.035 A 
ATOM     14  C   UNL A   1      34.444  23.399  25.388  1.00  0.00     0.088 A 
BRANCH   7  15
ATOM     15  C   UNL A   1      29.921  26.169  25.609  1.00  0.00     0.096 C 
BRANCH  15  16
ATOM     16  C   UNL A   1      29.399  26.019  24.170  1.00  0.00     0.263 C 
BRANCH  16  17
ATOM     17  N   UNL A   1      27.967  26.288  24.045  1.00  0.00    -0.357 N 
ATOM     18  H   UNL A   1      27.745  26.503  23.072  1.00  0.00     0.344 HD
ATOM     19  H   UNL A   1      27.717  27.081  24.634  1.00  0.00     0.344 HD
ATOM     20  H   UNL A   1      27.439  25.466  24.339  1.00  0.00     0.344 HD
ENDBRANCH  16  17
ENDBRANCH  15  16
ENDBRANCH   7  15
BRANCH  12  21
ATOM     21  N   UNL A   1      32.859  21.474  24.874  1.00  0.00     0.062 N 
ATOM     22  O   UNL A   1      31.763  20.975  25.170  1.00  0.00    -0.258 OA
ATOM     23  O   UNL A   1      33.788  20.855  24.336  1.00  0.00    -0.258 OA
ENDBRANCH  12  21
ENDBRANCH   3   6
ENDBRANCH   1   2
BRANCH   1  24
ATOM     24  C   UNL A   1      31.697  31.855  26.659  1.00  0.00     0.042 C 
BRANCH  24  25
ATOM     25  C   UNL A   1      32.814  32.661  27.308  1.00  0.00     0.118 C 
BRANCH  25  26
ATOM     26  N   UNL A   1      32.430  34.025  27.653  1.00  0.00    -0.352 N 
ATOM     27  C   UNL A   1      32.973  34.887  28.578  1.00  0.00     0.251 C 
ATOM     28  H   UNL A   1      31.665  34.384  27.148  1.00  0.00     0.163 HD
ATOM     29  O   UNL A   1      32.439  35.969  28.802  1.00  0.00    -0.269 OA
BRANCH  27  30
ATOM     30  C   UNL A   1      34.176  34.488  29.340  1.00  0.00     0.039 A 
ATOM     31  C   UNL A   1      35.450  34.669  28.802  1.00  0.00     0.014 A 
ATOM     32  C   UNL A   1      34.021  33.878  30.587  1.00  0.00     0.014 A 
ATOM     33  C   UNL A   1      36.540  34.050  29.403  1.00  0.00     0.010 A 
ATOM     34  C   UNL A   1      35.135  33.343  31.241  1.00  0.00     0.010 A 
ATOM     35  C   UNL A   1      36.393  33.365  30.622  1.00  0.00    -0.014 A 
BRANCH  35  36
ATOM     36  C   UNL A   1      37.565  32.660  31.203  1.00  0.00     0.031 A 
ATOM     37  C   UNL A   1      38.029  32.960  32.604  1.00  0.00     0.074 A 
ATOM     38  C   UNL A   1      38.170  31.690  30.488  1.00  0.00     0.049 A 
ATOM     39  N   UNL A   1      39.014  32.421  33.280  1.00  0.00    -0.248 NA
ATOM     40  C   UNL A   1      37.302  34.004  33.345  1.00  0.00     0.031 C 
ATOM     41  C   UNL A   1      37.811  31.306  29.122  1.00  0.00     0.029 A 
ATOM     42  N   UNL A   1      39.188  30.833  30.819  1.00  0.00    -0.354 N 
ATOM     43  C   UNL A   1      39.044  33.077  34.503  1.00  0.00     0.074 A 
ATOM     44  C   UNL A   1      37.991  34.067  34.478  1.00  0.00     0.031 C 
ATOM     45  C   UNL A   1      38.555  30.253  28.753  1.00  0.00     0.029 A 
ATOM     46  C   UNL A   1      39.484  29.928  29.830  1.00  0.00     0.049 A 
ATOM     47  H   UNL A   1      39.663  30.865  31.681  1.00  0.00     0.167 HD
ATOM     48  C   UNL A   1      39.867  32.862  35.557  1.00  0.00     0.037 A 
ATOM     49  C   UNL A   1      40.409  28.949  29.787  1.00  0.00     0.037 A 
ATOM     50  C   UNL A   1      40.879  31.841  35.604  1.00  0.00     0.049 A 
ATOM     51  C   UNL A   1      41.307  28.735  30.970  1.00  0.00     0.074 A 
ATOM     52  C   UNL A   1      41.727  31.518  36.650  1.00  0.00     0.029 A 
ATOM     53  N   UNL A   1      41.175  30.973  34.565  1.00  0.00    -0.354 N 
ATOM     54  N   UNL A   1      41.314  29.357  32.123  1.00  0.00    -0.248 NA
ATOM     55  C   UNL A   1      42.332  27.690  30.844  1.00  0.00     0.031 C 
ATOM     56  C   UNL A   1      42.561  30.476  36.231  1.00  0.00     0.029 A 
ATOM     57  C   UNL A   1      42.207  30.127  34.938  1.00  0.00     0.049 A 
ATOM     58  H   UNL A   1      40.720  30.960  33.692  1.00  0.00     0.167 HD
ATOM     59  C   UNL A   1      42.341  28.785  32.858  1.00  0.00     0.074 A 
ATOM     60  C   UNL A   1      42.918  27.744  32.033  1.00  0.00     0.031 C 
ATOM     61  C   UNL A   1      42.773  29.101  34.102  1.00  0.00     0.037 A 
BRANCH  48  62
ATOM     62  C   UNL A   1      39.720  33.745  36.760  1.00  0.00     0.064 A 
ATOM     63  C   UNL A   1      40.319  35.011  36.820  1.00  0.00     0.173 A 
ATOM     64  C   UNL A   1      38.890  33.358  37.823  1.00  0.00     0.173 A 
ATOM     65  F   UNL A   1      41.128  35.422  35.832  1.00  0.00    -0.203 F 
ATOM     66  C   UNL A   1      40.097  35.856  37.905  1.00  0.00     0.198 A 
ATOM     67  C   UNL A   1      38.654  34.214  38.896  1.00  0.00     0.198 A 
ATOM     68  F   UNL A   1      38.288  32.160  37.809  1.00  0.00    -0.203 F 
ATOM     69  F   UNL A   1      40.695  37.054  37.952  1.00  0.00    -0.200 F 
ATOM     70  C   UNL A   1      39.258  35.461  38.936  1.00  0.00     0.200 A 
ATOM     71  F   UNL A   1      37.833  33.835  39.885  1.00  0.00    -0.200 F 
ATOM     72  F   UNL A   1      39.030  36.284  39.969  1.00  0.00    -0.200 F 
ENDBRANCH  48  62
BRANCH  49  73
ATOM     73  C   UNL A   1      40.524  28.108  28.570  1.00  0.00     0.064 A 
ATOM     74  C   UNL A   1      41.308  28.514  27.483  1.00  0.00     0.173 A 
ATOM     75  C   UNL A   1      39.877  26.866  28.484  1.00  0.00     0.173 A 
ATOM     76  F   UNL A   1      41.930  29.702  27.513  1.00  0.00    -0.203 F 
ATOM     77  C   UNL A   1      41.439  27.710  26.353  1.00  0.00     0.198 A 
ATOM     78  C   UNL A   1      40.030  26.052  27.365  1.00  0.00     0.198 A 
ATOM     79  F   UNL A   1      39.118  26.432  29.501  1.00  0.00    -0.203 F 
ATOM     80  F   UNL A   1      42.172  28.133  25.314  1.00  0.00    -0.200 F 
ATOM     81  C   UNL A   1      40.807  26.477  26.298  1.00  0.00     0.200 A 
ATOM     82  F   UNL A   1      39.430  24.855  27.323  1.00  0.00    -0.200 F 
ATOM     83  F   UNL A   1      40.945  25.699  25.216  1.00  0.00    -0.200 F 
ENDBRANCH  49  73
BRANCH  61  84
ATOM     84  C   UNL A   1      43.928  28.321  34.650  1.00  0.00     0.064 A 
ATOM     85  C   UNL A   1      45.246  28.776  34.499  1.00  0.00     0.173 A 
ATOM     86  C   UNL A   1      43.712  27.148  35.387  1.00  0.00     0.173 A 
ATOM     87  F   UNL A   1      45.499  29.886  33.791  1.00  0.00    -0.203 F 
ATOM     88  C   UNL A   1      46.310  28.076  35.061  1.00  0.00     0.198 A 
ATOM     89  C   UNL A   1      44.777  26.463  35.966  1.00  0.00     0.198 A 
ATOM     90  F   UNL A   1      42.469  26.678  35.562  1.00  0.00    -0.203 F 
ATOM     91  F   UNL A   1      47.564  28.513  34.884  1.00  0.00    -0.200 F 
ATOM     92  C   UNL A   1      46.074  26.927  35.800  1.00  0.00     0.200 A 
ATOM     93  F   UNL A   1      44.548  25.359  36.689  1.00  0.00    -0.200 F 
ATOM     94  F   UNL A   1      47.099  26.262  36.352  1.00  0.00    -0.200 F 
ENDBRANCH  61  84
ENDBRANCH  35  36
ENDBRANCH  27  30
ENDBRANCH  25  26
ENDBRANCH  24  25
ENDBRANCH   1  24
TORSDOF 14
ENDMDL
MODEL 3
REMARK VINA RESULT:     -12.0      2.042      8.002
REMARK SMILES [NH3+]CCC1=c2cc([N+](=O)[O-])ccc2=N[C@H]1C(=O)NCCCNC(=O)c1ccc(-c2c3nc(c(-c4c(F)c(F)c(F)c(F)c4F)c4ccc([nH]4)c(-c4c(F)c(F)c(F)c(F)c4F)c4nc(c(-c5c(F)c(F)c(F)c(F)c5F)c5ccc2[nH]5)C=C4)C=C3)cc1
REMARK SMILES IDX 19 1 18 2 16 3 17 4 15 6 4 7 5 8 6 9 13 10 14 11 7 12 12 13
REMARK SMILES IDX 11 14 3 15 2 16 1 17 8 21 9 22 10 23 20 24 21 25 22 26 23 27
REMARK SMILES IDX 24 29 25 30 26 31 87 32 27 33 86 34 28 35 29 36 30 37 80 38
REMARK SMILES IDX 31 39 85 40 79 41 81 42 32 43 84 44 78 45 77 46 33 48 65 49
REMARK SMILES IDX 45 50 64 51 46 52 49 53 63 54 82 55 47 56 48 57 62 59 83 60
REMARK SMILES IDX 50 61 34 62 35 63 43 64 36 65 37 66 41 67 44 68 38 69 39 70
REMARK SMILES IDX 42 71 40 72 66 73 67 74 75 75 68 76 69 77 73 78 76 79 70 80
REMARK SMILES IDX 71 81 74 82 72 83 51 84 52 85 60 86 53 87 54 88 58 89 61 90
REMARK SMILES IDX 55 91 56 92 59 93 57 94
REMARK H PARENT 18 5 1 18 1 19 1 20 22 28 81 47 49 58
REMARK Flexibility Score: inf
ROOT
ATOM      1  C   UNL A   1      31.793  30.512  26.741  1.00  0.00     0.117 C 
ENDROOT
BRANCH   1   2
ATOM      2  N   UNL A   1      31.792  29.954  25.398  1.00  0.00    -0.354 N 
ATOM      3  C   UNL A   1      32.049  28.681  24.968  1.00  0.00     0.249 C 
ATOM      4  O   UNL A   1      32.048  28.484  23.749  1.00  0.00    -0.272 OA
ATOM      5  H   UNL A   1      31.571  30.594  24.683  1.00  0.00     0.163 HD
BRANCH   3   6
ATOM      6  C   UNL A   1      32.256  27.551  25.996  1.00  0.00     0.222 C 
ATOM      7  C   UNL A   1      31.506  26.306  25.599  1.00  0.00    -0.021 C 
ATOM      8  C   UNL A   1      32.362  25.308  25.386  1.00  0.00     0.009 A 
ATOM      9  C   UNL A   1      32.231  23.936  25.002  1.00  0.00     0.096 A 
ATOM     10  C   UNL A   1      33.676  25.930  25.628  1.00  0.00     0.067 A 
ATOM     11  N   UNL A   1      33.702  27.173  25.994  1.00  0.00    -0.267 NA
ATOM     12  C   UNL A   1      33.352  23.204  24.859  1.00  0.00     0.270 A 
ATOM     13  C   UNL A   1      34.860  25.062  25.435  1.00  0.00     0.035 A 
ATOM     14  C   UNL A   1      34.679  23.779  25.070  1.00  0.00     0.088 A 
BRANCH   7  15
ATOM     15  C   UNL A   1      30.010  26.273  25.462  1.00  0.00     0.096 C 
BRANCH  15  16
ATOM     16  C   UNL A   1      29.477  26.189  24.021  1.00  0.00     0.263 C 
BRANCH  16  17
ATOM     17  N   UNL A   1      28.018  26.257  23.940  1.00  0.00    -0.357 N 
ATOM     18  H   UNL A   1      27.611  25.537  24.538  1.00  0.00     0.344 HD
ATOM     19  H   UNL A   1      27.724  26.105  22.976  1.00  0.00     0.344 HD
ATOM     20  H   UNL A   1      27.703  27.176  24.252  1.00  0.00     0.344 HD
ENDBRANCH  16  17
ENDBRANCH  15  16
ENDBRANCH   7  15
BRANCH  12  21
ATOM     21  N   UNL A   1      33.199  21.791  24.488  1.00  0.00     0.062 N 
ATOM     22  O   UNL A   1      34.215  21.082  24.430  1.00  0.00    -0.258 OA
ATOM     23  O   UNL A   1      32.051  21.391  24.245  1.00  0.00    -0.258 OA
ENDBRANCH  12  21
ENDBRANCH   3   6
ENDBRANCH   1   2
BRANCH   1  24
ATOM     24  C   UNL A   1      31.584  32.018  26.738  1.00  0.00     0.042 C 
BRANCH  24  25
ATOM     25  C   UNL A   1      32.747  32.815  27.313  1.00  0.00     0.118 C 
BRANCH  25  26
ATOM     26  N   UNL A   1      32.413  34.199  27.629  1.00  0.00    -0.352 N 
ATOM     27  C   UNL A   1      32.953  35.045  28.572  1.00  0.00     0.251 C 
ATOM     28  H   UNL A   1      31.689  34.588  27.086  1.00  0.00     0.163 HD
ATOM     29  O   UNL A   1      32.460  36.152  28.761  1.00  0.00    -0.269 OA
BRANCH  27  30
ATOM     30  C   UNL A   1      34.098  34.598  29.391  1.00  0.00     0.039 A 
ATOM     31  C   UNL A   1      35.394  34.621  28.876  1.00  0.00     0.014 A 
ATOM     32  C   UNL A   1      33.864  34.100  30.676  1.00  0.00     0.014 A 
ATOM     33  C   UNL A   1      36.411  33.954  29.548  1.00  0.00     0.010 A 
ATOM     34  C   UNL A   1      34.912  33.518  31.396  1.00  0.00     0.010 A 
ATOM     35  C   UNL A   1      36.178  33.380  30.810  1.00  0.00    -0.014 A 
BRANCH  35  36
ATOM     36  C   UNL A   1      37.270  32.618  31.472  1.00  0.00     0.031 A 
ATOM     37  C   UNL A   1      37.989  31.513  30.745  1.00  0.00     0.074 A 
ATOM     38  C   UNL A   1      37.663  32.974  32.711  1.00  0.00     0.049 A 
ATOM     39  N   UNL A   1      38.982  30.764  31.159  1.00  0.00    -0.248 NA
ATOM     40  C   UNL A   1      37.536  31.197  29.381  1.00  0.00     0.031 C 
ATOM     41  C   UNL A   1      37.047  34.030  33.517  1.00  0.00     0.029 A 
ATOM     42  N   UNL A   1      38.690  32.514  33.495  1.00  0.00    -0.354 N 
ATOM     43  C   UNL A   1      39.248  29.876  30.124  1.00  0.00     0.074 A 
ATOM     44  C   UNL A   1      38.305  30.162  29.067  1.00  0.00     0.031 C 
ATOM     45  C   UNL A   1      37.742  34.176  34.654  1.00  0.00     0.029 A 
ATOM     46  C   UNL A   1      38.813  33.185  34.686  1.00  0.00     0.049 A 
ATOM     47  H   UNL A   1      39.280  31.771  33.230  1.00  0.00     0.167 HD
ATOM     48  C   UNL A   1      40.203  28.917  30.060  1.00  0.00     0.037 A 
ATOM     49  C   UNL A   1      39.683  33.018  35.700  1.00  0.00     0.037 A 
ATOM     50  C   UNL A   1      41.177  28.667  31.088  1.00  0.00     0.049 A 
ATOM     51  C   UNL A   1      40.731  31.948  35.599  1.00  0.00     0.074 A 
ATOM     52  C   UNL A   1      42.214  27.749  31.086  1.00  0.00     0.029 A 
ATOM     53  N   UNL A   1      41.240  29.341  32.297  1.00  0.00    -0.354 N 
ATOM     54  N   UNL A   1      40.975  31.123  34.609  1.00  0.00    -0.248 NA
ATOM     55  C   UNL A   1      41.617  31.775  36.758  1.00  0.00     0.031 C 
ATOM     56  C   UNL A   1      42.884  27.845  32.310  1.00  0.00     0.029 A 
ATOM     57  C   UNL A   1      42.287  28.846  33.058  1.00  0.00     0.049 A 
ATOM     58  H   UNL A   1      40.632  30.065  32.573  1.00  0.00     0.167 HD
ATOM     59  C   UNL A   1      42.037  30.335  35.024  1.00  0.00     0.074 A 
ATOM     60  C   UNL A   1      42.412  30.796  36.345  1.00  0.00     0.031 C 
ATOM     61  C   UNL A   1      42.642  29.313  34.372  1.00  0.00     0.037 A 
BRANCH  48  62
ATOM     62  C   UNL A   1      40.254  28.053  28.835  1.00  0.00     0.064 A 
ATOM     63  C   UNL A   1      41.005  28.418  27.709  1.00  0.00     0.173 A 
ATOM     64  C   UNL A   1      39.620  26.801  28.826  1.00  0.00     0.173 A 
ATOM     65  F   UNL A   1      41.622  29.609  27.666  1.00  0.00    -0.203 F 
ATOM     66  C   UNL A   1      41.116  27.561  26.616  1.00  0.00     0.198 A 
ATOM     67  C   UNL A   1      39.750  25.940  27.740  1.00  0.00     0.198 A 
ATOM     68  F   UNL A   1      38.895  26.403  29.883  1.00  0.00    -0.203 F 
ATOM     69  F   UNL A   1      41.824  27.938  25.542  1.00  0.00    -0.200 F 
ATOM     70  C   UNL A   1      40.498  26.321  26.637  1.00  0.00     0.200 A 
ATOM     71  F   UNL A   1      39.162  24.736  27.768  1.00  0.00    -0.200 F 
ATOM     72  F   UNL A   1      40.622  25.490  25.592  1.00  0.00    -0.200 F 
ENDBRANCH  48  62
BRANCH  49  73
ATOM     73  C   UNL A   1      39.587  33.890  36.896  1.00  0.00     0.064 A 
ATOM     74  C   UNL A   1      40.212  35.142  36.929  1.00  0.00     0.173 A 
ATOM     75  C   UNL A   1      38.842  33.500  38.020  1.00  0.00     0.173 A 
ATOM     76  F   UNL A   1      40.951  35.550  35.886  1.00  0.00    -0.203 F 
ATOM     77  C   UNL A   1      40.098  35.973  38.042  1.00  0.00     0.198 A 
ATOM     78  C   UNL A   1      38.707  34.340  39.120  1.00  0.00     0.198 A 
ATOM     79  F   UNL A   1      38.223  32.310  38.034  1.00  0.00    -0.203 F 
ATOM     80  F   UNL A   1      40.729  37.155  38.061  1.00  0.00    -0.200 F 
ATOM     81  C   UNL A   1      39.340  35.575  39.133  1.00  0.00     0.200 A 
ATOM     82  F   UNL A   1      37.961  33.959  40.165  1.00  0.00    -0.200 F 
ATOM     83  F   UNL A   1      39.219  36.380  40.197  1.00  0.00    -0.200 F 
ENDBRANCH  49  73
BRANCH  61  84
ATOM     84  C   UNL A   1      43.766  28.617  35.074  1.00  0.00     0.064 A 
ATOM     85  C   UNL A   1      43.535  27.481  35.864  1.00  0.00     0.173 A 
ATOM     86  C   UNL A   1      45.090  29.047  34.903  1.00  0.00     0.173 A 
ATOM     87  F   UNL A   1      42.284  27.043  36.066  1.00  0.00    -0.203 F 
ATOM     88  C   UNL A   1      44.592  26.805  36.466  1.00  0.00     0.198 A 
ATOM     89  C   UNL A   1      46.146  28.354  35.488  1.00  0.00     0.198 A 
ATOM     90  F   UNL A   1      45.360  30.124  34.152  1.00  0.00    -0.203 F 
ATOM     91  F   UNL A   1      44.349  25.737  37.237  1.00  0.00    -0.200 F 
ATOM     92  C   UNL A   1      45.896  27.236  36.270  1.00  0.00     0.200 A 
ATOM     93  F   UNL A   1      47.406  28.764  35.290  1.00  0.00    -0.200 F 
ATOM     94  F   UNL A   1      46.914  26.575  36.840  1.00  0.00    -0.200 F 
ENDBRANCH  61  84
ENDBRANCH  35  36
ENDBRANCH  27  30
ENDBRANCH  25  26
ENDBRANCH  24  25
ENDBRANCH   1  24
TORSDOF 14
ENDMDL
