MODEL 1
REMARK VINA RESULT:     -12.9      0.000      0.000
REMARK SMILES COc1cccc([C@@H]2CN(C(=O)CSc3nc(C)n[nH]3)C[C@H]2C(=O)NCCCNC(=O)c2ccc(-c3c4nc(c(-c5c(F)c(F)c(F)c(F)c5F)c5ccc([nH]5)c(-c5c(F)c(F)c(F)c(F)c5F)c5nc(c(-c6c(F)c(F)c(F)c(F)c6F)c6ccc3[nH]6)C=C5)C=C4)cc2)c1
REMARK SMILES IDX 26 1 25 2 23 3 24 4 22 6 8 7 9 8 10 9 21 10 7 11 3 12 4 13
REMARK SMILES IDX 95 14 5 15 6 16 2 17 1 18 11 19 12 20 13 21 14 22 15 23
REMARK SMILES IDX 16 24 20 25 17 26 19 27 18 29 27 30 28 31 29 32 30 33 31 35
REMARK SMILES IDX 32 36 33 37 94 38 34 39 93 40 35 41 36 42 37 43 87 44 38 45
REMARK SMILES IDX 92 46 86 47 88 48 39 49 91 50 85 51 84 52 40 54 72 55 52 56
REMARK SMILES IDX 71 57 53 58 56 59 70 60 89 61 54 62 55 63 69 65 90 66 57 67
REMARK SMILES IDX 41 68 42 69 50 70 43 71 44 72 48 73 51 74 45 75 46 76 49 77
REMARK SMILES IDX 47 78 73 79 74 80 82 81 75 82 76 83 80 84 83 85 77 86 78 87
REMARK SMILES IDX 81 88 79 89 58 90 59 91 67 92 60 93 61 94 65 95 68 96 62 97
REMARK SMILES IDX 63 98 66 99 64 100
REMARK H PARENT 25 5 20 28 29 34 88 53 56 64
REMARK Flexibility Score: inf
ROOT
ATOM      1  C   UNL A   1      37.630  22.509  25.383  1.00  0.00     0.117 C 
ENDROOT
BRANCH   1   2
ATOM      2  N   UNL A   1      36.392  22.321  26.130  1.00  0.00    -0.356 N 
ATOM      3  C   UNL A   1      35.122  22.025  25.737  1.00  0.00     0.225 C 
ATOM      4  O   UNL A   1      34.292  21.822  26.627  1.00  0.00    -0.275 OA
ATOM      5  H   UNL A   1      36.495  22.428  27.104  1.00  0.00     0.163 HD
BRANCH   3   6
ATOM      6  C   UNL A   1      34.699  21.962  24.282  1.00  0.00     0.107 C 
ATOM      7  C   UNL A   1      33.240  21.501  24.113  1.00  0.00     0.053 C 
ATOM      8  C   UNL A   1      32.712  22.328  22.942  1.00  0.00     0.128 C 
ATOM      9  N   UNL A   1      33.489  23.555  22.993  1.00  0.00    -0.341 N 
ATOM     10  C   UNL A   1      34.807  23.306  23.564  1.00  0.00     0.133 C 
BRANCH   7  11
ATOM     11  C   UNL A   1      33.032  20.014  23.938  1.00  0.00    -0.039 A 
ATOM     12  C   UNL A   1      33.248  17.724  24.733  1.00  0.00     0.119 A 
ATOM     13  C   UNL A   1      32.731  17.260  23.523  1.00  0.00     0.046 A 
ATOM     14  C   UNL A   1      33.405  19.096  24.934  1.00  0.00     0.050 A 
ATOM     15  C   UNL A   1      32.342  18.159  22.532  1.00  0.00     0.004 A 
ATOM     16  C   UNL A   1      32.489  19.529  22.738  1.00  0.00     0.004 A 
BRANCH  12  17
ATOM     17  O   UNL A   1      33.615  16.752  25.622  1.00  0.00    -0.497 OA
ATOM     18  C   UNL A   1      34.776  16.002  25.280  1.00  0.00     0.278 C 
ENDBRANCH  12  17
ENDBRANCH   7  11
BRANCH   9  19
ATOM     19  C   UNL A   1      33.109  24.817  22.593  1.00  0.00     0.233 C 
ATOM     20  O   UNL A   1      33.692  25.381  21.665  1.00  0.00    -0.274 OA
BRANCH  19  21
ATOM     21  C   UNL A   1      31.962  25.508  23.309  1.00  0.00     0.178 C 
BRANCH  21  22
ATOM     22  S   UNL A   1      32.388  25.972  25.008  1.00  0.00    -0.077 SA
BRANCH  22  23
ATOM     23  C   UNL A   1      31.696  24.693  25.925  1.00  0.00     0.184 A 
ATOM     24  N   UNL A   1      30.470  24.245  25.836  1.00  0.00    -0.206 NA
ATOM     25  N   UNL A   1      32.336  24.092  26.964  1.00  0.00    -0.254 N 
ATOM     26  C   UNL A   1      30.403  23.348  26.871  1.00  0.00     0.148 A 
ATOM     27  N   UNL A   1      31.525  23.227  27.595  1.00  0.00    -0.158 NA
ATOM     28  H   UNL A   1      33.270  24.267  27.220  1.00  0.00     0.192 HD
ATOM     29  C   UNL A   1      29.166  22.604  27.179  1.00  0.00     0.092 C 
ENDBRANCH  22  23
ENDBRANCH  21  22
ENDBRANCH  19  21
ENDBRANCH   9  19
ENDBRANCH   3   6
ENDBRANCH   1   2
BRANCH   1  30
ATOM     30  C   UNL A   1      38.585  21.315  25.446  1.00  0.00     0.042 C 
BRANCH  30  31
ATOM     31  C   UNL A   1      39.697  21.504  26.457  1.00  0.00     0.118 C 
BRANCH  31  32
ATOM     32  N   UNL A   1      41.021  21.550  25.846  1.00  0.00    -0.352 N 
ATOM     33  C   UNL A   1      41.878  22.631  25.742  1.00  0.00     0.251 C 
ATOM     34  H   UNL A   1      41.345  20.705  25.459  1.00  0.00     0.163 HD
ATOM     35  O   UNL A   1      42.788  22.629  24.934  1.00  0.00    -0.269 OA
BRANCH  33  36
ATOM     36  C   UNL A   1      41.649  23.801  26.611  1.00  0.00     0.039 A 
ATOM     37  C   UNL A   1      42.261  23.889  27.862  1.00  0.00     0.014 A 
ATOM     38  C   UNL A   1      40.847  24.838  26.142  1.00  0.00     0.014 A 
ATOM     39  C   UNL A   1      42.131  25.068  28.589  1.00  0.00     0.010 A 
ATOM     40  C   UNL A   1      40.865  26.056  26.772  1.00  0.00     0.010 A 
ATOM     41  C   UNL A   1      41.459  26.165  28.021  1.00  0.00    -0.014 A 
BRANCH  41  42
ATOM     42  C   UNL A   1      41.487  27.468  28.678  1.00  0.00     0.031 A 
ATOM     43  C   UNL A   1      42.608  28.341  28.245  1.00  0.00     0.074 A 
ATOM     44  C   UNL A   1      40.500  27.939  29.471  1.00  0.00     0.049 A 
ATOM     45  N   UNL A   1      43.626  28.704  28.951  1.00  0.00    -0.248 NA
ATOM     46  C   UNL A   1      42.690  28.738  26.831  1.00  0.00     0.031 C 
ATOM     47  C   UNL A   1      39.196  27.333  29.758  1.00  0.00     0.029 A 
ATOM     48  N   UNL A   1      40.418  29.135  30.120  1.00  0.00    -0.354 N 
ATOM     49  C   UNL A   1      44.370  29.554  28.141  1.00  0.00     0.074 A 
ATOM     50  C   UNL A   1      43.860  29.383  26.806  1.00  0.00     0.031 C 
ATOM     51  C   UNL A   1      38.378  28.254  30.311  1.00  0.00     0.029 A 
ATOM     52  C   UNL A   1      39.144  29.458  30.574  1.00  0.00     0.049 A 
ATOM     53  H   UNL A   1      41.196  29.723  30.255  1.00  0.00     0.167 HD
ATOM     54  C   UNL A   1      45.142  30.526  28.700  1.00  0.00     0.037 A 
ATOM     55  C   UNL A   1      38.738  30.636  31.111  1.00  0.00     0.037 A 
ATOM     56  C   UNL A   1      45.394  30.244  30.097  1.00  0.00     0.049 A 
ATOM     57  C   UNL A   1      39.950  31.349  31.582  1.00  0.00     0.074 A 
ATOM     58  C   UNL A   1      45.926  29.174  30.792  1.00  0.00     0.029 A 
ATOM     59  N   UNL A   1      44.722  30.988  31.037  1.00  0.00    -0.354 N 
ATOM     60  N   UNL A   1      40.663  30.968  32.604  1.00  0.00    -0.248 NA
ATOM     61  C   UNL A   1      40.627  32.230  30.642  1.00  0.00     0.031 C 
ATOM     62  C   UNL A   1      45.128  29.065  31.973  1.00  0.00     0.029 A 
ATOM     63  C   UNL A   1      44.216  30.119  31.968  1.00  0.00     0.049 A 
ATOM     64  H   UNL A   1      44.623  31.967  31.041  1.00  0.00     0.167 HD
ATOM     65  C   UNL A   1      41.974  31.155  32.197  1.00  0.00     0.074 A 
ATOM     66  C   UNL A   1      41.889  32.035  31.034  1.00  0.00     0.031 C 
ATOM     67  C   UNL A   1      42.970  30.342  32.658  1.00  0.00     0.037 A 
BRANCH  54  68
ATOM     68  C   UNL A   1      45.288  31.922  28.129  1.00  0.00     0.064 A 
ATOM     69  C   UNL A   1      46.585  32.461  27.995  1.00  0.00     0.173 A 
ATOM     70  C   UNL A   1      44.233  32.855  28.035  1.00  0.00     0.173 A 
ATOM     71  F   UNL A   1      47.665  31.669  28.068  1.00  0.00    -0.203 F 
ATOM     72  C   UNL A   1      46.807  33.838  27.908  1.00  0.00     0.198 A 
ATOM     73  C   UNL A   1      44.458  34.224  27.892  1.00  0.00     0.198 A 
ATOM     74  F   UNL A   1      42.951  32.514  28.191  1.00  0.00    -0.203 F 
ATOM     75  F   UNL A   1      48.059  34.311  27.947  1.00  0.00    -0.200 F 
ATOM     76  C   UNL A   1      45.743  34.718  27.871  1.00  0.00     0.200 A 
ATOM     77  F   UNL A   1      43.412  35.062  27.871  1.00  0.00    -0.200 F 
ATOM     78  F   UNL A   1      45.952  36.041  27.868  1.00  0.00    -0.200 F 
ENDBRANCH  54  68
BRANCH  55  79
ATOM     79  C   UNL A   1      37.410  31.293  31.055  1.00  0.00     0.064 A 
ATOM     80  C   UNL A   1      36.652  31.491  32.222  1.00  0.00     0.173 A 
ATOM     81  C   UNL A   1      36.988  31.995  29.910  1.00  0.00     0.173 A 
ATOM     82  F   UNL A   1      37.006  30.891  33.368  1.00  0.00    -0.203 F 
ATOM     83  C   UNL A   1      35.564  32.368  32.251  1.00  0.00     0.198 A 
ATOM     84  C   UNL A   1      35.896  32.863  29.938  1.00  0.00     0.198 A 
ATOM     85  F   UNL A   1      37.685  31.931  28.767  1.00  0.00    -0.203 F 
ATOM     86  F   UNL A   1      34.911  32.587  33.403  1.00  0.00    -0.200 F 
ATOM     87  C   UNL A   1      35.194  33.064  31.112  1.00  0.00     0.200 A 
ATOM     88  F   UNL A   1      35.570  33.556  28.838  1.00  0.00    -0.200 F 
ATOM     89  F   UNL A   1      34.196  33.957  31.156  1.00  0.00    -0.200 F 
ENDBRANCH  55  79
BRANCH  67  90
ATOM     90  C   UNL A   1      42.666  29.465  33.841  1.00  0.00     0.064 A 
ATOM     91  C   UNL A   1      42.074  28.190  33.763  1.00  0.00     0.173 A 
ATOM     92  C   UNL A   1      43.079  29.903  35.107  1.00  0.00     0.173 A 
ATOM     93  F   UNL A   1      41.753  27.647  32.583  1.00  0.00    -0.203 F 
ATOM     94  C   UNL A   1      41.844  27.429  34.907  1.00  0.00     0.198 A 
ATOM     95  C   UNL A   1      42.887  29.121  36.243  1.00  0.00     0.198 A 
ATOM     96  F   UNL A   1      43.701  31.085  35.241  1.00  0.00    -0.203 F 
ATOM     97  F   UNL A   1      41.244  26.233  34.809  1.00  0.00    -0.200 F 
ATOM     98  C   UNL A   1      42.253  27.894  36.146  1.00  0.00     0.200 A 
ATOM     99  F   UNL A   1      43.330  29.554  37.431  1.00  0.00    -0.200 F 
ATOM    100  F   UNL A   1      42.055  27.150  37.243  1.00  0.00    -0.200 F 
ENDBRANCH  67  90
ENDBRANCH  41  42
ENDBRANCH  33  36
ENDBRANCH  31  32
ENDBRANCH  30  31
ENDBRANCH   1  30
TORSDOF 16
ENDMDL
MODEL 2
REMARK VINA RESULT:     -12.8      3.587      9.028
REMARK SMILES COc1cccc([C@@H]2CN(C(=O)CSc3nc(C)n[nH]3)C[C@H]2C(=O)NCCCNC(=O)c2ccc(-c3c4nc(c(-c5c(F)c(F)c(F)c(F)c5F)c5ccc([nH]5)c(-c5c(F)c(F)c(F)c(F)c5F)c5nc(c(-c6c(F)c(F)c(F)c(F)c6F)c6ccc3[nH]6)C=C5)C=C4)cc2)c1
REMARK SMILES IDX 26 1 25 2 23 3 24 4 22 6 8 7 9 8 10 9 21 10 7 11 3 12 4 13
REMARK SMILES IDX 95 14 5 15 6 16 2 17 1 18 11 19 12 20 13 21 14 22 15 23
REMARK SMILES IDX 16 24 20 25 17 26 19 27 18 29 27 30 28 31 29 32 30 33 31 35
REMARK SMILES IDX 32 36 33 37 94 38 34 39 93 40 35 41 36 42 37 43 87 44 38 45
REMARK SMILES IDX 92 46 86 47 88 48 39 49 91 50 85 51 84 52 40 54 72 55 52 56
REMARK SMILES IDX 71 57 53 58 56 59 70 60 89 61 54 62 55 63 69 65 90 66 57 67
REMARK SMILES IDX 41 68 42 69 50 70 43 71 44 72 48 73 51 74 45 75 46 76 49 77
REMARK SMILES IDX 47 78 73 79 74 80 82 81 75 82 76 83 80 84 83 85 77 86 78 87
REMARK SMILES IDX 81 88 79 89 58 90 59 91 67 92 60 93 61 94 65 95 68 96 62 97
REMARK SMILES IDX 63 98 66 99 64 100
REMARK H PARENT 25 5 20 28 29 34 88 53 56 64
REMARK Flexibility Score: inf
ROOT
ATOM      1  C   UNL A   1      33.021  29.485  26.569  1.00  0.00     0.117 C 
ENDROOT
BRANCH   1   2
ATOM      2  N   UNL A   1      33.505  29.544  25.195  1.00  0.00    -0.356 N 
ATOM      3  C   UNL A   1      33.126  28.891  24.062  1.00  0.00     0.225 C 
ATOM      4  O   UNL A   1      33.664  29.237  23.007  1.00  0.00    -0.275 OA
ATOM      5  H   UNL A   1      34.247  30.178  25.062  1.00  0.00     0.163 HD
BRANCH   3   6
ATOM      6  C   UNL A   1      32.108  27.765  24.057  1.00  0.00     0.107 C 
ATOM      7  C   UNL A   1      31.362  27.654  22.715  1.00  0.00     0.053 C 
ATOM      8  C   UNL A   1      31.181  26.152  22.503  1.00  0.00     0.128 C 
ATOM      9  N   UNL A   1      32.310  25.556  23.199  1.00  0.00    -0.341 N 
ATOM     10  C   UNL A   1      32.726  26.394  24.317  1.00  0.00     0.133 C 
BRANCH   7  11
ATOM     11  C   UNL A   1      30.072  28.433  22.608  1.00  0.00    -0.039 A 
ATOM     12  C   UNL A   1      28.831  30.422  21.954  1.00  0.00     0.119 A 
ATOM     13  C   UNL A   1      27.680  29.890  22.534  1.00  0.00     0.046 A 
ATOM     14  C   UNL A   1      30.024  29.698  21.999  1.00  0.00     0.050 A 
ATOM     15  C   UNL A   1      27.707  28.629  23.127  1.00  0.00     0.004 A 
ATOM     16  C   UNL A   1      28.896  27.903  23.162  1.00  0.00     0.004 A 
BRANCH  12  17
ATOM     17  O   UNL A   1      28.691  31.674  21.420  1.00  0.00    -0.497 OA
ATOM     18  C   UNL A   1      28.719  32.752  22.348  1.00  0.00     0.278 C 
ENDBRANCH  12  17
ENDBRANCH   7  11
BRANCH   9  19
ATOM     19  C   UNL A   1      32.961  24.378  22.905  1.00  0.00     0.233 C 
ATOM     20  O   UNL A   1      33.953  24.377  22.173  1.00  0.00    -0.274 OA
BRANCH  19  21
ATOM     21  C   UNL A   1      32.442  23.077  23.492  1.00  0.00     0.178 C 
BRANCH  21  22
ATOM     22  S   UNL A   1      33.224  22.672  25.075  1.00  0.00    -0.077 SA
BRANCH  22  23
ATOM     23  C   UNL A   1      33.238  20.953  25.051  1.00  0.00     0.184 A 
ATOM     24  N   UNL A   1      34.205  20.187  24.617  1.00  0.00    -0.206 NA
ATOM     25  N   UNL A   1      32.152  20.196  25.367  1.00  0.00    -0.254 N 
ATOM     26  C   UNL A   1      33.650  18.935  24.684  1.00  0.00     0.148 A 
ATOM     27  N   UNL A   1      32.388  18.894  25.133  1.00  0.00    -0.158 NA
ATOM     28  H   UNL A   1      31.306  20.555  25.720  1.00  0.00     0.192 HD
ATOM     29  C   UNL A   1      34.387  17.731  24.254  1.00  0.00     0.092 C 
ENDBRANCH  22  23
ENDBRANCH  21  22
ENDBRANCH  19  21
ENDBRANCH   9  19
ENDBRANCH   3   6
ENDBRANCH   1   2
BRANCH   1  30
ATOM     30  C   UNL A   1      32.805  30.855  27.215  1.00  0.00     0.042 C 
BRANCH  30  31
ATOM     31  C   UNL A   1      34.103  31.537  27.597  1.00  0.00     0.118 C 
BRANCH  31  32
ATOM     32  N   UNL A   1      34.048  32.173  28.909  1.00  0.00    -0.352 N 
ATOM     33  C   UNL A   1      34.917  32.012  29.974  1.00  0.00     0.251 C 
ATOM     34  H   UNL A   1      33.299  32.794  29.055  1.00  0.00     0.163 HD
ATOM     35  O   UNL A   1      34.585  32.329  31.101  1.00  0.00    -0.269 OA
BRANCH  33  36
ATOM     36  C   UNL A   1      36.244  31.421  29.720  1.00  0.00     0.039 A 
ATOM     37  C   UNL A   1      37.399  32.199  29.814  1.00  0.00     0.014 A 
ATOM     38  C   UNL A   1      36.329  30.062  29.430  1.00  0.00     0.014 A 
ATOM     39  C   UNL A   1      38.638  31.573  29.705  1.00  0.00     0.010 A 
ATOM     40  C   UNL A   1      37.539  29.421  29.500  1.00  0.00     0.010 A 
ATOM     41  C   UNL A   1      38.702  30.174  29.584  1.00  0.00    -0.014 A 
BRANCH  41  42
ATOM     42  C   UNL A   1      39.985  29.485  29.672  1.00  0.00     0.031 A 
ATOM     43  C   UNL A   1      40.454  29.252  31.062  1.00  0.00     0.074 A 
ATOM     44  C   UNL A   1      40.624  28.931  28.618  1.00  0.00     0.049 A 
ATOM     45  N   UNL A   1      41.464  29.807  31.644  1.00  0.00    -0.248 NA
ATOM     46  C   UNL A   1      39.629  28.427  31.959  1.00  0.00     0.031 C 
ATOM     47  C   UNL A   1      40.156  28.808  27.234  1.00  0.00     0.029 A 
ATOM     48  N   UNL A   1      41.809  28.259  28.589  1.00  0.00    -0.354 N 
ATOM     49  C   UNL A   1      41.536  29.240  32.911  1.00  0.00     0.074 A 
ATOM     50  C   UNL A   1      40.286  28.556  33.115  1.00  0.00     0.031 C 
ATOM     51  C   UNL A   1      40.920  27.912  26.573  1.00  0.00     0.029 A 
ATOM     52  C   UNL A   1      42.029  27.528  27.427  1.00  0.00     0.049 A 
ATOM     53  H   UNL A   1      42.457  28.288  29.330  1.00  0.00     0.167 HD
ATOM     54  C   UNL A   1      42.734  29.152  33.551  1.00  0.00     0.037 A 
ATOM     55  C   UNL A   1      43.037  26.653  27.186  1.00  0.00     0.037 A 
ATOM     56  C   UNL A   1      43.698  30.061  32.969  1.00  0.00     0.049 A 
ATOM     57  C   UNL A   1      44.124  26.955  28.148  1.00  0.00     0.074 A 
ATOM     58  C   UNL A   1      43.727  31.422  32.726  1.00  0.00     0.029 A 
ATOM     59  N   UNL A   1      44.690  29.532  32.178  1.00  0.00    -0.354 N 
ATOM     60  N   UNL A   1      44.858  28.030  28.098  1.00  0.00    -0.248 NA
ATOM     61  C   UNL A   1      44.099  26.277  29.436  1.00  0.00     0.031 C 
ATOM     62  C   UNL A   1      44.365  31.558  31.455  1.00  0.00     0.029 A 
ATOM     63  C   UNL A   1      44.758  30.288  31.038  1.00  0.00     0.049 A 
ATOM     64  H   UNL A   1      45.250  28.752  32.393  1.00  0.00     0.167 HD
ATOM     65  C   UNL A   1      44.987  28.421  29.421  1.00  0.00     0.074 A 
ATOM     66  C   UNL A   1      44.600  27.249  30.202  1.00  0.00     0.031 C 
ATOM     67  C   UNL A   1      45.106  29.741  29.750  1.00  0.00     0.037 A 
BRANCH  54  68
ATOM     68  C   UNL A   1      43.164  27.958  34.379  1.00  0.00     0.064 A 
ATOM     69  C   UNL A   1      43.679  28.187  35.672  1.00  0.00     0.173 A 
ATOM     70  C   UNL A   1      43.410  26.672  33.850  1.00  0.00     0.173 A 
ATOM     71  F   UNL A   1      43.507  29.373  36.276  1.00  0.00    -0.203 F 
ATOM     72  C   UNL A   1      44.485  27.250  36.323  1.00  0.00     0.198 A 
ATOM     73  C   UNL A   1      44.169  25.719  34.528  1.00  0.00     0.198 A 
ATOM     74  F   UNL A   1      43.034  26.314  32.619  1.00  0.00    -0.203 F 
ATOM     75  F   UNL A   1      45.083  27.577  37.476  1.00  0.00    -0.200 F 
ATOM     76  C   UNL A   1      44.741  26.023  35.743  1.00  0.00     0.200 A 
ATOM     77  F   UNL A   1      44.416  24.540  33.941  1.00  0.00    -0.200 F 
ATOM     78  F   UNL A   1      45.578  25.154  36.326  1.00  0.00    -0.200 F 
ENDBRANCH  54  68
BRANCH  55  79
ATOM     79  C   UNL A   1      43.052  25.437  26.338  1.00  0.00     0.064 A 
ATOM     80  C   UNL A   1      44.115  25.184  25.455  1.00  0.00     0.173 A 
ATOM     81  C   UNL A   1      42.176  24.362  26.583  1.00  0.00     0.173 A 
ATOM     82  F   UNL A   1      45.020  26.140  25.195  1.00  0.00    -0.203 F 
ATOM     83  C   UNL A   1      44.314  23.922  24.886  1.00  0.00     0.198 A 
ATOM     84  C   UNL A   1      42.369  23.107  26.006  1.00  0.00     0.198 A 
ATOM     85  F   UNL A   1      41.172  24.480  27.464  1.00  0.00    -0.203 F 
ATOM     86  F   UNL A   1      45.384  23.701  24.107  1.00  0.00    -0.200 F 
ATOM     87  C   UNL A   1      43.447  22.881  25.171  1.00  0.00     0.200 A 
ATOM     88  F   UNL A   1      41.543  22.098  26.318  1.00  0.00    -0.200 F 
ATOM     89  F   UNL A   1      43.676  21.655  24.681  1.00  0.00    -0.200 F 
ENDBRANCH  55  79
BRANCH  67  90
ATOM     90  C   UNL A   1      45.414  30.713  28.644  1.00  0.00     0.064 A 
ATOM     91  C   UNL A   1      44.453  31.279  27.785  1.00  0.00     0.173 A 
ATOM     92  C   UNL A   1      46.735  31.158  28.509  1.00  0.00     0.173 A 
ATOM     93  F   UNL A   1      43.152  30.995  27.918  1.00  0.00    -0.203 F 
ATOM     94  C   UNL A   1      44.817  32.190  26.795  1.00  0.00     0.198 A 
ATOM     95  C   UNL A   1      47.088  32.102  27.548  1.00  0.00     0.198 A 
ATOM     96  F   UNL A   1      47.688  30.699  29.336  1.00  0.00    -0.203 F 
ATOM     97  F   UNL A   1      43.887  32.687  25.965  1.00  0.00    -0.200 F 
ATOM     98  C   UNL A   1      46.133  32.603  26.680  1.00  0.00     0.200 A 
ATOM     99  F   UNL A   1      48.354  32.535  27.475  1.00  0.00    -0.200 F 
ATOM    100  F   UNL A   1      46.479  33.500  25.745  1.00  0.00    -0.200 F 
ENDBRANCH  67  90
ENDBRANCH  41  42
ENDBRANCH  33  36
ENDBRANCH  31  32
ENDBRANCH  30  31
ENDBRANCH   1  30
TORSDOF 16
ENDMDL
MODEL 3
REMARK VINA RESULT:     -12.5      3.720      8.455
REMARK SMILES COc1cccc([C@@H]2CN(C(=O)CSc3nc(C)n[nH]3)C[C@H]2C(=O)NCCCNC(=O)c2ccc(-c3c4nc(c(-c5c(F)c(F)c(F)c(F)c5F)c5ccc([nH]5)c(-c5c(F)c(F)c(F)c(F)c5F)c5nc(c(-c6c(F)c(F)c(F)c(F)c6F)c6ccc3[nH]6)C=C5)C=C4)cc2)c1
REMARK SMILES IDX 26 1 25 2 23 3 24 4 22 6 8 7 9 8 10 9 21 10 7 11 3 12 4 13
REMARK SMILES IDX 95 14 5 15 6 16 2 17 1 18 11 19 12 20 13 21 14 22 15 23
REMARK SMILES IDX 16 24 20 25 17 26 19 27 18 29 27 30 28 31 29 32 30 33 31 35
REMARK SMILES IDX 32 36 33 37 94 38 34 39 93 40 35 41 36 42 37 43 87 44 38 45
REMARK SMILES IDX 92 46 86 47 88 48 39 49 91 50 85 51 84 52 40 54 72 55 52 56
REMARK SMILES IDX 71 57 53 58 56 59 70 60 89 61 54 62 55 63 69 65 90 66 57 67
REMARK SMILES IDX 41 68 42 69 50 70 43 71 44 72 48 73 51 74 45 75 46 76 49 77
REMARK SMILES IDX 47 78 73 79 74 80 82 81 75 82 76 83 80 84 83 85 77 86 78 87
REMARK SMILES IDX 81 88 79 89 58 90 59 91 67 92 60 93 61 94 65 95 68 96 62 97
REMARK SMILES IDX 63 98 66 99 64 100
REMARK H PARENT 25 5 20 28 29 34 88 53 56 64
REMARK Flexibility Score: inf
ROOT
ATOM      1  C   UNL A   1      34.077  29.195  27.330  1.00  0.00     0.117 C 
ENDROOT
BRANCH   1   2
ATOM      2  N   UNL A   1      32.800  28.518  27.514  1.00  0.00    -0.356 N 
ATOM      3  C   UNL A   1      32.244  27.432  26.910  1.00  0.00     0.225 C 
ATOM      4  O   UNL A   1      31.171  27.024  27.361  1.00  0.00    -0.275 OA
ATOM      5  H   UNL A   1      32.230  28.923  28.209  1.00  0.00     0.163 HD
BRANCH   3   6
ATOM      6  C   UNL A   1      32.871  26.739  25.714  1.00  0.00     0.107 C 
ATOM      7  C   UNL A   1      32.284  25.337  25.472  1.00  0.00     0.053 C 
ATOM      8  C   UNL A   1      32.230  25.203  23.952  1.00  0.00     0.128 C 
ATOM      9  N   UNL A   1      32.072  26.569  23.480  1.00  0.00    -0.341 N 
ATOM     10  C   UNL A   1      32.689  27.508  24.408  1.00  0.00     0.133 C 
BRANCH   7  11
ATOM     11  C   UNL A   1      33.004  24.192  26.148  1.00  0.00    -0.039 A 
ATOM     12  C   UNL A   1      34.943  22.742  26.395  1.00  0.00     0.119 A 
ATOM     13  C   UNL A   1      34.255  21.993  27.350  1.00  0.00     0.046 A 
ATOM     14  C   UNL A   1      34.314  23.833  25.792  1.00  0.00     0.050 A 
ATOM     15  C   UNL A   1      32.961  22.346  27.726  1.00  0.00     0.004 A 
ATOM     16  C   UNL A   1      32.339  23.442  27.131  1.00  0.00     0.004 A 
BRANCH  12  17
ATOM     17  O   UNL A   1      36.197  22.290  26.090  1.00  0.00    -0.497 OA
ATOM     18  C   UNL A   1      36.281  21.373  25.005  1.00  0.00     0.278 C 
ENDBRANCH  12  17
ENDBRANCH   7  11
BRANCH   9  19
ATOM     19  C   UNL A   1      31.436  27.004  22.338  1.00  0.00     0.233 C 
ATOM     20  O   UNL A   1      31.388  26.285  21.337  1.00  0.00    -0.274 OA
BRANCH  19  21
ATOM     21  C   UNL A   1      30.796  28.380  22.324  1.00  0.00     0.178 C 
BRANCH  21  22
ATOM     22  S   UNL A   1      29.158  28.389  23.096  1.00  0.00    -0.077 SA
BRANCH  22  23
ATOM     23  C   UNL A   1      28.485  29.863  22.522  1.00  0.00     0.184 A 
ATOM     24  N   UNL A   1      28.546  30.323  21.299  1.00  0.00    -0.206 NA
ATOM     25  N   UNL A   1      27.923  30.793  23.340  1.00  0.00    -0.254 N 
ATOM     26  C   UNL A   1      27.995  31.573  21.420  1.00  0.00     0.148 A 
ATOM     27  N   UNL A   1      27.605  31.906  22.659  1.00  0.00    -0.158 NA
ATOM     28  H   UNL A   1      27.769  30.667  24.305  1.00  0.00     0.192 HD
ATOM     29  C   UNL A   1      27.881  32.490  20.270  1.00  0.00     0.092 C 
ENDBRANCH  22  23
ENDBRANCH  21  22
ENDBRANCH  19  21
ENDBRANCH   9  19
ENDBRANCH   3   6
ENDBRANCH   1   2
BRANCH   1  30
ATOM     30  C   UNL A   1      33.963  30.714  27.177  1.00  0.00     0.042 C 
BRANCH  30  31
ATOM     31  C   UNL A   1      35.100  31.460  27.844  1.00  0.00     0.118 C 
BRANCH  31  32
ATOM     32  N   UNL A   1      34.674  32.221  29.013  1.00  0.00    -0.352 N 
ATOM     33  C   UNL A   1      35.131  32.116  30.315  1.00  0.00     0.251 C 
ATOM     34  H   UNL A   1      33.972  32.893  28.857  1.00  0.00     0.163 HD
ATOM     35  O   UNL A   1      34.478  32.557  31.242  1.00  0.00    -0.269 OA
BRANCH  33  36
ATOM     36  C   UNL A   1      36.415  31.432  30.561  1.00  0.00     0.039 A 
ATOM     37  C   UNL A   1      36.444  30.086  30.928  1.00  0.00     0.014 A 
ATOM     38  C   UNL A   1      37.598  32.140  30.374  1.00  0.00     0.014 A 
ATOM     39  C   UNL A   1      37.675  29.442  31.013  1.00  0.00     0.010 A 
ATOM     40  C   UNL A   1      38.791  31.468  30.284  1.00  0.00     0.010 A 
ATOM     41  C   UNL A   1      38.847  30.132  30.654  1.00  0.00    -0.014 A 
BRANCH  41  42
ATOM     42  C   UNL A   1      40.116  29.421  30.541  1.00  0.00     0.031 A 
ATOM     43  C   UNL A   1      40.803  29.200  31.840  1.00  0.00     0.074 A 
ATOM     44  C   UNL A   1      40.564  28.841  29.407  1.00  0.00     0.049 A 
ATOM     45  N   UNL A   1      41.904  29.745  32.238  1.00  0.00    -0.248 NA
ATOM     46  C   UNL A   1      40.125  28.402  32.874  1.00  0.00     0.031 C 
ATOM     47  C   UNL A   1      39.873  28.707  28.121  1.00  0.00     0.029 A 
ATOM     48  N   UNL A   1      41.718  28.148  29.195  1.00  0.00    -0.354 N 
ATOM     49  C   UNL A   1      42.175  29.194  33.485  1.00  0.00     0.074 A 
ATOM     50  C   UNL A   1      40.965  28.536  33.904  1.00  0.00     0.031 C 
ATOM     51  C   UNL A   1      40.505  27.788  27.358  1.00  0.00     0.029 A 
ATOM     52  C   UNL A   1      41.732  27.396  28.025  1.00  0.00     0.049 A 
ATOM     53  H   UNL A   1      42.479  28.176  29.818  1.00  0.00     0.167 HD
ATOM     54  C   UNL A   1      43.460  29.094  33.921  1.00  0.00     0.037 A 
ATOM     55  C   UNL A   1      42.674  26.500  27.637  1.00  0.00     0.037 A 
ATOM     56  C   UNL A   1      44.329  29.977  33.174  1.00  0.00     0.049 A 
ATOM     57  C   UNL A   1      43.909  26.796  28.402  1.00  0.00     0.074 A 
ATOM     58  C   UNL A   1      44.338  31.334  32.906  1.00  0.00     0.029 A 
ATOM     59  N   UNL A   1      45.169  29.420  32.240  1.00  0.00    -0.354 N 
ATOM     60  N   UNL A   1      44.641  27.857  28.213  1.00  0.00    -0.248 NA
ATOM     61  C   UNL A   1      44.086  26.137  29.687  1.00  0.00     0.031 C 
ATOM     62  C   UNL A   1      44.761  31.441  31.546  1.00  0.00     0.029 A 
ATOM     63  C   UNL A   1      45.061  30.158  31.091  1.00  0.00     0.049 A 
ATOM     64  H   UNL A   1      45.745  28.632  32.373  1.00  0.00     0.167 HD
ATOM     65  C   UNL A   1      44.991  28.264  29.490  1.00  0.00     0.074 A 
ATOM     66  C   UNL A   1      44.720  27.111  30.345  1.00  0.00     0.031 C 
ATOM     67  C   UNL A   1      45.183  29.586  29.773  1.00  0.00     0.037 A 
BRANCH  54  68
ATOM     68  C   UNL A   1      44.001  27.904  34.688  1.00  0.00     0.064 A 
ATOM     69  C   UNL A   1      44.771  28.144  35.846  1.00  0.00     0.173 A 
ATOM     70  C   UNL A   1      44.091  26.596  34.164  1.00  0.00     0.173 A 
ATOM     71  F   UNL A   1      44.766  29.352  36.431  1.00  0.00    -0.203 F 
ATOM     72  C   UNL A   1      45.656  27.191  36.355  1.00  0.00     0.198 A 
ATOM     73  C   UNL A   1      44.934  25.629  34.710  1.00  0.00     0.198 A 
ATOM     74  F   UNL A   1      43.465  26.223  33.044  1.00  0.00    -0.203 F 
ATOM     75  F   UNL A   1      46.483  27.521  37.356  1.00  0.00    -0.200 F 
ATOM     76  C   UNL A   1      45.747  25.939  35.778  1.00  0.00     0.200 A 
ATOM     77  F   UNL A   1      45.017  24.426  34.126  1.00  0.00    -0.200 F 
ATOM     78  F   UNL A   1      46.650  25.051  36.212  1.00  0.00    -0.200 F 
ENDBRANCH  54  68
BRANCH  55  79
ATOM     79  C   UNL A   1      42.530  25.272  26.819  1.00  0.00     0.064 A 
ATOM     80  C   UNL A   1      43.337  25.059  25.688  1.00  0.00     0.173 A 
ATOM     81  C   UNL A   1      41.808  24.158  27.289  1.00  0.00     0.173 A 
ATOM     82  F   UNL A   1      44.089  26.055  25.196  1.00  0.00    -0.203 F 
ATOM     83  C   UNL A   1      43.446  23.799  25.090  1.00  0.00     0.198 A 
ATOM     84  C   UNL A   1      41.910  22.905  26.685  1.00  0.00     0.198 A 
ATOM     85  F   UNL A   1      41.067  24.239  28.403  1.00  0.00    -0.203 F 
ATOM     86  F   UNL A   1      44.284  23.619  24.058  1.00  0.00    -0.200 F 
ATOM     87  C   UNL A   1      42.742  22.720  25.596  1.00  0.00     0.200 A 
ATOM     88  F   UNL A   1      41.250  21.861  27.206  1.00  0.00    -0.200 F 
ATOM     89  F   UNL A   1      42.899  21.499  25.067  1.00  0.00    -0.200 F 
ENDBRANCH  55  79
BRANCH  67  90
ATOM     90  C   UNL A   1      45.320  30.537  28.616  1.00  0.00     0.064 A 
ATOM     91  C   UNL A   1      44.240  31.113  27.921  1.00  0.00     0.173 A 
ATOM     92  C   UNL A   1      46.608  30.952  28.254  1.00  0.00     0.173 A 
ATOM     93  F   UNL A   1      42.974  30.860  28.274  1.00  0.00    -0.203 F 
ATOM     94  C   UNL A   1      44.450  32.003  26.869  1.00  0.00     0.198 A 
ATOM     95  C   UNL A   1      46.813  31.875  27.232  1.00  0.00     0.198 A 
ATOM     96  F   UNL A   1      47.677  30.483  28.917  1.00  0.00    -0.203 F 
ATOM     97  F   UNL A   1      43.404  32.509  26.199  1.00  0.00    -0.200 F 
ATOM     98  C   UNL A   1      45.736  32.385  26.528  1.00  0.00     0.200 A 
ATOM     99  F   UNL A   1      48.057  32.279  26.940  1.00  0.00    -0.200 F 
ATOM    100  F   UNL A   1      45.937  33.262  25.534  1.00  0.00    -0.200 F 
ENDBRANCH  67  90
ENDBRANCH  41  42
ENDBRANCH  33  36
ENDBRANCH  31  32
ENDBRANCH  30  31
ENDBRANCH   1  30
TORSDOF 16
ENDMDL
