MODEL 1
REMARK VINA RESULT:     -11.9      0.000      0.000
REMARK SMILES C[C@H]1C[C@H]1CN(C)c1cccc(F)c1C(=O)NCCCNC(=O)c1ccc(-c2c3nc(c(-c4c(F)c(F)c(F)c(F)c4F)c4ccc([nH]4)c(-c4c(F)c(F)c(F)c(F)c4F)c4nc(c(-c5c(F)c(F)c(F)c(F)c5F)c5ccc2[nH]5)C=C4)C=C3)cc1
REMARK SMILES IDX 18 1 17 2 15 3 16 4 14 6 8 7 9 8 10 9 12 10 11 11 13 12 6 13
REMARK SMILES IDX 7 14 5 15 4 16 1 17 2 18 3 19 19 20 20 21 21 22 22 23 23 25
REMARK SMILES IDX 24 26 25 27 86 28 26 29 85 30 27 31 28 32 29 33 79 34 30 35
REMARK SMILES IDX 84 36 78 37 80 38 31 39 83 40 77 41 76 42 32 44 64 45 44 46
REMARK SMILES IDX 63 47 45 48 48 49 62 50 81 51 46 52 47 53 61 55 82 56 49 57
REMARK SMILES IDX 33 58 34 59 42 60 35 61 36 62 40 63 43 64 37 65 38 66 41 67
REMARK SMILES IDX 39 68 65 69 66 70 74 71 67 72 68 73 72 74 75 75 69 76 70 77
REMARK SMILES IDX 73 78 71 79 50 80 51 81 59 82 52 83 53 84 57 85 60 86 54 87
REMARK SMILES IDX 55 88 58 89 56 90
REMARK H PARENT 17 5 21 24 80 43 48 54
REMARK Flexibility Score: inf
ROOT
ATOM      1  C   UNL A   1      31.222  30.778  26.262  1.00  0.00     0.118 C 
ENDROOT
BRANCH   1   2
ATOM      2  N   UNL A   1      32.392  30.160  25.648  1.00  0.00    -0.352 N 
ATOM      3  C   UNL A   1      32.527  28.983  24.921  1.00  0.00     0.256 C 
ATOM      4  O   UNL A   1      33.578  28.815  24.304  1.00  0.00    -0.269 OA
ATOM      5  H   UNL A   1      33.229  30.664  25.767  1.00  0.00     0.163 HD
BRANCH   3   6
ATOM      6  C   UNL A   1      31.476  27.928  24.957  1.00  0.00     0.098 A 
ATOM      7  C   UNL A   1      30.536  27.755  23.915  1.00  0.00     0.052 A 
ATOM      8  C   UNL A   1      29.806  26.550  23.885  1.00  0.00     0.027 A 
ATOM      9  C   UNL A   1      29.879  25.614  24.914  1.00  0.00     0.005 A 
ATOM     10  C   UNL A   1      31.413  27.063  26.054  1.00  0.00     0.138 A 
ATOM     11  C   UNL A   1      30.646  25.902  26.032  1.00  0.00     0.040 A 
ATOM     12  F   UNL A   1      32.096  27.329  27.180  1.00  0.00    -0.206 F 
BRANCH   7  13
ATOM     13  N   UNL A   1      30.157  28.732  23.004  1.00  0.00    -0.374 N 
ATOM     14  C   UNL A   1      31.094  29.287  22.049  1.00  0.00     0.143 C 
BRANCH  13  15
ATOM     15  C   UNL A   1      28.823  29.319  23.166  1.00  0.00     0.120 C 
BRANCH  15  16
ATOM     16  C   UNL A   1      28.923  30.813  23.343  1.00  0.00     0.011 C 
ATOM     17  C   UNL A   1      28.027  31.544  20.925  1.00  0.00     0.008 C 
ATOM     18  C   UNL A   1      28.564  31.851  22.284  1.00  0.00    -0.009 C 
ATOM     19  C   UNL A   1      27.668  31.647  23.475  1.00  0.00     0.009 C 
ENDBRANCH  15  16
ENDBRANCH  13  15
ENDBRANCH   7  13
ENDBRANCH   3   6
ENDBRANCH   1   2
BRANCH   1  20
ATOM     20  C   UNL A   1      31.275  32.288  26.418  1.00  0.00     0.042 C 
BRANCH  20  21
ATOM     21  C   UNL A   1      32.559  32.858  26.996  1.00  0.00     0.118 C 
BRANCH  21  22
ATOM     22  N   UNL A   1      32.393  34.160  27.628  1.00  0.00    -0.352 N 
ATOM     23  C   UNL A   1      33.051  34.770  28.669  1.00  0.00     0.251 C 
ATOM     24  H   UNL A   1      31.675  34.706  27.234  1.00  0.00     0.163 HD
ATOM     25  O   UNL A   1      32.622  35.837  29.100  1.00  0.00    -0.269 OA
BRANCH  23  26
ATOM     26  C   UNL A   1      34.245  34.165  29.306  1.00  0.00     0.039 A 
ATOM     27  C   UNL A   1      34.057  33.167  30.269  1.00  0.00     0.014 A 
ATOM     28  C   UNL A   1      35.541  34.591  29.011  1.00  0.00     0.014 A 
ATOM     29  C   UNL A   1      35.161  32.558  30.874  1.00  0.00     0.010 A 
ATOM     30  C   UNL A   1      36.639  33.906  29.525  1.00  0.00     0.010 A 
ATOM     31  C   UNL A   1      36.464  32.892  30.475  1.00  0.00    -0.014 A 
BRANCH  31  32
ATOM     32  C   UNL A   1      37.647  32.201  31.053  1.00  0.00     0.031 A 
ATOM     33  C   UNL A   1      38.126  32.531  32.440  1.00  0.00     0.074 A 
ATOM     34  C   UNL A   1      38.313  31.294  30.313  1.00  0.00     0.049 A 
ATOM     35  N   UNL A   1      39.135  32.031  33.110  1.00  0.00    -0.248 NA
ATOM     36  C   UNL A   1      37.398  33.586  33.161  1.00  0.00     0.031 C 
ATOM     37  C   UNL A   1      37.982  30.926  28.935  1.00  0.00     0.029 A 
ATOM     38  N   UNL A   1      39.398  30.509  30.616  1.00  0.00    -0.354 N 
ATOM     39  C   UNL A   1      39.158  32.707  34.323  1.00  0.00     0.074 A 
ATOM     40  C   UNL A   1      38.120  33.711  34.265  1.00  0.00     0.031 C 
ATOM     41  C   UNL A   1      38.805  29.946  28.534  1.00  0.00     0.029 A 
ATOM     42  C   UNL A   1      39.746  29.643  29.608  1.00  0.00     0.049 A 
ATOM     43  H   UNL A   1      39.879  30.561  31.472  1.00  0.00     0.167 HD
ATOM     44  C   UNL A   1      39.944  32.485  35.404  1.00  0.00     0.037 A 
ATOM     45  C   UNL A   1      40.704  28.698  29.561  1.00  0.00     0.037 A 
ATOM     46  C   UNL A   1      40.972  31.479  35.460  1.00  0.00     0.049 A 
ATOM     47  C   UNL A   1      41.579  28.481  30.762  1.00  0.00     0.074 A 
ATOM     48  C   UNL A   1      41.805  31.153  36.515  1.00  0.00     0.029 A 
ATOM     49  N   UNL A   1      41.309  30.635  34.411  1.00  0.00    -0.354 N 
ATOM     50  N   UNL A   1      41.558  29.090  31.922  1.00  0.00    -0.248 NA
ATOM     51  C   UNL A   1      42.607  27.437  30.650  1.00  0.00     0.031 C 
ATOM     52  C   UNL A   1      42.679  30.149  36.089  1.00  0.00     0.029 A 
ATOM     53  C   UNL A   1      42.352  29.803  34.787  1.00  0.00     0.049 A 
ATOM     54  H   UNL A   1      40.871  30.628  33.529  1.00  0.00     0.167 HD
ATOM     55  C   UNL A   1      42.555  28.497  32.685  1.00  0.00     0.074 A 
ATOM     56  C   UNL A   1      43.147  27.462  31.861  1.00  0.00     0.031 C 
ATOM     57  C   UNL A   1      42.943  28.786  33.952  1.00  0.00     0.037 A 
BRANCH  44  58
ATOM     58  C   UNL A   1      39.705  33.342  36.617  1.00  0.00     0.064 A 
ATOM     59  C   UNL A   1      38.803  32.944  37.614  1.00  0.00     0.173 A 
ATOM     60  C   UNL A   1      40.359  34.575  36.783  1.00  0.00     0.173 A 
ATOM     61  F   UNL A   1      38.145  31.779  37.507  1.00  0.00    -0.203 F 
ATOM     62  C   UNL A   1      38.566  33.744  38.730  1.00  0.00     0.198 A 
ATOM     63  C   UNL A   1      40.148  35.355  37.918  1.00  0.00     0.198 A 
ATOM     64  F   UNL A   1      41.241  35.001  35.867  1.00  0.00    -0.203 F 
ATOM     65  F   UNL A   1      37.683  33.351  39.659  1.00  0.00    -0.200 F 
ATOM     66  C   UNL A   1      39.246  34.942  38.886  1.00  0.00     0.200 A 
ATOM     67  F   UNL A   1      40.832  36.495  38.082  1.00  0.00    -0.200 F 
ATOM     68  F   UNL A   1      39.040  35.695  39.976  1.00  0.00    -0.200 F 
ENDBRANCH  44  58
BRANCH  45  69
ATOM     69  C   UNL A   1      40.818  27.844  28.350  1.00  0.00     0.064 A 
ATOM     70  C   UNL A   1      40.169  26.604  28.262  1.00  0.00     0.173 A 
ATOM     71  C   UNL A   1      41.645  28.227  27.285  1.00  0.00     0.173 A 
ATOM     72  F   UNL A   1      39.373  26.190  29.259  1.00  0.00    -0.203 F 
ATOM     73  C   UNL A   1      40.370  25.764  27.168  1.00  0.00     0.198 A 
ATOM     74  C   UNL A   1      41.825  27.397  26.180  1.00  0.00     0.198 A 
ATOM     75  F   UNL A   1      42.272  29.412  27.316  1.00  0.00    -0.203 F 
ATOM     76  F   UNL A   1      39.777  24.563  27.131  1.00  0.00    -0.200 F 
ATOM     77  C   UNL A   1      41.198  26.161  26.128  1.00  0.00     0.200 A 
ATOM     78  F   UNL A   1      42.610  27.793  25.169  1.00  0.00    -0.200 F 
ATOM     79  F   UNL A   1      41.394  25.351  25.079  1.00  0.00    -0.200 F 
ENDBRANCH  45  69
BRANCH  57  80
ATOM     80  C   UNL A   1      44.060  27.966  34.535  1.00  0.00     0.064 A 
ATOM     81  C   UNL A   1      43.786  26.766  35.208  1.00  0.00     0.173 A 
ATOM     82  C   UNL A   1      45.395  28.392  34.471  1.00  0.00     0.173 A 
ATOM     83  F   UNL A   1      42.526  26.317  35.308  1.00  0.00    -0.203 F 
ATOM     84  C   UNL A   1      44.807  26.027  35.801  1.00  0.00     0.198 A 
ATOM     85  C   UNL A   1      46.418  27.633  35.035  1.00  0.00     0.198 A 
ATOM     86  F   UNL A   1      45.712  29.526  33.829  1.00  0.00    -0.203 F 
ATOM     87  F   UNL A   1      44.516  24.900  36.466  1.00  0.00    -0.200 F 
ATOM     88  C   UNL A   1      46.122  26.456  35.707  1.00  0.00     0.200 A 
ATOM     89  F   UNL A   1      47.691  28.034  34.917  1.00  0.00    -0.200 F 
ATOM     90  F   UNL A   1      47.105  25.733  36.258  1.00  0.00    -0.200 F 
ENDBRANCH  57  80
ENDBRANCH  31  32
ENDBRANCH  23  26
ENDBRANCH  21  22
ENDBRANCH  20  21
ENDBRANCH   1  20
TORSDOF 13
ENDMDL
MODEL 2
REMARK VINA RESULT:     -11.9      2.097      3.009
REMARK SMILES C[C@H]1C[C@H]1CN(C)c1cccc(F)c1C(=O)NCCCNC(=O)c1ccc(-c2c3nc(c(-c4c(F)c(F)c(F)c(F)c4F)c4ccc([nH]4)c(-c4c(F)c(F)c(F)c(F)c4F)c4nc(c(-c5c(F)c(F)c(F)c(F)c5F)c5ccc2[nH]5)C=C4)C=C3)cc1
REMARK SMILES IDX 18 1 17 2 15 3 16 4 14 6 8 7 9 8 10 9 12 10 11 11 13 12 6 13
REMARK SMILES IDX 7 14 5 15 4 16 1 17 2 18 3 19 19 20 20 21 21 22 22 23 23 25
REMARK SMILES IDX 24 26 25 27 86 28 26 29 85 30 27 31 28 32 29 33 79 34 30 35
REMARK SMILES IDX 84 36 78 37 80 38 31 39 83 40 77 41 76 42 32 44 64 45 44 46
REMARK SMILES IDX 63 47 45 48 48 49 62 50 81 51 46 52 47 53 61 55 82 56 49 57
REMARK SMILES IDX 33 58 34 59 42 60 35 61 36 62 40 63 43 64 37 65 38 66 41 67
REMARK SMILES IDX 39 68 65 69 66 70 74 71 67 72 68 73 72 74 75 75 69 76 70 77
REMARK SMILES IDX 73 78 71 79 50 80 51 81 59 82 52 83 53 84 57 85 60 86 54 87
REMARK SMILES IDX 55 88 58 89 56 90
REMARK H PARENT 17 5 21 24 80 43 48 54
REMARK Flexibility Score: inf
ROOT
ATOM      1  C   UNL A   1      32.537  27.446  26.868  1.00  0.00     0.118 C 
ENDROOT
BRANCH   1   2
ATOM      2  N   UNL A   1      31.604  26.327  26.929  1.00  0.00    -0.352 N 
ATOM      3  C   UNL A   1      31.728  25.010  26.503  1.00  0.00     0.256 C 
ATOM      4  O   UNL A   1      30.885  24.205  26.896  1.00  0.00    -0.269 OA
ATOM      5  H   UNL A   1      30.737  26.541  27.344  1.00  0.00     0.163 HD
BRANCH   3   6
ATOM      6  C   UNL A   1      32.791  24.606  25.542  1.00  0.00     0.098 A 
ATOM      7  C   UNL A   1      32.711  24.883  24.158  1.00  0.00     0.052 A 
ATOM      8  C   UNL A   1      33.889  24.755  23.395  1.00  0.00     0.027 A 
ATOM      9  C   UNL A   1      35.064  24.234  23.929  1.00  0.00     0.005 A 
ATOM     10  C   UNL A   1      33.922  23.934  26.016  1.00  0.00     0.138 A 
ATOM     11  C   UNL A   1      35.061  23.768  25.234  1.00  0.00     0.040 A 
ATOM     12  F   UNL A   1      33.946  23.417  27.256  1.00  0.00    -0.206 F 
BRANCH   7  13
ATOM     13  N   UNL A   1      31.538  25.121  23.453  1.00  0.00    -0.374 N 
ATOM     14  C   UNL A   1      30.618  24.052  23.123  1.00  0.00     0.143 C 
BRANCH  13  15
ATOM     15  C   UNL A   1      31.354  26.462  22.890  1.00  0.00     0.120 C 
BRANCH  15  16
ATOM     16  C   UNL A   1      30.485  27.299  23.795  1.00  0.00     0.011 C 
ATOM     17  C   UNL A   1      30.074  29.358  22.130  1.00  0.00     0.008 C 
ATOM     18  C   UNL A   1      29.901  28.663  23.439  1.00  0.00    -0.009 C 
ATOM     19  C   UNL A   1      29.010  27.453  23.501  1.00  0.00     0.009 C 
ENDBRANCH  15  16
ENDBRANCH  13  15
ENDBRANCH   7  13
ENDBRANCH   3   6
ENDBRANCH   1   2
BRANCH   1  20
ATOM     20  C   UNL A   1      31.915  28.821  26.691  1.00  0.00     0.042 C 
BRANCH  20  21
ATOM     21  C   UNL A   1      32.738  29.835  25.915  1.00  0.00     0.118 C 
BRANCH  21  22
ATOM     22  N   UNL A   1      32.583  31.204  26.387  1.00  0.00    -0.352 N 
ATOM     23  C   UNL A   1      33.298  31.954  27.291  1.00  0.00     0.251 C 
ATOM     24  H   UNL A   1      31.824  31.682  25.982  1.00  0.00     0.163 HD
ATOM     25  O   UNL A   1      32.872  33.059  27.614  1.00  0.00    -0.269 OA
BRANCH  23  26
ATOM     26  C   UNL A   1      34.550  31.457  27.908  1.00  0.00     0.039 A 
ATOM     27  C   UNL A   1      35.615  32.351  28.077  1.00  0.00     0.014 A 
ATOM     28  C   UNL A   1      34.717  30.122  28.280  1.00  0.00     0.014 A 
ATOM     29  C   UNL A   1      36.803  31.922  28.676  1.00  0.00     0.010 A 
ATOM     30  C   UNL A   1      35.853  29.725  28.981  1.00  0.00     0.010 A 
ATOM     31  C   UNL A   1      36.917  30.614  29.173  1.00  0.00    -0.014 A 
BRANCH  31  32
ATOM     32  C   UNL A   1      38.145  30.165  29.881  1.00  0.00     0.031 A 
ATOM     33  C   UNL A   1      38.439  30.633  31.280  1.00  0.00     0.074 A 
ATOM     34  C   UNL A   1      39.018  29.358  29.248  1.00  0.00     0.049 A 
ATOM     35  N   UNL A   1      39.456  30.345  32.054  1.00  0.00    -0.248 NA
ATOM     36  C   UNL A   1      37.481  31.574  31.881  1.00  0.00     0.031 C 
ATOM     37  C   UNL A   1      38.876  28.880  27.871  1.00  0.00     0.029 A 
ATOM     38  N   UNL A   1      40.190  28.788  29.678  1.00  0.00    -0.354 N 
ATOM     39  C   UNL A   1      39.258  31.066  33.225  1.00  0.00     0.074 A 
ATOM     40  C   UNL A   1      38.072  31.870  33.028  1.00  0.00     0.031 C 
ATOM     41  C   UNL A   1      39.886  28.042  27.592  1.00  0.00     0.029 A 
ATOM     42  C   UNL A   1      40.767  27.954  28.752  1.00  0.00     0.049 A 
ATOM     43  H   UNL A   1      40.579  28.960  30.566  1.00  0.00     0.167 HD
ATOM     44  C   UNL A   1      39.973  31.031  34.375  1.00  0.00     0.037 A 
ATOM     45  C   UNL A   1      41.873  27.191  28.834  1.00  0.00     0.037 A 
ATOM     46  C   UNL A   1      41.149  30.223  34.568  1.00  0.00     0.049 A 
ATOM     47  C   UNL A   1      42.665  27.180  30.110  1.00  0.00     0.074 A 
ATOM     48  C   UNL A   1      41.930  30.093  35.703  1.00  0.00     0.029 A 
ATOM     49  N   UNL A   1      41.715  29.407  33.598  1.00  0.00    -0.354 N 
ATOM     50  N   UNL A   1      42.439  27.825  31.229  1.00  0.00    -0.248 NA
ATOM     51  C   UNL A   1      43.861  26.329  30.138  1.00  0.00     0.031 C 
ATOM     52  C   UNL A   1      42.997  29.240  35.403  1.00  0.00     0.029 A 
ATOM     53  C   UNL A   1      42.848  28.787  34.102  1.00  0.00     0.049 A 
ATOM     54  H   UNL A   1      41.363  29.286  32.687  1.00  0.00     0.167 HD
ATOM     55  C   UNL A   1      43.452  27.449  32.100  1.00  0.00     0.074 A 
ATOM     56  C   UNL A   1      44.281  26.499  31.385  1.00  0.00     0.031 C 
ATOM     57  C   UNL A   1      43.674  27.854  33.375  1.00  0.00     0.037 A 
BRANCH  44  58
ATOM     58  C   UNL A   1      39.487  31.884  35.514  1.00  0.00     0.064 A 
ATOM     59  C   UNL A   1      39.954  33.196  35.681  1.00  0.00     0.173 A 
ATOM     60  C   UNL A   1      38.570  31.393  36.459  1.00  0.00     0.173 A 
ATOM     61  F   UNL A   1      40.835  33.718  34.814  1.00  0.00    -0.203 F 
ATOM     62  C   UNL A   1      39.520  33.983  36.746  1.00  0.00     0.198 A 
ATOM     63  C   UNL A   1      38.111  32.194  37.501  1.00  0.00     0.198 A 
ATOM     64  F   UNL A   1      38.082  30.149  36.343  1.00  0.00    -0.203 F 
ATOM     65  F   UNL A   1      39.997  35.227  36.896  1.00  0.00    -0.200 F 
ATOM     66  C   UNL A   1      38.591  33.486  37.648  1.00  0.00     0.200 A 
ATOM     67  F   UNL A   1      37.188  31.722  38.350  1.00  0.00    -0.200 F 
ATOM     68  F   UNL A   1      38.152  34.256  38.654  1.00  0.00    -0.200 F 
ENDBRANCH  44  58
BRANCH  45  69
ATOM     69  C   UNL A   1      42.236  26.319  27.686  1.00  0.00     0.064 A 
ATOM     70  C   UNL A   1      41.668  25.047  27.521  1.00  0.00     0.173 A 
ATOM     71  C   UNL A   1      43.220  26.720  26.771  1.00  0.00     0.173 A 
ATOM     72  F   UNL A   1      40.728  24.615  28.374  1.00  0.00    -0.203 F 
ATOM     73  C   UNL A   1      42.095  24.196  26.503  1.00  0.00     0.198 A 
ATOM     74  C   UNL A   1      43.628  25.878  25.739  1.00  0.00     0.198 A 
ATOM     75  F   UNL A   1      43.778  27.934  26.878  1.00  0.00    -0.203 F 
ATOM     76  F   UNL A   1      41.572  22.967  26.397  1.00  0.00    -0.200 F 
ATOM     77  C   UNL A   1      43.075  24.612  25.613  1.00  0.00     0.200 A 
ATOM     78  F   UNL A   1      44.560  26.291  24.870  1.00  0.00    -0.200 F 
ATOM     79  F   UNL A   1      43.488  23.792  24.637  1.00  0.00    -0.200 F 
ENDBRANCH  45  69
BRANCH  57  80
ATOM     80  C   UNL A   1      44.859  27.268  34.089  1.00  0.00     0.064 A 
ATOM     81  C   UNL A   1      44.734  26.076  34.818  1.00  0.00     0.173 A 
ATOM     82  C   UNL A   1      46.106  27.911  34.093  1.00  0.00     0.173 A 
ATOM     83  F   UNL A   1      43.561  25.425  34.855  1.00  0.00    -0.203 F 
ATOM     84  C   UNL A   1      45.810  25.553  35.530  1.00  0.00     0.198 A 
ATOM     85  C   UNL A   1      47.191  27.366  34.778  1.00  0.00     0.198 A 
ATOM     86  F   UNL A   1      46.283  29.047  33.404  1.00  0.00    -0.203 F 
ATOM     87  F   UNL A   1      45.656  24.429  36.243  1.00  0.00    -0.200 F 
ATOM     88  C   UNL A   1      47.039  26.193  35.502  1.00  0.00     0.200 A 
ATOM     89  F   UNL A   1      48.385  27.972  34.726  1.00  0.00    -0.200 F 
ATOM     90  F   UNL A   1      48.080  25.677  36.170  1.00  0.00    -0.200 F 
ENDBRANCH  57  80
ENDBRANCH  31  32
ENDBRANCH  23  26
ENDBRANCH  21  22
ENDBRANCH  20  21
ENDBRANCH   1  20
TORSDOF 13
ENDMDL
MODEL 3
REMARK VINA RESULT:     -11.8      0.209      2.060
REMARK SMILES C[C@H]1C[C@H]1CN(C)c1cccc(F)c1C(=O)NCCCNC(=O)c1ccc(-c2c3nc(c(-c4c(F)c(F)c(F)c(F)c4F)c4ccc([nH]4)c(-c4c(F)c(F)c(F)c(F)c4F)c4nc(c(-c5c(F)c(F)c(F)c(F)c5F)c5ccc2[nH]5)C=C4)C=C3)cc1
REMARK SMILES IDX 18 1 17 2 15 3 16 4 14 6 8 7 9 8 10 9 12 10 11 11 13 12 6 13
REMARK SMILES IDX 7 14 5 15 4 16 1 17 2 18 3 19 19 20 20 21 21 22 22 23 23 25
REMARK SMILES IDX 24 26 25 27 86 28 26 29 85 30 27 31 28 32 29 33 79 34 30 35
REMARK SMILES IDX 84 36 78 37 80 38 31 39 83 40 77 41 76 42 32 44 64 45 44 46
REMARK SMILES IDX 63 47 45 48 48 49 62 50 81 51 46 52 47 53 61 55 82 56 49 57
REMARK SMILES IDX 33 58 34 59 42 60 35 61 36 62 40 63 43 64 37 65 38 66 41 67
REMARK SMILES IDX 39 68 65 69 66 70 74 71 67 72 68 73 72 74 75 75 69 76 70 77
REMARK SMILES IDX 73 78 71 79 50 80 51 81 59 82 52 83 53 84 57 85 60 86 54 87
REMARK SMILES IDX 55 88 58 89 56 90
REMARK H PARENT 17 5 21 24 80 43 48 54
REMARK Flexibility Score: inf
ROOT
ATOM      1  C   UNL A   1      31.216  30.939  25.977  1.00  0.00     0.118 C 
ENDROOT
BRANCH   1   2
ATOM      2  N   UNL A   1      32.420  30.218  25.578  1.00  0.00    -0.352 N 
ATOM      3  C   UNL A   1      32.584  28.963  25.004  1.00  0.00     0.256 C 
ATOM      4  O   UNL A   1      33.691  28.692  24.540  1.00  0.00    -0.269 OA
ATOM      5  H   UNL A   1      33.260  30.704  25.743  1.00  0.00     0.163 HD
BRANCH   3   6
ATOM      6  C   UNL A   1      31.489  27.954  25.026  1.00  0.00     0.098 A 
ATOM      7  C   UNL A   1      30.586  27.787  23.951  1.00  0.00     0.052 A 
ATOM      8  C   UNL A   1      29.807  26.613  23.926  1.00  0.00     0.027 A 
ATOM      9  C   UNL A   1      29.799  25.707  24.984  1.00  0.00     0.005 A 
ATOM     10  C   UNL A   1      31.344  27.126  26.145  1.00  0.00     0.138 A 
ATOM     11  C   UNL A   1      30.530  25.998  26.124  1.00  0.00     0.040 A 
ATOM     12  F   UNL A   1      31.992  27.398  27.290  1.00  0.00    -0.206 F 
BRANCH   7  13
ATOM     13  N   UNL A   1      30.287  28.750  22.997  1.00  0.00    -0.374 N 
ATOM     14  C   UNL A   1      31.310  29.326  22.149  1.00  0.00     0.143 C 
BRANCH  13  15
ATOM     15  C   UNL A   1      28.929  29.303  23.004  1.00  0.00     0.120 C 
BRANCH  15  16
ATOM     16  C   UNL A   1      28.962  30.781  23.301  1.00  0.00     0.011 C 
ATOM     17  C   UNL A   1      28.031  31.663  20.948  1.00  0.00     0.008 C 
ATOM     18  C   UNL A   1      28.556  31.883  22.328  1.00  0.00    -0.009 C 
ATOM     19  C   UNL A   1      27.672  31.545  23.498  1.00  0.00     0.009 C 
ENDBRANCH  15  16
ENDBRANCH  13  15
ENDBRANCH   7  13
ENDBRANCH   3   6
ENDBRANCH   1   2
BRANCH   1  20
ATOM     20  C   UNL A   1      31.401  31.991  27.057  1.00  0.00     0.042 C 
BRANCH  20  21
ATOM     21  C   UNL A   1      32.475  33.034  26.800  1.00  0.00     0.118 C 
BRANCH  21  22
ATOM     22  N   UNL A   1      32.338  34.234  27.615  1.00  0.00    -0.352 N 
ATOM     23  C   UNL A   1      33.008  34.670  28.733  1.00  0.00     0.251 C 
ATOM     24  H   UNL A   1      31.632  34.848  27.306  1.00  0.00     0.163 HD
ATOM     25  O   UNL A   1      32.602  35.672  29.316  1.00  0.00    -0.269 OA
BRANCH  23  26
ATOM     26  C   UNL A   1      34.187  33.952  29.273  1.00  0.00     0.039 A 
ATOM     27  C   UNL A   1      35.464  34.439  28.970  1.00  0.00     0.014 A 
ATOM     28  C   UNL A   1      34.065  32.786  30.029  1.00  0.00     0.014 A 
ATOM     29  C   UNL A   1      36.598  33.800  29.480  1.00  0.00     0.010 A 
ATOM     30  C   UNL A   1      35.186  32.219  30.632  1.00  0.00     0.010 A 
ATOM     31  C   UNL A   1      36.467  32.708  30.353  1.00  0.00    -0.014 A 
BRANCH  31  32
ATOM     32  C   UNL A   1      37.660  32.065  30.964  1.00  0.00     0.031 A 
ATOM     33  C   UNL A   1      38.112  32.446  32.347  1.00  0.00     0.074 A 
ATOM     34  C   UNL A   1      38.359  31.157  30.258  1.00  0.00     0.049 A 
ATOM     35  N   UNL A   1      39.126  31.992  33.043  1.00  0.00    -0.248 NA
ATOM     36  C   UNL A   1      37.347  33.501  33.030  1.00  0.00     0.031 C 
ATOM     37  C   UNL A   1      38.057  30.742  28.887  1.00  0.00     0.029 A 
ATOM     38  N   UNL A   1      39.461  30.410  30.595  1.00  0.00    -0.354 N 
ATOM     39  C   UNL A   1      39.115  32.702  34.237  1.00  0.00     0.074 A 
ATOM     40  C   UNL A   1      38.051  33.676  34.138  1.00  0.00     0.031 C 
ATOM     41  C   UNL A   1      38.911  29.774  28.523  1.00  0.00     0.029 A 
ATOM     42  C   UNL A   1      39.844  29.526  29.617  1.00  0.00     0.049 A 
ATOM     43  H   UNL A   1      39.929  30.498  31.456  1.00  0.00     0.167 HD
ATOM     44  C   UNL A   1      39.892  32.531  35.333  1.00  0.00     0.037 A 
ATOM     45  C   UNL A   1      40.828  28.607  29.607  1.00  0.00     0.037 A 
ATOM     46  C   UNL A   1      40.946  31.555  35.429  1.00  0.00     0.049 A 
ATOM     47  C   UNL A   1      41.694  28.446  30.825  1.00  0.00     0.074 A 
ATOM     48  C   UNL A   1      41.774  31.281  36.504  1.00  0.00     0.029 A 
ATOM     49  N   UNL A   1      41.319  30.692  34.409  1.00  0.00    -0.354 N 
ATOM     50  N   UNL A   1      41.641  29.086  31.967  1.00  0.00    -0.248 NA
ATOM     51  C   UNL A   1      42.750  27.428  30.754  1.00  0.00     0.031 C 
ATOM     52  C   UNL A   1      42.680  30.290  36.116  1.00  0.00     0.029 A 
ATOM     53  C   UNL A   1      42.379  29.899  34.821  1.00  0.00     0.049 A 
ATOM     54  H   UNL A   1      40.893  30.649  33.522  1.00  0.00     0.167 HD
ATOM     55  C   UNL A   1      42.644  28.541  32.758  1.00  0.00     0.074 A 
ATOM     56  C   UNL A   1      43.273  27.501  31.971  1.00  0.00     0.031 C 
ATOM     57  C   UNL A   1      43.007  28.876  34.021  1.00  0.00     0.037 A 
BRANCH  44  58
ATOM     58  C   UNL A   1      39.616  33.414  36.518  1.00  0.00     0.064 A 
ATOM     59  C   UNL A   1      40.215  34.678  36.630  1.00  0.00     0.173 A 
ATOM     60  C   UNL A   1      38.769  33.000  37.560  1.00  0.00     0.173 A 
ATOM     61  F   UNL A   1      41.037  35.126  35.669  1.00  0.00    -0.203 F 
ATOM     62  C   UNL A   1      39.974  35.492  37.736  1.00  0.00     0.198 A 
ATOM     63  C   UNL A   1      38.502  33.831  38.646  1.00  0.00     0.198 A 
ATOM     64  F   UNL A   1      38.160  31.806  37.501  1.00  0.00    -0.203 F 
ATOM     65  F   UNL A   1      40.576  36.686  37.830  1.00  0.00    -0.200 F 
ATOM     66  C   UNL A   1      39.111  35.072  38.736  1.00  0.00     0.200 A 
ATOM     67  F   UNL A   1      37.640  33.436  39.593  1.00  0.00    -0.200 F 
ATOM     68  F   UNL A   1      38.858  35.870  39.783  1.00  0.00    -0.200 F 
ENDBRANCH  44  58
BRANCH  45  69
ATOM     69  C   UNL A   1      40.981  27.723  28.423  1.00  0.00     0.064 A 
ATOM     70  C   UNL A   1      41.817  28.068  27.351  1.00  0.00     0.173 A 
ATOM     71  C   UNL A   1      40.230  26.544  28.313  1.00  0.00     0.173 A 
ATOM     72  F   UNL A   1      42.550  29.190  27.405  1.00  0.00    -0.203 F 
ATOM     73  C   UNL A   1      41.869  27.285  26.199  1.00  0.00     0.198 A 
ATOM     74  C   UNL A   1      40.302  25.749  27.172  1.00  0.00     0.198 A 
ATOM     75  F   UNL A   1      39.431  26.163  29.320  1.00  0.00    -0.203 F 
ATOM     76  F   UNL A   1      42.638  27.663  25.169  1.00  0.00    -0.200 F 
ATOM     77  C   UNL A   1      41.112  26.126  26.111  1.00  0.00     0.200 A 
ATOM     78  F   UNL A   1      39.584  24.620  27.098  1.00  0.00    -0.200 F 
ATOM     79  F   UNL A   1      41.160  25.375  25.001  1.00  0.00    -0.200 F 
ENDBRANCH  45  69
BRANCH  57  80
ATOM     80  C   UNL A   1      44.138  28.103  34.641  1.00  0.00     0.064 A 
ATOM     81  C   UNL A   1      45.463  28.546  34.503  1.00  0.00     0.173 A 
ATOM     82  C   UNL A   1      43.917  26.900  35.327  1.00  0.00     0.173 A 
ATOM     83  F   UNL A   1      45.732  29.686  33.849  1.00  0.00    -0.203 F 
ATOM     84  C   UNL A   1      46.524  27.809  35.024  1.00  0.00     0.198 A 
ATOM     85  C   UNL A   1      44.978  26.183  35.877  1.00  0.00     0.198 A 
ATOM     86  F   UNL A   1      42.670  26.438  35.496  1.00  0.00    -0.203 F 
ATOM     87  F   UNL A   1      47.782  28.238  34.853  1.00  0.00    -0.200 F 
ATOM     88  C   UNL A   1      46.280  26.634  35.718  1.00  0.00     0.200 A 
ATOM     89  F   UNL A   1      44.738  25.063  36.572  1.00  0.00    -0.200 F 
ATOM     90  F   UNL A   1      47.300  25.938  36.237  1.00  0.00    -0.200 F 
ENDBRANCH  57  80
ENDBRANCH  31  32
ENDBRANCH  23  26
ENDBRANCH  21  22
ENDBRANCH  20  21
ENDBRANCH   1  20
TORSDOF 13
ENDMDL
