MODEL 1
REMARK VINA RESULT:     -12.7      0.000      0.000
REMARK SMILES COCCN1C(=O)c2ccccc2[C@@H](C(=O)NCCCNC(=O)c2ccc(-c3c4nc(c(-c5c(F)c(F)c(F)c(F)c5F)c5ccc([nH]5)c(-c5c(F)c(F)c(F)c(F)c5F)c5nc(c(-c6c(F)c(F)c(F)c(F)c6F)c6ccc3[nH]6)C=C5)C=C4)cc2)[C@H]1c1nccn1C
REMARK SMILES IDX 18 1 17 2 15 3 16 4 14 6 5 7 6 8 87 9 7 10 8 11 9 12 13 13
REMARK SMILES IDX 10 14 12 15 11 16 4 17 3 18 2 19 1 20 88 21 89 22 92 23
REMARK SMILES IDX 90 24 91 25 93 26 19 27 20 28 21 29 22 30 23 32 24 33 25 34
REMARK SMILES IDX 86 35 26 36 85 37 27 38 28 39 29 40 79 41 30 42 84 43 78 44
REMARK SMILES IDX 80 45 31 46 83 47 77 48 76 49 32 51 64 52 44 53 63 54 45 55
REMARK SMILES IDX 48 56 62 57 81 58 46 59 47 60 61 62 82 63 49 64 33 65 34 66
REMARK SMILES IDX 42 67 35 68 36 69 40 70 43 71 37 72 38 73 41 74 39 75 65 76
REMARK SMILES IDX 66 77 74 78 67 79 68 80 72 81 75 82 69 83 70 84 73 85 71 86
REMARK SMILES IDX 50 87 51 88 59 89 52 90 53 91 57 92 60 93 54 94 55 95 58 96
REMARK SMILES IDX 56 97
REMARK H PARENT 17 5 21 31 80 50 48 61
REMARK Flexibility Score: inf
ROOT
ATOM      1  C   UNL A   1      31.526  29.392  25.273  1.00  0.00     0.117 C 
ENDROOT
BRANCH   1   2
ATOM      2  N   UNL A   1      32.607  29.244  24.331  1.00  0.00    -0.355 N 
ATOM      3  C   UNL A   1      32.618  28.681  23.102  1.00  0.00     0.230 C 
ATOM      4  O   UNL A   1      33.589  28.987  22.395  1.00  0.00    -0.274 OA
ATOM      5  H   UNL A   1      33.472  29.609  24.631  1.00  0.00     0.163 HD
BRANCH   3   6
ATOM      6  C   UNL A   1      31.507  27.799  22.512  1.00  0.00     0.139 C 
ATOM      7  N   UNL A   1      30.275  26.227  24.111  1.00  0.00    -0.325 N 
ATOM      8  C   UNL A   1      29.044  26.846  23.817  1.00  0.00     0.254 C 
ATOM      9  C   UNL A   1      31.314  26.340  23.005  1.00  0.00     0.169 C 
ATOM     10  O   UNL A   1      27.945  26.400  24.156  1.00  0.00    -0.269 OA
ATOM     11  C   UNL A   1      29.053  28.116  23.056  1.00  0.00     0.044 A 
ATOM     12  C   UNL A   1      27.883  28.891  23.030  1.00  0.00     0.014 A 
ATOM     13  C   UNL A   1      30.208  28.576  22.420  1.00  0.00    -0.020 A 
ATOM     14  C   UNL A   1      27.855  30.110  22.355  1.00  0.00     0.001 A 
ATOM     15  C   UNL A   1      30.157  29.791  21.710  1.00  0.00     0.005 A 
ATOM     16  C   UNL A   1      28.989  30.553  21.683  1.00  0.00     0.000 A 
BRANCH   7  17
ATOM     17  C   UNL A   1      30.145  25.014  24.962  1.00  0.00     0.149 C 
BRANCH  17  18
ATOM     18  C   UNL A   1      30.428  25.094  26.490  1.00  0.00     0.181 C 
BRANCH  18  19
ATOM     19  O   UNL A   1      30.683  23.881  27.181  1.00  0.00    -0.383 OA
ATOM     20  C   UNL A   1      31.730  23.104  26.620  1.00  0.00     0.194 C 
ENDBRANCH  18  19
ENDBRANCH  17  18
ENDBRANCH   7  17
BRANCH   9  21
ATOM     21  C   UNL A   1      32.552  25.413  23.108  1.00  0.00     0.132 A 
ATOM     22  N   UNL A   1      32.983  24.702  22.067  1.00  0.00    -0.239 NA
ATOM     23  N   UNL A   1      33.531  25.311  24.094  1.00  0.00    -0.336 N 
ATOM     24  C   UNL A   1      34.092  24.008  22.435  1.00  0.00     0.131 A 
ATOM     25  C   UNL A   1      34.433  24.342  23.711  1.00  0.00     0.107 A 
ATOM     26  C   UNL A   1      33.787  26.077  25.289  1.00  0.00     0.151 C 
ENDBRANCH   9  21
ENDBRANCH   3   6
ENDBRANCH   1   2
BRANCH   1  27
ATOM     27  C   UNL A   1      31.395  30.821  25.753  1.00  0.00     0.042 C 
BRANCH  27  28
ATOM     28  C   UNL A   1      32.195  31.159  26.999  1.00  0.00     0.118 C 
BRANCH  28  29
ATOM     29  N   UNL A   1      32.530  32.576  27.058  1.00  0.00    -0.352 N 
ATOM     30  C   UNL A   1      33.541  33.277  27.665  1.00  0.00     0.251 C 
ATOM     31  H   UNL A   1      31.901  33.148  26.561  1.00  0.00     0.163 HD
ATOM     32  O   UNL A   1      33.421  34.501  27.730  1.00  0.00    -0.269 OA
BRANCH  30  33
ATOM     33  C   UNL A   1      34.762  32.643  28.231  1.00  0.00     0.039 A 
ATOM     34  C   UNL A   1      34.669  31.313  28.668  1.00  0.00     0.014 A 
ATOM     35  C   UNL A   1      35.955  33.332  28.452  1.00  0.00     0.014 A 
ATOM     36  C   UNL A   1      35.749  30.691  29.305  1.00  0.00     0.010 A 
ATOM     37  C   UNL A   1      37.069  32.678  28.981  1.00  0.00     0.010 A 
ATOM     38  C   UNL A   1      36.969  31.363  29.456  1.00  0.00    -0.014 A 
BRANCH  38  39
ATOM     39  C   UNL A   1      38.119  30.739  30.168  1.00  0.00     0.031 A 
ATOM     40  C   UNL A   1      38.388  31.074  31.615  1.00  0.00     0.074 A 
ATOM     41  C   UNL A   1      38.947  29.902  29.514  1.00  0.00     0.049 A 
ATOM     42  N   UNL A   1      39.371  30.686  32.391  1.00  0.00    -0.248 NA
ATOM     43  C   UNL A   1      37.445  31.995  32.270  1.00  0.00     0.031 C 
ATOM     44  C   UNL A   1      38.829  29.525  28.106  1.00  0.00     0.029 A 
ATOM     45  N   UNL A   1      40.057  29.219  29.949  1.00  0.00    -0.354 N 
ATOM     46  C   UNL A   1      39.175  31.333  33.607  1.00  0.00     0.074 A 
ATOM     47  C   UNL A   1      38.018  32.185  33.448  1.00  0.00     0.031 C 
ATOM     48  C   UNL A   1      39.806  28.657  27.799  1.00  0.00     0.029 A 
ATOM     49  C   UNL A   1      40.643  28.445  28.977  1.00  0.00     0.049 A 
ATOM     50  H   UNL A   1      40.398  29.277  30.870  1.00  0.00     0.167 HD
ATOM     51  C   UNL A   1      39.875  31.207  34.760  1.00  0.00     0.037 A 
ATOM     52  C   UNL A   1      41.733  27.656  29.028  1.00  0.00     0.037 A 
ATOM     53  C   UNL A   1      41.001  30.327  34.933  1.00  0.00     0.049 A 
ATOM     54  C   UNL A   1      42.488  27.525  30.325  1.00  0.00     0.074 A 
ATOM     55  C   UNL A   1      41.741  30.084  36.077  1.00  0.00     0.029 A 
ATOM     56  N   UNL A   1      41.548  29.540  33.930  1.00  0.00    -0.354 N 
ATOM     57  N   UNL A   1      42.257  28.096  31.482  1.00  0.00    -0.248 NA
ATOM     58  C   UNL A   1      43.650  26.625  30.323  1.00  0.00     0.031 C 
ATOM     59  C   UNL A   1      42.764  29.186  35.755  1.00  0.00     0.029 A 
ATOM     60  C   UNL A   1      42.627  28.825  34.425  1.00  0.00     0.049 A 
ATOM     61  H   UNL A   1      41.219  29.497  33.002  1.00  0.00     0.167 HD
ATOM     62  C   UNL A   1      43.220  27.602  32.351  1.00  0.00     0.074 A 
ATOM     63  C   UNL A   1      44.029  26.672  31.592  1.00  0.00     0.031 C 
ATOM     64  C   UNL A   1      43.417  27.893  33.661  1.00  0.00     0.037 A 
BRANCH  51  65
ATOM     65  C   UNL A   1      39.439  32.040  35.934  1.00  0.00     0.064 A 
ATOM     66  C   UNL A   1      38.461  31.592  36.836  1.00  0.00     0.173 A 
ATOM     67  C   UNL A   1      40.031  33.289  36.181  1.00  0.00     0.173 A 
ATOM     68  F   UNL A   1      37.854  30.411  36.642  1.00  0.00    -0.203 F 
ATOM     69  C   UNL A   1      38.065  32.377  37.917  1.00  0.00     0.198 A 
ATOM     70  C   UNL A   1      39.658  34.055  37.282  1.00  0.00     0.198 A 
ATOM     71  F   UNL A   1      40.976  33.765  35.357  1.00  0.00    -0.203 F 
ATOM     72  F   UNL A   1      37.088  31.952  38.728  1.00  0.00    -0.200 F 
ATOM     73  C   UNL A   1      38.670  33.604  38.143  1.00  0.00     0.200 A 
ATOM     74  F   UNL A   1      40.253  35.235  37.509  1.00  0.00    -0.200 F 
ATOM     75  F   UNL A   1      38.292  34.355  39.187  1.00  0.00    -0.200 F 
ENDBRANCH  51  65
BRANCH  52  76
ATOM     76  C   UNL A   1      42.161  26.902  27.821  1.00  0.00     0.064 A 
ATOM     77  C   UNL A   1      41.659  25.619  27.560  1.00  0.00     0.173 A 
ATOM     78  C   UNL A   1      43.082  27.439  26.909  1.00  0.00     0.173 A 
ATOM     79  F   UNL A   1      40.795  25.052  28.414  1.00  0.00    -0.203 F 
ATOM     80  C   UNL A   1      42.082  24.892  26.448  1.00  0.00     0.198 A 
ATOM     81  C   UNL A   1      43.480  26.725  25.782  1.00  0.00     0.198 A 
ATOM     82  F   UNL A   1      43.589  28.664  27.112  1.00  0.00    -0.203 F 
ATOM     83  F   UNL A   1      41.627  23.647  26.253  1.00  0.00    -0.200 F 
ATOM     84  C   UNL A   1      42.986  25.448  25.557  1.00  0.00     0.200 A 
ATOM     85  F   UNL A   1      44.345  27.270  24.917  1.00  0.00    -0.200 F 
ATOM     86  F   UNL A   1      43.392  24.749  24.488  1.00  0.00    -0.200 F 
ENDBRANCH  52  76
BRANCH  64  87
ATOM     87  C   UNL A   1      44.522  27.162  34.370  1.00  0.00     0.064 A 
ATOM     88  C   UNL A   1      45.817  27.691  34.465  1.00  0.00     0.173 A 
ATOM     89  C   UNL A   1      44.271  25.926  34.986  1.00  0.00     0.173 A 
ATOM     90  F   UNL A   1      46.113  28.863  33.882  1.00  0.00    -0.203 F 
ATOM     91  C   UNL A   1      46.829  26.992  35.118  1.00  0.00     0.198 A 
ATOM     92  C   UNL A   1      45.275  25.246  35.667  1.00  0.00     0.198 A 
ATOM     93  F   UNL A   1      43.046  25.380  34.935  1.00  0.00    -0.203 F 
ATOM     94  F   UNL A   1      48.073  27.488  35.145  1.00  0.00    -0.200 F 
ATOM     95  C   UNL A   1      46.556  25.774  35.724  1.00  0.00     0.200 A 
ATOM     96  F   UNL A   1      45.006  24.079  36.266  1.00  0.00    -0.200 F 
ATOM     97  F   UNL A   1      47.531  25.105  36.355  1.00  0.00    -0.200 F 
ENDBRANCH  64  87
ENDBRANCH  38  39
ENDBRANCH  30  33
ENDBRANCH  28  29
ENDBRANCH  27  28
ENDBRANCH   1  27
TORSDOF 14
ENDMDL
MODEL 2
REMARK VINA RESULT:     -12.6      0.139      1.912
REMARK SMILES COCCN1C(=O)c2ccccc2[C@@H](C(=O)NCCCNC(=O)c2ccc(-c3c4nc(c(-c5c(F)c(F)c(F)c(F)c5F)c5ccc([nH]5)c(-c5c(F)c(F)c(F)c(F)c5F)c5nc(c(-c6c(F)c(F)c(F)c(F)c6F)c6ccc3[nH]6)C=C5)C=C4)cc2)[C@H]1c1nccn1C
REMARK SMILES IDX 18 1 17 2 15 3 16 4 14 6 5 7 6 8 87 9 7 10 8 11 9 12 13 13
REMARK SMILES IDX 10 14 12 15 11 16 4 17 3 18 2 19 1 20 88 21 89 22 92 23
REMARK SMILES IDX 90 24 91 25 93 26 19 27 20 28 21 29 22 30 23 32 24 33 25 34
REMARK SMILES IDX 86 35 26 36 85 37 27 38 28 39 29 40 79 41 30 42 84 43 78 44
REMARK SMILES IDX 80 45 31 46 83 47 77 48 76 49 32 51 64 52 44 53 63 54 45 55
REMARK SMILES IDX 48 56 62 57 81 58 46 59 47 60 61 62 82 63 49 64 33 65 34 66
REMARK SMILES IDX 42 67 35 68 36 69 40 70 43 71 37 72 38 73 41 74 39 75 65 76
REMARK SMILES IDX 66 77 74 78 67 79 68 80 72 81 75 82 69 83 70 84 73 85 71 86
REMARK SMILES IDX 50 87 51 88 59 89 52 90 53 91 57 92 60 93 54 94 55 95 58 96
REMARK SMILES IDX 56 97
REMARK H PARENT 17 5 21 31 80 50 48 61
REMARK Flexibility Score: inf
ROOT
ATOM      1  C   UNL A   1      31.472  29.433  25.273  1.00  0.00     0.117 C 
ENDROOT
BRANCH   1   2
ATOM      2  N   UNL A   1      32.568  29.273  24.350  1.00  0.00    -0.355 N 
ATOM      3  C   UNL A   1      32.598  28.692  23.130  1.00  0.00     0.230 C 
ATOM      4  O   UNL A   1      33.578  28.990  22.432  1.00  0.00    -0.274 OA
ATOM      5  H   UNL A   1      33.427  29.645  24.656  1.00  0.00     0.163 HD
BRANCH   3   6
ATOM      6  C   UNL A   1      31.497  27.799  22.537  1.00  0.00     0.139 C 
ATOM      7  N   UNL A   1      30.252  26.241  24.140  1.00  0.00    -0.325 N 
ATOM      8  C   UNL A   1      29.022  26.851  23.823  1.00  0.00     0.254 C 
ATOM      9  C   UNL A   1      31.305  26.345  23.045  1.00  0.00     0.169 C 
ATOM     10  O   UNL A   1      27.921  26.404  24.154  1.00  0.00    -0.269 OA
ATOM     11  C   UNL A   1      29.036  28.112  23.047  1.00  0.00     0.044 A 
ATOM     12  C   UNL A   1      27.864  28.882  22.996  1.00  0.00     0.014 A 
ATOM     13  C   UNL A   1      30.197  28.569  22.419  1.00  0.00    -0.020 A 
ATOM     14  C   UNL A   1      27.838  30.092  22.306  1.00  0.00     0.001 A 
ATOM     15  C   UNL A   1      30.150  29.774  21.694  1.00  0.00     0.005 A 
ATOM     16  C   UNL A   1      28.979  30.532  21.643  1.00  0.00     0.000 A 
BRANCH   7  17
ATOM     17  C   UNL A   1      30.117  25.038  25.005  1.00  0.00     0.149 C 
BRANCH  17  18
ATOM     18  C   UNL A   1      30.623  25.069  26.475  1.00  0.00     0.181 C 
BRANCH  18  19
ATOM     19  O   UNL A   1      30.693  23.837  27.178  1.00  0.00    -0.383 OA
ATOM     20  C   UNL A   1      31.818  23.040  26.838  1.00  0.00     0.194 C 
ENDBRANCH  18  19
ENDBRANCH  17  18
ENDBRANCH   7  17
BRANCH   9  21
ATOM     21  C   UNL A   1      32.545  25.424  23.175  1.00  0.00     0.132 A 
ATOM     22  N   UNL A   1      32.967  24.670  22.160  1.00  0.00    -0.239 NA
ATOM     23  N   UNL A   1      33.534  25.364  24.155  1.00  0.00    -0.336 N 
ATOM     24  C   UNL A   1      34.081  23.994  22.547  1.00  0.00     0.131 A 
ATOM     25  C   UNL A   1      34.433  24.381  23.804  1.00  0.00     0.107 A 
ATOM     26  C   UNL A   1      33.799  26.180  25.314  1.00  0.00     0.151 C 
ENDBRANCH   9  21
ENDBRANCH   3   6
ENDBRANCH   1   2
BRANCH   1  27
ATOM     27  C   UNL A   1      31.404  30.842  25.821  1.00  0.00     0.042 C 
BRANCH  27  28
ATOM     28  C   UNL A   1      32.341  31.130  26.982  1.00  0.00     0.118 C 
BRANCH  28  29
ATOM     29  N   UNL A   1      32.655  32.549  27.084  1.00  0.00    -0.352 N 
ATOM     30  C   UNL A   1      33.649  33.246  27.723  1.00  0.00     0.251 C 
ATOM     31  H   UNL A   1      32.026  33.125  26.593  1.00  0.00     0.163 HD
ATOM     32  O   UNL A   1      33.510  34.466  27.819  1.00  0.00    -0.269 OA
BRANCH  30  33
ATOM     33  C   UNL A   1      34.871  32.614  28.289  1.00  0.00     0.039 A 
ATOM     34  C   UNL A   1      34.766  31.301  28.773  1.00  0.00     0.014 A 
ATOM     35  C   UNL A   1      36.077  33.292  28.464  1.00  0.00     0.014 A 
ATOM     36  C   UNL A   1      35.848  30.686  29.412  1.00  0.00     0.010 A 
ATOM     37  C   UNL A   1      37.191  32.640  28.995  1.00  0.00     0.010 A 
ATOM     38  C   UNL A   1      37.081  31.344  29.517  1.00  0.00    -0.014 A 
BRANCH  38  39
ATOM     39  C   UNL A   1      38.234  30.727  30.230  1.00  0.00     0.031 A 
ATOM     40  C   UNL A   1      38.514  31.081  31.671  1.00  0.00     0.074 A 
ATOM     41  C   UNL A   1      39.056  29.879  29.582  1.00  0.00     0.049 A 
ATOM     42  N   UNL A   1      39.501  30.702  32.445  1.00  0.00    -0.248 NA
ATOM     43  C   UNL A   1      37.577  32.013  32.319  1.00  0.00     0.031 C 
ATOM     44  C   UNL A   1      38.928  29.484  28.179  1.00  0.00     0.029 A 
ATOM     45  N   UNL A   1      40.168  29.200  30.018  1.00  0.00    -0.354 N 
ATOM     46  C   UNL A   1      39.315  31.365  33.653  1.00  0.00     0.074 A 
ATOM     47  C   UNL A   1      38.159  32.218  33.491  1.00  0.00     0.031 C 
ATOM     48  C   UNL A   1      39.902  28.610  27.878  1.00  0.00     0.029 A 
ATOM     49  C   UNL A   1      40.746  28.413  29.053  1.00  0.00     0.049 A 
ATOM     50  H   UNL A   1      40.516  29.271  30.936  1.00  0.00     0.167 HD
ATOM     51  C   UNL A   1      40.023  31.254  34.803  1.00  0.00     0.037 A 
ATOM     52  C   UNL A   1      41.835  27.622  29.107  1.00  0.00     0.037 A 
ATOM     53  C   UNL A   1      41.148  30.375  34.979  1.00  0.00     0.049 A 
ATOM     54  C   UNL A   1      42.599  27.507  30.400  1.00  0.00     0.074 A 
ATOM     55  C   UNL A   1      41.896  30.146  36.122  1.00  0.00     0.029 A 
ATOM     56  N   UNL A   1      41.687  29.573  33.983  1.00  0.00    -0.354 N 
ATOM     57  N   UNL A   1      42.376  28.094  31.551  1.00  0.00    -0.248 NA
ATOM     58  C   UNL A   1      43.759  26.605  30.402  1.00  0.00     0.031 C 
ATOM     59  C   UNL A   1      42.915  29.241  35.805  1.00  0.00     0.029 A 
ATOM     60  C   UNL A   1      42.768  28.863  34.481  1.00  0.00     0.049 A 
ATOM     61  H   UNL A   1      41.351  29.518  33.059  1.00  0.00     0.167 HD
ATOM     62  C   UNL A   1      43.344  27.610  32.420  1.00  0.00     0.074 A 
ATOM     63  C   UNL A   1      44.147  26.669  31.668  1.00  0.00     0.031 C 
ATOM     64  C   UNL A   1      43.551  27.919  33.724  1.00  0.00     0.037 A 
BRANCH  51  65
ATOM     65  C   UNL A   1      39.597  32.104  35.968  1.00  0.00     0.064 A 
ATOM     66  C   UNL A   1      40.198  33.343  36.240  1.00  0.00     0.173 A 
ATOM     67  C   UNL A   1      38.550  31.689  36.807  1.00  0.00     0.173 A 
ATOM     68  F   UNL A   1      41.211  33.783  35.477  1.00  0.00    -0.203 F 
ATOM     69  C   UNL A   1      39.794  34.117  37.325  1.00  0.00     0.198 A 
ATOM     70  C   UNL A   1      38.125  32.481  37.871  1.00  0.00     0.198 A 
ATOM     71  F   UNL A   1      37.934  30.517  36.592  1.00  0.00    -0.203 F 
ATOM     72  F   UNL A   1      40.424  35.267  37.596  1.00  0.00    -0.200 F 
ATOM     73  C   UNL A   1      38.753  33.689  38.135  1.00  0.00     0.200 A 
ATOM     74  F   UNL A   1      37.109  32.073  38.645  1.00  0.00    -0.200 F 
ATOM     75  F   UNL A   1      38.361  34.437  39.176  1.00  0.00    -0.200 F 
ENDBRANCH  51  65
BRANCH  52  76
ATOM     76  C   UNL A   1      42.253  26.851  27.907  1.00  0.00     0.064 A 
ATOM     77  C   UNL A   1      43.195  27.374  27.008  1.00  0.00     0.173 A 
ATOM     78  C   UNL A   1      41.718  25.586  27.627  1.00  0.00     0.173 A 
ATOM     79  F   UNL A   1      43.717  28.590  27.219  1.00  0.00    -0.203 F 
ATOM     80  C   UNL A   1      43.565  26.672  25.863  1.00  0.00     0.198 A 
ATOM     81  C   UNL A   1      42.112  24.870  26.498  1.00  0.00     0.198 A 
ATOM     82  F   UNL A   1      40.816  25.040  28.456  1.00  0.00    -0.203 F 
ATOM     83  F   UNL A   1      44.426  27.218  24.995  1.00  0.00    -0.200 F 
ATOM     84  C   UNL A   1      43.029  25.418  25.613  1.00  0.00     0.200 A 
ATOM     85  F   UNL A   1      41.600  23.655  26.265  1.00  0.00    -0.200 F 
ATOM     86  F   UNL A   1      43.386  24.743  24.511  1.00  0.00    -0.200 F 
ENDBRANCH  52  76
BRANCH  64  87
ATOM     87  C   UNL A   1      44.659  27.196  34.435  1.00  0.00     0.064 A 
ATOM     88  C   UNL A   1      44.452  25.959  35.065  1.00  0.00     0.173 A 
ATOM     89  C   UNL A   1      45.954  27.737  34.463  1.00  0.00     0.173 A 
ATOM     90  F   UNL A   1      43.231  25.405  35.078  1.00  0.00    -0.203 F 
ATOM     91  C   UNL A   1      45.492  25.311  35.728  1.00  0.00     0.198 A 
ATOM     92  C   UNL A   1      46.998  27.070  35.096  1.00  0.00     0.198 A 
ATOM     93  F   UNL A   1      46.210  28.912  33.867  1.00  0.00    -0.203 F 
ATOM     94  F   UNL A   1      45.256  24.160  36.372  1.00  0.00    -0.200 F 
ATOM     95  C   UNL A   1      46.764  25.863  35.737  1.00  0.00     0.200 A 
ATOM     96  F   UNL A   1      48.230  27.596  35.091  1.00  0.00    -0.200 F 
ATOM     97  F   UNL A   1      47.763  25.235  36.372  1.00  0.00    -0.200 F 
ENDBRANCH  64  87
ENDBRANCH  38  39
ENDBRANCH  30  33
ENDBRANCH  28  29
ENDBRANCH  27  28
ENDBRANCH   1  27
TORSDOF 14
ENDMDL
MODEL 3
REMARK VINA RESULT:     -12.5      4.648     10.355
REMARK SMILES COCCN1C(=O)c2ccccc2[C@@H](C(=O)NCCCNC(=O)c2ccc(-c3c4nc(c(-c5c(F)c(F)c(F)c(F)c5F)c5ccc([nH]5)c(-c5c(F)c(F)c(F)c(F)c5F)c5nc(c(-c6c(F)c(F)c(F)c(F)c6F)c6ccc3[nH]6)C=C5)C=C4)cc2)[C@H]1c1nccn1C
REMARK SMILES IDX 18 1 17 2 15 3 16 4 14 6 5 7 6 8 87 9 7 10 8 11 9 12 13 13
REMARK SMILES IDX 10 14 12 15 11 16 4 17 3 18 2 19 1 20 88 21 89 22 92 23
REMARK SMILES IDX 90 24 91 25 93 26 19 27 20 28 21 29 22 30 23 32 24 33 25 34
REMARK SMILES IDX 86 35 26 36 85 37 27 38 28 39 29 40 79 41 30 42 84 43 78 44
REMARK SMILES IDX 80 45 31 46 83 47 77 48 76 49 32 51 64 52 44 53 63 54 45 55
REMARK SMILES IDX 48 56 62 57 81 58 46 59 47 60 61 62 82 63 49 64 33 65 34 66
REMARK SMILES IDX 42 67 35 68 36 69 40 70 43 71 37 72 38 73 41 74 39 75 65 76
REMARK SMILES IDX 66 77 74 78 67 79 68 80 72 81 75 82 69 83 70 84 73 85 71 86
REMARK SMILES IDX 50 87 51 88 59 89 52 90 53 91 57 92 60 93 54 94 55 95 58 96
REMARK SMILES IDX 56 97
REMARK H PARENT 17 5 21 31 80 50 48 61
REMARK Flexibility Score: inf
ROOT
ATOM      1  C   UNL A   1      35.671  21.124  24.829  1.00  0.00     0.117 C 
ENDROOT
BRANCH   1   2
ATOM      2  N   UNL A   1      35.232  21.581  26.124  1.00  0.00    -0.355 N 
ATOM      3  C   UNL A   1      33.989  21.627  26.653  1.00  0.00     0.230 C 
ATOM      4  O   UNL A   1      33.948  21.751  27.886  1.00  0.00    -0.274 OA
ATOM      5  H   UNL A   1      35.949  21.910  26.714  1.00  0.00     0.163 HD
BRANCH   3   6
ATOM      6  C   UNL A   1      32.677  21.448  25.873  1.00  0.00     0.139 C 
ATOM      7  N   UNL A   1      32.567  22.426  23.511  1.00  0.00    -0.325 N 
ATOM      8  C   UNL A   1      32.305  21.153  22.966  1.00  0.00     0.254 C 
ATOM      9  C   UNL A   1      32.140  22.585  24.964  1.00  0.00     0.169 C 
ATOM     10  O   UNL A   1      31.946  20.959  21.802  1.00  0.00    -0.269 OA
ATOM     11  C   UNL A   1      32.474  19.964  23.831  1.00  0.00     0.044 A 
ATOM     12  C   UNL A   1      32.523  18.697  23.227  1.00  0.00     0.014 A 
ATOM     13  C   UNL A   1      32.637  20.084  25.212  1.00  0.00    -0.020 A 
ATOM     14  C   UNL A   1      32.713  17.551  23.997  1.00  0.00     0.001 A 
ATOM     15  C   UNL A   1      32.791  18.917  25.984  1.00  0.00     0.005 A 
ATOM     16  C   UNL A   1      32.834  17.661  25.378  1.00  0.00     0.000 A 
BRANCH   7  17
ATOM     17  C   UNL A   1      32.461  23.533  22.524  1.00  0.00     0.149 C 
BRANCH  17  18
ATOM     18  C   UNL A   1      33.744  24.165  21.914  1.00  0.00     0.181 C 
BRANCH  18  19
ATOM     19  O   UNL A   1      33.779  25.576  21.759  1.00  0.00    -0.383 OA
ATOM     20  C   UNL A   1      32.507  26.200  21.850  1.00  0.00     0.194 C 
ENDBRANCH  18  19
ENDBRANCH  17  18
ENDBRANCH   7  17
BRANCH   9  21
ATOM     21  C   UNL A   1      32.082  24.030  25.524  1.00  0.00     0.132 A 
ATOM     22  N   UNL A   1      31.034  24.469  26.220  1.00  0.00    -0.239 NA
ATOM     23  N   UNL A   1      33.077  24.998  25.645  1.00  0.00    -0.336 N 
ATOM     24  C   UNL A   1      31.268  25.751  26.606  1.00  0.00     0.131 A 
ATOM     25  C   UNL A   1      32.522  26.119  26.224  1.00  0.00     0.107 A 
ATOM     26  C   UNL A   1      34.495  24.967  25.387  1.00  0.00     0.151 C 
ENDBRANCH   9  21
ENDBRANCH   3   6
ENDBRANCH   1   2
BRANCH   1  27
ATOM     27  C   UNL A   1      36.929  20.288  24.929  1.00  0.00     0.042 C 
BRANCH  27  28
ATOM     28  C   UNL A   1      38.196  21.063  25.248  1.00  0.00     0.118 C 
BRANCH  28  29
ATOM     29  N   UNL A   1      39.145  20.258  26.005  1.00  0.00    -0.352 N 
ATOM     30  C   UNL A   1      40.291  20.560  26.695  1.00  0.00     0.251 C 
ATOM     31  H   UNL A   1      38.917  19.300  26.025  1.00  0.00     0.163 HD
ATOM     32  O   UNL A   1      41.011  19.620  27.035  1.00  0.00    -0.269 OA
BRANCH  30  33
ATOM     33  C   UNL A   1      40.698  21.945  27.056  1.00  0.00     0.039 A 
ATOM     34  C   UNL A   1      40.166  23.002  26.304  1.00  0.00     0.014 A 
ATOM     35  C   UNL A   1      41.660  22.236  28.023  1.00  0.00     0.014 A 
ATOM     36  C   UNL A   1      40.586  24.319  26.522  1.00  0.00     0.010 A 
ATOM     37  C   UNL A   1      41.994  23.559  28.321  1.00  0.00     0.010 A 
ATOM     38  C   UNL A   1      41.496  24.615  27.546  1.00  0.00    -0.014 A 
BRANCH  38  39
ATOM     39  C   UNL A   1      41.992  26.002  27.771  1.00  0.00     0.031 A 
ATOM     40  C   UNL A   1      43.340  26.422  27.237  1.00  0.00     0.074 A 
ATOM     41  C   UNL A   1      41.256  26.876  28.483  1.00  0.00     0.049 A 
ATOM     42  N   UNL A   1      43.975  27.560  27.380  1.00  0.00    -0.248 NA
ATOM     43  C   UNL A   1      44.092  25.418  26.467  1.00  0.00     0.031 C 
ATOM     44  C   UNL A   1      39.958  26.591  29.093  1.00  0.00     0.029 A 
ATOM     45  N   UNL A   1      41.500  28.186  28.821  1.00  0.00    -0.354 N 
ATOM     46  C   UNL A   1      45.200  27.396  26.743  1.00  0.00     0.074 A 
ATOM     47  C   UNL A   1      45.247  26.032  26.267  1.00  0.00     0.031 C 
ATOM     48  C   UNL A   1      39.505  27.697  29.703  1.00  0.00     0.029 A 
ATOM     49  C   UNL A   1      40.497  28.759  29.563  1.00  0.00     0.049 A 
ATOM     50  H   UNL A   1      42.317  28.667  28.556  1.00  0.00     0.167 HD
ATOM     51  C   UNL A   1      46.185  28.306  26.546  1.00  0.00     0.037 A 
ATOM     52  C   UNL A   1      40.389  30.001  30.074  1.00  0.00     0.037 A 
ATOM     53  C   UNL A   1      46.121  29.676  26.981  1.00  0.00     0.049 A 
ATOM     54  C   UNL A   1      41.492  30.997  29.830  1.00  0.00     0.074 A 
ATOM     55  C   UNL A   1      47.040  30.691  26.779  1.00  0.00     0.029 A 
ATOM     56  N   UNL A   1      45.074  30.225  27.707  1.00  0.00    -0.354 N 
ATOM     57  N   UNL A   1      42.617  30.846  29.175  1.00  0.00    -0.248 NA
ATOM     58  C   UNL A   1      41.299  32.343  30.389  1.00  0.00     0.031 C 
ATOM     59  C   UNL A   1      46.571  31.842  27.422  1.00  0.00     0.029 A 
ATOM     60  C   UNL A   1      45.334  31.560  27.976  1.00  0.00     0.049 A 
ATOM     61  H   UNL A   1      44.267  29.738  27.991  1.00  0.00     0.167 HD
ATOM     62  C   UNL A   1      43.250  32.081  29.214  1.00  0.00     0.074 A 
ATOM     63  C   UNL A   1      42.376  32.975  29.944  1.00  0.00     0.031 C 
ATOM     64  C   UNL A   1      44.449  32.442  28.693  1.00  0.00     0.037 A 
BRANCH  51  65
ATOM     65  C   UNL A   1      47.419  27.849  25.817  1.00  0.00     0.064 A 
ATOM     66  C   UNL A   1      48.575  27.445  26.503  1.00  0.00     0.173 A 
ATOM     67  C   UNL A   1      47.436  27.784  24.415  1.00  0.00     0.173 A 
ATOM     68  F   UNL A   1      48.618  27.498  27.843  1.00  0.00    -0.203 F 
ATOM     69  C   UNL A   1      49.712  27.028  25.814  1.00  0.00     0.198 A 
ATOM     70  C   UNL A   1      48.561  27.333  23.730  1.00  0.00     0.198 A 
ATOM     71  F   UNL A   1      46.357  28.151  23.707  1.00  0.00    -0.203 F 
ATOM     72  F   UNL A   1      50.821  26.703  26.490  1.00  0.00    -0.200 F 
ATOM     73  C   UNL A   1      49.701  26.965  24.428  1.00  0.00     0.200 A 
ATOM     74  F   UNL A   1      48.545  27.260  22.392  1.00  0.00    -0.200 F 
ATOM     75  F   UNL A   1      50.793  26.558  23.767  1.00  0.00    -0.200 F 
ENDBRANCH  51  65
BRANCH  52  76
ATOM     76  C   UNL A   1      39.175  30.384  30.842  1.00  0.00     0.064 A 
ATOM     77  C   UNL A   1      38.071  30.963  30.199  1.00  0.00     0.173 A 
ATOM     78  C   UNL A   1      39.094  30.190  32.228  1.00  0.00     0.173 A 
ATOM     79  F   UNL A   1      38.109  31.191  28.879  1.00  0.00    -0.203 F 
ATOM     80  C   UNL A   1      36.943  31.356  30.918  1.00  0.00     0.198 A 
ATOM     81  C   UNL A   1      37.954  30.555  32.942  1.00  0.00     0.198 A 
ATOM     82  F   UNL A   1      40.122  29.637  32.889  1.00  0.00    -0.203 F 
ATOM     83  F   UNL A   1      35.925  31.956  30.286  1.00  0.00    -0.200 F 
ATOM     84  C   UNL A   1      36.883  31.145  32.287  1.00  0.00     0.200 A 
ATOM     85  F   UNL A   1      37.895  30.339  34.262  1.00  0.00    -0.200 F 
ATOM     86  F   UNL A   1      35.799  31.523  32.977  1.00  0.00    -0.200 F 
ENDBRANCH  52  76
BRANCH  64  87
ATOM     87  C   UNL A   1      44.863  33.877  28.851  1.00  0.00     0.064 A 
ATOM     88  C   UNL A   1      44.516  34.856  27.908  1.00  0.00     0.173 A 
ATOM     89  C   UNL A   1      45.597  34.282  29.977  1.00  0.00     0.173 A 
ATOM     90  F   UNL A   1      43.827  34.519  26.807  1.00  0.00    -0.203 F 
ATOM     91  C   UNL A   1      44.920  36.179  28.068  1.00  0.00     0.198 A 
ATOM     92  C   UNL A   1      45.969  35.612  30.151  1.00  0.00     0.198 A 
ATOM     93  F   UNL A   1      45.945  33.389  30.915  1.00  0.00    -0.203 F 
ATOM     94  F   UNL A   1      44.628  37.085  27.125  1.00  0.00    -0.200 F 
ATOM     95  C   UNL A   1      45.640  36.557  29.192  1.00  0.00     0.200 A 
ATOM     96  F   UNL A   1      46.650  35.978  31.245  1.00  0.00    -0.200 F 
ATOM     97  F   UNL A   1      46.024  37.832  29.346  1.00  0.00    -0.200 F 
ENDBRANCH  64  87
ENDBRANCH  38  39
ENDBRANCH  30  33
ENDBRANCH  28  29
ENDBRANCH  27  28
ENDBRANCH   1  27
TORSDOF 14
ENDMDL
