MODEL 1
REMARK VINA RESULT:     -12.5      0.000      0.000
REMARK SMILES O=C(C[C@H](c1ccc(C2CC2)cc1)[NH+]1CCOCC1)NCCCNC(=O)c1ccc(-c2c3nc(c(-c4c(F)c(F)c(F)c(F)c4F)c4ccc([nH]4)c(-c4c(F)c(F)c(F)c(F)c4F)c4nc(c(-c5c(F)c(F)c(F)c(F)c5F)c5ccc2[nH]5)C=C4)C=C3)cc1
REMARK SMILES IDX 21 1 20 2 1 3 2 4 3 6 4 7 14 8 15 9 19 10 16 12 18 13 17 14
REMARK SMILES IDX 5 15 6 16 13 17 7 18 12 19 8 20 9 21 10 22 11 23 22 24 23 25
REMARK SMILES IDX 24 26 25 27 26 29 27 30 28 31 89 32 29 33 88 34 30 35 31 36
REMARK SMILES IDX 32 37 82 38 33 39 87 40 81 41 83 42 34 43 86 44 80 45 79 46
REMARK SMILES IDX 35 48 67 49 47 50 66 51 48 52 51 53 65 54 84 55 49 56 50 57
REMARK SMILES IDX 64 59 85 60 52 61 36 62 37 63 45 64 38 65 39 66 43 67 46 68
REMARK SMILES IDX 40 69 41 70 44 71 42 72 68 73 69 74 77 75 70 76 71 77 75 78
REMARK SMILES IDX 78 79 72 80 73 81 76 82 74 83 53 84 54 85 62 86 55 87 56 88
REMARK SMILES IDX 60 89 63 90 57 91 58 92 61 93 59 94
REMARK H PARENT 20 5 14 11 24 28 83 47 51 58
REMARK Flexibility Score: inf
ROOT
ATOM      1  C   UNL A   1      31.839  30.484  26.657  1.00  0.00     0.117 C 
ENDROOT
BRANCH   1   2
ATOM      2  N   UNL A   1      32.170  29.885  25.380  1.00  0.00    -0.356 N 
ATOM      3  O   UNL A   1      34.073  28.867  26.145  1.00  0.00    -0.275 OA
ATOM      4  C   UNL A   1      33.222  29.001  25.269  1.00  0.00     0.226 C 
ATOM      5  H   UNL A   1      31.639  30.114  24.583  1.00  0.00     0.163 HD
BRANCH   4   6
ATOM      6  C   UNL A   1      33.244  28.196  23.990  1.00  0.00     0.170 C 
BRANCH   6   7
ATOM      7  C   UNL A   1      32.631  26.770  24.033  1.00  0.00     0.224 C 
BRANCH   7   8
ATOM      8  N   UNL A   1      31.468  26.548  23.157  1.00  0.00    -0.324 N 
ATOM      9  C   UNL A   1      30.949  27.748  22.478  1.00  0.00     0.291 C 
ATOM     10  C   UNL A   1      30.366  25.675  23.585  1.00  0.00     0.291 C 
ATOM     11  H   UNL A   1      31.963  25.961  22.485  1.00  0.00     0.348 HD
ATOM     12  C   UNL A   1      29.759  28.409  23.184  1.00  0.00     0.221 C 
ATOM     13  C   UNL A   1      29.107  26.375  24.141  1.00  0.00     0.221 C 
ATOM     14  O   UNL A   1      28.686  27.473  23.331  1.00  0.00    -0.370 OA
ENDBRANCH   7   8
BRANCH   7  15
ATOM     15  C   UNL A   1      33.652  25.639  24.108  1.00  0.00     0.010 A 
ATOM     16  C   UNL A   1      33.902  24.776  23.040  1.00  0.00     0.010 A 
ATOM     17  C   UNL A   1      34.375  25.419  25.291  1.00  0.00     0.010 A 
ATOM     18  C   UNL A   1      34.812  23.721  23.155  1.00  0.00     0.004 A 
ATOM     19  C   UNL A   1      35.306  24.373  25.392  1.00  0.00     0.004 A 
ATOM     20  C   UNL A   1      35.544  23.495  24.326  1.00  0.00    -0.045 A 
BRANCH  20  21
ATOM     21  C   UNL A   1      36.518  22.339  24.361  1.00  0.00     0.019 C 
ATOM     22  C   UNL A   1      37.388  21.993  25.541  1.00  0.00     0.009 C 
ATOM     23  C   UNL A   1      36.183  21.154  25.236  1.00  0.00     0.009 C 
ENDBRANCH  20  21
ENDBRANCH   7  15
ENDBRANCH   6   7
ENDBRANCH   4   6
ENDBRANCH   1   2
BRANCH   1  24
ATOM     24  C   UNL A   1      31.648  31.992  26.611  1.00  0.00     0.042 C 
BRANCH  24  25
ATOM     25  C   UNL A   1      32.758  32.826  27.242  1.00  0.00     0.118 C 
BRANCH  25  26
ATOM     26  N   UNL A   1      32.351  34.154  27.667  1.00  0.00    -0.352 N 
ATOM     27  C   UNL A   1      32.952  35.011  28.565  1.00  0.00     0.251 C 
ATOM     28  H   UNL A   1      31.525  34.493  27.253  1.00  0.00     0.163 HD
ATOM     29  O   UNL A   1      32.469  36.116  28.766  1.00  0.00    -0.269 OA
BRANCH  27  30
ATOM     30  C   UNL A   1      34.140  34.574  29.340  1.00  0.00     0.039 A 
ATOM     31  C   UNL A   1      33.932  34.048  30.620  1.00  0.00     0.014 A 
ATOM     32  C   UNL A   1      35.433  34.636  28.818  1.00  0.00     0.014 A 
ATOM     33  C   UNL A   1      35.003  33.496  31.329  1.00  0.00     0.010 A 
ATOM     34  C   UNL A   1      36.486  34.014  29.492  1.00  0.00     0.010 A 
ATOM     35  C   UNL A   1      36.279  33.424  30.748  1.00  0.00    -0.014 A 
BRANCH  35  36
ATOM     36  C   UNL A   1      37.385  32.703  31.433  1.00  0.00     0.031 A 
ATOM     37  C   UNL A   1      38.074  31.542  30.772  1.00  0.00     0.074 A 
ATOM     38  C   UNL A   1      37.739  33.065  32.683  1.00  0.00     0.049 A 
ATOM     39  N   UNL A   1      39.056  30.798  31.219  1.00  0.00    -0.248 NA
ATOM     40  C   UNL A   1      37.582  31.147  29.444  1.00  0.00     0.031 C 
ATOM     41  C   UNL A   1      37.105  34.128  33.465  1.00  0.00     0.029 A 
ATOM     42  N   UNL A   1      38.718  32.581  33.515  1.00  0.00    -0.354 N 
ATOM     43  C   UNL A   1      39.290  29.847  30.236  1.00  0.00     0.074 A 
ATOM     44  C   UNL A   1      38.313  30.071  29.192  1.00  0.00     0.031 C 
ATOM     45  C   UNL A   1      37.731  34.238  34.648  1.00  0.00     0.029 A 
ATOM     46  C   UNL A   1      38.791  33.238  34.720  1.00  0.00     0.049 A 
ATOM     47  H   UNL A   1      39.310  31.834  33.272  1.00  0.00     0.167 HD
ATOM     48  C   UNL A   1      40.249  28.890  30.193  1.00  0.00     0.037 A 
ATOM     49  C   UNL A   1      39.625  33.061  35.762  1.00  0.00     0.037 A 
ATOM     50  C   UNL A   1      41.237  28.681  31.219  1.00  0.00     0.049 A 
ATOM     51  C   UNL A   1      40.696  32.007  35.679  1.00  0.00     0.074 A 
ATOM     52  C   UNL A   1      42.286  27.777  31.238  1.00  0.00     0.029 A 
ATOM     53  N   UNL A   1      41.298  29.385  32.413  1.00  0.00    -0.354 N 
ATOM     54  N   UNL A   1      40.960  31.170  34.707  1.00  0.00    -0.248 NA
ATOM     55  C   UNL A   1      41.595  31.886  36.836  1.00  0.00     0.031 C 
ATOM     56  C   UNL A   1      42.957  27.908  32.458  1.00  0.00     0.029 A 
ATOM     57  C   UNL A   1      42.356  28.925  33.181  1.00  0.00     0.049 A 
ATOM     58  H   UNL A   1      40.681  30.105  32.676  1.00  0.00     0.167 HD
ATOM     59  C   UNL A   1      42.068  30.442  35.120  1.00  0.00     0.074 A 
ATOM     60  C   UNL A   1      42.438  30.949  36.424  1.00  0.00     0.031 C 
ATOM     61  C   UNL A   1      42.718  29.442  34.476  1.00  0.00     0.037 A 
BRANCH  48  62
ATOM     62  C   UNL A   1      40.283  28.000  28.985  1.00  0.00     0.064 A 
ATOM     63  C   UNL A   1      41.032  28.337  27.847  1.00  0.00     0.173 A 
ATOM     64  C   UNL A   1      39.591  26.780  28.977  1.00  0.00     0.173 A 
ATOM     65  F   UNL A   1      41.702  29.498  27.799  1.00  0.00    -0.203 F 
ATOM     66  C   UNL A   1      41.060  27.500  26.734  1.00  0.00     0.198 A 
ATOM     67  C   UNL A   1      39.645  25.932  27.873  1.00  0.00     0.198 A 
ATOM     68  F   UNL A   1      38.865  26.407  30.042  1.00  0.00    -0.203 F 
ATOM     69  F   UNL A   1      41.741  27.868  25.639  1.00  0.00    -0.200 F 
ATOM     70  C   UNL A   1      40.373  26.296  26.751  1.00  0.00     0.200 A 
ATOM     71  F   UNL A   1      38.990  24.763  27.895  1.00  0.00    -0.200 F 
ATOM     72  F   UNL A   1      40.406  25.490  25.681  1.00  0.00    -0.200 F 
ENDBRANCH  48  62
BRANCH  49  73
ATOM     73  C   UNL A   1      39.511  33.931  36.962  1.00  0.00     0.064 A 
ATOM     74  C   UNL A   1      38.774  33.520  38.081  1.00  0.00     0.173 A 
ATOM     75  C   UNL A   1      40.125  35.191  37.011  1.00  0.00     0.173 A 
ATOM     76  F   UNL A   1      38.152  32.331  38.072  1.00  0.00    -0.203 F 
ATOM     77  C   UNL A   1      38.638  34.342  39.196  1.00  0.00     0.198 A 
ATOM     78  C   UNL A   1      40.010  36.002  38.138  1.00  0.00     0.198 A 
ATOM     79  F   UNL A   1      40.845  35.629  35.968  1.00  0.00    -0.203 F 
ATOM     80  F   UNL A   1      37.889  33.943  40.233  1.00  0.00    -0.200 F 
ATOM     81  C   UNL A   1      39.259  35.581  39.226  1.00  0.00     0.200 A 
ATOM     82  F   UNL A   1      40.623  37.194  38.169  1.00  0.00    -0.200 F 
ATOM     83  F   UNL A   1      39.130  36.373  40.300  1.00  0.00    -0.200 F 
ENDBRANCH  49  73
BRANCH  61  84
ATOM     84  C   UNL A   1      43.917  28.853  35.160  1.00  0.00     0.064 A 
ATOM     85  C   UNL A   1      45.206  29.364  34.956  1.00  0.00     0.173 A 
ATOM     86  C   UNL A   1      43.771  27.776  36.048  1.00  0.00     0.173 A 
ATOM     87  F   UNL A   1      45.401  30.384  34.105  1.00  0.00    -0.203 F 
ATOM     88  C   UNL A   1      46.310  28.800  35.591  1.00  0.00     0.198 A 
ATOM     89  C   UNL A   1      44.872  27.232  36.704  1.00  0.00     0.198 A 
ATOM     90  F   UNL A   1      42.558  27.253  36.284  1.00  0.00    -0.203 F 
ATOM     91  F   UNL A   1      47.539  29.271  35.340  1.00  0.00    -0.200 F 
ATOM     92  C   UNL A   1      46.141  27.739  36.468  1.00  0.00     0.200 A 
ATOM     93  F   UNL A   1      44.706  26.215  37.560  1.00  0.00    -0.200 F 
ATOM     94  F   UNL A   1      47.204  27.197  37.078  1.00  0.00    -0.200 F 
ENDBRANCH  61  84
ENDBRANCH  35  36
ENDBRANCH  27  30
ENDBRANCH  25  26
ENDBRANCH  24  25
ENDBRANCH   1  24
TORSDOF 14
ENDMDL
MODEL 2
REMARK VINA RESULT:     -12.4      5.609     10.006
REMARK SMILES O=C(C[C@H](c1ccc(C2CC2)cc1)[NH+]1CCOCC1)NCCCNC(=O)c1ccc(-c2c3nc(c(-c4c(F)c(F)c(F)c(F)c4F)c4ccc([nH]4)c(-c4c(F)c(F)c(F)c(F)c4F)c4nc(c(-c5c(F)c(F)c(F)c(F)c5F)c5ccc2[nH]5)C=C4)C=C3)cc1
REMARK SMILES IDX 21 1 20 2 1 3 2 4 3 6 4 7 14 8 15 9 19 10 16 12 18 13 17 14
REMARK SMILES IDX 5 15 6 16 13 17 7 18 12 19 8 20 9 21 10 22 11 23 22 24 23 25
REMARK SMILES IDX 24 26 25 27 26 29 27 30 28 31 89 32 29 33 88 34 30 35 31 36
REMARK SMILES IDX 32 37 82 38 33 39 87 40 81 41 83 42 34 43 86 44 80 45 79 46
REMARK SMILES IDX 35 48 67 49 47 50 66 51 48 52 51 53 65 54 84 55 49 56 50 57
REMARK SMILES IDX 64 59 85 60 52 61 36 62 37 63 45 64 38 65 39 66 43 67 46 68
REMARK SMILES IDX 40 69 41 70 44 71 42 72 68 73 69 74 77 75 70 76 71 77 75 78
REMARK SMILES IDX 78 79 72 80 73 81 76 82 74 83 53 84 54 85 62 86 55 87 56 88
REMARK SMILES IDX 60 89 63 90 57 91 58 92 61 93 59 94
REMARK H PARENT 20 5 14 11 24 28 83 47 51 58
REMARK Flexibility Score: inf
ROOT
ATOM      1  C   UNL A   1      37.232  21.349  24.656  1.00  0.00     0.117 C 
ENDROOT
BRANCH   1   2
ATOM      2  N   UNL A   1      36.004  21.565  25.394  1.00  0.00    -0.356 N 
ATOM      3  O   UNL A   1      36.517  23.720  25.973  1.00  0.00    -0.275 OA
ATOM      4  C   UNL A   1      35.694  22.812  25.894  1.00  0.00     0.226 C 
ATOM      5  H   UNL A   1      35.386  20.813  25.541  1.00  0.00     0.163 HD
BRANCH   4   6
ATOM      6  C   UNL A   1      34.256  22.983  26.329  1.00  0.00     0.170 C 
BRANCH   6   7
ATOM      7  C   UNL A   1      33.319  23.791  25.392  1.00  0.00     0.224 C 
BRANCH   7   8
ATOM      8  N   UNL A   1      32.194  23.039  24.811  1.00  0.00    -0.324 N 
ATOM      9  C   UNL A   1      32.039  21.656  25.296  1.00  0.00     0.291 C 
ATOM     10  C   UNL A   1      31.903  23.121  23.373  1.00  0.00     0.291 C 
ATOM     11  H   UNL A   1      31.464  23.627  25.214  1.00  0.00     0.348 HD
ATOM     12  C   UNL A   1      32.669  20.594  24.388  1.00  0.00     0.221 C 
ATOM     13  C   UNL A   1      32.405  21.951  22.499  1.00  0.00     0.221 C 
ATOM     14  O   UNL A   1      32.115  20.674  23.071  1.00  0.00    -0.370 OA
ENDBRANCH   7   8
BRANCH   7  15
ATOM     15  C   UNL A   1      33.017  25.212  25.861  1.00  0.00     0.010 A 
ATOM     16  C   UNL A   1      31.782  25.585  26.391  1.00  0.00     0.010 A 
ATOM     17  C   UNL A   1      33.996  26.212  25.753  1.00  0.00     0.010 A 
ATOM     18  C   UNL A   1      31.522  26.905  26.771  1.00  0.00     0.004 A 
ATOM     19  C   UNL A   1      33.738  27.530  26.160  1.00  0.00     0.004 A 
ATOM     20  C   UNL A   1      32.491  27.910  26.675  1.00  0.00    -0.045 A 
BRANCH  20  21
ATOM     21  C   UNL A   1      32.131  29.310  27.121  1.00  0.00     0.019 C 
ATOM     22  C   UNL A   1      33.049  30.499  27.019  1.00  0.00     0.009 C 
ATOM     23  C   UNL A   1      31.907  30.359  26.056  1.00  0.00     0.009 C 
ENDBRANCH  20  21
ENDBRANCH   7  15
ENDBRANCH   6   7
ENDBRANCH   4   6
ENDBRANCH   1   2
BRANCH   1  24
ATOM     24  C   UNL A   1      37.984  20.086  25.046  1.00  0.00     0.042 C 
BRANCH  24  25
ATOM     25  C   UNL A   1      39.216  20.285  25.921  1.00  0.00     0.118 C 
BRANCH  25  26
ATOM     26  N   UNL A   1      40.241  19.267  25.765  1.00  0.00    -0.352 N 
ATOM     27  C   UNL A   1      41.588  19.325  26.052  1.00  0.00     0.251 C 
ATOM     28  H   UNL A   1      39.927  18.408  25.402  1.00  0.00     0.163 HD
ATOM     29  O   UNL A   1      42.289  18.338  25.882  1.00  0.00    -0.269 OA
BRANCH  27  30
ATOM     30  C   UNL A   1      42.206  20.599  26.498  1.00  0.00     0.039 A 
ATOM     31  C   UNL A   1      42.674  21.481  25.517  1.00  0.00     0.014 A 
ATOM     32  C   UNL A   1      42.294  20.952  27.845  1.00  0.00     0.014 A 
ATOM     33  C   UNL A   1      43.135  22.749  25.883  1.00  0.00     0.010 A 
ATOM     34  C   UNL A   1      42.678  22.245  28.203  1.00  0.00     0.010 A 
ATOM     35  C   UNL A   1      43.089  23.163  27.224  1.00  0.00    -0.014 A 
BRANCH  35  36
ATOM     36  C   UNL A   1      43.432  24.561  27.599  1.00  0.00     0.031 A 
ATOM     37  C   UNL A   1      44.864  25.017  27.649  1.00  0.00     0.074 A 
ATOM     38  C   UNL A   1      42.447  25.414  27.945  1.00  0.00     0.049 A 
ATOM     39  N   UNL A   1      45.346  26.196  27.954  1.00  0.00    -0.248 NA
ATOM     40  C   UNL A   1      45.890  24.012  27.341  1.00  0.00     0.031 C 
ATOM     41  C   UNL A   1      41.023  25.081  28.006  1.00  0.00     0.029 A 
ATOM     42  N   UNL A   1      42.493  26.738  28.310  1.00  0.00    -0.354 N 
ATOM     43  C   UNL A   1      46.727  26.071  27.883  1.00  0.00     0.074 A 
ATOM     44  C   UNL A   1      47.008  24.688  27.562  1.00  0.00     0.031 C 
ATOM     45  C   UNL A   1      40.328  26.177  28.353  1.00  0.00     0.029 A 
ATOM     46  C   UNL A   1      41.257  27.282  28.565  1.00  0.00     0.049 A 
ATOM     47  H   UNL A   1      43.331  27.248  28.383  1.00  0.00     0.167 HD
ATOM     48  C   UNL A   1      47.674  27.027  28.045  1.00  0.00     0.037 A 
ATOM     49  C   UNL A   1      40.910  28.533  28.921  1.00  0.00     0.037 A 
ATOM     50  C   UNL A   1      47.396  28.408  28.342  1.00  0.00     0.049 A 
ATOM     51  C   UNL A   1      41.979  29.581  29.071  1.00  0.00     0.074 A 
ATOM     52  C   UNL A   1      48.285  29.462  28.463  1.00  0.00     0.029 A 
ATOM     53  N   UNL A   1      46.129  28.928  28.564  1.00  0.00    -0.354 N 
ATOM     54  N   UNL A   1      43.275  29.468  28.918  1.00  0.00    -0.248 NA
ATOM     55  C   UNL A   1      41.533  30.935  29.429  1.00  0.00     0.031 C 
ATOM     56  C   UNL A   1      47.561  30.611  28.798  1.00  0.00     0.029 A 
ATOM     57  C   UNL A   1      46.215  30.284  28.839  1.00  0.00     0.049 A 
ATOM     58  H   UNL A   1      45.293  28.410  28.532  1.00  0.00     0.167 HD
ATOM     59  C   UNL A   1      43.797  30.737  29.134  1.00  0.00     0.074 A 
ATOM     60  C   UNL A   1      42.674  31.608  29.411  1.00  0.00     0.031 C 
ATOM     61  C   UNL A   1      45.090  31.142  29.107  1.00  0.00     0.037 A 
BRANCH  48  62
ATOM     62  C   UNL A   1      49.108  26.610  27.892  1.00  0.00     0.064 A 
ATOM     63  C   UNL A   1      49.702  26.476  26.628  1.00  0.00     0.173 A 
ATOM     64  C   UNL A   1      49.909  26.379  29.020  1.00  0.00     0.173 A 
ATOM     65  F   UNL A   1      48.977  26.674  25.516  1.00  0.00    -0.203 F 
ATOM     66  C   UNL A   1      51.035  26.094  26.498  1.00  0.00     0.198 A 
ATOM     67  C   UNL A   1      51.250  26.026  28.887  1.00  0.00     0.198 A 
ATOM     68  F   UNL A   1      49.394  26.500  30.253  1.00  0.00    -0.203 F 
ATOM     69  F   UNL A   1      51.565  25.923  25.278  1.00  0.00    -0.200 F 
ATOM     70  C   UNL A   1      51.810  25.877  27.627  1.00  0.00     0.200 A 
ATOM     71  F   UNL A   1      52.001  25.828  29.979  1.00  0.00    -0.200 F 
ATOM     72  F   UNL A   1      53.093  25.515  27.501  1.00  0.00    -0.200 F 
ENDBRANCH  48  62
BRANCH  49  73
ATOM     73  C   UNL A   1      39.478  28.880  29.118  1.00  0.00     0.064 A 
ATOM     74  C   UNL A   1      38.696  29.343  28.050  1.00  0.00     0.173 A 
ATOM     75  C   UNL A   1      38.865  28.766  30.374  1.00  0.00     0.173 A 
ATOM     76  F   UNL A   1      39.245  29.488  26.834  1.00  0.00    -0.203 F 
ATOM     77  C   UNL A   1      37.362  29.697  28.234  1.00  0.00     0.198 A 
ATOM     78  C   UNL A   1      37.523  29.095  30.551  1.00  0.00     0.198 A 
ATOM     79  F   UNL A   1      39.567  28.324  31.427  1.00  0.00    -0.203 F 
ATOM     80  F   UNL A   1      36.652  30.181  27.206  1.00  0.00    -0.200 F 
ATOM     81  C   UNL A   1      36.775  29.569  29.483  1.00  0.00     0.200 A 
ATOM     82  F   UNL A   1      36.954  28.958  31.757  1.00  0.00    -0.200 F 
ATOM     83  F   UNL A   1      35.491  29.910  29.661  1.00  0.00    -0.200 F 
ENDBRANCH  49  73
BRANCH  61  84
ATOM     84  C   UNL A   1      45.357  32.599  29.351  1.00  0.00     0.064 A 
ATOM     85  C   UNL A   1      45.325  33.538  28.311  1.00  0.00     0.173 A 
ATOM     86  C   UNL A   1      45.627  33.064  30.648  1.00  0.00     0.173 A 
ATOM     87  F   UNL A   1      45.086  33.141  27.051  1.00  0.00    -0.203 F 
ATOM     88  C   UNL A   1      45.584  34.884  28.553  1.00  0.00     0.198 A 
ATOM     89  C   UNL A   1      45.857  34.415  30.891  1.00  0.00     0.198 A 
ATOM     90  F   UNL A   1      45.663  32.208  31.680  1.00  0.00    -0.203 F 
ATOM     91  F   UNL A   1      45.601  35.755  27.534  1.00  0.00    -0.200 F 
ATOM     92  C   UNL A   1      45.844  35.323  29.843  1.00  0.00     0.200 A 
ATOM     93  F   UNL A   1      46.096  34.838  32.140  1.00  0.00    -0.200 F 
ATOM     94  F   UNL A   1      46.093  36.618  30.074  1.00  0.00    -0.200 F 
ENDBRANCH  61  84
ENDBRANCH  35  36
ENDBRANCH  27  30
ENDBRANCH  25  26
ENDBRANCH  24  25
ENDBRANCH   1  24
TORSDOF 14
ENDMDL
MODEL 3
REMARK VINA RESULT:     -12.4      5.790     11.239
REMARK SMILES O=C(C[C@H](c1ccc(C2CC2)cc1)[NH+]1CCOCC1)NCCCNC(=O)c1ccc(-c2c3nc(c(-c4c(F)c(F)c(F)c(F)c4F)c4ccc([nH]4)c(-c4c(F)c(F)c(F)c(F)c4F)c4nc(c(-c5c(F)c(F)c(F)c(F)c5F)c5ccc2[nH]5)C=C4)C=C3)cc1
REMARK SMILES IDX 21 1 20 2 1 3 2 4 3 6 4 7 14 8 15 9 19 10 16 12 18 13 17 14
REMARK SMILES IDX 5 15 6 16 13 17 7 18 12 19 8 20 9 21 10 22 11 23 22 24 23 25
REMARK SMILES IDX 24 26 25 27 26 29 27 30 28 31 89 32 29 33 88 34 30 35 31 36
REMARK SMILES IDX 32 37 82 38 33 39 87 40 81 41 83 42 34 43 86 44 80 45 79 46
REMARK SMILES IDX 35 48 67 49 47 50 66 51 48 52 51 53 65 54 84 55 49 56 50 57
REMARK SMILES IDX 64 59 85 60 52 61 36 62 37 63 45 64 38 65 39 66 43 67 46 68
REMARK SMILES IDX 40 69 41 70 44 71 42 72 68 73 69 74 77 75 70 76 71 77 75 78
REMARK SMILES IDX 78 79 72 80 73 81 76 82 74 83 53 84 54 85 62 86 55 87 56 88
REMARK SMILES IDX 60 89 63 90 57 91 58 92 61 93 59 94
REMARK H PARENT 20 5 14 11 24 28 83 47 51 58
REMARK Flexibility Score: inf
ROOT
ATOM      1  C   UNL A   1      37.244  21.253  24.626  1.00  0.00     0.117 C 
ENDROOT
BRANCH   1   2
ATOM      2  N   UNL A   1      36.029  21.448  25.391  1.00  0.00    -0.356 N 
ATOM      3  O   UNL A   1      36.562  23.578  26.039  1.00  0.00    -0.275 OA
ATOM      4  C   UNL A   1      35.733  22.677  25.940  1.00  0.00     0.226 C 
ATOM      5  H   UNL A   1      35.408  20.694  25.520  1.00  0.00     0.163 HD
BRANCH   4   6
ATOM      6  C   UNL A   1      34.303  22.840  26.403  1.00  0.00     0.170 C 
BRANCH   6   7
ATOM      7  C   UNL A   1      33.323  23.573  25.448  1.00  0.00     0.224 C 
BRANCH   7   8
ATOM      8  N   UNL A   1      32.209  22.761  24.931  1.00  0.00    -0.324 N 
ATOM      9  C   UNL A   1      32.221  21.342  25.327  1.00  0.00     0.291 C 
ATOM     10  C   UNL A   1      31.760  22.907  23.538  1.00  0.00     0.291 C 
ATOM     11  H   UNL A   1      31.479  23.254  25.447  1.00  0.00     0.348 HD
ATOM     12  C   UNL A   1      32.837  20.400  24.285  1.00  0.00     0.221 C 
ATOM     13  C   UNL A   1      32.262  21.845  22.536  1.00  0.00     0.221 C 
ATOM     14  O   UNL A   1      32.141  20.514  23.040  1.00  0.00    -0.370 OA
ENDBRANCH   7   8
BRANCH   7  15
ATOM     15  C   UNL A   1      32.990  25.006  25.852  1.00  0.00     0.010 A 
ATOM     16  C   UNL A   1      31.721  25.391  26.287  1.00  0.00     0.010 A 
ATOM     17  C   UNL A   1      33.972  26.005  25.780  1.00  0.00     0.010 A 
ATOM     18  C   UNL A   1      31.435  26.721  26.609  1.00  0.00     0.004 A 
ATOM     19  C   UNL A   1      33.686  27.335  26.129  1.00  0.00     0.004 A 
ATOM     20  C   UNL A   1      32.408  27.726  26.548  1.00  0.00    -0.045 A 
BRANCH  20  21
ATOM     21  C   UNL A   1      32.018  29.137  26.926  1.00  0.00     0.019 C 
ATOM     22  C   UNL A   1      32.924  30.334  26.803  1.00  0.00     0.009 C 
ATOM     23  C   UNL A   1      31.812  30.140  25.814  1.00  0.00     0.009 C 
ENDBRANCH  20  21
ENDBRANCH   7  15
ENDBRANCH   6   7
ENDBRANCH   4   6
ENDBRANCH   1   2
BRANCH   1  24
ATOM     24  C   UNL A   1      38.026  20.003  25.000  1.00  0.00     0.042 C 
BRANCH  24  25
ATOM     25  C   UNL A   1      39.257  20.221  25.873  1.00  0.00     0.118 C 
BRANCH  25  26
ATOM     26  N   UNL A   1      40.233  19.147  25.822  1.00  0.00    -0.352 N 
ATOM     27  C   UNL A   1      41.582  19.172  26.109  1.00  0.00     0.251 C 
ATOM     28  H   UNL A   1      39.881  18.272  25.541  1.00  0.00     0.163 HD
ATOM     29  O   UNL A   1      42.237  18.142  26.039  1.00  0.00    -0.269 OA
BRANCH  27  30
ATOM     30  C   UNL A   1      42.256  20.453  26.433  1.00  0.00     0.039 A 
ATOM     31  C   UNL A   1      42.840  21.173  25.384  1.00  0.00     0.014 A 
ATOM     32  C   UNL A   1      42.290  20.970  27.730  1.00  0.00     0.014 A 
ATOM     33  C   UNL A   1      43.362  22.448  25.619  1.00  0.00     0.010 A 
ATOM     34  C   UNL A   1      42.738  22.273  27.948  1.00  0.00     0.010 A 
ATOM     35  C   UNL A   1      43.266  23.032  26.893  1.00  0.00    -0.014 A 
BRANCH  35  36
ATOM     36  C   UNL A   1      43.680  24.444  27.113  1.00  0.00     0.031 A 
ATOM     37  C   UNL A   1      42.700  25.465  27.621  1.00  0.00     0.074 A 
ATOM     38  C   UNL A   1      44.938  24.821  26.806  1.00  0.00     0.049 A 
ATOM     39  N   UNL A   1      42.886  26.737  27.871  1.00  0.00    -0.248 NA
ATOM     40  C   UNL A   1      41.325  25.004  27.855  1.00  0.00     0.031 C 
ATOM     41  C   UNL A   1      45.967  23.947  26.240  1.00  0.00     0.029 A 
ATOM     42  N   UNL A   1      45.566  26.036  26.927  1.00  0.00    -0.354 N 
ATOM     43  C   UNL A   1      41.654  27.227  28.282  1.00  0.00     0.074 A 
ATOM     44  C   UNL A   1      40.714  26.130  28.194  1.00  0.00     0.031 C 
ATOM     45  C   UNL A   1      47.106  24.644  26.094  1.00  0.00     0.029 A 
ATOM     46  C   UNL A   1      46.881  26.019  26.529  1.00  0.00     0.049 A 
ATOM     47  H   UNL A   1      45.116  26.844  27.264  1.00  0.00     0.167 HD
ATOM     48  C   UNL A   1      41.339  28.471  28.717  1.00  0.00     0.037 A 
ATOM     49  C   UNL A   1      47.805  26.998  26.524  1.00  0.00     0.037 A 
ATOM     50  C   UNL A   1      42.277  29.558  28.828  1.00  0.00     0.049 A 
ATOM     51  C   UNL A   1      47.436  28.364  27.035  1.00  0.00     0.074 A 
ATOM     52  C   UNL A   1      42.066  30.836  29.316  1.00  0.00     0.029 A 
ATOM     53  N   UNL A   1      43.609  29.494  28.443  1.00  0.00    -0.354 N 
ATOM     54  N   UNL A   1      46.287  28.791  27.500  1.00  0.00    -0.248 NA
ATOM     55  C   UNL A   1      48.498  29.380  27.034  1.00  0.00     0.031 C 
ATOM     56  C   UNL A   1      43.258  31.557  29.190  1.00  0.00     0.029 A 
ATOM     57  C   UNL A   1      44.225  30.715  28.667  1.00  0.00     0.049 A 
ATOM     58  H   UNL A   1      44.049  28.699  28.066  1.00  0.00     0.167 HD
ATOM     59  C   UNL A   1      46.494  30.113  27.871  1.00  0.00     0.074 A 
ATOM     60  C   UNL A   1      47.883  30.413  27.594  1.00  0.00     0.031 C 
ATOM     61  C   UNL A   1      45.611  30.999  28.392  1.00  0.00     0.037 A 
BRANCH  48  62
ATOM     62  C   UNL A   1      39.915  28.721  29.121  1.00  0.00     0.064 A 
ATOM     63  C   UNL A   1      38.959  29.174  28.199  1.00  0.00     0.173 A 
ATOM     64  C   UNL A   1      39.491  28.471  30.434  1.00  0.00     0.173 A 
ATOM     65  F   UNL A   1      39.315  29.439  26.932  1.00  0.00    -0.203 F 
ATOM     66  C   UNL A   1      37.640  29.397  28.584  1.00  0.00     0.198 A 
ATOM     67  C   UNL A   1      38.164  28.667  30.809  1.00  0.00     0.198 A 
ATOM     68  F   UNL A   1      40.362  28.031  31.355  1.00  0.00    -0.203 F 
ATOM     69  F   UNL A   1      36.757  29.878  27.696  1.00  0.00    -0.200 F 
ATOM     70  C   UNL A   1      37.242  29.137  29.886  1.00  0.00     0.200 A 
ATOM     71  F   UNL A   1      37.777  28.404  32.065  1.00  0.00    -0.200 F 
ATOM     72  F   UNL A   1      35.970  29.346  30.254  1.00  0.00    -0.200 F 
ENDBRANCH  48  62
BRANCH  49  73
ATOM     73  C   UNL A   1      49.188  26.713  26.058  1.00  0.00     0.064 A 
ATOM     74  C   UNL A   1      49.569  26.979  24.735  1.00  0.00     0.173 A 
ATOM     75  C   UNL A   1      50.149  26.162  26.916  1.00  0.00     0.173 A 
ATOM     76  F   UNL A   1      48.678  27.487  23.871  1.00  0.00    -0.203 F 
ATOM     77  C   UNL A   1      50.854  26.687  24.283  1.00  0.00     0.198 A 
ATOM     78  C   UNL A   1      51.442  25.895  26.470  1.00  0.00     0.198 A 
ATOM     79  F   UNL A   1      49.836  25.893  28.192  1.00  0.00    -0.203 F 
ATOM     80  F   UNL A   1      51.177  26.908  23.002  1.00  0.00    -0.200 F 
ATOM     81  C   UNL A   1      51.791  26.149  25.152  1.00  0.00     0.200 A 
ATOM     82  F   UNL A   1      52.349  25.387  27.316  1.00  0.00    -0.200 F 
ATOM     83  F   UNL A   1      53.027  25.868  24.718  1.00  0.00    -0.200 F 
ENDBRANCH  49  73
BRANCH  61  84
ATOM     84  C   UNL A   1      46.130  32.367  28.728  1.00  0.00     0.064 A 
ATOM     85  C   UNL A   1      46.088  33.418  27.801  1.00  0.00     0.173 A 
ATOM     86  C   UNL A   1      46.656  32.634  30.001  1.00  0.00     0.173 A 
ATOM     87  F   UNL A   1      45.608  33.210  26.565  1.00  0.00    -0.203 F 
ATOM     88  C   UNL A   1      46.582  34.679  28.126  1.00  0.00     0.198 A 
ATOM     89  C   UNL A   1      47.122  33.903  30.333  1.00  0.00     0.198 A 
ATOM     90  F   UNL A   1      46.712  31.665  30.927  1.00  0.00    -0.203 F 
ATOM     91  F   UNL A   1      46.581  35.654  27.206  1.00  0.00    -0.200 F 
ATOM     92  C   UNL A   1      47.093  34.922  29.392  1.00  0.00     0.200 A 
ATOM     93  F   UNL A   1      47.604  34.139  31.560  1.00  0.00    -0.200 F 
ATOM     94  F   UNL A   1      47.568  36.136  29.703  1.00  0.00    -0.200 F 
ENDBRANCH  61  84
ENDBRANCH  35  36
ENDBRANCH  27  30
ENDBRANCH  25  26
ENDBRANCH  24  25
ENDBRANCH   1  24
TORSDOF 14
ENDMDL
