MODEL 1
REMARK VINA RESULT:     -11.3      0.000      0.000
REMARK SMILES CCCCCCNC(=O)Oc1cccc(-c2ccc([C@@H](C)C(=O)NCCCNC(=O)c3ccc(-c4c5nc(c(-c6c(F)c(F)c(F)c(F)c6F)c6ccc([nH]6)c(-c6c(F)c(F)c(F)c(F)c6F)c6nc(c(-c7c(F)c(F)c(F)c(F)c7F)c7ccc4[nH]7)C=C6)C=C5)cc3)cc2C(F)(F)F)c1
REMARK SMILES IDX 16 1 17 2 18 3 19 4 94 5 95 6 15 7 11 8 12 9 100 10 13 11
REMARK SMILES IDX 14 12 10 13 8 14 7 15 9 17 6 18 5 19 4 20 3 21 2 22 1 23
REMARK SMILES IDX 96 24 97 25 98 26 99 27 20 28 21 29 22 30 23 31 24 32 25 34
REMARK SMILES IDX 26 35 27 36 28 37 29 38 30 40 31 41 32 42 93 43 33 44 92 45
REMARK SMILES IDX 34 46 35 47 36 48 86 49 37 50 91 51 85 52 87 53 38 54 90 55
REMARK SMILES IDX 84 56 83 57 39 59 71 60 51 61 70 62 52 63 55 64 69 65 88 66
REMARK SMILES IDX 53 67 54 68 68 70 89 71 56 72 40 73 41 74 49 75 42 76 43 77
REMARK SMILES IDX 47 78 50 79 44 80 45 81 48 82 46 83 72 84 73 85 81 86 74 87
REMARK SMILES IDX 75 88 79 89 82 90 76 91 77 92 80 93 78 94 57 95 58 96 66 97
REMARK SMILES IDX 59 98 60 99 64 100 67 101 61 102 62 103 65 104 63 105
REMARK H PARENT 7 16 24 33 28 39 87 58 55 69
REMARK Flexibility Score: inf
ROOT
ATOM      1  C   UNL A   1      37.348  23.036  26.021  1.00  0.00    -0.006 A 
ATOM      2  C   UNL A   1      38.126  23.998  26.692  1.00  0.00     0.009 A 
ATOM      3  C   UNL A   1      39.428  23.733  27.126  1.00  0.00     0.005 A 
ATOM      4  C   UNL A   1      39.974  22.459  27.006  1.00  0.00    -0.035 A 
ATOM      5  C   UNL A   1      39.237  21.512  26.281  1.00  0.00     0.018 A 
ATOM      6  C   UNL A   1      37.961  21.799  25.730  1.00  0.00     0.064 A 
ENDROOT
BRANCH   1   7
ATOM      7  C   UNL A   1      35.946  23.375  25.692  1.00  0.00    -0.014 A 
ATOM      8  C   UNL A   1      34.275  24.295  24.183  1.00  0.00     0.133 A 
ATOM      9  C   UNL A   1      33.251  23.969  25.067  1.00  0.00     0.047 A 
ATOM     10  C   UNL A   1      35.607  23.993  24.475  1.00  0.00     0.056 A 
ATOM     11  C   UNL A   1      33.562  23.327  26.260  1.00  0.00     0.004 A 
ATOM     12  C   UNL A   1      34.895  23.045  26.573  1.00  0.00     0.009 A 
BRANCH   8  13
ATOM     13  O   UNL A   1      33.918  25.080  23.072  1.00  0.00    -0.410 OA
BRANCH  13  14
ATOM     14  C   UNL A   1      33.231  24.507  22.013  1.00  0.00     0.412 C 
ATOM     15  N   UNL A   1      31.990  25.053  21.828  1.00  0.00    -0.321 N 
ATOM     16  H   UNL A   1      31.439  24.663  21.112  1.00  0.00     0.167 HD
ATOM     17  O   UNL A   1      33.641  23.601  21.298  1.00  0.00    -0.224 OA
BRANCH  15  18
ATOM     18  C   UNL A   1      31.403  26.147  22.578  1.00  0.00     0.119 C 
BRANCH  18  19
ATOM     19  C   UNL A   1      30.479  25.651  23.690  1.00  0.00     0.021 C 
BRANCH  19  20
ATOM     20  C   UNL A   1      30.048  26.723  24.700  1.00  0.00     0.002 C 
BRANCH  20  21
ATOM     21  C   UNL A   1      31.113  27.132  25.724  1.00  0.00    -0.000 C 
BRANCH  21  22
ATOM     22  C   UNL A   1      31.906  28.395  25.381  1.00  0.00    -0.003 C 
ATOM     23  C   UNL A   1      31.068  29.466  24.701  1.00  0.00     0.004 C 
ENDBRANCH  21  22
ENDBRANCH  20  21
ENDBRANCH  19  20
ENDBRANCH  18  19
ENDBRANCH  15  18
ENDBRANCH  13  14
ENDBRANCH   8  13
ENDBRANCH   1   7
BRANCH   6  24
ATOM     24  C   UNL A   1      37.357  20.736  24.837  1.00  0.00     0.417 C 
ATOM     25  F   UNL A   1      37.135  21.208  23.572  1.00  0.00    -0.166 F 
ATOM     26  F   UNL A   1      38.178  19.660  24.683  1.00  0.00    -0.166 F 
ATOM     27  F   UNL A   1      36.154  20.242  25.234  1.00  0.00    -0.166 F 
ENDBRANCH   6  24
BRANCH   4  28
ATOM     28  C   UNL A   1      41.299  22.066  27.641  1.00  0.00     0.105 C 
ATOM     29  C   UNL A   1      41.892  20.746  27.156  1.00  0.00     0.023 C 
BRANCH  28  30
ATOM     30  C   UNL A   1      42.303  23.227  27.743  1.00  0.00     0.227 C 
ATOM     31  O   UNL A   1      42.416  23.851  28.806  1.00  0.00    -0.274 OA
ATOM     32  N   UNL A   1      43.109  23.637  26.725  1.00  0.00    -0.356 N 
ATOM     33  H   UNL A   1      43.748  24.341  26.981  1.00  0.00     0.163 HD
BRANCH  32  34
ATOM     34  C   UNL A   1      43.204  23.233  25.337  1.00  0.00     0.117 C 
BRANCH  34  35
ATOM     35  C   UNL A   1      44.356  23.930  24.614  1.00  0.00     0.042 C 
BRANCH  35  36
ATOM     36  C   UNL A   1      45.426  24.488  25.541  1.00  0.00     0.118 C 
BRANCH  36  37
ATOM     37  N   UNL A   1      46.122  25.621  24.952  1.00  0.00    -0.352 N 
ATOM     38  C   UNL A   1      45.972  26.970  25.152  1.00  0.00     0.251 C 
ATOM     39  H   UNL A   1      46.818  25.379  24.300  1.00  0.00     0.163 HD
ATOM     40  O   UNL A   1      46.528  27.747  24.378  1.00  0.00    -0.269 OA
BRANCH  38  41
ATOM     41  C   UNL A   1      45.163  27.513  26.270  1.00  0.00     0.039 A 
ATOM     42  C   UNL A   1      45.054  28.903  26.400  1.00  0.00     0.014 A 
ATOM     43  C   UNL A   1      44.591  26.689  27.242  1.00  0.00     0.014 A 
ATOM     44  C   UNL A   1      44.368  29.459  27.483  1.00  0.00     0.010 A 
ATOM     45  C   UNL A   1      43.830  27.240  28.273  1.00  0.00     0.010 A 
ATOM     46  C   UNL A   1      43.741  28.631  28.425  1.00  0.00    -0.014 A 
BRANCH  46  47
ATOM     47  C   UNL A   1      43.064  29.196  29.620  1.00  0.00     0.031 A 
ATOM     48  C   UNL A   1      41.620  29.613  29.532  1.00  0.00     0.074 A 
ATOM     49  C   UNL A   1      43.749  29.369  30.766  1.00  0.00     0.049 A 
ATOM     50  N   UNL A   1      40.863  30.186  30.435  1.00  0.00    -0.248 NA
ATOM     51  C   UNL A   1      40.942  29.380  28.247  1.00  0.00     0.031 C 
ATOM     52  C   UNL A   1      45.161  29.043  30.966  1.00  0.00     0.029 A 
ATOM     53  N   UNL A   1      43.349  29.875  31.979  1.00  0.00    -0.354 N 
ATOM     54  C   UNL A   1      39.637  30.405  29.817  1.00  0.00     0.074 A 
ATOM     55  C   UNL A   1      39.765  29.952  28.450  1.00  0.00     0.031 C 
ATOM     56  C   UNL A   1      45.504  29.335  32.232  1.00  0.00     0.029 A 
ATOM     57  C   UNL A   1      44.346  29.898  32.921  1.00  0.00     0.049 A 
ATOM     58  H   UNL A   1      42.432  30.190  32.154  1.00  0.00     0.167 HD
ATOM     59  C   UNL A   1      38.500  30.913  30.348  1.00  0.00     0.037 A 
ATOM     60  C   UNL A   1      44.327  30.330  34.197  1.00  0.00     0.037 A 
ATOM     61  C   UNL A   1      38.363  31.324  31.720  1.00  0.00     0.049 A 
ATOM     62  C   UNL A   1      43.044  30.869  34.770  1.00  0.00     0.074 A 
ATOM     63  C   UNL A   1      37.240  31.803  32.371  1.00  0.00     0.029 A 
ATOM     64  N   UNL A   1      39.388  31.297  32.654  1.00  0.00    -0.354 N 
ATOM     65  N   UNL A   1      41.876  31.018  34.193  1.00  0.00    -0.248 NA
ATOM     66  C   UNL A   1      43.074  31.289  36.178  1.00  0.00     0.031 C 
ATOM     67  C   UNL A   1      37.594  32.097  33.692  1.00  0.00     0.029 A 
ATOM     68  C   UNL A   1      38.925  31.757  33.876  1.00  0.00     0.049 A 
ATOM     69  H   UNL A   1      40.307  30.994  32.476  1.00  0.00     0.167 HD
ATOM     70  C   UNL A   1      41.027  31.516  35.172  1.00  0.00     0.074 A 
ATOM     71  C   UNL A   1      41.810  31.633  36.384  1.00  0.00     0.031 C 
ATOM     72  C   UNL A   1      39.716  31.846  35.076  1.00  0.00     0.037 A 
BRANCH  59  73
ATOM     73  C   UNL A   1      37.309  31.043  29.442  1.00  0.00     0.064 A 
ATOM     74  C   UNL A   1      36.970  32.267  28.844  1.00  0.00     0.173 A 
ATOM     75  C   UNL A   1      36.513  29.927  29.146  1.00  0.00     0.173 A 
ATOM     76  F   UNL A   1      37.691  33.369  29.104  1.00  0.00    -0.203 F 
ATOM     77  C   UNL A   1      35.859  32.375  28.010  1.00  0.00     0.198 A 
ATOM     78  C   UNL A   1      35.421  30.032  28.286  1.00  0.00     0.198 A 
ATOM     79  F   UNL A   1      36.795  28.731  29.685  1.00  0.00    -0.203 F 
ATOM     80  F   UNL A   1      35.525  33.566  27.494  1.00  0.00    -0.200 F 
ATOM     81  C   UNL A   1      35.091  31.256  27.727  1.00  0.00     0.200 A 
ATOM     82  F   UNL A   1      34.687  28.948  28.003  1.00  0.00    -0.200 F 
ATOM     83  F   UNL A   1      34.026  31.361  26.920  1.00  0.00    -0.200 F 
ENDBRANCH  59  73
BRANCH  60  84
ATOM     84  C   UNL A   1      45.552  30.231  35.032  1.00  0.00     0.064 A 
ATOM     85  C   UNL A   1      46.480  31.281  35.073  1.00  0.00     0.173 A 
ATOM     86  C   UNL A   1      45.823  29.089  35.800  1.00  0.00     0.173 A 
ATOM     87  F   UNL A   1      46.273  32.385  34.340  1.00  0.00    -0.203 F 
ATOM     88  C   UNL A   1      47.645  31.183  35.832  1.00  0.00     0.198 A 
ATOM     89  C   UNL A   1      46.975  29.005  36.580  1.00  0.00     0.198 A 
ATOM     90  F   UNL A   1      44.965  28.059  35.799  1.00  0.00    -0.203 F 
ATOM     91  F   UNL A   1      48.537  32.183  35.816  1.00  0.00    -0.200 F 
ATOM     92  C   UNL A   1      47.888  30.048  36.590  1.00  0.00     0.200 A 
ATOM     93  F   UNL A   1      47.202  27.911  37.321  1.00  0.00    -0.200 F 
ATOM     94  F   UNL A   1      49.007  29.956  37.321  1.00  0.00    -0.200 F 
ENDBRANCH  60  84
BRANCH  72  95
ATOM     95  C   UNL A   1      39.032  32.316  36.326  1.00  0.00     0.064 A 
ATOM     96  C   UNL A   1      39.153  33.635  36.782  1.00  0.00     0.173 A 
ATOM     97  C   UNL A   1      38.209  31.440  37.051  1.00  0.00     0.173 A 
ATOM     98  F   UNL A   1      39.939  34.506  36.131  1.00  0.00    -0.203 F 
ATOM     99  C   UNL A   1      38.498  34.055  37.937  1.00  0.00     0.198 A 
ATOM    100  C   UNL A   1      37.532  31.872  38.188  1.00  0.00     0.198 A 
ATOM    101  F   UNL A   1      38.054  30.169  36.651  1.00  0.00    -0.203 F 
ATOM    102  F   UNL A   1      38.665  35.307  38.382  1.00  0.00    -0.200 F 
ATOM    103  C   UNL A   1      37.683  33.176  38.634  1.00  0.00     0.200 A 
ATOM    104  F   UNL A   1      36.735  31.024  38.854  1.00  0.00    -0.200 F 
ATOM    105  F   UNL A   1      37.047  33.583  39.741  1.00  0.00    -0.200 F 
ENDBRANCH  72  95
ENDBRANCH  46  47
ENDBRANCH  38  41
ENDBRANCH  36  37
ENDBRANCH  35  36
ENDBRANCH  34  35
ENDBRANCH  32  34
ENDBRANCH  28  30
ENDBRANCH   4  28
TORSDOF 20
ENDMDL
MODEL 2
REMARK VINA RESULT:     -11.3      0.500      2.021
REMARK SMILES CCCCCCNC(=O)Oc1cccc(-c2ccc([C@@H](C)C(=O)NCCCNC(=O)c3ccc(-c4c5nc(c(-c6c(F)c(F)c(F)c(F)c6F)c6ccc([nH]6)c(-c6c(F)c(F)c(F)c(F)c6F)c6nc(c(-c7c(F)c(F)c(F)c(F)c7F)c7ccc4[nH]7)C=C6)C=C5)cc3)cc2C(F)(F)F)c1
REMARK SMILES IDX 16 1 17 2 18 3 19 4 94 5 95 6 15 7 11 8 12 9 100 10 13 11
REMARK SMILES IDX 14 12 10 13 8 14 7 15 9 17 6 18 5 19 4 20 3 21 2 22 1 23
REMARK SMILES IDX 96 24 97 25 98 26 99 27 20 28 21 29 22 30 23 31 24 32 25 34
REMARK SMILES IDX 26 35 27 36 28 37 29 38 30 40 31 41 32 42 93 43 33 44 92 45
REMARK SMILES IDX 34 46 35 47 36 48 86 49 37 50 91 51 85 52 87 53 38 54 90 55
REMARK SMILES IDX 84 56 83 57 39 59 71 60 51 61 70 62 52 63 55 64 69 65 88 66
REMARK SMILES IDX 53 67 54 68 68 70 89 71 56 72 40 73 41 74 49 75 42 76 43 77
REMARK SMILES IDX 47 78 50 79 44 80 45 81 48 82 46 83 72 84 73 85 81 86 74 87
REMARK SMILES IDX 75 88 79 89 82 90 76 91 77 92 80 93 78 94 57 95 58 96 66 97
REMARK SMILES IDX 59 98 60 99 64 100 67 101 61 102 62 103 65 104 63 105
REMARK H PARENT 7 16 24 33 28 39 87 58 55 69
REMARK Flexibility Score: inf
ROOT
ATOM      1  C   UNL A   1      37.480  23.114  25.884  1.00  0.00    -0.006 A 
ATOM      2  C   UNL A   1      38.300  24.057  26.534  1.00  0.00     0.009 A 
ATOM      3  C   UNL A   1      39.573  23.734  27.011  1.00  0.00     0.005 A 
ATOM      4  C   UNL A   1      40.044  22.427  26.958  1.00  0.00    -0.035 A 
ATOM      5  C   UNL A   1      39.268  21.495  26.254  1.00  0.00     0.018 A 
ATOM      6  C   UNL A   1      38.025  21.832  25.660  1.00  0.00     0.064 A 
ENDROOT
BRANCH   1   7
ATOM      7  C   UNL A   1      36.109  23.521  25.506  1.00  0.00    -0.014 A 
ATOM      8  C   UNL A   1      34.514  24.384  23.886  1.00  0.00     0.133 A 
ATOM      9  C   UNL A   1      33.469  24.246  24.793  1.00  0.00     0.047 A 
ATOM     10  C   UNL A   1      35.819  24.015  24.221  1.00  0.00     0.056 A 
ATOM     11  C   UNL A   1      33.730  23.728  26.056  1.00  0.00     0.004 A 
ATOM     12  C   UNL A   1      35.037  23.382  26.411  1.00  0.00     0.009 A 
BRANCH   8  13
ATOM     13  O   UNL A   1      34.219  25.057  22.687  1.00  0.00    -0.410 OA
BRANCH  13  14
ATOM     14  C   UNL A   1      33.258  24.547  21.827  1.00  0.00     0.412 C 
ATOM     15  N   UNL A   1      32.229  25.421  21.601  1.00  0.00    -0.321 N 
ATOM     16  H   UNL A   1      31.497  25.102  21.026  1.00  0.00     0.167 HD
ATOM     17  O   UNL A   1      33.275  23.438  21.307  1.00  0.00    -0.224 OA
BRANCH  15  18
ATOM     18  C   UNL A   1      32.107  26.769  22.123  1.00  0.00     0.119 C 
BRANCH  18  19
ATOM     19  C   UNL A   1      30.649  27.156  22.378  1.00  0.00     0.021 C 
BRANCH  19  20
ATOM     20  C   UNL A   1      30.308  27.461  23.843  1.00  0.00     0.002 C 
BRANCH  20  21
ATOM     21  C   UNL A   1      29.669  26.308  24.625  1.00  0.00    -0.000 C 
BRANCH  21  22
ATOM     22  C   UNL A   1      30.351  25.953  25.948  1.00  0.00    -0.003 C 
ATOM     23  C   UNL A   1      30.114  24.515  26.381  1.00  0.00     0.004 C 
ENDBRANCH  21  22
ENDBRANCH  20  21
ENDBRANCH  19  20
ENDBRANCH  18  19
ENDBRANCH  15  18
ENDBRANCH  13  14
ENDBRANCH   8  13
ENDBRANCH   1   7
BRANCH   6  24
ATOM     24  C   UNL A   1      37.379  20.770  24.797  1.00  0.00     0.417 C 
ATOM     25  F   UNL A   1      38.173  19.662  24.683  1.00  0.00    -0.166 F 
ATOM     26  F   UNL A   1      36.204  20.321  25.318  1.00  0.00    -0.166 F 
ATOM     27  F   UNL A   1      37.110  21.132  23.514  1.00  0.00    -0.166 F 
ENDBRANCH   6  24
BRANCH   4  28
ATOM     28  C   UNL A   1      41.328  21.984  27.642  1.00  0.00     0.105 C 
ATOM     29  C   UNL A   1      41.924  20.674  27.133  1.00  0.00     0.023 C 
BRANCH  28  30
ATOM     30  C   UNL A   1      42.345  23.122  27.842  1.00  0.00     0.227 C 
ATOM     31  O   UNL A   1      42.527  23.591  28.973  1.00  0.00    -0.274 OA
ATOM     32  N   UNL A   1      43.090  23.670  26.843  1.00  0.00    -0.356 N 
ATOM     33  H   UNL A   1      43.748  24.332  27.155  1.00  0.00     0.163 HD
BRANCH  32  34
ATOM     34  C   UNL A   1      43.097  23.464  25.410  1.00  0.00     0.117 C 
BRANCH  34  35
ATOM     35  C   UNL A   1      44.475  23.715  24.801  1.00  0.00     0.042 C 
BRANCH  35  36
ATOM     36  C   UNL A   1      45.412  24.519  25.689  1.00  0.00     0.118 C 
BRANCH  36  37
ATOM     37  N   UNL A   1      45.960  25.677  24.999  1.00  0.00    -0.352 N 
ATOM     38  C   UNL A   1      45.685  27.015  25.131  1.00  0.00     0.251 C 
ATOM     39  H   UNL A   1      46.644  25.464  24.325  1.00  0.00     0.163 HD
ATOM     40  O   UNL A   1      46.122  27.792  24.284  1.00  0.00    -0.269 OA
BRANCH  38  41
ATOM     41  C   UNL A   1      44.882  27.544  26.259  1.00  0.00     0.039 A 
ATOM     42  C   UNL A   1      44.798  28.933  26.422  1.00  0.00     0.014 A 
ATOM     43  C   UNL A   1      44.292  26.707  27.209  1.00  0.00     0.014 A 
ATOM     44  C   UNL A   1      44.118  29.474  27.516  1.00  0.00     0.010 A 
ATOM     45  C   UNL A   1      43.537  27.246  28.250  1.00  0.00     0.010 A 
ATOM     46  C   UNL A   1      43.473  28.634  28.436  1.00  0.00    -0.014 A 
BRANCH  46  47
ATOM     47  C   UNL A   1      42.801  29.182  29.642  1.00  0.00     0.031 A 
ATOM     48  C   UNL A   1      41.367  29.632  29.558  1.00  0.00     0.074 A 
ATOM     49  C   UNL A   1      43.483  29.309  30.796  1.00  0.00     0.049 A 
ATOM     50  N   UNL A   1      40.617  30.198  30.472  1.00  0.00    -0.248 NA
ATOM     51  C   UNL A   1      40.691  29.449  28.264  1.00  0.00     0.031 C 
ATOM     52  C   UNL A   1      44.886  28.947  30.995  1.00  0.00     0.029 A 
ATOM     53  N   UNL A   1      43.087  29.791  32.020  1.00  0.00    -0.354 N 
ATOM     54  C   UNL A   1      39.401  30.460  29.854  1.00  0.00     0.074 A 
ATOM     55  C   UNL A   1      39.526  30.041  28.476  1.00  0.00     0.031 C 
ATOM     56  C   UNL A   1      45.228  29.197  32.270  1.00  0.00     0.029 A 
ATOM     57  C   UNL A   1      44.080  29.767  32.968  1.00  0.00     0.049 A 
ATOM     58  H   UNL A   1      42.177  30.121  32.199  1.00  0.00     0.167 HD
ATOM     59  C   UNL A   1      38.271  30.979  30.393  1.00  0.00     0.037 A 
ATOM     60  C   UNL A   1      44.062  30.165  34.255  1.00  0.00     0.037 A 
ATOM     61  C   UNL A   1      38.136  31.356  31.774  1.00  0.00     0.049 A 
ATOM     62  C   UNL A   1      42.788  30.716  34.836  1.00  0.00     0.074 A 
ATOM     63  C   UNL A   1      37.020  31.842  32.433  1.00  0.00     0.029 A 
ATOM     64  N   UNL A   1      39.155  31.281  32.713  1.00  0.00    -0.354 N 
ATOM     65  N   UNL A   1      41.627  30.907  34.257  1.00  0.00    -0.248 NA
ATOM     66  C   UNL A   1      42.819  31.098  36.254  1.00  0.00     0.031 C 
ATOM     67  C   UNL A   1      37.373  32.093  33.763  1.00  0.00     0.029 A 
ATOM     68  C   UNL A   1      38.695  31.719  33.944  1.00  0.00     0.049 A 
ATOM     69  H   UNL A   1      40.068  30.963  32.531  1.00  0.00     0.167 HD
ATOM     70  C   UNL A   1      40.784  31.397  35.244  1.00  0.00     0.074 A 
ATOM     71  C   UNL A   1      41.562  31.463  36.462  1.00  0.00     0.031 C 
ATOM     72  C   UNL A   1      39.481  31.758  35.151  1.00  0.00     0.037 A 
BRANCH  59  73
ATOM     73  C   UNL A   1      37.089  31.160  29.485  1.00  0.00     0.064 A 
ATOM     74  C   UNL A   1      36.230  30.094  29.175  1.00  0.00     0.173 A 
ATOM     75  C   UNL A   1      36.794  32.418  28.939  1.00  0.00     0.173 A 
ATOM     76  F   UNL A   1      36.473  28.867  29.660  1.00  0.00    -0.203 F 
ATOM     77  C   UNL A   1      35.139  30.274  28.327  1.00  0.00     0.198 A 
ATOM     78  C   UNL A   1      35.685  32.601  28.116  1.00  0.00     0.198 A 
ATOM     79  F   UNL A   1      37.578  33.473  29.208  1.00  0.00    -0.203 F 
ATOM     80  F   UNL A   1      34.365  29.230  28.004  1.00  0.00    -0.200 F 
ATOM     81  C   UNL A   1      34.864  31.529  27.805  1.00  0.00     0.200 A 
ATOM     82  F   UNL A   1      35.413  33.817  27.623  1.00  0.00    -0.200 F 
ATOM     83  F   UNL A   1      33.812  31.702  26.994  1.00  0.00    -0.200 F 
ENDBRANCH  59  73
BRANCH  60  84
ATOM     84  C   UNL A   1      45.280  30.016  35.093  1.00  0.00     0.064 A 
ATOM     85  C   UNL A   1      45.502  28.848  35.837  1.00  0.00     0.173 A 
ATOM     86  C   UNL A   1      46.241  31.034  35.174  1.00  0.00     0.173 A 
ATOM     87  F   UNL A   1      44.600  27.855  35.807  1.00  0.00    -0.203 F 
ATOM     88  C   UNL A   1      46.626  28.713  36.648  1.00  0.00     0.198 A 
ATOM     89  C   UNL A   1      47.380  30.886  35.964  1.00  0.00     0.198 A 
ATOM     90  F   UNL A   1      46.079  32.169  34.479  1.00  0.00    -0.203 F 
ATOM     91  F   UNL A   1      46.790  27.606  37.384  1.00  0.00    -0.200 F 
ATOM     92  C   UNL A   1      47.567  29.730  36.706  1.00  0.00     0.200 A 
ATOM     93  F   UNL A   1      48.294  31.865  36.009  1.00  0.00    -0.200 F 
ATOM     94  F   UNL A   1      48.651  29.599  37.484  1.00  0.00    -0.200 F 
ENDBRANCH  60  84
BRANCH  72  95
ATOM     95  C   UNL A   1      38.800  32.209  36.409  1.00  0.00     0.064 A 
ATOM     96  C   UNL A   1      38.012  31.339  37.175  1.00  0.00     0.173 A 
ATOM     97  C   UNL A   1      38.975  33.522  36.874  1.00  0.00     0.173 A 
ATOM     98  F   UNL A   1      37.804  30.078  36.765  1.00  0.00    -0.203 F 
ATOM     99  C   UNL A   1      37.401  31.774  38.348  1.00  0.00     0.198 A 
ATOM    100  C   UNL A   1      38.386  33.944  38.062  1.00  0.00     0.198 A 
ATOM    101  F   UNL A   1      39.726  34.391  36.181  1.00  0.00    -0.203 F 
ATOM    102  F   UNL A   1      36.615  30.939  39.041  1.00  0.00    -0.200 F 
ATOM    103  C   UNL A   1      37.594  33.073  38.794  1.00  0.00     0.200 A 
ATOM    104  F   UNL A   1      38.584  35.196  38.498  1.00  0.00    -0.200 F 
ATOM    105  F   UNL A   1      37.011  33.487  39.927  1.00  0.00    -0.200 F 
ENDBRANCH  72  95
ENDBRANCH  46  47
ENDBRANCH  38  41
ENDBRANCH  36  37
ENDBRANCH  35  36
ENDBRANCH  34  35
ENDBRANCH  32  34
ENDBRANCH  28  30
ENDBRANCH   4  28
TORSDOF 20
ENDMDL
MODEL 3
REMARK VINA RESULT:     -11.2      5.087      9.608
REMARK SMILES CCCCCCNC(=O)Oc1cccc(-c2ccc([C@@H](C)C(=O)NCCCNC(=O)c3ccc(-c4c5nc(c(-c6c(F)c(F)c(F)c(F)c6F)c6ccc([nH]6)c(-c6c(F)c(F)c(F)c(F)c6F)c6nc(c(-c7c(F)c(F)c(F)c(F)c7F)c7ccc4[nH]7)C=C6)C=C5)cc3)cc2C(F)(F)F)c1
REMARK SMILES IDX 16 1 17 2 18 3 19 4 94 5 95 6 15 7 11 8 12 9 100 10 13 11
REMARK SMILES IDX 14 12 10 13 8 14 7 15 9 17 6 18 5 19 4 20 3 21 2 22 1 23
REMARK SMILES IDX 96 24 97 25 98 26 99 27 20 28 21 29 22 30 23 31 24 32 25 34
REMARK SMILES IDX 26 35 27 36 28 37 29 38 30 40 31 41 32 42 93 43 33 44 92 45
REMARK SMILES IDX 34 46 35 47 36 48 86 49 37 50 91 51 85 52 87 53 38 54 90 55
REMARK SMILES IDX 84 56 83 57 39 59 71 60 51 61 70 62 52 63 55 64 69 65 88 66
REMARK SMILES IDX 53 67 54 68 68 70 89 71 56 72 40 73 41 74 49 75 42 76 43 77
REMARK SMILES IDX 47 78 50 79 44 80 45 81 48 82 46 83 72 84 73 85 81 86 74 87
REMARK SMILES IDX 75 88 79 89 82 90 76 91 77 92 80 93 78 94 57 95 58 96 66 97
REMARK SMILES IDX 59 98 60 99 64 100 67 101 61 102 62 103 65 104 63 105
REMARK H PARENT 7 16 24 33 28 39 87 58 55 69
REMARK Flexibility Score: inf
ROOT
ATOM      1  C   UNL A   1      47.216  25.831  26.356  1.00  0.00    -0.006 A 
ATOM      2  C   UNL A   1      48.487  25.240  26.227  1.00  0.00     0.009 A 
ATOM      3  C   UNL A   1      49.467  25.757  25.376  1.00  0.00     0.005 A 
ATOM      4  C   UNL A   1      49.186  26.826  24.532  1.00  0.00    -0.035 A 
ATOM      5  C   UNL A   1      47.949  27.465  24.698  1.00  0.00     0.018 A 
ATOM      6  C   UNL A   1      46.985  27.025  25.642  1.00  0.00     0.064 A 
ENDROOT
BRANCH   1   7
ATOM      7  C   UNL A   1      46.211  25.153  27.204  1.00  0.00    -0.014 A 
ATOM      8  C   UNL A   1      44.351  23.611  27.483  1.00  0.00     0.133 A 
ATOM      9  C   UNL A   1      44.333  23.832  28.857  1.00  0.00     0.047 A 
ATOM     10  C   UNL A   1      45.284  24.246  26.660  1.00  0.00     0.056 A 
ATOM     11  C   UNL A   1      45.263  24.698  29.418  1.00  0.00     0.004 A 
ATOM     12  C   UNL A   1      46.183  25.359  28.598  1.00  0.00     0.009 A 
BRANCH   8  13
ATOM     13  O   UNL A   1      43.292  22.852  26.956  1.00  0.00    -0.410 OA
BRANCH  13  14
ATOM     14  C   UNL A   1      42.714  23.215  25.749  1.00  0.00     0.412 C 
ATOM     15  N   UNL A   1      41.615  24.016  25.905  1.00  0.00    -0.321 N 
ATOM     16  H   UNL A   1      41.140  24.278  25.084  1.00  0.00     0.167 HD
ATOM     17  O   UNL A   1      43.099  22.873  24.637  1.00  0.00    -0.224 OA
BRANCH  15  18
ATOM     18  C   UNL A   1      41.080  24.518  27.156  1.00  0.00     0.119 C 
BRANCH  18  19
ATOM     19  C   UNL A   1      41.433  25.988  27.383  1.00  0.00     0.021 C 
BRANCH  19  20
ATOM     20  C   UNL A   1      41.889  26.745  26.128  1.00  0.00     0.002 C 
BRANCH  20  21
ATOM     21  C   UNL A   1      41.579  28.246  26.113  1.00  0.00    -0.000 C 
BRANCH  21  22
ATOM     22  C   UNL A   1      41.189  28.851  27.464  1.00  0.00    -0.003 C 
ATOM     23  C   UNL A   1      39.703  29.144  27.586  1.00  0.00     0.004 C 
ENDBRANCH  21  22
ENDBRANCH  20  21
ENDBRANCH  19  20
ENDBRANCH  18  19
ENDBRANCH  15  18
ENDBRANCH  13  14
ENDBRANCH   8  13
ENDBRANCH   1   7
BRANCH   6  24
ATOM     24  C   UNL A   1      45.768  27.907  25.824  1.00  0.00     0.417 C 
ATOM     25  F   UNL A   1      46.043  29.213  25.525  1.00  0.00    -0.166 F 
ATOM     26  F   UNL A   1      44.744  27.554  24.997  1.00  0.00    -0.166 F 
ATOM     27  F   UNL A   1      45.246  27.944  27.079  1.00  0.00    -0.166 F 
ENDBRANCH   6  24
BRANCH   4  28
ATOM     28  C   UNL A   1      50.143  27.294  23.447  1.00  0.00     0.105 C 
ATOM     29  C   UNL A   1      49.485  27.865  22.193  1.00  0.00     0.023 C 
BRANCH  28  30
ATOM     30  C   UNL A   1      51.330  28.114  23.983  1.00  0.00     0.227 C 
ATOM     31  O   UNL A   1      51.237  29.345  24.070  1.00  0.00    -0.274 OA
ATOM     32  N   UNL A   1      52.514  27.577  24.387  1.00  0.00    -0.356 N 
ATOM     33  H   UNL A   1      53.136  28.233  24.776  1.00  0.00     0.163 HD
BRANCH  32  34
ATOM     34  C   UNL A   1      53.031  26.224  24.352  1.00  0.00     0.117 C 
BRANCH  34  35
ATOM     35  C   UNL A   1      53.351  25.696  25.750  1.00  0.00     0.042 C 
BRANCH  35  36
ATOM     36  C   UNL A   1      53.851  26.758  26.717  1.00  0.00     0.118 C 
BRANCH  36  37
ATOM     37  N   UNL A   1      54.294  26.184  27.978  1.00  0.00    -0.352 N 
ATOM     38  C   UNL A   1      53.720  26.201  29.224  1.00  0.00     0.251 C 
ATOM     39  H   UNL A   1      55.150  25.701  27.929  1.00  0.00     0.163 HD
ATOM     40  O   UNL A   1      54.388  25.830  30.187  1.00  0.00    -0.269 OA
BRANCH  38  41
ATOM     41  C   UNL A   1      52.323  26.652  29.440  1.00  0.00     0.039 A 
ATOM     42  C   UNL A   1      52.101  27.756  30.271  1.00  0.00     0.014 A 
ATOM     43  C   UNL A   1      51.229  25.955  28.919  1.00  0.00     0.014 A 
ATOM     44  C   UNL A   1      50.798  28.166  30.565  1.00  0.00     0.010 A 
ATOM     45  C   UNL A   1      49.932  26.418  29.138  1.00  0.00     0.010 A 
ATOM     46  C   UNL A   1      49.701  27.505  29.993  1.00  0.00    -0.014 A 
BRANCH  46  47
ATOM     47  C   UNL A   1      48.306  27.879  30.342  1.00  0.00     0.031 A 
ATOM     48  C   UNL A   1      47.572  27.109  31.408  1.00  0.00     0.074 A 
ATOM     49  C   UNL A   1      47.689  28.877  29.683  1.00  0.00     0.049 A 
ATOM     50  N   UNL A   1      46.333  27.229  31.817  1.00  0.00    -0.248 NA
ATOM     51  C   UNL A   1      48.322  26.040  32.087  1.00  0.00     0.031 C 
ATOM     52  C   UNL A   1      48.278  29.671  28.605  1.00  0.00     0.029 A 
ATOM     53  N   UNL A   1      46.421  29.387  29.818  1.00  0.00    -0.354 N 
ATOM     54  C   UNL A   1      46.153  26.238  32.774  1.00  0.00     0.074 A 
ATOM     55  C   UNL A   1      47.389  25.492  32.850  1.00  0.00     0.031 C 
ATOM     56  C   UNL A   1      47.382  30.583  28.191  1.00  0.00     0.029 A 
ATOM     57  C   UNL A   1      46.147  30.416  28.952  1.00  0.00     0.049 A 
ATOM     58  H   UNL A   1      45.771  29.047  30.475  1.00  0.00     0.167 HD
ATOM     59  C   UNL A   1      45.064  25.989  33.541  1.00  0.00     0.037 A 
ATOM     60  C   UNL A   1      45.023  31.140  28.789  1.00  0.00     0.037 A 
ATOM     61  C   UNL A   1      43.850  26.759  33.493  1.00  0.00     0.049 A 
ATOM     62  C   UNL A   1      43.834  30.858  29.669  1.00  0.00     0.074 A 
ATOM     63  C   UNL A   1      42.708  26.622  34.263  1.00  0.00     0.029 A 
ATOM     64  N   UNL A   1      43.625  27.819  32.627  1.00  0.00    -0.354 N 
ATOM     65  N   UNL A   1      43.695  29.955  30.610  1.00  0.00    -0.248 NA
ATOM     66  C   UNL A   1      42.650  31.705  29.472  1.00  0.00     0.031 C 
ATOM     67  C   UNL A   1      41.779  27.579  33.840  1.00  0.00     0.029 A 
ATOM     68  C   UNL A   1      42.360  28.341  32.839  1.00  0.00     0.049 A 
ATOM     69  H   UNL A   1      44.270  28.151  31.962  1.00  0.00     0.167 HD
ATOM     70  C   UNL A   1      42.426  30.146  31.138  1.00  0.00     0.074 A 
ATOM     71  C   UNL A   1      41.839  31.258  30.421  1.00  0.00     0.031 C 
ATOM     72  C   UNL A   1      41.802  29.463  32.129  1.00  0.00     0.037 A 
BRANCH  59  73
ATOM     73  C   UNL A   1      45.142  24.839  34.504  1.00  0.00     0.064 A 
ATOM     74  C   UNL A   1      45.545  25.021  35.836  1.00  0.00     0.173 A 
ATOM     75  C   UNL A   1      44.785  23.544  34.099  1.00  0.00     0.173 A 
ATOM     76  F   UNL A   1      45.910  26.237  36.271  1.00  0.00    -0.203 F 
ATOM     77  C   UNL A   1      45.618  23.945  36.717  1.00  0.00     0.198 A 
ATOM     78  C   UNL A   1      44.830  22.475  34.992  1.00  0.00     0.198 A 
ATOM     79  F   UNL A   1      44.387  23.314  32.839  1.00  0.00    -0.203 F 
ATOM     80  F   UNL A   1      46.056  24.136  37.969  1.00  0.00    -0.200 F 
ATOM     81  C   UNL A   1      45.253  22.675  36.296  1.00  0.00     0.200 A 
ATOM     82  F   UNL A   1      44.464  21.251  34.587  1.00  0.00    -0.200 F 
ATOM     83  F   UNL A   1      45.319  21.642  37.147  1.00  0.00    -0.200 F 
ENDBRANCH  59  73
BRANCH  60  84
ATOM     84  C   UNL A   1      44.981  32.230  27.780  1.00  0.00     0.064 A 
ATOM     85  C   UNL A   1      45.604  33.461  28.027  1.00  0.00     0.173 A 
ATOM     86  C   UNL A   1      44.317  32.068  26.556  1.00  0.00     0.173 A 
ATOM     87  F   UNL A   1      46.235  33.670  29.192  1.00  0.00    -0.203 F 
ATOM     88  C   UNL A   1      45.545  34.498  27.098  1.00  0.00     0.198 A 
ATOM     89  C   UNL A   1      44.283  33.096  25.616  1.00  0.00     0.198 A 
ATOM     90  F   UNL A   1      43.708  30.908  26.269  1.00  0.00    -0.203 F 
ATOM     91  F   UNL A   1      46.110  35.679  27.379  1.00  0.00    -0.200 F 
ATOM     92  C   UNL A   1      44.890  34.312  25.890  1.00  0.00     0.200 A 
ATOM     93  F   UNL A   1      43.658  32.910  24.444  1.00  0.00    -0.200 F 
ATOM     94  F   UNL A   1      44.835  35.308  24.995  1.00  0.00    -0.200 F 
ENDBRANCH  60  84
BRANCH  72  95
ATOM     95  C   UNL A   1      40.434  29.930  32.531  1.00  0.00     0.064 A 
ATOM     96  C   UNL A   1      39.273  29.391  31.960  1.00  0.00     0.173 A 
ATOM     97  C   UNL A   1      40.287  30.901  33.533  1.00  0.00     0.173 A 
ATOM     98  F   UNL A   1      39.363  28.470  30.988  1.00  0.00    -0.203 F 
ATOM     99  C   UNL A   1      38.012  29.828  32.358  1.00  0.00     0.198 A 
ATOM    100  C   UNL A   1      39.025  31.313  33.949  1.00  0.00     0.198 A 
ATOM    101  F   UNL A   1      41.368  31.441  34.116  1.00  0.00    -0.203 F 
ATOM    102  F   UNL A   1      36.917  29.334  31.767  1.00  0.00    -0.200 F 
ATOM    103  C   UNL A   1      37.889  30.782  33.357  1.00  0.00     0.200 A 
ATOM    104  F   UNL A   1      38.907  32.227  34.923  1.00  0.00    -0.200 F 
ATOM    105  F   UNL A   1      36.675  31.196  33.744  1.00  0.00    -0.200 F 
ENDBRANCH  72  95
ENDBRANCH  46  47
ENDBRANCH  38  41
ENDBRANCH  36  37
ENDBRANCH  35  36
ENDBRANCH  34  35
ENDBRANCH  32  34
ENDBRANCH  28  30
ENDBRANCH   4  28
TORSDOF 20
ENDMDL
