MODEL 1
REMARK VINA RESULT:     -12.8      0.000      0.000
REMARK SMILES CS(=O)(=O)N1C[C@@H]2C[N@H+](Cc3cccnc3N)C[C@]2(C(=O)NCCCNC(=O)c2ccc(-c3c4nc(c(-c5c(F)c(F)c(F)c(F)c5F)c5ccc([nH]5)c(-c5c(F)c(F)c(F)c(F)c5F)c5nc(c(-c6c(F)c(F)c(F)c(F)c6F)c6ccc3[nH]6)C=C5)C=C4)cc2)C1
REMARK SMILES IDX 23 1 22 2 20 3 21 4 19 6 5 7 6 8 92 9 7 10 8 11 18 12 9 13
REMARK SMILES IDX 2 15 1 16 3 17 4 18 10 19 11 20 12 21 16 22 13 23 15 24
REMARK SMILES IDX 14 25 17 26 24 29 25 30 26 31 27 32 28 34 29 35 30 36 91 37
REMARK SMILES IDX 31 38 90 39 32 40 33 41 34 42 84 43 35 44 89 45 83 46 85 47
REMARK SMILES IDX 36 48 88 49 82 50 81 51 37 53 69 54 49 55 68 56 50 57 53 58
REMARK SMILES IDX 67 59 86 60 51 61 52 62 66 64 87 65 54 66 38 67 39 68 47 69
REMARK SMILES IDX 40 70 41 71 45 72 48 73 42 74 43 75 46 76 44 77 70 78 71 79
REMARK SMILES IDX 79 80 72 81 73 82 77 83 80 84 74 85 75 86 78 87 76 88 55 89
REMARK SMILES IDX 56 90 64 91 57 92 58 93 62 94 65 95 59 96 60 97 63 98 61 99
REMARK H PARENT 22 5 9 14 17 27 17 28 26 33 85 52 53 63
REMARK Flexibility Score: inf
ROOT
ATOM      1  C   UNL A   1      36.963  21.050  24.825  1.00  0.00     0.117 C 
ENDROOT
BRANCH   1   2
ATOM      2  N   UNL A   1      36.204  21.120  26.057  1.00  0.00    -0.355 N 
ATOM      3  C   UNL A   1      34.896  21.546  26.203  1.00  0.00     0.233 C 
ATOM      4  O   UNL A   1      34.524  21.848  27.338  1.00  0.00    -0.274 OA
ATOM      5  H   UNL A   1      36.668  20.834  26.877  1.00  0.00     0.163 HD
BRANCH   3   6
ATOM      6  C   UNL A   1      33.978  21.618  24.899  1.00  0.00     0.121 C 
ATOM      7  N   UNL A   1      33.271  19.451  23.808  1.00  0.00    -0.200 NA
ATOM      8  C   UNL A   1      32.218  20.410  23.560  1.00  0.00     0.113 C 
ATOM      9  C   UNL A   1      34.080  20.022  24.934  1.00  0.00     0.125 C 
ATOM     10  C   UNL A   1      32.403  21.438  24.651  1.00  0.00     0.082 C 
ATOM     11  C   UNL A   1      31.749  22.748  24.198  1.00  0.00     0.268 C 
ATOM     12  C   UNL A   1      33.611  23.054  25.413  1.00  0.00     0.281 C 
ATOM     13  N   UNL A   1      32.775  23.729  24.423  1.00  0.00    -0.330 N 
ATOM     14  H   UNL A   1      32.403  24.619  24.755  1.00  0.00     0.348 HD
BRANCH   7  15
ATOM     15  S   UNL A   1      32.934  17.798  23.878  1.00  0.00     0.211 S 
ATOM     16  C   UNL A   1      34.471  17.038  24.385  1.00  0.00     0.176 C 
ATOM     17  O   UNL A   1      32.670  17.337  22.528  1.00  0.00    -0.213 OA
ATOM     18  O   UNL A   1      31.960  17.610  24.927  1.00  0.00    -0.213 OA
ENDBRANCH   7  15
BRANCH  13  19
ATOM     19  C   UNL A   1      33.430  24.361  23.255  1.00  0.00     0.302 C 
BRANCH  19  20
ATOM     20  C   UNL A   1      33.542  25.868  23.109  1.00  0.00     0.048 A 
ATOM     21  C   UNL A   1      33.731  26.682  24.236  1.00  0.00     0.015 A 
ATOM     22  C   UNL A   1      33.353  26.555  21.914  1.00  0.00     0.132 A 
ATOM     23  C   UNL A   1      34.000  28.043  24.110  1.00  0.00     0.021 A 
ATOM     24  N   UNL A   1      33.636  27.864  21.755  1.00  0.00    -0.239 NA
ATOM     25  C   UNL A   1      33.997  28.573  22.841  1.00  0.00     0.113 A 
BRANCH  22  26
ATOM     26  N   UNL A   1      32.841  25.959  20.780  1.00  0.00    -0.383 N 
ATOM     27  H   UNL A   1      33.254  25.138  20.426  1.00  0.00     0.158 HD
ATOM     28  H   UNL A   1      32.061  26.354  20.325  1.00  0.00     0.158 HD
ENDBRANCH  22  26
ENDBRANCH  19  20
ENDBRANCH  13  19
ENDBRANCH   3   6
ENDBRANCH   1   2
BRANCH   1  29
ATOM     29  C   UNL A   1      38.078  20.001  24.909  1.00  0.00     0.042 C 
BRANCH  29  30
ATOM     30  C   UNL A   1      39.047  20.242  26.043  1.00  0.00     0.118 C 
BRANCH  30  31
ATOM     31  N   UNL A   1      40.145  19.293  26.020  1.00  0.00    -0.352 N 
ATOM     32  C   UNL A   1      41.500  19.524  26.031  1.00  0.00     0.251 C 
ATOM     33  H   UNL A   1      39.881  18.345  25.993  1.00  0.00     0.163 HD
ATOM     34  O   UNL A   1      42.267  18.609  25.748  1.00  0.00    -0.269 OA
BRANCH  32  35
ATOM     35  C   UNL A   1      42.035  20.866  26.363  1.00  0.00     0.039 A 
ATOM     36  C   UNL A   1      42.243  21.788  25.332  1.00  0.00     0.014 A 
ATOM     37  C   UNL A   1      42.364  21.215  27.675  1.00  0.00     0.014 A 
ATOM     38  C   UNL A   1      42.738  23.059  25.626  1.00  0.00     0.010 A 
ATOM     39  C   UNL A   1      42.735  22.517  27.982  1.00  0.00     0.010 A 
ATOM     40  C   UNL A   1      42.961  23.445  26.957  1.00  0.00    -0.014 A 
BRANCH  40  41
ATOM     41  C   UNL A   1      43.487  24.790  27.302  1.00  0.00     0.031 A 
ATOM     42  C   UNL A   1      42.567  25.820  27.906  1.00  0.00     0.074 A 
ATOM     43  C   UNL A   1      44.765  25.102  27.020  1.00  0.00     0.049 A 
ATOM     44  N   UNL A   1      42.808  27.069  28.215  1.00  0.00    -0.248 NA
ATOM     45  C   UNL A   1      41.179  25.401  28.165  1.00  0.00     0.031 C 
ATOM     46  C   UNL A   1      45.734  24.207  26.386  1.00  0.00     0.029 A 
ATOM     47  N   UNL A   1      45.469  26.262  27.224  1.00  0.00    -0.354 N 
ATOM     48  C   UNL A   1      41.604  27.582  28.679  1.00  0.00     0.074 A 
ATOM     49  C   UNL A   1      40.617  26.535  28.549  1.00  0.00     0.031 C 
ATOM     50  C   UNL A   1      46.914  24.840  26.280  1.00  0.00     0.029 A 
ATOM     51  C   UNL A   1      46.773  26.197  26.798  1.00  0.00     0.049 A 
ATOM     52  H   UNL A   1      45.077  27.066  27.637  1.00  0.00     0.167 HD
ATOM     53  C   UNL A   1      41.351  28.807  29.199  1.00  0.00     0.037 A 
ATOM     54  C   UNL A   1      47.743  27.131  26.817  1.00  0.00     0.037 A 
ATOM     55  C   UNL A   1      42.348  29.832  29.355  1.00  0.00     0.049 A 
ATOM     56  C   UNL A   1      47.437  28.484  27.401  1.00  0.00     0.074 A 
ATOM     57  C   UNL A   1      42.216  31.084  29.927  1.00  0.00     0.029 A 
ATOM     58  N   UNL A   1      43.665  29.720  28.933  1.00  0.00    -0.354 N 
ATOM     59  N   UNL A   1      46.313  28.935  27.907  1.00  0.00    -0.248 NA
ATOM     60  C   UNL A   1      48.538  29.457  27.428  1.00  0.00     0.031 C 
ATOM     61  C   UNL A   1      43.438  31.752  29.798  1.00  0.00     0.029 A 
ATOM     62  C   UNL A   1      44.350  30.892  29.209  1.00  0.00     0.049 A 
ATOM     63  H   UNL A   1      44.056  28.925  28.501  1.00  0.00     0.167 HD
ATOM     64  C   UNL A   1      46.579  30.227  28.340  1.00  0.00     0.074 A 
ATOM     65  C   UNL A   1      47.976  30.482  28.052  1.00  0.00     0.031 C 
ATOM     66  C   UNL A   1      45.744  31.123  28.923  1.00  0.00     0.037 A 
BRANCH  53  67
ATOM     67  C   UNL A   1      39.944  29.104  29.636  1.00  0.00     0.064 A 
ATOM     68  C   UNL A   1      39.550  29.007  30.980  1.00  0.00     0.173 A 
ATOM     69  C   UNL A   1      38.983  29.521  28.702  1.00  0.00     0.173 A 
ATOM     70  F   UNL A   1      40.424  28.601  31.913  1.00  0.00    -0.203 F 
ATOM     71  C   UNL A   1      38.241  29.284  31.366  1.00  0.00     0.198 A 
ATOM     72  C   UNL A   1      37.684  29.832  29.098  1.00  0.00     0.198 A 
ATOM     73  F   UNL A   1      39.303  29.634  27.405  1.00  0.00    -0.203 F 
ATOM     74  F   UNL A   1      37.875  29.128  32.647  1.00  0.00    -0.200 F 
ATOM     75  C   UNL A   1      37.312  29.704  30.428  1.00  0.00     0.200 A 
ATOM     76  F   UNL A   1      36.791  30.252  28.192  1.00  0.00    -0.200 F 
ATOM     77  F   UNL A   1      36.054  29.979  30.803  1.00  0.00    -0.200 F 
ENDBRANCH  53  67
BRANCH  54  78
ATOM     78  C   UNL A   1      49.096  26.811  26.292  1.00  0.00     0.064 A 
ATOM     79  C   UNL A   1      50.084  26.266  27.124  1.00  0.00     0.173 A 
ATOM     80  C   UNL A   1      49.432  27.043  24.950  1.00  0.00     0.173 A 
ATOM     81  F   UNL A   1      49.819  26.041  28.419  1.00  0.00    -0.203 F 
ATOM     82  C   UNL A   1      51.363  25.991  26.641  1.00  0.00     0.198 A 
ATOM     83  C   UNL A   1      50.700  26.737  24.460  1.00  0.00     0.198 A 
ATOM     84  F   UNL A   1      48.522  27.554  24.108  1.00  0.00    -0.203 F 
ATOM     85  F   UNL A   1      52.302  25.519  27.472  1.00  0.00    -0.200 F 
ATOM     86  C   UNL A   1      51.667  26.220  25.309  1.00  0.00     0.200 A 
ATOM     87  F   UNL A   1      50.984  26.942  23.167  1.00  0.00    -0.200 F 
ATOM     88  F   UNL A   1      52.894  25.951  24.843  1.00  0.00    -0.200 F 
ENDBRANCH  54  78
BRANCH  66  89
ATOM     89  C   UNL A   1      46.328  32.444  29.332  1.00  0.00     0.064 A 
ATOM     90  C   UNL A   1      46.312  33.557  28.479  1.00  0.00     0.173 A 
ATOM     91  C   UNL A   1      46.878  32.607  30.614  1.00  0.00     0.173 A 
ATOM     92  F   UNL A   1      45.811  33.452  27.239  1.00  0.00    -0.203 F 
ATOM     93  C   UNL A   1      46.853  34.775  28.883  1.00  0.00     0.198 A 
ATOM     94  C   UNL A   1      47.383  33.835  31.027  1.00  0.00     0.198 A 
ATOM     95  F   UNL A   1      46.909  31.576  31.472  1.00  0.00    -0.203 F 
ATOM     96  F   UNL A   1      46.878  35.809  28.031  1.00  0.00    -0.200 F 
ATOM     97  C   UNL A   1      47.380  34.915  30.158  1.00  0.00     0.200 A 
ATOM     98  F   UNL A   1      47.875  33.973  32.266  1.00  0.00    -0.200 F 
ATOM     99  F   UNL A   1      47.892  36.091  30.548  1.00  0.00    -0.200 F 
ENDBRANCH  66  89
ENDBRANCH  40  41
ENDBRANCH  32  35
ENDBRANCH  30  31
ENDBRANCH  29  30
ENDBRANCH   1  29
TORSDOF 14
ENDMDL
MODEL 2
REMARK VINA RESULT:     -12.8      4.818      8.164
REMARK SMILES CS(=O)(=O)N1C[C@@H]2C[N@H+](Cc3cccnc3N)C[C@]2(C(=O)NCCCNC(=O)c2ccc(-c3c4nc(c(-c5c(F)c(F)c(F)c(F)c5F)c5ccc([nH]5)c(-c5c(F)c(F)c(F)c(F)c5F)c5nc(c(-c6c(F)c(F)c(F)c(F)c6F)c6ccc3[nH]6)C=C5)C=C4)cc2)C1
REMARK SMILES IDX 23 1 22 2 20 3 21 4 19 6 5 7 6 8 92 9 7 10 8 11 18 12 9 13
REMARK SMILES IDX 2 15 1 16 3 17 4 18 10 19 11 20 12 21 16 22 13 23 15 24
REMARK SMILES IDX 14 25 17 26 24 29 25 30 26 31 27 32 28 34 29 35 30 36 91 37
REMARK SMILES IDX 31 38 90 39 32 40 33 41 34 42 84 43 35 44 89 45 83 46 85 47
REMARK SMILES IDX 36 48 88 49 82 50 81 51 37 53 69 54 49 55 68 56 50 57 53 58
REMARK SMILES IDX 67 59 86 60 51 61 52 62 66 64 87 65 54 66 38 67 39 68 47 69
REMARK SMILES IDX 40 70 41 71 45 72 48 73 42 74 43 75 46 76 44 77 70 78 71 79
REMARK SMILES IDX 79 80 72 81 73 82 77 83 80 84 74 85 75 86 78 87 76 88 55 89
REMARK SMILES IDX 56 90 64 91 57 92 58 93 62 94 65 95 59 96 60 97 63 98 61 99
REMARK H PARENT 22 5 9 14 17 27 17 28 26 33 85 52 53 63
REMARK Flexibility Score: inf
ROOT
ATOM      1  C   UNL A   1      33.893  28.371  25.744  1.00  0.00     0.117 C 
ENDROOT
BRANCH   1   2
ATOM      2  N   UNL A   1      33.269  27.406  26.625  1.00  0.00    -0.355 N 
ATOM      3  C   UNL A   1      32.392  26.399  26.266  1.00  0.00     0.233 C 
ATOM      4  O   UNL A   1      31.716  25.892  27.162  1.00  0.00    -0.274 OA
ATOM      5  H   UNL A   1      33.492  27.475  27.582  1.00  0.00     0.163 HD
BRANCH   3   6
ATOM      6  C   UNL A   1      32.322  25.977  24.727  1.00  0.00     0.121 C 
ATOM      7  N   UNL A   1      34.128  24.463  23.815  1.00  0.00    -0.200 NA
ATOM      8  C   UNL A   1      32.926  24.184  23.063  1.00  0.00     0.113 C 
ATOM      9  C   UNL A   1      33.675  25.184  25.048  1.00  0.00     0.125 C 
ATOM     10  C   UNL A   1      31.815  24.655  23.971  1.00  0.00     0.082 C 
ATOM     11  C   UNL A   1      30.575  24.935  23.115  1.00  0.00     0.268 C 
ATOM     12  C   UNL A   1      30.803  26.348  24.845  1.00  0.00     0.281 C 
ATOM     13  N   UNL A   1      30.172  26.251  23.530  1.00  0.00    -0.330 N 
ATOM     14  H   UNL A   1      29.159  26.360  23.564  1.00  0.00     0.348 HD
BRANCH   7  15
ATOM     15  S   UNL A   1      35.312  23.277  24.022  1.00  0.00     0.211 S 
ATOM     16  C   UNL A   1      36.272  23.826  25.427  1.00  0.00     0.176 C 
ATOM     17  O   UNL A   1      36.197  23.320  22.874  1.00  0.00    -0.213 OA
ATOM     18  O   UNL A   1      34.628  22.057  24.381  1.00  0.00    -0.213 OA
ENDBRANCH   7  15
BRANCH  13  19
ATOM     19  C   UNL A   1      30.331  27.379  22.584  1.00  0.00     0.302 C 
BRANCH  19  20
ATOM     20  C   UNL A   1      29.432  28.601  22.627  1.00  0.00     0.048 A 
ATOM     21  C   UNL A   1      28.077  28.479  22.972  1.00  0.00     0.015 A 
ATOM     22  C   UNL A   1      29.823  29.875  22.227  1.00  0.00     0.132 A 
ATOM     23  C   UNL A   1      27.278  29.601  23.176  1.00  0.00     0.021 A 
ATOM     24  N   UNL A   1      29.084  30.982  22.442  1.00  0.00    -0.239 NA
ATOM     25  C   UNL A   1      27.847  30.832  22.953  1.00  0.00     0.113 A 
BRANCH  22  26
ATOM     26  N   UNL A   1      31.003  30.121  21.556  1.00  0.00    -0.383 N 
ATOM     27  H   UNL A   1      31.101  29.843  20.616  1.00  0.00     0.158 HD
ATOM     28  H   UNL A   1      31.747  30.574  22.016  1.00  0.00     0.158 HD
ENDBRANCH  22  26
ENDBRANCH  19  20
ENDBRANCH  13  19
ENDBRANCH   3   6
ENDBRANCH   1   2
BRANCH   1  29
ATOM     29  C   UNL A   1      32.993  29.591  25.515  1.00  0.00     0.042 C 
BRANCH  29  30
ATOM     30  C   UNL A   1      32.452  30.189  26.793  1.00  0.00     0.118 C 
BRANCH  30  31
ATOM     31  N   UNL A   1      32.534  31.638  26.783  1.00  0.00    -0.352 N 
ATOM     32  C   UNL A   1      33.383  32.471  27.472  1.00  0.00     0.251 C 
ATOM     33  H   UNL A   1      31.885  32.092  26.198  1.00  0.00     0.163 HD
ATOM     34  O   UNL A   1      33.131  33.670  27.531  1.00  0.00    -0.269 OA
BRANCH  32  35
ATOM     35  C   UNL A   1      34.584  31.929  28.152  1.00  0.00     0.039 A 
ATOM     36  C   UNL A   1      35.733  32.723  28.232  1.00  0.00     0.014 A 
ATOM     37  C   UNL A   1      34.601  30.638  28.682  1.00  0.00     0.014 A 
ATOM     38  C   UNL A   1      36.871  32.234  28.876  1.00  0.00     0.010 A 
ATOM     39  C   UNL A   1      35.686  30.202  29.431  1.00  0.00     0.010 A 
ATOM     40  C   UNL A   1      36.849  30.980  29.506  1.00  0.00    -0.014 A 
BRANCH  40  41
ATOM     41  C   UNL A   1      38.042  30.434  30.199  1.00  0.00     0.031 A 
ATOM     42  C   UNL A   1      38.335  30.843  31.620  1.00  0.00     0.074 A 
ATOM     43  C   UNL A   1      38.888  29.622  29.537  1.00  0.00     0.049 A 
ATOM     44  N   UNL A   1      39.356  30.536  32.378  1.00  0.00    -0.248 NA
ATOM     45  C   UNL A   1      37.367  31.749  32.263  1.00  0.00     0.031 C 
ATOM     46  C   UNL A   1      38.739  29.200  28.143  1.00  0.00     0.029 A 
ATOM     47  N   UNL A   1      40.046  29.012  29.946  1.00  0.00    -0.354 N 
ATOM     48  C   UNL A   1      39.163  31.225  33.569  1.00  0.00     0.074 A 
ATOM     49  C   UNL A   1      37.967  32.019  33.411  1.00  0.00     0.031 C 
ATOM     50  C   UNL A   1      39.749  28.376  27.823  1.00  0.00     0.029 A 
ATOM     51  C   UNL A   1      40.639  28.247  28.972  1.00  0.00     0.049 A 
ATOM     52  H   UNL A   1      40.418  29.112  30.853  1.00  0.00     0.167 HD
ATOM     53  C   UNL A   1      39.899  31.174  34.704  1.00  0.00     0.037 A 
ATOM     54  C   UNL A   1      41.778  27.528  29.002  1.00  0.00     0.037 A 
ATOM     55  C   UNL A   1      41.071  30.355  34.862  1.00  0.00     0.049 A 
ATOM     56  C   UNL A   1      42.578  27.487  30.277  1.00  0.00     0.074 A 
ATOM     57  C   UNL A   1      41.855  30.179  35.988  1.00  0.00     0.029 A 
ATOM     58  N   UNL A   1      41.629  29.575  33.859  1.00  0.00    -0.354 N 
ATOM     59  N   UNL A   1      42.346  28.083  31.421  1.00  0.00    -0.248 NA
ATOM     60  C   UNL A   1      43.794  26.663  30.267  1.00  0.00     0.031 C 
ATOM     61  C   UNL A   1      42.920  29.338  35.650  1.00  0.00     0.029 A 
ATOM     62  C   UNL A   1      42.762  28.935  34.334  1.00  0.00     0.049 A 
ATOM     63  H   UNL A   1      41.271  29.488  32.945  1.00  0.00     0.167 HD
ATOM     64  C   UNL A   1      43.364  27.683  32.276  1.00  0.00     0.074 A 
ATOM     65  C   UNL A   1      44.208  26.779  31.521  1.00  0.00     0.031 C 
ATOM     66  C   UNL A   1      43.583  28.031  33.568  1.00  0.00     0.037 A 
BRANCH  53  67
ATOM     67  C   UNL A   1      39.459  32.027  35.861  1.00  0.00     0.064 A 
ATOM     68  C   UNL A   1      38.479  31.594  36.769  1.00  0.00     0.173 A 
ATOM     69  C   UNL A   1      40.048  33.281  36.084  1.00  0.00     0.173 A 
ATOM     70  F   UNL A   1      37.873  30.409  36.596  1.00  0.00    -0.203 F 
ATOM     71  C   UNL A   1      38.081  32.399  37.834  1.00  0.00     0.198 A 
ATOM     72  C   UNL A   1      39.674  34.067  37.172  1.00  0.00     0.198 A 
ATOM     73  F   UNL A   1      40.992  33.744  35.252  1.00  0.00    -0.203 F 
ATOM     74  F   UNL A   1      37.103  31.988  38.652  1.00  0.00    -0.200 F 
ATOM     75  C   UNL A   1      38.684  33.629  38.040  1.00  0.00     0.200 A 
ATOM     76  F   UNL A   1      40.269  35.249  37.379  1.00  0.00    -0.200 F 
ATOM     77  F   UNL A   1      38.308  34.398  39.072  1.00  0.00    -0.200 F 
ENDBRANCH  53  67
BRANCH  54  78
ATOM     78  C   UNL A   1      42.213  26.771  27.799  1.00  0.00     0.064 A 
ATOM     79  C   UNL A   1      41.720  25.486  27.536  1.00  0.00     0.173 A 
ATOM     80  C   UNL A   1      43.131  27.314  26.887  1.00  0.00     0.173 A 
ATOM     81  F   UNL A   1      40.852  24.915  28.385  1.00  0.00    -0.203 F 
ATOM     82  C   UNL A   1      42.147  24.762  26.424  1.00  0.00     0.198 A 
ATOM     83  C   UNL A   1      43.533  26.604  25.758  1.00  0.00     0.198 A 
ATOM     84  F   UNL A   1      43.628  28.544  27.085  1.00  0.00    -0.203 F 
ATOM     85  F   UNL A   1      41.697  23.516  26.226  1.00  0.00    -0.200 F 
ATOM     86  C   UNL A   1      43.048  25.324  25.533  1.00  0.00     0.200 A 
ATOM     87  F   UNL A   1      44.389  27.158  24.889  1.00  0.00    -0.200 F 
ATOM     88  F   UNL A   1      43.454  24.631  24.461  1.00  0.00    -0.200 F 
ENDBRANCH  54  78
BRANCH  66  89
ATOM     89  C   UNL A   1      44.753  27.397  34.263  1.00  0.00     0.064 A 
ATOM     90  C   UNL A   1      45.988  28.052  34.383  1.00  0.00     0.173 A 
ATOM     91  C   UNL A   1      44.622  26.129  34.853  1.00  0.00     0.173 A 
ATOM     92  F   UNL A   1      46.169  29.259  33.826  1.00  0.00    -0.203 F 
ATOM     93  C   UNL A   1      47.057  27.447  35.038  1.00  0.00     0.198 A 
ATOM     94  C   UNL A   1      45.682  25.545  35.539  1.00  0.00     0.198 A 
ATOM     95  F   UNL A   1      43.460  25.464  34.776  1.00  0.00    -0.203 F 
ATOM     96  F   UNL A   1      48.244  28.067  35.091  1.00  0.00    -0.200 F 
ATOM     97  C   UNL A   1      46.900  26.199  35.623  1.00  0.00     0.200 A 
ATOM     98  F   UNL A   1      45.523  24.347  36.120  1.00  0.00    -0.200 F 
ATOM     99  F   UNL A   1      47.928  25.624  36.262  1.00  0.00    -0.200 F 
ENDBRANCH  66  89
ENDBRANCH  40  41
ENDBRANCH  32  35
ENDBRANCH  30  31
ENDBRANCH  29  30
ENDBRANCH   1  29
TORSDOF 14
ENDMDL
MODEL 3
REMARK VINA RESULT:     -12.8      0.584      7.242
REMARK SMILES CS(=O)(=O)N1C[C@@H]2C[N@H+](Cc3cccnc3N)C[C@]2(C(=O)NCCCNC(=O)c2ccc(-c3c4nc(c(-c5c(F)c(F)c(F)c(F)c5F)c5ccc([nH]5)c(-c5c(F)c(F)c(F)c(F)c5F)c5nc(c(-c6c(F)c(F)c(F)c(F)c6F)c6ccc3[nH]6)C=C5)C=C4)cc2)C1
REMARK SMILES IDX 23 1 22 2 20 3 21 4 19 6 5 7 6 8 92 9 7 10 8 11 18 12 9 13
REMARK SMILES IDX 2 15 1 16 3 17 4 18 10 19 11 20 12 21 16 22 13 23 15 24
REMARK SMILES IDX 14 25 17 26 24 29 25 30 26 31 27 32 28 34 29 35 30 36 91 37
REMARK SMILES IDX 31 38 90 39 32 40 33 41 34 42 84 43 35 44 89 45 83 46 85 47
REMARK SMILES IDX 36 48 88 49 82 50 81 51 37 53 69 54 49 55 68 56 50 57 53 58
REMARK SMILES IDX 67 59 86 60 51 61 52 62 66 64 87 65 54 66 38 67 39 68 47 69
REMARK SMILES IDX 40 70 41 71 45 72 48 73 42 74 43 75 46 76 44 77 70 78 71 79
REMARK SMILES IDX 79 80 72 81 73 82 77 83 80 84 74 85 75 86 78 87 76 88 55 89
REMARK SMILES IDX 56 90 64 91 57 92 58 93 62 94 65 95 59 96 60 97 63 98 61 99
REMARK H PARENT 22 5 9 14 17 27 17 28 26 33 85 52 53 63
REMARK Flexibility Score: inf
ROOT
ATOM      1  C   UNL A   1      36.998  20.974  24.746  1.00  0.00     0.117 C 
ENDROOT
BRANCH   1   2
ATOM      2  N   UNL A   1      36.298  21.078  26.010  1.00  0.00    -0.355 N 
ATOM      3  C   UNL A   1      35.009  21.540  26.209  1.00  0.00     0.233 C 
ATOM      4  O   UNL A   1      34.696  21.864  27.355  1.00  0.00    -0.274 OA
ATOM      5  H   UNL A   1      36.791  20.791  26.813  1.00  0.00     0.163 HD
BRANCH   3   6
ATOM      6  C   UNL A   1      34.035  21.619  24.946  1.00  0.00     0.121 C 
ATOM      7  N   UNL A   1      33.264  19.457  23.888  1.00  0.00    -0.200 NA
ATOM      8  C   UNL A   1      32.209  20.424  23.686  1.00  0.00     0.113 C 
ATOM      9  C   UNL A   1      34.127  20.021  24.976  1.00  0.00     0.125 C 
ATOM     10  C   UNL A   1      32.449  21.451  24.767  1.00  0.00     0.082 C 
ATOM     11  C   UNL A   1      31.786  22.766  24.344  1.00  0.00     0.268 C 
ATOM     12  C   UNL A   1      33.702  23.057  25.476  1.00  0.00     0.281 C 
ATOM     13  N   UNL A   1      32.828  23.739  24.524  1.00  0.00    -0.330 N 
ATOM     14  H   UNL A   1      32.478  24.632  24.872  1.00  0.00     0.348 HD
BRANCH   7  15
ATOM     15  S   UNL A   1      32.919  17.807  23.972  1.00  0.00     0.211 S 
ATOM     16  C   UNL A   1      34.439  17.047  24.527  1.00  0.00     0.176 C 
ATOM     17  O   UNL A   1      32.685  17.328  22.623  1.00  0.00    -0.213 OA
ATOM     18  O   UNL A   1      31.918  17.638  24.999  1.00  0.00    -0.213 OA
ENDBRANCH   7  15
BRANCH  13  19
ATOM     19  C   UNL A   1      33.436  24.366  23.328  1.00  0.00     0.302 C 
BRANCH  19  20
ATOM     20  C   UNL A   1      33.532  25.872  23.167  1.00  0.00     0.048 A 
ATOM     21  C   UNL A   1      33.774  26.696  24.277  1.00  0.00     0.015 A 
ATOM     22  C   UNL A   1      33.279  26.550  21.978  1.00  0.00     0.132 A 
ATOM     23  C   UNL A   1      34.028  28.057  24.129  1.00  0.00     0.021 A 
ATOM     24  N   UNL A   1      33.546  27.859  21.796  1.00  0.00    -0.239 NA
ATOM     25  C   UNL A   1      33.958  28.578  22.858  1.00  0.00     0.113 A 
BRANCH  22  26
ATOM     26  N   UNL A   1      32.713  25.944  20.875  1.00  0.00    -0.383 N 
ATOM     27  H   UNL A   1      33.094  25.106  20.525  1.00  0.00     0.158 HD
ATOM     28  H   UNL A   1      31.928  26.349  20.439  1.00  0.00     0.158 HD
ENDBRANCH  22  26
ENDBRANCH  19  20
ENDBRANCH  13  19
ENDBRANCH   3   6
ENDBRANCH   1   2
BRANCH   1  29
ATOM     29  C   UNL A   1      38.153  19.969  24.823  1.00  0.00     0.042 C 
BRANCH  29  30
ATOM     30  C   UNL A   1      38.922  20.033  26.123  1.00  0.00     0.118 C 
BRANCH  30  31
ATOM     31  N   UNL A   1      40.113  19.205  26.082  1.00  0.00    -0.352 N 
ATOM     32  C   UNL A   1      41.436  19.578  26.067  1.00  0.00     0.251 C 
ATOM     33  H   UNL A   1      39.951  18.235  26.062  1.00  0.00     0.163 HD
ATOM     34  O   UNL A   1      42.290  18.748  25.773  1.00  0.00    -0.269 OA
BRANCH  32  35
ATOM     35  C   UNL A   1      41.832  20.970  26.386  1.00  0.00     0.039 A 
ATOM     36  C   UNL A   1      42.228  21.280  27.691  1.00  0.00     0.014 A 
ATOM     37  C   UNL A   1      41.787  21.980  25.422  1.00  0.00     0.014 A 
ATOM     38  C   UNL A   1      42.613  22.584  28.009  1.00  0.00     0.010 A 
ATOM     39  C   UNL A   1      42.288  23.243  25.706  1.00  0.00     0.010 A 
ATOM     40  C   UNL A   1      42.673  23.571  27.013  1.00  0.00    -0.014 A 
BRANCH  40  41
ATOM     41  C   UNL A   1      43.079  24.965  27.320  1.00  0.00     0.031 A 
ATOM     42  C   UNL A   1      44.490  25.414  27.036  1.00  0.00     0.074 A 
ATOM     43  C   UNL A   1      42.203  25.805  27.902  1.00  0.00     0.049 A 
ATOM     44  N   UNL A   1      45.063  26.562  27.292  1.00  0.00    -0.248 NA
ATOM     45  C   UNL A   1      45.389  24.426  26.414  1.00  0.00     0.031 C 
ATOM     46  C   UNL A   1      40.828  25.469  28.274  1.00  0.00     0.029 A 
ATOM     47  N   UNL A   1      42.341  27.114  28.291  1.00  0.00    -0.354 N 
ATOM     48  C   UNL A   1      46.384  26.424  26.884  1.00  0.00     0.074 A 
ATOM     49  C   UNL A   1      46.548  25.063  26.429  1.00  0.00     0.031 C 
ATOM     50  C   UNL A   1      40.240  26.551  28.808  1.00  0.00     0.029 A 
ATOM     51  C   UNL A   1      41.207  27.642  28.857  1.00  0.00     0.049 A 
ATOM     52  H   UNL A   1      43.174  27.626  28.174  1.00  0.00     0.167 HD
ATOM     53  C   UNL A   1      47.364  27.358  26.861  1.00  0.00     0.037 A 
ATOM     54  C   UNL A   1      40.978  28.867  29.365  1.00  0.00     0.037 A 
ATOM     55  C   UNL A   1      47.181  28.720  27.286  1.00  0.00     0.049 A 
ATOM     56  C   UNL A   1      42.083  29.889  29.327  1.00  0.00     0.074 A 
ATOM     57  C   UNL A   1      48.087  29.765  27.246  1.00  0.00     0.029 A 
ATOM     58  N   UNL A   1      46.010  29.225  27.833  1.00  0.00    -0.354 N 
ATOM     59  N   UNL A   1      43.307  29.770  28.870  1.00  0.00    -0.248 NA
ATOM     60  C   UNL A   1      41.772  31.220  29.864  1.00  0.00     0.031 C 
ATOM     61  C   UNL A   1      47.483  30.887  27.822  1.00  0.00     0.029 A 
ATOM     62  C   UNL A   1      46.179  30.561  28.158  1.00  0.00     0.049 A 
ATOM     63  H   UNL A   1      45.182  28.710  27.969  1.00  0.00     0.167 HD
ATOM     64  C   UNL A   1      43.900  31.014  29.035  1.00  0.00     0.074 A 
ATOM     65  C   UNL A   1      42.895  31.879  29.619  1.00  0.00     0.031 C 
ATOM     66  C   UNL A   1      45.162  31.407  28.730  1.00  0.00     0.037 A 
BRANCH  53  67
ATOM     67  C   UNL A   1      48.717  26.939  26.360  1.00  0.00     0.064 A 
ATOM     68  C   UNL A   1      49.694  26.409  27.219  1.00  0.00     0.173 A 
ATOM     69  C   UNL A   1      49.033  27.039  24.996  1.00  0.00     0.173 A 
ATOM     70  F   UNL A   1      49.451  26.304  28.534  1.00  0.00    -0.203 F 
ATOM     71  C   UNL A   1      50.944  26.029  26.738  1.00  0.00     0.198 A 
ATOM     72  C   UNL A   1      50.271  26.623  24.512  1.00  0.00     0.198 A 
ATOM     73  F   UNL A   1      48.138  27.533  24.128  1.00  0.00    -0.203 F 
ATOM     74  F   UNL A   1      51.879  25.581  27.587  1.00  0.00    -0.200 F 
ATOM     75  C   UNL A   1      51.229  26.127  25.385  1.00  0.00     0.200 A 
ATOM     76  F   UNL A   1      50.539  26.704  23.203  1.00  0.00    -0.200 F 
ATOM     77  F   UNL A   1      52.429  25.751  24.922  1.00  0.00    -0.200 F 
ENDBRANCH  53  67
BRANCH  54  78
ATOM     78  C   UNL A   1      39.643  29.203  29.928  1.00  0.00     0.064 A 
ATOM     79  C   UNL A   1      39.344  28.955  31.275  1.00  0.00     0.173 A 
ATOM     80  C   UNL A   1      38.639  29.777  29.134  1.00  0.00     0.173 A 
ATOM     81  F   UNL A   1      40.264  28.393  32.073  1.00  0.00    -0.203 F 
ATOM     82  C   UNL A   1      38.084  29.243  31.799  1.00  0.00     0.198 A 
ATOM     83  C   UNL A   1      37.392  30.094  29.666  1.00  0.00     0.198 A 
ATOM     84  F   UNL A   1      38.875  30.043  27.841  1.00  0.00    -0.203 F 
ATOM     85  F   UNL A   1      37.810  28.948  33.077  1.00  0.00    -0.200 F 
ATOM     86  C   UNL A   1      37.112  29.818  30.996  1.00  0.00     0.200 A 
ATOM     87  F   UNL A   1      36.461  30.668  28.891  1.00  0.00    -0.200 F 
ATOM     88  F   UNL A   1      35.903  30.100  31.501  1.00  0.00    -0.200 F 
ENDBRANCH  54  78
BRANCH  66  89
ATOM     89  C   UNL A   1      45.514  32.846  28.979  1.00  0.00     0.064 A 
ATOM     90  C   UNL A   1      46.107  33.267  30.178  1.00  0.00     0.173 A 
ATOM     91  C   UNL A   1      45.290  33.810  27.983  1.00  0.00     0.173 A 
ATOM     92  F   UNL A   1      46.330  32.388  31.167  1.00  0.00    -0.203 F 
ATOM     93  C   UNL A   1      46.431  34.605  30.383  1.00  0.00     0.198 A 
ATOM     94  C   UNL A   1      45.650  35.139  28.178  1.00  0.00     0.198 A 
ATOM     95  F   UNL A   1      44.734  33.457  26.813  1.00  0.00    -0.203 F 
ATOM     96  F   UNL A   1      46.944  34.995  31.558  1.00  0.00    -0.200 F 
ATOM     97  C   UNL A   1      46.211  35.538  29.380  1.00  0.00     0.200 A 
ATOM     98  F   UNL A   1      45.453  36.035  27.200  1.00  0.00    -0.200 F 
ATOM     99  F   UNL A   1      46.533  36.824  29.577  1.00  0.00    -0.200 F 
ENDBRANCH  66  89
ENDBRANCH  40  41
ENDBRANCH  32  35
ENDBRANCH  30  31
ENDBRANCH  29  30
ENDBRANCH   1  29
TORSDOF 14
ENDMDL
