MODEL 1
REMARK VINA RESULT:     -13.5      0.000      0.000
REMARK SMILES Cc1c(CC(=O)NCCCNC(=O)c2ccc(-c3c4nc(c(-c5c(F)c(F)c(F)c(F)c5F)c5ccc([nH]5)c(-c5c(F)c(F)c(F)c(F)c5F)c5nc(c(-c6c(F)c(F)c(F)c(F)c6F)c6ccc3[nH]6)C=C5)C=C4)cc2)cc(-c2ccc(S(C)(=O)=O)cc2)n1-c1cccc(F)c1
REMARK SMILES IDX 8 1 7 2 5 3 6 4 4 6 3 7 1 8 2 9 89 10 77 11 78 12 90 13
REMARK SMILES IDX 91 14 96 15 92 16 94 17 93 18 95 19 79 20 80 21 88 22 81 23
REMARK SMILES IDX 87 24 82 25 83 26 84 27 85 28 86 29 9 30 10 31 11 32 12 33
REMARK SMILES IDX 13 35 14 36 15 37 76 38 16 39 75 40 17 41 18 42 19 43 69 44
REMARK SMILES IDX 20 45 74 46 68 47 70 48 21 49 73 50 67 51 66 52 22 54 54 55
REMARK SMILES IDX 34 56 53 57 35 58 38 59 52 60 71 61 36 62 37 63 51 65 72 66
REMARK SMILES IDX 39 67 23 68 24 69 32 70 25 71 26 72 30 73 33 74 27 75 28 76
REMARK SMILES IDX 31 77 29 78 55 79 56 80 64 81 57 82 58 83 62 84 65 85 59 86
REMARK SMILES IDX 60 87 63 88 61 89 40 90 41 91 49 92 42 93 43 94 47 95 50 96
REMARK SMILES IDX 44 97 45 98 48 99 46 100
REMARK H PARENT 7 5 11 34 70 53 38 64
REMARK Flexibility Score: inf
ROOT
ATOM      1  C   UNL A   1      31.642  27.932  26.547  1.00  0.00     0.117 C 
ENDROOT
BRANCH   1   2
ATOM      2  N   UNL A   1      30.669  26.914  26.902  1.00  0.00    -0.356 N 
ATOM      3  C   UNL A   1      30.080  25.935  26.155  1.00  0.00     0.224 C 
ATOM      4  O   UNL A   1      29.222  25.240  26.707  1.00  0.00    -0.275 OA
ATOM      5  H   UNL A   1      30.384  26.934  27.843  1.00  0.00     0.163 HD
BRANCH   3   6
ATOM      6  C   UNL A   1      30.499  25.670  24.720  1.00  0.00     0.137 C 
BRANCH   6   7
ATOM      7  C   UNL A   1      31.580  24.644  24.575  1.00  0.00    -0.017 A 
ATOM      8  C   UNL A   1      33.697  26.133  24.663  1.00  0.00     0.065 C 
ATOM      9  C   UNL A   1      32.956  24.836  24.595  1.00  0.00     0.024 A 
ATOM     10  N   UNL A   1      33.574  23.593  24.479  1.00  0.00    -0.313 N 
ATOM     11  C   UNL A   1      31.364  23.262  24.349  1.00  0.00     0.033 A 
ATOM     12  C   UNL A   1      32.587  22.617  24.339  1.00  0.00     0.053 A 
BRANCH  10  13
ATOM     13  C   UNL A   1      34.974  23.348  24.519  1.00  0.00     0.049 A 
ATOM     14  C   UNL A   1      35.613  22.785  23.406  1.00  0.00     0.027 A 
ATOM     15  C   UNL A   1      35.696  23.627  25.684  1.00  0.00     0.065 A 
ATOM     16  C   UNL A   1      36.980  22.508  23.456  1.00  0.00     0.005 A 
ATOM     17  C   UNL A   1      37.051  23.323  25.723  1.00  0.00     0.125 A 
ATOM     18  C   UNL A   1      37.700  22.773  24.621  1.00  0.00     0.039 A 
ATOM     19  F   UNL A   1      37.743  23.547  26.848  1.00  0.00    -0.207 F 
ENDBRANCH  10  13
BRANCH  12  20
ATOM     20  C   UNL A   1      32.810  21.166  24.354  1.00  0.00    -0.001 A 
ATOM     21  C   UNL A   1      33.379  20.545  25.477  1.00  0.00     0.011 A 
ATOM     22  C   UNL A   1      32.399  20.376  23.272  1.00  0.00     0.011 A 
ATOM     23  C   UNL A   1      33.560  19.161  25.510  1.00  0.00     0.021 A 
ATOM     24  C   UNL A   1      32.578  18.991  23.297  1.00  0.00     0.021 A 
ATOM     25  C   UNL A   1      33.166  18.392  24.414  1.00  0.00     0.067 A 
BRANCH  25  26
ATOM     26  S   UNL A   1      33.361  16.627  24.479  1.00  0.00     0.175 S 
ATOM     27  C   UNL A   1      34.881  16.391  25.363  1.00  0.00     0.163 C 
ATOM     28  O   UNL A   1      32.275  16.116  25.301  1.00  0.00    -0.224 OA
ATOM     29  O   UNL A   1      33.561  16.153  23.128  1.00  0.00    -0.224 OA
ENDBRANCH  25  26
ENDBRANCH  12  20
ENDBRANCH   6   7
ENDBRANCH   3   6
ENDBRANCH   1   2
BRANCH   1  30
ATOM     30  C   UNL A   1      32.700  28.194  27.631  1.00  0.00     0.042 C 
BRANCH  30  31
ATOM     31  C   UNL A   1      33.867  29.124  27.258  1.00  0.00     0.118 C 
BRANCH  31  32
ATOM     32  N   UNL A   1      33.661  30.520  27.590  1.00  0.00    -0.352 N 
ATOM     33  C   UNL A   1      34.549  31.372  28.224  1.00  0.00     0.251 C 
ATOM     34  H   UNL A   1      32.793  30.905  27.336  1.00  0.00     0.163 HD
ATOM     35  O   UNL A   1      34.252  32.557  28.354  1.00  0.00    -0.269 OA
BRANCH  33  36
ATOM     36  C   UNL A   1      35.831  30.864  28.816  1.00  0.00     0.039 A 
ATOM     37  C   UNL A   1      36.999  30.993  28.076  1.00  0.00     0.014 A 
ATOM     38  C   UNL A   1      35.881  30.066  29.970  1.00  0.00     0.014 A 
ATOM     39  C   UNL A   1      38.194  30.364  28.511  1.00  0.00     0.010 A 
ATOM     40  C   UNL A   1      37.081  29.371  30.369  1.00  0.00     0.010 A 
ATOM     41  C   UNL A   1      38.279  29.478  29.637  1.00  0.00    -0.014 A 
BRANCH  41  42
ATOM     42  C   UNL A   1      39.385  28.364  29.545  1.00  0.00     0.031 A 
ATOM     43  C   UNL A   1      40.156  28.542  30.812  1.00  0.00     0.074 A 
ATOM     44  C   UNL A   1      39.874  27.397  28.683  1.00  0.00     0.049 A 
ATOM     45  N   UNL A   1      40.711  29.687  31.108  1.00  0.00    -0.248 NA
ATOM     46  C   UNL A   1      40.007  27.618  31.937  1.00  0.00     0.031 C 
ATOM     47  C   UNL A   1      39.437  27.108  27.310  1.00  0.00     0.029 A 
ATOM     48  N   UNL A   1      40.890  26.413  28.837  1.00  0.00    -0.354 N 
ATOM     49  C   UNL A   1      41.235  29.532  32.370  1.00  0.00     0.074 A 
ATOM     50  C   UNL A   1      40.570  28.351  32.902  1.00  0.00     0.031 C 
ATOM     51  C   UNL A   1      40.047  25.990  26.818  1.00  0.00     0.029 A 
ATOM     52  C   UNL A   1      41.002  25.449  27.783  1.00  0.00     0.049 A 
ATOM     53  H   UNL A   1      41.482  26.396  29.624  1.00  0.00     0.167 HD
ATOM     54  C   UNL A   1      42.543  29.885  32.519  1.00  0.00     0.037 A 
ATOM     55  C   UNL A   1      41.825  24.339  27.652  1.00  0.00     0.037 A 
ATOM     56  C   UNL A   1      43.411  28.741  32.513  1.00  0.00     0.049 A 
ATOM     57  C   UNL A   1      42.975  24.546  28.541  1.00  0.00     0.074 A 
ATOM     58  C   UNL A   1      43.365  27.523  33.161  1.00  0.00     0.029 A 
ATOM     59  N   UNL A   1      44.225  28.574  31.414  1.00  0.00    -0.354 N 
ATOM     60  N   UNL A   1      43.959  25.326  28.217  1.00  0.00    -0.248 NA
ATOM     61  C   UNL A   1      43.141  23.805  29.788  1.00  0.00     0.031 C 
ATOM     62  C   UNL A   1      43.697  26.579  32.163  1.00  0.00     0.029 A 
ATOM     63  C   UNL A   1      44.278  27.237  31.087  1.00  0.00     0.049 A 
ATOM     64  H   UNL A   1      44.696  29.296  30.939  1.00  0.00     0.167 HD
ATOM     65  C   UNL A   1      44.560  25.564  29.411  1.00  0.00     0.074 A 
ATOM     66  C   UNL A   1      44.236  24.420  30.240  1.00  0.00     0.031 C 
ATOM     67  C   UNL A   1      44.692  26.866  29.757  1.00  0.00     0.037 A 
BRANCH  54  68
ATOM     68  C   UNL A   1      42.894  31.211  31.919  1.00  0.00     0.064 A 
ATOM     69  C   UNL A   1      43.168  32.284  32.771  1.00  0.00     0.173 A 
ATOM     70  C   UNL A   1      42.849  31.472  30.536  1.00  0.00     0.173 A 
ATOM     71  F   UNL A   1      43.289  32.080  34.092  1.00  0.00    -0.203 F 
ATOM     72  C   UNL A   1      43.326  33.575  32.269  1.00  0.00     0.198 A 
ATOM     73  C   UNL A   1      42.946  32.768  30.043  1.00  0.00     0.198 A 
ATOM     74  F   UNL A   1      42.740  30.467  29.650  1.00  0.00    -0.203 F 
ATOM     75  F   UNL A   1      43.620  34.584  33.100  1.00  0.00    -0.200 F 
ATOM     76  C   UNL A   1      43.179  33.820  30.911  1.00  0.00     0.200 A 
ATOM     77  F   UNL A   1      42.823  32.992  28.726  1.00  0.00    -0.200 F 
ATOM     78  F   UNL A   1      43.291  35.068  30.435  1.00  0.00    -0.200 F 
ENDBRANCH  54  68
BRANCH  55  79
ATOM     79  C   UNL A   1      42.040  23.065  26.822  1.00  0.00     0.064 A 
ATOM     80  C   UNL A   1      43.086  22.993  25.838  1.00  0.00     0.173 A 
ATOM     81  C   UNL A   1      41.553  21.816  27.223  1.00  0.00     0.173 A 
ATOM     82  F   UNL A   1      43.630  24.100  25.314  1.00  0.00    -0.203 F 
ATOM     83  C   UNL A   1      43.675  21.795  25.412  1.00  0.00     0.198 A 
ATOM     84  C   UNL A   1      42.123  20.605  26.758  1.00  0.00     0.198 A 
ATOM     85  F   UNL A   1      40.585  21.740  28.145  1.00  0.00    -0.203 F 
ATOM     86  F   UNL A   1      44.744  21.822  24.599  1.00  0.00    -0.200 F 
ATOM     87  C   UNL A   1      43.204  20.597  25.888  1.00  0.00     0.200 A 
ATOM     88  F   UNL A   1      41.663  19.432  27.219  1.00  0.00    -0.200 F 
ATOM     89  F   UNL A   1      43.806  19.449  25.540  1.00  0.00    -0.200 F 
ENDBRANCH  55  79
BRANCH  67  90
ATOM     90  C   UNL A   1      45.114  27.822  28.652  1.00  0.00     0.064 A 
ATOM     91  C   UNL A   1      46.438  28.144  28.258  1.00  0.00     0.173 A 
ATOM     92  C   UNL A   1      44.095  28.539  28.010  1.00  0.00     0.173 A 
ATOM     93  F   UNL A   1      47.500  27.450  28.689  1.00  0.00    -0.203 F 
ATOM     94  C   UNL A   1      46.708  29.190  27.369  1.00  0.00     0.198 A 
ATOM     95  C   UNL A   1      44.367  29.540  27.077  1.00  0.00     0.198 A 
ATOM     96  F   UNL A   1      42.810  28.260  28.279  1.00  0.00    -0.203 F 
ATOM     97  F   UNL A   1      47.978  29.520  27.084  1.00  0.00    -0.200 F 
ATOM     98  C   UNL A   1      45.672  29.889  26.781  1.00  0.00     0.200 A 
ATOM     99  F   UNL A   1      43.352  30.171  26.470  1.00  0.00    -0.200 F 
ATOM    100  F   UNL A   1      45.927  30.880  25.917  1.00  0.00    -0.200 F 
ENDBRANCH  67  90
ENDBRANCH  41  42
ENDBRANCH  33  36
ENDBRANCH  31  32
ENDBRANCH  30  31
ENDBRANCH   1  30
TORSDOF 14
ENDMDL
MODEL 2
REMARK VINA RESULT:     -12.5      1.182      2.264
REMARK SMILES Cc1c(CC(=O)NCCCNC(=O)c2ccc(-c3c4nc(c(-c5c(F)c(F)c(F)c(F)c5F)c5ccc([nH]5)c(-c5c(F)c(F)c(F)c(F)c5F)c5nc(c(-c6c(F)c(F)c(F)c(F)c6F)c6ccc3[nH]6)C=C5)C=C4)cc2)cc(-c2ccc(S(C)(=O)=O)cc2)n1-c1cccc(F)c1
REMARK SMILES IDX 8 1 7 2 5 3 6 4 4 6 3 7 1 8 2 9 89 10 77 11 78 12 90 13
REMARK SMILES IDX 91 14 96 15 92 16 94 17 93 18 95 19 79 20 80 21 88 22 81 23
REMARK SMILES IDX 87 24 82 25 83 26 84 27 85 28 86 29 9 30 10 31 11 32 12 33
REMARK SMILES IDX 13 35 14 36 15 37 76 38 16 39 75 40 17 41 18 42 19 43 69 44
REMARK SMILES IDX 20 45 74 46 68 47 70 48 21 49 73 50 67 51 66 52 22 54 54 55
REMARK SMILES IDX 34 56 53 57 35 58 38 59 52 60 71 61 36 62 37 63 51 65 72 66
REMARK SMILES IDX 39 67 23 68 24 69 32 70 25 71 26 72 30 73 33 74 27 75 28 76
REMARK SMILES IDX 31 77 29 78 55 79 56 80 64 81 57 82 58 83 62 84 65 85 59 86
REMARK SMILES IDX 60 87 63 88 61 89 40 90 41 91 49 92 42 93 43 94 47 95 50 96
REMARK SMILES IDX 44 97 45 98 48 99 46 100
REMARK H PARENT 7 5 11 34 70 53 38 64
REMARK Flexibility Score: inf
ROOT
ATOM      1  C   UNL A   1      31.489  29.133  26.044  1.00  0.00     0.117 C 
ENDROOT
BRANCH   1   2
ATOM      2  N   UNL A   1      31.065  28.751  24.709  1.00  0.00    -0.356 N 
ATOM      3  C   UNL A   1      30.687  27.544  24.197  1.00  0.00     0.224 C 
ATOM      4  O   UNL A   1      30.438  27.493  22.989  1.00  0.00    -0.275 OA
ATOM      5  H   UNL A   1      31.049  29.491  24.060  1.00  0.00     0.163 HD
BRANCH   3   6
ATOM      6  C   UNL A   1      30.524  26.322  25.083  1.00  0.00     0.137 C 
BRANCH   6   7
ATOM      7  C   UNL A   1      31.545  25.252  24.849  1.00  0.00    -0.017 A 
ATOM      8  C   UNL A   1      33.738  26.630  24.918  1.00  0.00     0.065 C 
ATOM      9  C   UNL A   1      32.930  25.375  24.822  1.00  0.00     0.024 A 
ATOM     10  N   UNL A   1      33.479  24.110  24.626  1.00  0.00    -0.313 N 
ATOM     11  C   UNL A   1      31.251  23.894  24.570  1.00  0.00     0.033 A 
ATOM     12  C   UNL A   1      32.438  23.191  24.484  1.00  0.00     0.053 A 
BRANCH  10  13
ATOM     13  C   UNL A   1      34.864  23.795  24.600  1.00  0.00     0.049 A 
ATOM     14  C   UNL A   1      35.409  23.147  23.482  1.00  0.00     0.027 A 
ATOM     15  C   UNL A   1      35.667  24.092  25.707  1.00  0.00     0.065 A 
ATOM     16  C   UNL A   1      36.761  22.803  23.469  1.00  0.00     0.005 A 
ATOM     17  C   UNL A   1      37.006  23.720  25.684  1.00  0.00     0.125 A 
ATOM     18  C   UNL A   1      37.561  23.085  24.577  1.00  0.00     0.039 A 
ATOM     19  F   UNL A   1      37.773  23.961  26.755  1.00  0.00    -0.207 F 
ENDBRANCH  10  13
BRANCH  12  20
ATOM     20  C   UNL A   1      32.588  21.731  24.425  1.00  0.00    -0.001 A 
ATOM     21  C   UNL A   1      32.208  21.024  23.272  1.00  0.00     0.011 A 
ATOM     22  C   UNL A   1      33.169  21.036  25.493  1.00  0.00     0.011 A 
ATOM     23  C   UNL A   1      32.381  19.641  23.197  1.00  0.00     0.021 A 
ATOM     24  C   UNL A   1      33.344  19.651  25.426  1.00  0.00     0.021 A 
ATOM     25  C   UNL A   1      32.941  18.961  24.280  1.00  0.00     0.067 A 
BRANCH  25  26
ATOM     26  S   UNL A   1      33.197  17.206  24.163  1.00  0.00     0.175 S 
ATOM     27  C   UNL A   1      34.852  16.969  24.756  1.00  0.00     0.163 C 
ATOM     28  O   UNL A   1      32.283  16.586  25.110  1.00  0.00    -0.224 OA
ATOM     29  O   UNL A   1      33.178  16.848  22.763  1.00  0.00    -0.224 OA
ENDBRANCH  25  26
ENDBRANCH  12  20
ENDBRANCH   6   7
ENDBRANCH   3   6
ENDBRANCH   1   2
BRANCH   1  30
ATOM     30  C   UNL A   1      32.460  30.324  26.079  1.00  0.00     0.042 C 
BRANCH  30  31
ATOM     31  C   UNL A   1      33.739  30.159  26.917  1.00  0.00     0.118 C 
BRANCH  31  32
ATOM     32  N   UNL A   1      33.798  30.986  28.105  1.00  0.00    -0.352 N 
ATOM     33  C   UNL A   1      34.928  31.378  28.801  1.00  0.00     0.251 C 
ATOM     34  H   UNL A   1      32.936  31.306  28.457  1.00  0.00     0.163 HD
ATOM     35  O   UNL A   1      34.811  32.155  29.745  1.00  0.00    -0.269 OA
BRANCH  33  36
ATOM     36  C   UNL A   1      36.280  30.817  28.472  1.00  0.00     0.039 A 
ATOM     37  C   UNL A   1      36.349  29.587  27.829  1.00  0.00     0.014 A 
ATOM     38  C   UNL A   1      37.477  31.352  28.973  1.00  0.00     0.014 A 
ATOM     39  C   UNL A   1      37.597  28.934  27.666  1.00  0.00     0.010 A 
ATOM     40  C   UNL A   1      38.734  30.650  28.867  1.00  0.00     0.010 A 
ATOM     41  C   UNL A   1      38.834  29.400  28.227  1.00  0.00    -0.014 A 
BRANCH  41  42
ATOM     42  C   UNL A   1      39.885  28.285  28.581  1.00  0.00     0.031 A 
ATOM     43  C   UNL A   1      40.361  28.684  29.940  1.00  0.00     0.074 A 
ATOM     44  C   UNL A   1      40.512  27.179  28.032  1.00  0.00     0.049 A 
ATOM     45  N   UNL A   1      40.885  29.862  30.151  1.00  0.00    -0.248 NA
ATOM     46  C   UNL A   1      39.927  27.975  31.144  1.00  0.00     0.031 C 
ATOM     47  C   UNL A   1      40.379  26.652  26.667  1.00  0.00     0.029 A 
ATOM     48  N   UNL A   1      41.426  26.236  28.580  1.00  0.00    -0.354 N 
ATOM     49  C   UNL A   1      41.108  29.932  31.506  1.00  0.00     0.074 A 
ATOM     50  C   UNL A   1      40.292  28.866  32.070  1.00  0.00     0.031 C 
ATOM     51  C   UNL A   1      41.035  25.463  26.527  1.00  0.00     0.029 A 
ATOM     52  C   UNL A   1      41.729  25.099  27.761  1.00  0.00     0.049 A 
ATOM     53  H   UNL A   1      41.826  26.357  29.471  1.00  0.00     0.167 HD
ATOM     54  C   UNL A   1      42.363  30.303  31.885  1.00  0.00     0.037 A 
ATOM     55  C   UNL A   1      42.512  23.983  28.014  1.00  0.00     0.037 A 
ATOM     56  C   UNL A   1      43.162  29.174  32.273  1.00  0.00     0.049 A 
ATOM     57  C   UNL A   1      43.443  24.341  29.091  1.00  0.00     0.074 A 
ATOM     58  C   UNL A   1      42.921  28.091  33.094  1.00  0.00     0.029 A 
ATOM     59  N   UNL A   1      44.193  28.812  31.433  1.00  0.00    -0.354 N 
ATOM     60  N   UNL A   1      44.507  25.049  28.868  1.00  0.00    -0.248 NA
ATOM     61  C   UNL A   1      43.296  23.833  30.451  1.00  0.00     0.031 C 
ATOM     62  C   UNL A   1      43.427  26.984  32.376  1.00  0.00     0.029 A 
ATOM     63  C   UNL A   1      44.260  27.439  31.361  1.00  0.00     0.049 A 
ATOM     64  H   UNL A   1      44.787  29.437  30.959  1.00  0.00     0.167 HD
ATOM     65  C   UNL A   1      44.836  25.494  30.107  1.00  0.00     0.074 A 
ATOM     66  C   UNL A   1      44.288  24.516  31.026  1.00  0.00     0.031 C 
ATOM     67  C   UNL A   1      44.943  26.836  30.244  1.00  0.00     0.037 A 
BRANCH  54  68
ATOM     68  C   UNL A   1      42.896  31.500  31.161  1.00  0.00     0.064 A 
ATOM     69  C   UNL A   1      43.421  31.333  29.877  1.00  0.00     0.173 A 
ATOM     70  C   UNL A   1      43.007  32.776  31.750  1.00  0.00     0.173 A 
ATOM     71  F   UNL A   1      43.283  30.159  29.242  1.00  0.00    -0.203 F 
ATOM     72  C   UNL A   1      44.086  32.376  29.234  1.00  0.00     0.198 A 
ATOM     73  C   UNL A   1      43.723  33.795  31.133  1.00  0.00     0.198 A 
ATOM     74  F   UNL A   1      42.396  33.049  32.915  1.00  0.00    -0.203 F 
ATOM     75  F   UNL A   1      44.553  32.204  27.990  1.00  0.00    -0.200 F 
ATOM     76  C   UNL A   1      44.268  33.593  29.877  1.00  0.00     0.200 A 
ATOM     77  F   UNL A   1      43.876  34.974  31.755  1.00  0.00    -0.200 F 
ATOM     78  F   UNL A   1      44.943  34.581  29.273  1.00  0.00    -0.200 F 
ENDBRANCH  54  68
BRANCH  55  79
ATOM     79  C   UNL A   1      42.852  22.580  27.486  1.00  0.00     0.064 A 
ATOM     80  C   UNL A   1      41.879  21.523  27.523  1.00  0.00     0.173 A 
ATOM     81  C   UNL A   1      43.908  22.347  26.598  1.00  0.00     0.173 A 
ATOM     82  F   UNL A   1      40.828  21.568  28.354  1.00  0.00    -0.203 F 
ATOM     83  C   UNL A   1      41.892  20.420  26.659  1.00  0.00     0.198 A 
ATOM     84  C   UNL A   1      43.940  21.209  25.754  1.00  0.00     0.198 A 
ATOM     85  F   UNL A   1      44.877  23.261  26.457  1.00  0.00    -0.203 F 
ATOM     86  F   UNL A   1      40.867  19.551  26.660  1.00  0.00    -0.200 F 
ATOM     87  C   UNL A   1      42.917  20.272  25.758  1.00  0.00     0.200 A 
ATOM     88  F   UNL A   1      44.942  21.060  24.875  1.00  0.00    -0.200 F 
ATOM     89  F   UNL A   1      42.902  19.258  24.879  1.00  0.00    -0.200 F 
ENDBRANCH  55  79
BRANCH  67  90
ATOM     90  C   UNL A   1      45.641  27.580  29.116  1.00  0.00     0.064 A 
ATOM     91  C   UNL A   1      45.091  27.937  27.858  1.00  0.00     0.173 A 
ATOM     92  C   UNL A   1      47.002  27.866  29.291  1.00  0.00     0.173 A 
ATOM     93  F   UNL A   1      43.780  27.844  27.599  1.00  0.00    -0.203 F 
ATOM     94  C   UNL A   1      45.887  28.436  26.822  1.00  0.00     0.198 A 
ATOM     95  C   UNL A   1      47.779  28.423  28.275  1.00  0.00     0.198 A 
ATOM     96  F   UNL A   1      47.591  27.614  30.470  1.00  0.00    -0.203 F 
ATOM     97  F   UNL A   1      45.347  28.684  25.618  1.00  0.00    -0.200 F 
ATOM     98  C   UNL A   1      47.231  28.677  27.031  1.00  0.00     0.200 A 
ATOM     99  F   UNL A   1      49.068  28.706  28.509  1.00  0.00    -0.200 F 
ATOM    100  F   UNL A   1      47.992  29.172  26.046  1.00  0.00    -0.200 F 
ENDBRANCH  67  90
ENDBRANCH  41  42
ENDBRANCH  33  36
ENDBRANCH  31  32
ENDBRANCH  30  31
ENDBRANCH   1  30
TORSDOF 14
ENDMDL
MODEL 3
REMARK VINA RESULT:     -12.4      5.417     11.872
REMARK SMILES Cc1c(CC(=O)NCCCNC(=O)c2ccc(-c3c4nc(c(-c5c(F)c(F)c(F)c(F)c5F)c5ccc([nH]5)c(-c5c(F)c(F)c(F)c(F)c5F)c5nc(c(-c6c(F)c(F)c(F)c(F)c6F)c6ccc3[nH]6)C=C5)C=C4)cc2)cc(-c2ccc(S(C)(=O)=O)cc2)n1-c1cccc(F)c1
REMARK SMILES IDX 8 1 7 2 5 3 6 4 4 6 3 7 1 8 2 9 89 10 77 11 78 12 90 13
REMARK SMILES IDX 91 14 96 15 92 16 94 17 93 18 95 19 79 20 80 21 88 22 81 23
REMARK SMILES IDX 87 24 82 25 83 26 84 27 85 28 86 29 9 30 10 31 11 32 12 33
REMARK SMILES IDX 13 35 14 36 15 37 76 38 16 39 75 40 17 41 18 42 19 43 69 44
REMARK SMILES IDX 20 45 74 46 68 47 70 48 21 49 73 50 67 51 66 52 22 54 54 55
REMARK SMILES IDX 34 56 53 57 35 58 38 59 52 60 71 61 36 62 37 63 51 65 72 66
REMARK SMILES IDX 39 67 23 68 24 69 32 70 25 71 26 72 30 73 33 74 27 75 28 76
REMARK SMILES IDX 31 77 29 78 55 79 56 80 64 81 57 82 58 83 62 84 65 85 59 86
REMARK SMILES IDX 60 87 63 88 61 89 40 90 41 91 49 92 42 93 43 94 47 95 50 96
REMARK SMILES IDX 44 97 45 98 48 99 46 100
REMARK H PARENT 7 5 11 34 70 53 38 64
REMARK Flexibility Score: inf
ROOT
ATOM      1  C   UNL A   1      42.927  20.750  26.129  1.00  0.00     0.117 C 
ENDROOT
BRANCH   1   2
ATOM      2  N   UNL A   1      42.866  21.956  25.323  1.00  0.00    -0.356 N 
ATOM      3  C   UNL A   1      43.437  23.183  25.498  1.00  0.00     0.224 C 
ATOM      4  O   UNL A   1      43.157  24.061  24.677  1.00  0.00    -0.275 OA
ATOM      5  H   UNL A   1      42.317  21.875  24.510  1.00  0.00     0.163 HD
BRANCH   3   6
ATOM      6  C   UNL A   1      44.421  23.448  26.623  1.00  0.00     0.137 C 
BRANCH   6   7
ATOM      7  C   UNL A   1      45.307  24.634  26.397  1.00  0.00    -0.017 A 
ATOM      8  C   UNL A   1      44.177  26.400  27.919  1.00  0.00     0.065 C 
ATOM      9  C   UNL A   1      45.231  25.890  26.987  1.00  0.00     0.024 A 
ATOM     10  N   UNL A   1      46.293  26.660  26.519  1.00  0.00    -0.313 N 
ATOM     11  C   UNL A   1      46.389  24.679  25.482  1.00  0.00     0.033 A 
ATOM     12  C   UNL A   1      47.018  25.904  25.597  1.00  0.00     0.053 A 
BRANCH  10  13
ATOM     13  C   UNL A   1      46.609  27.985  26.927  1.00  0.00     0.049 A 
ATOM     14  C   UNL A   1      46.167  29.072  26.159  1.00  0.00     0.027 A 
ATOM     15  C   UNL A   1      47.396  28.195  28.064  1.00  0.00     0.065 A 
ATOM     16  C   UNL A   1      46.506  30.372  26.535  1.00  0.00     0.005 A 
ATOM     17  C   UNL A   1      47.743  29.496  28.408  1.00  0.00     0.125 A 
ATOM     18  C   UNL A   1      47.302  30.584  27.661  1.00  0.00     0.039 A 
ATOM     19  F   UNL A   1      48.532  29.705  29.471  1.00  0.00    -0.207 F 
ENDBRANCH  10  13
BRANCH  12  20
ATOM     20  C   UNL A   1      48.302  26.287  24.997  1.00  0.00    -0.001 A 
ATOM     21  C   UNL A   1      49.506  26.039  25.676  1.00  0.00     0.011 A 
ATOM     22  C   UNL A   1      48.344  26.847  23.714  1.00  0.00     0.011 A 
ATOM     23  C   UNL A   1      50.732  26.368  25.095  1.00  0.00     0.021 A 
ATOM     24  C   UNL A   1      49.567  27.181  23.126  1.00  0.00     0.021 A 
ATOM     25  C   UNL A   1      50.754  26.946  23.825  1.00  0.00     0.067 A 
BRANCH  25  26
ATOM     26  S   UNL A   1      52.319  27.325  23.073  1.00  0.00     0.175 S 
ATOM     27  C   UNL A   1      52.174  26.688  21.423  1.00  0.00     0.163 C 
ATOM     28  O   UNL A   1      52.404  28.776  22.992  1.00  0.00    -0.224 OA
ATOM     29  O   UNL A   1      53.336  26.555  23.752  1.00  0.00    -0.224 OA
ENDBRANCH  25  26
ENDBRANCH  12  20
ENDBRANCH   6   7
ENDBRANCH   3   6
ENDBRANCH   1   2
BRANCH   1  30
ATOM     30  C   UNL A   1      41.621  20.424  26.873  1.00  0.00     0.042 C 
BRANCH  30  31
ATOM     31  C   UNL A   1      40.799  21.615  27.394  1.00  0.00     0.118 C 
BRANCH  31  32
ATOM     32  N   UNL A   1      39.565  21.863  26.675  1.00  0.00    -0.352 N 
ATOM     33  C   UNL A   1      38.972  23.087  26.421  1.00  0.00     0.251 C 
ATOM     34  H   UNL A   1      39.096  21.071  26.327  1.00  0.00     0.163 HD
ATOM     35  O   UNL A   1      37.966  23.131  25.718  1.00  0.00    -0.269 OA
BRANCH  33  36
ATOM     36  C   UNL A   1      39.492  24.350  27.044  1.00  0.00     0.039 A 
ATOM     37  C   UNL A   1      39.005  24.723  28.290  1.00  0.00     0.014 A 
ATOM     38  C   UNL A   1      40.270  25.287  26.346  1.00  0.00     0.014 A 
ATOM     39  C   UNL A   1      39.325  25.994  28.832  1.00  0.00     0.010 A 
ATOM     40  C   UNL A   1      40.533  26.606  26.871  1.00  0.00     0.010 A 
ATOM     41  C   UNL A   1      40.049  27.015  28.128  1.00  0.00    -0.014 A 
BRANCH  41  42
ATOM     42  C   UNL A   1      39.693  28.496  28.521  1.00  0.00     0.031 A 
ATOM     43  C   UNL A   1      41.033  29.138  28.677  1.00  0.00     0.074 A 
ATOM     44  C   UNL A   1      38.609  29.302  28.822  1.00  0.00     0.049 A 
ATOM     45  N   UNL A   1      41.916  28.662  29.515  1.00  0.00    -0.248 NA
ATOM     46  C   UNL A   1      41.569  30.050  27.666  1.00  0.00     0.031 C 
ATOM     47  C   UNL A   1      37.196  28.914  28.921  1.00  0.00     0.029 A 
ATOM     48  N   UNL A   1      38.509  30.694  29.102  1.00  0.00    -0.354 N 
ATOM     49  C   UNL A   1      43.051  29.414  29.326  1.00  0.00     0.074 A 
ATOM     50  C   UNL A   1      42.852  30.067  28.040  1.00  0.00     0.031 C 
ATOM     51  C   UNL A   1      36.390  30.003  29.092  1.00  0.00     0.029 A 
ATOM     52  C   UNL A   1      37.181  31.228  29.188  1.00  0.00     0.049 A 
ATOM     53  H   UNL A   1      39.306  31.257  29.229  1.00  0.00     0.167 HD
ATOM     54  C   UNL A   1      43.604  29.950  30.450  1.00  0.00     0.037 A 
ATOM     55  C   UNL A   1      36.738  32.529  29.378  1.00  0.00     0.037 A 
ATOM     56  C   UNL A   1      43.263  31.336  30.608  1.00  0.00     0.049 A 
ATOM     57  C   UNL A   1      37.838  33.275  30.002  1.00  0.00     0.074 A 
ATOM     58  C   UNL A   1      43.273  32.410  29.742  1.00  0.00     0.029 A 
ATOM     59  N   UNL A   1      42.396  31.659  31.629  1.00  0.00    -0.354 N 
ATOM     60  N   UNL A   1      38.104  33.170  31.268  1.00  0.00    -0.248 NA
ATOM     61  C   UNL A   1      38.625  34.262  29.271  1.00  0.00     0.031 C 
ATOM     62  C   UNL A   1      42.049  33.072  29.986  1.00  0.00     0.029 A 
ATOM     63  C   UNL A   1      41.523  32.631  31.194  1.00  0.00     0.049 A 
ATOM     64  H   UNL A   1      42.401  31.258  32.528  1.00  0.00     0.167 HD
ATOM     65  C   UNL A   1      39.372  33.648  31.348  1.00  0.00     0.074 A 
ATOM     66  C   UNL A   1      39.516  34.550  30.223  1.00  0.00     0.031 C 
ATOM     67  C   UNL A   1      40.283  32.816  31.905  1.00  0.00     0.037 A 
BRANCH  54  68
ATOM     68  C   UNL A   1      43.747  28.984  31.586  1.00  0.00     0.064 A 
ATOM     69  C   UNL A   1      44.990  28.387  31.810  1.00  0.00     0.173 A 
ATOM     70  C   UNL A   1      42.664  28.549  32.374  1.00  0.00     0.173 A 
ATOM     71  F   UNL A   1      46.070  28.810  31.134  1.00  0.00    -0.203 F 
ATOM     72  C   UNL A   1      45.133  27.355  32.736  1.00  0.00     0.198 A 
ATOM     73  C   UNL A   1      42.794  27.479  33.252  1.00  0.00     0.198 A 
ATOM     74  F   UNL A   1      41.478  29.179  32.318  1.00  0.00    -0.203 F 
ATOM     75  F   UNL A   1      46.340  26.819  32.958  1.00  0.00    -0.200 F 
ATOM     76  C   UNL A   1      44.028  26.878  33.428  1.00  0.00     0.200 A 
ATOM     77  F   UNL A   1      41.724  27.040  33.932  1.00  0.00    -0.200 F 
ATOM     78  F   UNL A   1      44.159  25.859  34.288  1.00  0.00    -0.200 F 
ENDBRANCH  54  68
BRANCH  55  79
ATOM     79  C   UNL A   1      35.487  33.418  29.309  1.00  0.00     0.064 A 
ATOM     80  C   UNL A   1      34.692  33.665  30.481  1.00  0.00     0.173 A 
ATOM     81  C   UNL A   1      35.278  34.341  28.278  1.00  0.00     0.173 A 
ATOM     82  F   UNL A   1      34.739  32.849  31.542  1.00  0.00    -0.203 F 
ATOM     83  C   UNL A   1      33.883  34.797  30.650  1.00  0.00     0.198 A 
ATOM     84  C   UNL A   1      34.426  35.462  28.437  1.00  0.00     0.198 A 
ATOM     85  F   UNL A   1      35.966  34.233  27.134  1.00  0.00    -0.203 F 
ATOM     86  F   UNL A   1      33.285  35.027  31.831  1.00  0.00    -0.200 F 
ATOM     87  C   UNL A   1      33.764  35.708  29.631  1.00  0.00     0.200 A 
ATOM     88  F   UNL A   1      34.304  36.353  27.441  1.00  0.00    -0.200 F 
ATOM     89  F   UNL A   1      33.047  36.829  29.808  1.00  0.00    -0.200 F 
ENDBRANCH  55  79
BRANCH  67  90
ATOM     90  C   UNL A   1      39.834  32.045  33.137  1.00  0.00     0.064 A 
ATOM     91  C   UNL A   1      39.041  30.870  33.169  1.00  0.00     0.173 A 
ATOM     92  C   UNL A   1      40.156  32.599  34.384  1.00  0.00     0.173 A 
ATOM     93  F   UNL A   1      38.768  30.162  32.065  1.00  0.00    -0.203 F 
ATOM     94  C   UNL A   1      38.520  30.367  34.366  1.00  0.00     0.198 A 
ATOM     95  C   UNL A   1      39.686  32.057  35.580  1.00  0.00     0.198 A 
ATOM     96  F   UNL A   1      40.951  33.678  34.450  1.00  0.00    -0.203 F 
ATOM     97  F   UNL A   1      37.703  29.300  34.348  1.00  0.00    -0.200 F 
ATOM     98  C   UNL A   1      38.841  30.962  35.570  1.00  0.00     0.200 A 
ATOM     99  F   UNL A   1      40.053  32.609  36.745  1.00  0.00    -0.200 F 
ATOM    100  F   UNL A   1      38.358  30.471  36.719  1.00  0.00    -0.200 F 
ENDBRANCH  67  90
ENDBRANCH  41  42
ENDBRANCH  33  36
ENDBRANCH  31  32
ENDBRANCH  30  31
ENDBRANCH   1  30
TORSDOF 14
ENDMDL
