MODEL 1
REMARK VINA RESULT:     -11.8      0.000      0.000
REMARK SMILES CC(C)(C)[NH2+]Cc1cc(C(=O)NCCCNC(=O)c2ccc(-c3c4nc(c(-c5c(F)c(F)c(F)c(F)c5F)c5ccc([nH]5)c(-c5c(F)c(F)c(F)c(F)c5F)c5nc(c(-c6c(F)c(F)c(F)c(F)c6F)c6ccc3[nH]6)C=C5)C=C4)cc2)cs1
REMARK SMILES IDX 13 1 12 2 10 3 11 4 9 6 7 7 8 8 83 9 82 10 6 11 5 12 2 15
REMARK SMILES IDX 1 16 3 17 4 18 14 19 15 20 16 21 17 22 18 24 19 25 20 26
REMARK SMILES IDX 81 27 21 28 80 29 22 30 23 31 24 32 74 33 25 34 79 35 73 36
REMARK SMILES IDX 75 37 26 38 78 39 72 40 71 41 27 43 59 44 39 45 58 46 40 47
REMARK SMILES IDX 43 48 57 49 76 50 41 51 42 52 56 54 77 55 44 56 28 57 29 58
REMARK SMILES IDX 37 59 30 60 31 61 35 62 38 63 32 64 33 65 36 66 34 67 60 68
REMARK SMILES IDX 61 69 69 70 62 71 63 72 67 73 70 74 64 75 65 76 68 77 66 78
REMARK SMILES IDX 45 79 46 80 54 81 47 82 48 83 52 84 55 85 49 86 50 87 53 88
REMARK SMILES IDX 51 89
REMARK H PARENT 12 5 5 13 5 14 16 23 75 42 43 53
REMARK Flexibility Score: inf
ROOT
ATOM      1  C   UNL A   1      33.588  30.672  26.862  1.00  0.00     0.118 C 
ENDROOT
BRANCH   1   2
ATOM      2  N   UNL A   1      32.769  29.698  27.556  1.00  0.00    -0.352 N 
ATOM      3  C   UNL A   1      31.838  28.786  27.125  1.00  0.00     0.252 C 
ATOM      4  O   UNL A   1      31.211  28.189  28.001  1.00  0.00    -0.269 OA
ATOM      5  H   UNL A   1      32.908  29.688  28.529  1.00  0.00     0.163 HD
BRANCH   3   6
ATOM      6  C   UNL A   1      31.563  28.553  25.705  1.00  0.00     0.051 A 
ATOM      7  C   UNL A   1      30.922  28.848  23.449  1.00  0.00     0.059 A 
ATOM      8  C   UNL A   1      31.003  29.417  24.707  1.00  0.00     0.035 A 
ATOM      9  S   UNL A   1      31.529  27.252  23.456  1.00  0.00    -0.142 S 
ATOM     10  C   UNL A   1      31.940  27.358  25.110  1.00  0.00     0.079 A 
BRANCH   7  11
ATOM     11  C   UNL A   1      30.373  29.453  22.190  1.00  0.00     0.308 C 
BRANCH  11  12
ATOM     12  N   UNL A   1      29.903  30.828  22.349  1.00  0.00    -0.338 N 
ATOM     13  H   UNL A   1      30.192  31.138  23.276  1.00  0.00     0.347 HD
ATOM     14  H   UNL A   1      30.315  31.323  21.557  1.00  0.00     0.347 HD
BRANCH  12  15
ATOM     15  C   UNL A   1      28.462  31.104  22.229  1.00  0.00     0.088 C 
ATOM     16  C   UNL A   1      28.142  32.122  21.123  1.00  0.00     0.078 C 
ATOM     17  C   UNL A   1      27.831  31.558  23.555  1.00  0.00     0.078 C 
ATOM     18  C   UNL A   1      27.821  29.755  21.842  1.00  0.00     0.078 C 
ENDBRANCH  12  15
ENDBRANCH  11  12
ENDBRANCH   7  11
ENDBRANCH   3   6
ENDBRANCH   1   2
BRANCH   1  19
ATOM     19  C   UNL A   1      33.544  32.057  27.503  1.00  0.00     0.042 C 
BRANCH  19  20
ATOM     20  C   UNL A   1      32.202  32.766  27.329  1.00  0.00     0.118 C 
BRANCH  20  21
ATOM     21  N   UNL A   1      32.290  34.191  27.628  1.00  0.00    -0.352 N 
ATOM     22  C   UNL A   1      33.069  34.882  28.517  1.00  0.00     0.251 C 
ATOM     23  H   UNL A   1      31.682  34.755  27.097  1.00  0.00     0.163 HD
ATOM     24  O   UNL A   1      32.799  36.056  28.763  1.00  0.00    -0.269 OA
BRANCH  22  25
ATOM     25  C   UNL A   1      34.230  34.250  29.181  1.00  0.00     0.039 A 
ATOM     26  C   UNL A   1      34.013  33.501  30.343  1.00  0.00     0.014 A 
ATOM     27  C   UNL A   1      35.534  34.458  28.724  1.00  0.00     0.014 A 
ATOM     28  C   UNL A   1      35.091  32.924  31.017  1.00  0.00     0.010 A 
ATOM     29  C   UNL A   1      36.604  33.829  29.358  1.00  0.00     0.010 A 
ATOM     30  C   UNL A   1      36.395  33.065  30.516  1.00  0.00    -0.014 A 
BRANCH  30  31
ATOM     31  C   UNL A   1      37.556  32.436  31.195  1.00  0.00     0.031 A 
ATOM     32  C   UNL A   1      38.268  31.278  30.551  1.00  0.00     0.074 A 
ATOM     33  C   UNL A   1      37.919  32.860  32.420  1.00  0.00     0.049 A 
ATOM     34  N   UNL A   1      39.226  30.525  31.031  1.00  0.00    -0.248 NA
ATOM     35  C   UNL A   1      37.825  30.896  29.201  1.00  0.00     0.031 C 
ATOM     36  C   UNL A   1      37.278  33.945  33.165  1.00  0.00     0.029 A 
ATOM     37  N   UNL A   1      38.906  32.415  33.265  1.00  0.00    -0.354 N 
ATOM     38  C   UNL A   1      39.476  29.566  30.058  1.00  0.00     0.074 A 
ATOM     39  C   UNL A   1      38.551  29.810  28.973  1.00  0.00     0.031 C 
ATOM     40  C   UNL A   1      37.893  34.086  34.351  1.00  0.00     0.029 A 
ATOM     41  C   UNL A   1      38.946  33.084  34.464  1.00  0.00     0.049 A 
ATOM     42  H   UNL A   1      39.526  31.687  33.033  1.00  0.00     0.167 HD
ATOM     43  C   UNL A   1      40.407  28.582  30.064  1.00  0.00     0.037 A 
ATOM     44  C   UNL A   1      39.737  32.898  35.538  1.00  0.00     0.037 A 
ATOM     45  C   UNL A   1      41.359  28.374  31.122  1.00  0.00     0.049 A 
ATOM     46  C   UNL A   1      40.785  31.819  35.500  1.00  0.00     0.074 A 
ATOM     47  C   UNL A   1      42.391  27.452  31.186  1.00  0.00     0.029 A 
ATOM     48  N   UNL A   1      41.403  29.106  32.299  1.00  0.00    -0.354 N 
ATOM     49  N   UNL A   1      41.054  30.960  34.547  1.00  0.00    -0.248 NA
ATOM     50  C   UNL A   1      41.646  31.689  36.684  1.00  0.00     0.031 C 
ATOM     51  C   UNL A   1      43.038  27.606  32.416  1.00  0.00     0.029 A 
ATOM     52  C   UNL A   1      42.436  28.649  33.100  1.00  0.00     0.049 A 
ATOM     53  H   UNL A   1      40.790  29.843  32.529  1.00  0.00     0.167 HD
ATOM     54  C   UNL A   1      42.129  30.210  35.002  1.00  0.00     0.074 A 
ATOM     55  C   UNL A   1      42.474  30.724  36.311  1.00  0.00     0.031 C 
ATOM     56  C   UNL A   1      42.775  29.188  34.391  1.00  0.00     0.037 A 
BRANCH  43  57
ATOM     57  C   UNL A   1      40.453  27.654  28.886  1.00  0.00     0.064 A 
ATOM     58  C   UNL A   1      39.669  26.494  28.832  1.00  0.00     0.173 A 
ATOM     59  C   UNL A   1      41.244  27.965  27.769  1.00  0.00     0.173 A 
ATOM     60  F   UNL A   1      38.903  26.148  29.879  1.00  0.00    -0.203 F 
ATOM     61  C   UNL A   1      39.685  25.668  27.711  1.00  0.00     0.198 A 
ATOM     62  C   UNL A   1      41.240  27.150  26.639  1.00  0.00     0.198 A 
ATOM     63  F   UNL A   1      42.009  29.067  27.767  1.00  0.00    -0.203 F 
ATOM     64  F   UNL A   1      38.952  24.546  27.696  1.00  0.00    -0.200 F 
ATOM     65  C   UNL A   1      40.464  26.001  26.614  1.00  0.00     0.200 A 
ATOM     66  F   UNL A   1      41.984  27.480  25.574  1.00  0.00    -0.200 F 
ATOM     67  F   UNL A   1      40.469  25.212  25.529  1.00  0.00    -0.200 F 
ENDBRANCH  43  57
BRANCH  44  68
ATOM     68  C   UNL A   1      39.585  33.764  36.735  1.00  0.00     0.064 A 
ATOM     69  C   UNL A   1      38.781  33.367  37.812  1.00  0.00     0.173 A 
ATOM     70  C   UNL A   1      40.219  35.012  36.818  1.00  0.00     0.173 A 
ATOM     71  F   UNL A   1      38.137  32.191  37.767  1.00  0.00    -0.203 F 
ATOM     72  C   UNL A   1      38.596  34.195  38.916  1.00  0.00     0.198 A 
ATOM     73  C   UNL A   1      40.056  35.829  37.936  1.00  0.00     0.198 A 
ATOM     74  F   UNL A   1      41.005  35.436  35.817  1.00  0.00    -0.203 F 
ATOM     75  F   UNL A   1      37.782  33.813  39.909  1.00  0.00    -0.200 F 
ATOM     76  C   UNL A   1      39.237  35.424  38.979  1.00  0.00     0.200 A 
ATOM     77  F   UNL A   1      40.687  37.009  37.999  1.00  0.00    -0.200 F 
ATOM     78  F   UNL A   1      39.056  36.221  40.040  1.00  0.00    -0.200 F 
ENDBRANCH  44  68
BRANCH  56  79
ATOM     79  C   UNL A   1      43.943  28.586  35.112  1.00  0.00     0.064 A 
ATOM     80  C   UNL A   1      45.245  29.077  34.940  1.00  0.00     0.173 A 
ATOM     81  C   UNL A   1      43.749  27.530  36.016  1.00  0.00     0.173 A 
ATOM     82  F   UNL A   1      45.481  30.074  34.075  1.00  0.00    -0.203 F 
ATOM     83  C   UNL A   1      46.316  28.516  35.631  1.00  0.00     0.198 A 
ATOM     84  C   UNL A   1      44.818  26.990  36.724  1.00  0.00     0.198 A 
ATOM     85  F   UNL A   1      42.521  27.031  36.218  1.00  0.00    -0.203 F 
ATOM     86  F   UNL A   1      47.558  28.972  35.420  1.00  0.00    -0.200 F 
ATOM     87  C   UNL A   1      46.101  27.479  36.527  1.00  0.00     0.200 A 
ATOM     88  F   UNL A   1      44.607  25.995  37.597  1.00  0.00    -0.200 F 
ATOM     89  F   UNL A   1      47.132  26.946  37.194  1.00  0.00    -0.200 F 
ENDBRANCH  56  79
ENDBRANCH  30  31
ENDBRANCH  22  25
ENDBRANCH  20  21
ENDBRANCH  19  20
ENDBRANCH   1  19
TORSDOF 13
ENDMDL
MODEL 2
REMARK VINA RESULT:     -11.6      0.774      7.626
REMARK SMILES CC(C)(C)[NH2+]Cc1cc(C(=O)NCCCNC(=O)c2ccc(-c3c4nc(c(-c5c(F)c(F)c(F)c(F)c5F)c5ccc([nH]5)c(-c5c(F)c(F)c(F)c(F)c5F)c5nc(c(-c6c(F)c(F)c(F)c(F)c6F)c6ccc3[nH]6)C=C5)C=C4)cc2)cs1
REMARK SMILES IDX 13 1 12 2 10 3 11 4 9 6 7 7 8 8 83 9 82 10 6 11 5 12 2 15
REMARK SMILES IDX 1 16 3 17 4 18 14 19 15 20 16 21 17 22 18 24 19 25 20 26
REMARK SMILES IDX 81 27 21 28 80 29 22 30 23 31 24 32 74 33 25 34 79 35 73 36
REMARK SMILES IDX 75 37 26 38 78 39 72 40 71 41 27 43 59 44 39 45 58 46 40 47
REMARK SMILES IDX 43 48 57 49 76 50 41 51 42 52 56 54 77 55 44 56 28 57 29 58
REMARK SMILES IDX 37 59 30 60 31 61 35 62 38 63 32 64 33 65 36 66 34 67 60 68
REMARK SMILES IDX 61 69 69 70 62 71 63 72 67 73 70 74 64 75 65 76 68 77 66 78
REMARK SMILES IDX 45 79 46 80 54 81 47 82 48 83 52 84 55 85 49 86 50 87 53 88
REMARK SMILES IDX 51 89
REMARK H PARENT 12 5 5 13 5 14 16 23 75 42 43 53
REMARK Flexibility Score: inf
ROOT
ATOM      1  C   UNL A   1      33.113  30.842  27.196  1.00  0.00     0.118 C 
ENDROOT
BRANCH   1   2
ATOM      2  N   UNL A   1      32.454  29.625  27.627  1.00  0.00    -0.352 N 
ATOM      3  C   UNL A   1      31.778  28.641  26.950  1.00  0.00     0.252 C 
ATOM      4  O   UNL A   1      31.211  27.794  27.640  1.00  0.00    -0.269 OA
ATOM      5  H   UNL A   1      32.501  29.474  28.598  1.00  0.00     0.163 HD
BRANCH   3   6
ATOM      6  C   UNL A   1      31.691  28.609  25.488  1.00  0.00     0.051 A 
ATOM      7  C   UNL A   1      30.993  28.961  23.257  1.00  0.00     0.059 A 
ATOM      8  C   UNL A   1      30.725  29.180  24.596  1.00  0.00     0.035 A 
ATOM      9  S   UNL A   1      32.429  28.059  23.058  1.00  0.00    -0.142 S 
ATOM     10  C   UNL A   1      32.702  28.020  24.743  1.00  0.00     0.079 A 
BRANCH   7  11
ATOM     11  C   UNL A   1      30.189  29.393  22.066  1.00  0.00     0.308 C 
BRANCH  11  12
ATOM     12  N   UNL A   1      29.981  30.838  21.983  1.00  0.00    -0.338 N 
ATOM     13  H   UNL A   1      30.545  31.265  22.718  1.00  0.00     0.347 HD
ATOM     14  H   UNL A   1      30.238  31.069  21.023  1.00  0.00     0.347 HD
BRANCH  12  15
ATOM     15  C   UNL A   1      28.615  31.368  22.123  1.00  0.00     0.088 C 
ATOM     16  C   UNL A   1      27.652  30.364  22.777  1.00  0.00     0.078 C 
ATOM     17  C   UNL A   1      28.029  31.860  20.790  1.00  0.00     0.078 C 
ATOM     18  C   UNL A   1      28.746  32.589  23.057  1.00  0.00     0.078 C 
ENDBRANCH  12  15
ENDBRANCH  11  12
ENDBRANCH   7  11
ENDBRANCH   3   6
ENDBRANCH   1   2
BRANCH   1  19
ATOM     19  C   UNL A   1      32.246  32.086  27.371  1.00  0.00     0.042 C 
BRANCH  19  20
ATOM     20  C   UNL A   1      32.914  33.368  26.873  1.00  0.00     0.118 C 
BRANCH  20  21
ATOM     21  N   UNL A   1      32.656  34.501  27.755  1.00  0.00    -0.352 N 
ATOM     22  C   UNL A   1      33.109  34.788  29.015  1.00  0.00     0.251 C 
ATOM     23  H   UNL A   1      32.049  35.179  27.378  1.00  0.00     0.163 HD
ATOM     24  O   UNL A   1      32.566  35.686  29.656  1.00  0.00    -0.269 OA
BRANCH  22  25
ATOM     25  C   UNL A   1      34.240  34.047  29.617  1.00  0.00     0.039 A 
ATOM     26  C   UNL A   1      35.543  34.378  29.227  1.00  0.00     0.014 A 
ATOM     27  C   UNL A   1      34.028  32.976  30.488  1.00  0.00     0.014 A 
ATOM     28  C   UNL A   1      36.630  33.671  29.744  1.00  0.00     0.010 A 
ATOM     29  C   UNL A   1      35.115  32.313  31.055  1.00  0.00     0.010 A 
ATOM     30  C   UNL A   1      36.425  32.647  30.681  1.00  0.00    -0.014 A 
BRANCH  30  31
ATOM     31  C   UNL A   1      37.565  31.900  31.271  1.00  0.00     0.031 A 
ATOM     32  C   UNL A   1      38.045  32.231  32.658  1.00  0.00     0.074 A 
ATOM     33  C   UNL A   1      38.212  30.980  30.531  1.00  0.00     0.049 A 
ATOM     34  N   UNL A   1      39.088  31.774  33.304  1.00  0.00    -0.248 NA
ATOM     35  C   UNL A   1      37.266  33.229  33.408  1.00  0.00     0.031 C 
ATOM     36  C   UNL A   1      37.867  30.604  29.158  1.00  0.00     0.029 A 
ATOM     37  N   UNL A   1      39.307  30.206  30.822  1.00  0.00    -0.354 N 
ATOM     38  C   UNL A   1      39.108  32.449  34.517  1.00  0.00     0.074 A 
ATOM     39  C   UNL A   1      37.992  33.370  34.508  1.00  0.00     0.031 C 
ATOM     40  C   UNL A   1      38.729  29.666  28.730  1.00  0.00     0.029 A 
ATOM     41  C   UNL A   1      39.704  29.400  29.782  1.00  0.00     0.049 A 
ATOM     42  H   UNL A   1      39.766  30.226  31.693  1.00  0.00     0.167 HD
ATOM     43  C   UNL A   1      39.970  32.301  35.551  1.00  0.00     0.037 A 
ATOM     44  C   UNL A   1      40.745  28.551  29.688  1.00  0.00     0.037 A 
ATOM     45  C   UNL A   1      41.048  31.348  35.577  1.00  0.00     0.049 A 
ATOM     46  C   UNL A   1      41.664  28.383  30.866  1.00  0.00     0.074 A 
ATOM     47  C   UNL A   1      41.929  31.069  36.608  1.00  0.00     0.029 A 
ATOM     48  N   UNL A   1      41.385  30.511  34.524  1.00  0.00    -0.354 N 
ATOM     49  N   UNL A   1      41.633  28.981  32.032  1.00  0.00    -0.248 NA
ATOM     50  C   UNL A   1      42.759  27.413  30.719  1.00  0.00     0.031 C 
ATOM     51  C   UNL A   1      42.820  30.085  36.167  1.00  0.00     0.029 A 
ATOM     52  C   UNL A   1      42.469  29.723  34.877  1.00  0.00     0.049 A 
ATOM     53  H   UNL A   1      40.922  30.481  33.655  1.00  0.00     0.167 HD
ATOM     54  C   UNL A   1      42.681  28.441  32.765  1.00  0.00     0.074 A 
ATOM     55  C   UNL A   1      43.321  27.457  31.918  1.00  0.00     0.031 C 
ATOM     56  C   UNL A   1      43.078  28.735  34.027  1.00  0.00     0.037 A 
BRANCH  43  57
ATOM     57  C   UNL A   1      39.783  33.181  36.751  1.00  0.00     0.064 A 
ATOM     58  C   UNL A   1      40.476  34.391  36.891  1.00  0.00     0.173 A 
ATOM     59  C   UNL A   1      38.849  32.840  37.742  1.00  0.00     0.173 A 
ATOM     60  F   UNL A   1      41.386  34.757  35.975  1.00  0.00    -0.203 F 
ATOM     61  C   UNL A   1      40.255  35.222  37.987  1.00  0.00     0.198 A 
ATOM     62  C   UNL A   1      38.613  33.684  38.825  1.00  0.00     0.198 A 
ATOM     63  F   UNL A   1      38.156  31.695  37.653  1.00  0.00    -0.203 F 
ATOM     64  F   UNL A   1      40.954  36.358  38.116  1.00  0.00    -0.200 F 
ATOM     65  C   UNL A   1      39.319  34.871  38.947  1.00  0.00     0.200 A 
ATOM     66  F   UNL A   1      37.699  33.350  39.746  1.00  0.00    -0.200 F 
ATOM     67  F   UNL A   1      39.097  35.679  39.995  1.00  0.00    -0.200 F 
ENDBRANCH  43  57
BRANCH  44  68
ATOM     68  C   UNL A   1      40.966  27.779  28.438  1.00  0.00     0.064 A 
ATOM     69  C   UNL A   1      40.348  26.536  28.243  1.00  0.00     0.173 A 
ATOM     70  C   UNL A   1      41.810  28.255  27.425  1.00  0.00     0.173 A 
ATOM     71  F   UNL A   1      39.549  26.031  29.193  1.00  0.00    -0.203 F 
ATOM     72  C   UNL A   1      40.588  25.786  27.095  1.00  0.00     0.198 A 
ATOM     73  C   UNL A   1      42.029  27.516  26.264  1.00  0.00     0.198 A 
ATOM     74  F   UNL A   1      42.420  29.442  27.560  1.00  0.00    -0.203 F 
ATOM     75  F   UNL A   1      40.026  24.577  26.957  1.00  0.00    -0.200 F 
ATOM     76  C   UNL A   1      41.425  26.278  26.104  1.00  0.00     0.200 A 
ATOM     77  F   UNL A   1      42.827  28.001  25.303  1.00  0.00    -0.200 F 
ATOM     78  F   UNL A   1      41.658  25.554  25.001  1.00  0.00    -0.200 F 
ENDBRANCH  44  68
BRANCH  56  79
ATOM     79  C   UNL A   1      44.230  27.954  34.582  1.00  0.00     0.064 A 
ATOM     80  C   UNL A   1      45.549  28.419  34.483  1.00  0.00     0.173 A 
ATOM     81  C   UNL A   1      44.005  26.743  35.257  1.00  0.00     0.173 A 
ATOM     82  F   UNL A   1      45.815  29.561  33.834  1.00  0.00    -0.203 F 
ATOM     83  C   UNL A   1      46.605  27.688  35.021  1.00  0.00     0.198 A 
ATOM     84  C   UNL A   1      45.060  26.030  35.816  1.00  0.00     0.198 A 
ATOM     85  F   UNL A   1      42.759  26.262  35.383  1.00  0.00    -0.203 F 
ATOM     86  F   UNL A   1      47.862  28.128  34.879  1.00  0.00    -0.200 F 
ATOM     87  C   UNL A   1      46.359  26.498  35.693  1.00  0.00     0.200 A 
ATOM     88  F   UNL A   1      44.820  24.887  36.474  1.00  0.00    -0.200 F 
ATOM     89  F   UNL A   1      47.377  25.801  36.214  1.00  0.00    -0.200 F 
ENDBRANCH  56  79
ENDBRANCH  30  31
ENDBRANCH  22  25
ENDBRANCH  20  21
ENDBRANCH  19  20
ENDBRANCH   1  19
TORSDOF 13
ENDMDL
MODEL 3
REMARK VINA RESULT:     -11.6      6.869     11.985
REMARK SMILES CC(C)(C)[NH2+]Cc1cc(C(=O)NCCCNC(=O)c2ccc(-c3c4nc(c(-c5c(F)c(F)c(F)c(F)c5F)c5ccc([nH]5)c(-c5c(F)c(F)c(F)c(F)c5F)c5nc(c(-c6c(F)c(F)c(F)c(F)c6F)c6ccc3[nH]6)C=C5)C=C4)cc2)cs1
REMARK SMILES IDX 13 1 12 2 10 3 11 4 9 6 7 7 8 8 83 9 82 10 6 11 5 12 2 15
REMARK SMILES IDX 1 16 3 17 4 18 14 19 15 20 16 21 17 22 18 24 19 25 20 26
REMARK SMILES IDX 81 27 21 28 80 29 22 30 23 31 24 32 74 33 25 34 79 35 73 36
REMARK SMILES IDX 75 37 26 38 78 39 72 40 71 41 27 43 59 44 39 45 58 46 40 47
REMARK SMILES IDX 43 48 57 49 76 50 41 51 42 52 56 54 77 55 44 56 28 57 29 58
REMARK SMILES IDX 37 59 30 60 31 61 35 62 38 63 32 64 33 65 36 66 34 67 60 68
REMARK SMILES IDX 61 69 69 70 62 71 63 72 67 73 70 74 64 75 65 76 68 77 66 78
REMARK SMILES IDX 45 79 46 80 54 81 47 82 48 83 52 84 55 85 49 86 50 87 53 88
REMARK SMILES IDX 51 89
REMARK H PARENT 12 5 5 13 5 14 16 23 75 42 43 53
REMARK Flexibility Score: inf
ROOT
ATOM      1  C   UNL A   1      37.506  20.835  24.242  1.00  0.00     0.118 C 
ENDROOT
BRANCH   1   2
ATOM      2  N   UNL A   1      37.175  21.920  25.143  1.00  0.00    -0.352 N 
ATOM      3  C   UNL A   1      35.993  22.346  25.695  1.00  0.00     0.252 C 
ATOM      4  O   UNL A   1      36.034  23.404  26.325  1.00  0.00    -0.269 OA
ATOM      5  H   UNL A   1      37.952  22.460  25.412  1.00  0.00     0.163 HD
BRANCH   3   6
ATOM      6  C   UNL A   1      34.735  21.617  25.520  1.00  0.00     0.051 A 
ATOM      7  C   UNL A   1      33.140  19.893  25.246  1.00  0.00     0.059 A 
ATOM      8  C   UNL A   1      34.481  20.216  25.355  1.00  0.00     0.035 A 
ATOM      9  S   UNL A   1      32.163  21.290  25.346  1.00  0.00    -0.142 S 
ATOM     10  C   UNL A   1      33.524  22.291  25.587  1.00  0.00     0.079 A 
BRANCH   7  11
ATOM     11  C   UNL A   1      32.524  18.540  25.043  1.00  0.00     0.308 C 
BRANCH  11  12
ATOM     12  N   UNL A   1      33.196  17.467  25.775  1.00  0.00    -0.338 N 
ATOM     13  H   UNL A   1      33.960  17.894  26.299  1.00  0.00     0.347 HD
ATOM     14  H   UNL A   1      32.451  17.042  26.328  1.00  0.00     0.347 HD
BRANCH  12  15
ATOM     15  C   UNL A   1      33.765  16.340  25.019  1.00  0.00     0.088 C 
ATOM     16  C   UNL A   1      35.201  16.001  25.448  1.00  0.00     0.078 C 
ATOM     17  C   UNL A   1      33.712  16.557  23.498  1.00  0.00     0.078 C 
ATOM     18  C   UNL A   1      32.866  15.132  25.351  1.00  0.00     0.078 C 
ENDBRANCH  12  15
ENDBRANCH  11  12
ENDBRANCH   7  11
ENDBRANCH   3   6
ENDBRANCH   1   2
BRANCH   1  19
ATOM     19  C   UNL A   1      38.100  19.623  24.955  1.00  0.00     0.042 C 
BRANCH  19  20
ATOM     20  C   UNL A   1      39.110  19.992  26.041  1.00  0.00     0.118 C 
BRANCH  20  21
ATOM     21  N   UNL A   1      40.294  19.139  26.003  1.00  0.00    -0.352 N 
ATOM     22  C   UNL A   1      41.629  19.444  26.027  1.00  0.00     0.251 C 
ATOM     23  H   UNL A   1      40.098  18.175  25.952  1.00  0.00     0.163 HD
ATOM     24  O   UNL A   1      42.446  18.570  25.744  1.00  0.00    -0.269 OA
BRANCH  22  25
ATOM     25  C   UNL A   1      42.106  20.795  26.391  1.00  0.00     0.039 A 
ATOM     26  C   UNL A   1      42.295  21.738  25.373  1.00  0.00     0.014 A 
ATOM     27  C   UNL A   1      42.454  21.115  27.706  1.00  0.00     0.014 A 
ATOM     28  C   UNL A   1      42.783  23.010  25.678  1.00  0.00     0.010 A 
ATOM     29  C   UNL A   1      42.879  22.405  28.020  1.00  0.00     0.010 A 
ATOM     30  C   UNL A   1      43.057  23.361  27.009  1.00  0.00    -0.014 A 
BRANCH  30  31
ATOM     31  C   UNL A   1      43.548  24.717  27.366  1.00  0.00     0.031 A 
ATOM     32  C   UNL A   1      42.598  25.735  27.935  1.00  0.00     0.074 A 
ATOM     33  C   UNL A   1      44.826  25.051  27.106  1.00  0.00     0.049 A 
ATOM     34  N   UNL A   1      42.805  27.000  28.203  1.00  0.00    -0.248 NA
ATOM     35  C   UNL A   1      41.227  25.280  28.212  1.00  0.00     0.031 C 
ATOM     36  C   UNL A   1      45.829  24.164  26.515  1.00  0.00     0.029 A 
ATOM     37  N   UNL A   1      45.496  26.235  27.289  1.00  0.00    -0.354 N 
ATOM     38  C   UNL A   1      41.587  27.496  28.649  1.00  0.00     0.074 A 
ATOM     39  C   UNL A   1      40.636  26.407  28.586  1.00  0.00     0.031 C 
ATOM     40  C   UNL A   1      46.988  24.832  26.392  1.00  0.00     0.029 A 
ATOM     41  C   UNL A   1      46.802  26.200  26.862  1.00  0.00     0.049 A 
ATOM     42  H   UNL A   1      45.081  27.033  27.688  1.00  0.00     0.167 HD
ATOM     43  C   UNL A   1      41.293  28.744  29.086  1.00  0.00     0.037 A 
ATOM     44  C   UNL A   1      47.737  27.168  26.843  1.00  0.00     0.037 A 
ATOM     45  C   UNL A   1      42.253  29.810  29.196  1.00  0.00     0.049 A 
ATOM     46  C   UNL A   1      47.390  28.534  27.368  1.00  0.00     0.074 A 
ATOM     47  C   UNL A   1      42.070  31.087  29.699  1.00  0.00     0.029 A 
ATOM     48  N   UNL A   1      43.579  29.721  28.803  1.00  0.00    -0.354 N 
ATOM     49  N   UNL A   1      46.251  28.972  27.847  1.00  0.00    -0.248 NA
ATOM     50  C   UNL A   1      48.463  29.540  27.359  1.00  0.00     0.031 C 
ATOM     51  C   UNL A   1      43.279  31.781  29.581  1.00  0.00     0.029 A 
ATOM     52  C   UNL A   1      44.224  30.923  29.042  1.00  0.00     0.049 A 
ATOM     53  H   UNL A   1      44.001  28.920  28.413  1.00  0.00     0.167 HD
ATOM     54  C   UNL A   1      46.477  30.289  28.222  1.00  0.00     0.074 A 
ATOM     55  C   UNL A   1      47.865  30.576  27.929  1.00  0.00     0.031 C 
ATOM     56  C   UNL A   1      45.612  31.181  28.762  1.00  0.00     0.037 A 
BRANCH  43  57
ATOM     57  C   UNL A   1      39.878  29.029  29.493  1.00  0.00     0.064 A 
ATOM     58  C   UNL A   1      38.911  29.429  28.560  1.00  0.00     0.173 A 
ATOM     59  C   UNL A   1      39.469  28.836  30.822  1.00  0.00     0.173 A 
ATOM     60  F   UNL A   1      39.254  29.636  27.280  1.00  0.00    -0.203 F 
ATOM     61  C   UNL A   1      37.590  29.642  28.944  1.00  0.00     0.198 A 
ATOM     62  C   UNL A   1      38.141  29.027  31.198  1.00  0.00     0.198 A 
ATOM     63  F   UNL A   1      40.353  28.449  31.753  1.00  0.00    -0.203 F 
ATOM     64  F   UNL A   1      36.690  30.057  28.041  1.00  0.00    -0.200 F 
ATOM     65  C   UNL A   1      37.205  29.433  30.259  1.00  0.00     0.200 A 
ATOM     66  F   UNL A   1      37.768  28.813  32.467  1.00  0.00    -0.200 F 
ATOM     67  F   UNL A   1      35.929  29.626  30.625  1.00  0.00    -0.200 F 
ENDBRANCH  43  57
BRANCH  44  68
ATOM     68  C   UNL A   1      49.099  26.879  26.325  1.00  0.00     0.064 A 
ATOM     69  C   UNL A   1      49.422  27.116  24.981  1.00  0.00     0.173 A 
ATOM     70  C   UNL A   1      50.095  26.341  27.151  1.00  0.00     0.173 A 
ATOM     71  F   UNL A   1      48.495  27.610  24.148  1.00  0.00    -0.203 F 
ATOM     72  C   UNL A   1      50.682  26.803  24.479  1.00  0.00     0.198 A 
ATOM     73  C   UNL A   1      51.365  26.053  26.654  1.00  0.00     0.198 A 
ATOM     74  F   UNL A   1      49.839  26.101  28.446  1.00  0.00    -0.203 F 
ATOM     75  F   UNL A   1      50.949  26.992  23.179  1.00  0.00    -0.200 F 
ATOM     76  C   UNL A   1      51.654  26.275  25.316  1.00  0.00     0.200 A 
ATOM     77  F   UNL A   1      52.305  25.556  27.468  1.00  0.00    -0.200 F 
ATOM     78  F   UNL A   1      52.865  25.971  24.831  1.00  0.00    -0.200 F 
ENDBRANCH  44  68
BRANCH  56  79
ATOM     79  C   UNL A   1      46.151  32.536  29.108  1.00  0.00     0.064 A 
ATOM     80  C   UNL A   1      46.731  32.799  30.358  1.00  0.00     0.173 A 
ATOM     81  C   UNL A   1      46.122  33.573  28.162  1.00  0.00     0.173 A 
ATOM     82  F   UNL A   1      46.767  31.845  31.299  1.00  0.00    -0.203 F 
ATOM     83  C   UNL A   1      47.243  34.059  30.656  1.00  0.00     0.198 A 
ATOM     84  C   UNL A   1      46.659  34.823  28.455  1.00  0.00     0.198 A 
ATOM     85  F   UNL A   1      45.584  33.367  26.951  1.00  0.00    -0.203 F 
ATOM     86  F   UNL A   1      47.754  34.302  31.870  1.00  0.00    -0.200 F 
ATOM     87  C   UNL A   1      47.212  35.067  29.703  1.00  0.00     0.200 A 
ATOM     88  F   UNL A   1      46.638  35.792  27.530  1.00  0.00    -0.200 F 
ATOM     89  F   UNL A   1      47.711  36.276  29.991  1.00  0.00    -0.200 F 
ENDBRANCH  56  79
ENDBRANCH  30  31
ENDBRANCH  22  25
ENDBRANCH  20  21
ENDBRANCH  19  20
ENDBRANCH   1  19
TORSDOF 13
ENDMDL
