MODEL 1
REMARK VINA RESULT:     -14.3      0.000      0.000
REMARK SMILES C[C@H]1CS(=O)(=O)N(c2cccc(C(=O)Nc3ccc(O)c(C(=O)NCCCNC(=O)c4ccc(-c5c6nc(c(-c7c(F)c(F)c(F)c(F)c7F)c7ccc([nH]7)c(-c7c(F)c(F)c(F)c(F)c7F)c7nc(c(-c8c(F)c(F)c(F)c(F)c8F)c8ccc5[nH]8)C=C7)C=C6)cc4)c3)c2)C1=O
REMARK SMILES IDX 25 1 24 2 22 3 23 4 21 6 16 7 17 8 94 9 18 10 19 11 15 12
REMARK SMILES IDX 13 13 14 14 12 16 8 17 9 18 95 19 10 20 11 21 7 22 1 23 2 24
REMARK SMILES IDX 3 25 96 26 4 27 97 28 5 29 6 30 20 31 26 33 27 34 28 35
REMARK SMILES IDX 29 36 30 38 31 39 32 40 93 41 33 42 92 43 34 44 35 45 36 46
REMARK SMILES IDX 86 47 37 48 91 49 85 50 87 51 38 52 90 53 84 54 83 55 39 57
REMARK SMILES IDX 71 58 51 59 70 60 52 61 55 62 69 63 88 64 53 65 54 66 68 68
REMARK SMILES IDX 89 69 56 70 40 71 41 72 49 73 42 74 43 75 47 76 50 77 44 78
REMARK SMILES IDX 45 79 48 80 46 81 72 82 73 83 81 84 74 85 75 86 79 87 82 88
REMARK SMILES IDX 76 89 77 90 80 91 78 92 57 93 58 94 66 95 59 96 60 97 64 98
REMARK SMILES IDX 67 99 61 100 62 101 65 102 63 103
REMARK H PARENT 24 5 15 15 20 32 28 37 87 56 55 67
REMARK Flexibility Score: inf
ROOT
ATOM      1  C   UNL A   1      32.471  30.407  26.851  1.00  0.00     0.118 C 
ENDROOT
BRANCH   1   2
ATOM      2  N   UNL A   1      33.184  30.121  25.620  1.00  0.00    -0.352 N 
ATOM      3  C   UNL A   1      32.891  29.283  24.577  1.00  0.00     0.255 C 
ATOM      4  O   UNL A   1      33.563  29.384  23.548  1.00  0.00    -0.269 OA
ATOM      5  H   UNL A   1      34.028  30.617  25.516  1.00  0.00     0.163 HD
BRANCH   3   6
ATOM      6  C   UNL A   1      31.746  28.339  24.578  1.00  0.00     0.083 A 
ATOM      7  C   UNL A   1      30.563  26.392  25.406  1.00  0.00     0.042 A 
ATOM      8  C   UNL A   1      29.514  26.631  24.520  1.00  0.00     0.030 A 
ATOM      9  C   UNL A   1      31.711  27.189  25.374  1.00  0.00     0.043 A 
ATOM     10  C   UNL A   1      29.549  27.759  23.702  1.00  0.00     0.049 A 
ATOM     11  C   UNL A   1      30.649  28.613  23.744  1.00  0.00     0.128 A 
BRANCH   7  12
ATOM     12  N   UNL A   1      30.403  25.381  26.362  1.00  0.00    -0.322 N 
ATOM     13  C   UNL A   1      30.497  24.010  26.212  1.00  0.00     0.255 C 
ATOM     14  O   UNL A   1      29.992  23.283  27.068  1.00  0.00    -0.269 OA
ATOM     15  H   UNL A   1      30.192  25.691  27.273  1.00  0.00     0.170 HD
BRANCH  13  16
ATOM     16  C   UNL A   1      31.296  23.373  25.110  1.00  0.00     0.042 A 
ATOM     17  C   UNL A   1      33.293  22.244  24.238  1.00  0.00     0.061 A 
ATOM     18  C   UNL A   1      32.678  22.166  22.984  1.00  0.00     0.027 A 
ATOM     19  C   UNL A   1      32.569  22.808  25.300  1.00  0.00     0.041 A 
ATOM     20  C   UNL A   1      31.386  22.662  22.790  1.00  0.00     0.003 A 
ATOM     21  C   UNL A   1      30.704  23.272  23.844  1.00  0.00     0.014 A 
BRANCH  17  22
ATOM     22  N   UNL A   1      34.685  21.909  24.364  1.00  0.00    -0.207 N 
ATOM     23  C   UNL A   1      37.398  23.867  25.240  1.00  0.00     0.019 C 
ATOM     24  C   UNL A   1      37.014  22.588  24.502  1.00  0.00     0.094 C 
ATOM     25  C   UNL A   1      36.937  21.394  25.450  1.00  0.00     0.173 C 
ATOM     26  C   UNL A   1      35.663  22.779  23.839  1.00  0.00     0.244 C 
ATOM     27  S   UNL A   1      35.273  20.773  25.443  1.00  0.00     0.242 S 
ATOM     28  O   UNL A   1      35.466  23.629  22.978  1.00  0.00    -0.273 OA
ATOM     29  O   UNL A   1      35.263  19.482  24.795  1.00  0.00    -0.206 OA
ATOM     30  O   UNL A   1      34.720  20.976  26.764  1.00  0.00    -0.206 OA
ENDBRANCH  17  22
ENDBRANCH  13  16
ENDBRANCH   7  12
BRANCH  11  31
ATOM     31  O   UNL A   1      30.578  29.726  22.947  1.00  0.00    -0.507 OA
ATOM     32  H   UNL A   1      31.063  29.760  22.146  1.00  0.00     0.293 HD
ENDBRANCH  11  31
ENDBRANCH   3   6
ENDBRANCH   1   2
BRANCH   1  33
ATOM     33  C   UNL A   1      32.009  31.851  26.909  1.00  0.00     0.042 C 
BRANCH  33  34
ATOM     34  C   UNL A   1      33.126  32.751  27.416  1.00  0.00     0.118 C 
BRANCH  34  35
ATOM     35  N   UNL A   1      32.659  34.110  27.675  1.00  0.00    -0.352 N 
ATOM     36  C   UNL A   1      33.069  34.985  28.653  1.00  0.00     0.251 C 
ATOM     37  H   UNL A   1      31.957  34.444  27.069  1.00  0.00     0.163 HD
ATOM     38  O   UNL A   1      32.457  36.025  28.869  1.00  0.00    -0.269 OA
BRANCH  36  39
ATOM     39  C   UNL A   1      34.244  34.629  29.476  1.00  0.00     0.039 A 
ATOM     40  C   UNL A   1      34.046  34.113  30.759  1.00  0.00     0.014 A 
ATOM     41  C   UNL A   1      35.531  34.729  28.942  1.00  0.00     0.014 A 
ATOM     42  C   UNL A   1      35.134  33.602  31.467  1.00  0.00     0.010 A 
ATOM     43  C   UNL A   1      36.597  34.141  29.610  1.00  0.00     0.010 A 
ATOM     44  C   UNL A   1      36.407  33.559  30.873  1.00  0.00    -0.014 A 
BRANCH  44  45
ATOM     45  C   UNL A   1      37.546  32.871  31.530  1.00  0.00     0.031 A 
ATOM     46  C   UNL A   1      38.210  31.703  30.863  1.00  0.00     0.074 A 
ATOM     47  C   UNL A   1      37.915  33.240  32.772  1.00  0.00     0.049 A 
ATOM     48  N   UNL A   1      39.158  30.920  31.313  1.00  0.00    -0.248 NA
ATOM     49  C   UNL A   1      37.722  31.345  29.522  1.00  0.00     0.031 C 
ATOM     50  C   UNL A   1      37.309  34.325  33.547  1.00  0.00     0.029 A 
ATOM     51  N   UNL A   1      38.880  32.736  33.608  1.00  0.00    -0.354 N 
ATOM     52  C   UNL A   1      39.364  29.970  30.322  1.00  0.00     0.074 A 
ATOM     53  C   UNL A   1      38.406  30.239  29.272  1.00  0.00     0.031 C 
ATOM     54  C   UNL A   1      37.938  34.426  34.729  1.00  0.00     0.029 A 
ATOM     55  C   UNL A   1      38.958  33.387  34.815  1.00  0.00     0.049 A 
ATOM     56  H   UNL A   1      39.461  31.980  33.365  1.00  0.00     0.167 HD
ATOM     57  C   UNL A   1      40.283  28.977  30.285  1.00  0.00     0.037 A 
ATOM     58  C   UNL A   1      39.756  33.164  35.875  1.00  0.00     0.037 A 
ATOM     59  C   UNL A   1      41.249  28.731  31.324  1.00  0.00     0.049 A 
ATOM     60  C   UNL A   1      40.750  32.038  35.820  1.00  0.00     0.074 A 
ATOM     61  C   UNL A   1      42.287  27.817  31.339  1.00  0.00     0.029 A 
ATOM     62  N   UNL A   1      41.287  29.400  32.540  1.00  0.00    -0.354 N 
ATOM     63  N   UNL A   1      40.999  31.202  34.843  1.00  0.00    -0.248 NA
ATOM     64  C   UNL A   1      41.568  31.819  37.022  1.00  0.00     0.031 C 
ATOM     65  C   UNL A   1      42.915  27.890  32.587  1.00  0.00     0.029 A 
ATOM     66  C   UNL A   1      42.302  28.885  33.331  1.00  0.00     0.049 A 
ATOM     67  H   UNL A   1      40.682  30.132  32.801  1.00  0.00     0.167 HD
ATOM     68  C   UNL A   1      42.011  30.368  35.300  1.00  0.00     0.074 A 
ATOM     69  C   UNL A   1      42.342  30.812  36.640  1.00  0.00     0.031 C 
ATOM     70  C   UNL A   1      42.610  29.329  34.668  1.00  0.00     0.037 A 
BRANCH  57  71
ATOM     71  C   UNL A   1      40.278  28.075  29.084  1.00  0.00     0.064 A 
ATOM     72  C   UNL A   1      40.972  28.404  27.909  1.00  0.00     0.173 A 
ATOM     73  C   UNL A   1      39.577  26.861  29.111  1.00  0.00     0.173 A 
ATOM     74  F   UNL A   1      41.650  29.559  27.826  1.00  0.00    -0.203 F 
ATOM     75  C   UNL A   1      40.929  27.572  26.793  1.00  0.00     0.198 A 
ATOM     76  C   UNL A   1      39.563  26.015  28.005  1.00  0.00     0.198 A 
ATOM     77  F   UNL A   1      38.901  26.493  30.210  1.00  0.00    -0.203 F 
ATOM     78  F   UNL A   1      41.547  27.938  25.662  1.00  0.00    -0.200 F 
ATOM     79  C   UNL A   1      40.229  26.375  26.844  1.00  0.00     0.200 A 
ATOM     80  F   UNL A   1      38.897  24.853  28.060  1.00  0.00    -0.200 F 
ATOM     81  F   UNL A   1      40.188  25.576  25.770  1.00  0.00    -0.200 F 
ENDBRANCH  57  71
BRANCH  58  82
ATOM     82  C   UNL A   1      39.668  34.050  37.064  1.00  0.00     0.064 A 
ATOM     83  C   UNL A   1      40.365  35.265  37.103  1.00  0.00     0.173 A 
ATOM     84  C   UNL A   1      38.873  33.717  38.171  1.00  0.00     0.173 A 
ATOM     85  F   UNL A   1      41.154  35.615  36.077  1.00  0.00    -0.203 F 
ATOM     86  C   UNL A   1      40.275  36.112  38.206  1.00  0.00     0.198 A 
ATOM     87  C   UNL A   1      38.763  34.577  39.262  1.00  0.00     0.198 A 
ATOM     88  F   UNL A   1      38.184  32.567  38.182  1.00  0.00    -0.203 F 
ATOM     89  F   UNL A   1      40.976  37.254  38.229  1.00  0.00    -0.200 F 
ATOM     90  C   UNL A   1      39.468  35.771  39.281  1.00  0.00     0.200 A 
ATOM     91  F   UNL A   1      37.974  34.250  40.294  1.00  0.00    -0.200 F 
ATOM     92  F   UNL A   1      39.374  36.591  40.336  1.00  0.00    -0.200 F 
ENDBRANCH  58  82
BRANCH  70  93
ATOM     93  C   UNL A   1      43.687  28.600  35.416  1.00  0.00     0.064 A 
ATOM     94  C   UNL A   1      45.035  28.969  35.301  1.00  0.00     0.173 A 
ATOM     95  C   UNL A   1      43.365  27.551  36.290  1.00  0.00     0.173 A 
ATOM     96  F   UNL A   1      45.397  29.953  34.463  1.00  0.00    -0.203 F 
ATOM     97  C   UNL A   1      46.023  28.302  36.021  1.00  0.00     0.198 A 
ATOM     98  C   UNL A   1      44.351  26.907  37.031  1.00  0.00     0.198 A 
ATOM     99  F   UNL A   1      42.089  27.162  36.439  1.00  0.00    -0.203 F 
ATOM    100  F   UNL A   1      47.310  28.644  35.864  1.00  0.00    -0.200 F 
ATOM    101  C   UNL A   1      45.680  27.279  36.892  1.00  0.00     0.200 A 
ATOM    102  F   UNL A   1      44.016  25.928  37.882  1.00  0.00    -0.200 F 
ATOM    103  F   UNL A   1      46.631  26.647  37.593  1.00  0.00    -0.200 F 
ENDBRANCH  70  93
ENDBRANCH  44  45
ENDBRANCH  36  39
ENDBRANCH  34  35
ENDBRANCH  33  34
ENDBRANCH   1  33
TORSDOF 14
ENDMDL
MODEL 2
REMARK VINA RESULT:     -14.3      0.108      1.871
REMARK SMILES C[C@H]1CS(=O)(=O)N(c2cccc(C(=O)Nc3ccc(O)c(C(=O)NCCCNC(=O)c4ccc(-c5c6nc(c(-c7c(F)c(F)c(F)c(F)c7F)c7ccc([nH]7)c(-c7c(F)c(F)c(F)c(F)c7F)c7nc(c(-c8c(F)c(F)c(F)c(F)c8F)c8ccc5[nH]8)C=C7)C=C6)cc4)c3)c2)C1=O
REMARK SMILES IDX 25 1 24 2 22 3 23 4 21 6 16 7 17 8 94 9 18 10 19 11 15 12
REMARK SMILES IDX 13 13 14 14 12 16 8 17 9 18 95 19 10 20 11 21 7 22 1 23 2 24
REMARK SMILES IDX 3 25 96 26 4 27 97 28 5 29 6 30 20 31 26 33 27 34 28 35
REMARK SMILES IDX 29 36 30 38 31 39 32 40 93 41 33 42 92 43 34 44 35 45 36 46
REMARK SMILES IDX 86 47 37 48 91 49 85 50 87 51 38 52 90 53 84 54 83 55 39 57
REMARK SMILES IDX 71 58 51 59 70 60 52 61 55 62 69 63 88 64 53 65 54 66 68 68
REMARK SMILES IDX 89 69 56 70 40 71 41 72 49 73 42 74 43 75 47 76 50 77 44 78
REMARK SMILES IDX 45 79 48 80 46 81 72 82 73 83 81 84 74 85 75 86 79 87 82 88
REMARK SMILES IDX 76 89 77 90 80 91 78 92 57 93 58 94 66 95 59 96 60 97 64 98
REMARK SMILES IDX 67 99 61 100 62 101 65 102 63 103
REMARK H PARENT 24 5 15 15 20 32 28 37 87 56 55 67
REMARK Flexibility Score: inf
ROOT
ATOM      1  C   UNL A   1      32.424  30.370  26.648  1.00  0.00     0.118 C 
ENDROOT
BRANCH   1   2
ATOM      2  N   UNL A   1      33.073  30.107  25.377  1.00  0.00    -0.352 N 
ATOM      3  C   UNL A   1      32.738  29.275  24.343  1.00  0.00     0.255 C 
ATOM      4  O   UNL A   1      33.352  29.396  23.281  1.00  0.00    -0.269 OA
ATOM      5  H   UNL A   1      33.903  30.618  25.234  1.00  0.00     0.163 HD
BRANCH   3   6
ATOM      6  C   UNL A   1      31.610  28.313  24.396  1.00  0.00     0.083 A 
ATOM      7  C   UNL A   1      30.480  26.368  25.301  1.00  0.00     0.042 A 
ATOM      8  C   UNL A   1      29.406  26.567  24.435  1.00  0.00     0.030 A 
ATOM      9  C   UNL A   1      31.613  27.183  25.221  1.00  0.00     0.043 A 
ATOM     10  C   UNL A   1      29.402  27.674  23.588  1.00  0.00     0.049 A 
ATOM     11  C   UNL A   1      30.488  28.547  23.582  1.00  0.00     0.128 A 
BRANCH   7  12
ATOM     12  N   UNL A   1      30.359  25.380  26.285  1.00  0.00    -0.322 N 
ATOM     13  C   UNL A   1      30.496  24.008  26.172  1.00  0.00     0.255 C 
ATOM     14  O   UNL A   1      30.022  23.290  27.053  1.00  0.00    -0.269 OA
ATOM     15  H   UNL A   1      30.146  25.708  27.189  1.00  0.00     0.170 HD
BRANCH  13  16
ATOM     16  C   UNL A   1      31.307  23.368  25.081  1.00  0.00     0.042 A 
ATOM     17  C   UNL A   1      33.317  22.243  24.233  1.00  0.00     0.061 A 
ATOM     18  C   UNL A   1      32.711  22.150  22.975  1.00  0.00     0.027 A 
ATOM     19  C   UNL A   1      32.583  22.812  25.285  1.00  0.00     0.041 A 
ATOM     20  C   UNL A   1      31.417  22.636  22.768  1.00  0.00     0.003 A 
ATOM     21  C   UNL A   1      30.724  23.251  23.812  1.00  0.00     0.014 A 
BRANCH  17  22
ATOM     22  N   UNL A   1      34.711  21.919  24.372  1.00  0.00    -0.207 N 
ATOM     23  C   UNL A   1      37.400  23.896  25.278  1.00  0.00     0.019 C 
ATOM     24  C   UNL A   1      37.033  22.616  24.533  1.00  0.00     0.094 C 
ATOM     25  C   UNL A   1      36.957  21.419  25.477  1.00  0.00     0.173 C 
ATOM     26  C   UNL A   1      35.687  22.799  23.857  1.00  0.00     0.244 C 
ATOM     27  S   UNL A   1      35.297  20.785  25.453  1.00  0.00     0.242 S 
ATOM     28  O   UNL A   1      35.491  23.649  22.997  1.00  0.00    -0.273 OA
ATOM     29  O   UNL A   1      35.304  19.496  24.801  1.00  0.00    -0.206 OA
ATOM     30  O   UNL A   1      34.730  20.980  26.769  1.00  0.00    -0.206 OA
ENDBRANCH  17  22
ENDBRANCH  13  16
ENDBRANCH   7  12
BRANCH  11  31
ATOM     31  O   UNL A   1      30.379  29.638  22.759  1.00  0.00    -0.507 OA
ATOM     32  H   UNL A   1      30.174  30.478  23.119  1.00  0.00     0.293 HD
ENDBRANCH  11  31
ENDBRANCH   3   6
ENDBRANCH   1   2
BRANCH   1  33
ATOM     33  C   UNL A   1      31.975  31.814  26.760  1.00  0.00     0.042 C 
BRANCH  33  34
ATOM     34  C   UNL A   1      33.038  32.655  27.449  1.00  0.00     0.118 C 
BRANCH  34  35
ATOM     35  N   UNL A   1      32.596  34.030  27.663  1.00  0.00    -0.352 N 
ATOM     36  C   UNL A   1      33.036  34.935  28.601  1.00  0.00     0.251 C 
ATOM     37  H   UNL A   1      31.889  34.352  27.057  1.00  0.00     0.163 HD
ATOM     38  O   UNL A   1      32.442  35.992  28.786  1.00  0.00    -0.269 OA
BRANCH  36  39
ATOM     39  C   UNL A   1      34.218  34.593  29.418  1.00  0.00     0.039 A 
ATOM     40  C   UNL A   1      34.033  34.129  30.722  1.00  0.00     0.014 A 
ATOM     41  C   UNL A   1      35.498  34.652  28.860  1.00  0.00     0.014 A 
ATOM     42  C   UNL A   1      35.125  33.629  31.432  1.00  0.00     0.010 A 
ATOM     43  C   UNL A   1      36.566  34.073  29.533  1.00  0.00     0.010 A 
ATOM     44  C   UNL A   1      36.388  33.543  30.820  1.00  0.00    -0.014 A 
BRANCH  44  45
ATOM     45  C   UNL A   1      37.527  32.863  31.485  1.00  0.00     0.031 A 
ATOM     46  C   UNL A   1      38.187  31.683  30.834  1.00  0.00     0.074 A 
ATOM     47  C   UNL A   1      37.899  33.250  32.720  1.00  0.00     0.049 A 
ATOM     48  N   UNL A   1      39.134  30.906  31.294  1.00  0.00    -0.248 NA
ATOM     49  C   UNL A   1      37.695  31.306  29.500  1.00  0.00     0.031 C 
ATOM     50  C   UNL A   1      37.297  34.348  33.481  1.00  0.00     0.029 A 
ATOM     51  N   UNL A   1      38.865  32.757  33.561  1.00  0.00    -0.354 N 
ATOM     52  C   UNL A   1      39.336  29.940  30.318  1.00  0.00     0.074 A 
ATOM     53  C   UNL A   1      38.376  30.195  29.265  1.00  0.00     0.031 C 
ATOM     54  C   UNL A   1      37.929  34.466  34.659  1.00  0.00     0.029 A 
ATOM     55  C   UNL A   1      38.947  33.426  34.758  1.00  0.00     0.049 A 
ATOM     56  H   UNL A   1      39.444  31.996  33.329  1.00  0.00     0.167 HD
ATOM     57  C   UNL A   1      40.253  28.945  30.293  1.00  0.00     0.037 A 
ATOM     58  C   UNL A   1      39.748  33.218  35.820  1.00  0.00     0.037 A 
ATOM     59  C   UNL A   1      41.221  28.713  31.333  1.00  0.00     0.049 A 
ATOM     60  C   UNL A   1      40.740  32.088  35.780  1.00  0.00     0.074 A 
ATOM     61  C   UNL A   1      42.257  27.797  31.360  1.00  0.00     0.029 A 
ATOM     62  N   UNL A   1      41.263  29.400  32.539  1.00  0.00    -0.354 N 
ATOM     63  N   UNL A   1      40.985  31.237  34.815  1.00  0.00    -0.248 NA
ATOM     64  C   UNL A   1      41.559  31.886  36.983  1.00  0.00     0.031 C 
ATOM     65  C   UNL A   1      42.889  27.888  32.605  1.00  0.00     0.029 A 
ATOM     66  C   UNL A   1      42.279  28.895  33.336  1.00  0.00     0.049 A 
ATOM     67  H   UNL A   1      40.661  30.137  32.790  1.00  0.00     0.167 HD
ATOM     68  C   UNL A   1      41.995  30.409  35.282  1.00  0.00     0.074 A 
ATOM     69  C   UNL A   1      42.331  30.872  36.615  1.00  0.00     0.031 C 
ATOM     70  C   UNL A   1      42.591  29.359  34.665  1.00  0.00     0.037 A 
BRANCH  57  71
ATOM     71  C   UNL A   1      40.243  28.025  29.107  1.00  0.00     0.064 A 
ATOM     72  C   UNL A   1      39.529  26.815  29.114  1.00  0.00     0.173 A 
ATOM     73  C   UNL A   1      40.948  28.360  27.941  1.00  0.00     0.173 A 
ATOM     74  F   UNL A   1      38.846  26.441  30.207  1.00  0.00    -0.203 F 
ATOM     75  C   UNL A   1      39.557  25.959  28.017  1.00  0.00     0.198 A 
ATOM     76  C   UNL A   1      40.947  27.516  26.834  1.00  0.00     0.198 A 
ATOM     77  F   UNL A   1      41.642  29.506  27.876  1.00  0.00    -0.203 F 
ATOM     78  F   UNL A   1      38.920  24.781  28.072  1.00  0.00    -0.200 F 
ATOM     79  C   UNL A   1      40.262  26.312  26.875  1.00  0.00     0.200 A 
ATOM     80  F   UNL A   1      41.618  27.866  25.727  1.00  0.00    -0.200 F 
ATOM     81  F   UNL A   1      40.289  25.487  25.821  1.00  0.00    -0.200 F 
ENDBRANCH  57  71
BRANCH  58  82
ATOM     82  C   UNL A   1      39.664  34.121  36.996  1.00  0.00     0.064 A 
ATOM     83  C   UNL A   1      38.880  33.776  38.106  1.00  0.00     0.173 A 
ATOM     84  C   UNL A   1      40.377  35.328  37.050  1.00  0.00     0.173 A 
ATOM     85  F   UNL A   1      38.163  32.643  38.090  1.00  0.00    -0.203 F 
ATOM     86  C   UNL A   1      38.807  34.607  39.222  1.00  0.00     0.198 A 
ATOM     87  C   UNL A   1      40.323  36.145  38.177  1.00  0.00     0.198 A 
ATOM     88  F   UNL A   1      41.143  35.701  36.015  1.00  0.00    -0.203 F 
ATOM     89  F   UNL A   1      38.025  34.267  40.256  1.00  0.00    -0.200 F 
ATOM     90  C   UNL A   1      39.535  35.787  39.260  1.00  0.00     0.200 A 
ATOM     91  F   UNL A   1      41.038  37.278  38.215  1.00  0.00    -0.200 F 
ATOM     92  F   UNL A   1      39.473  36.579  40.338  1.00  0.00    -0.200 F 
ENDBRANCH  58  82
BRANCH  70  93
ATOM     93  C   UNL A   1      43.669  28.639  35.421  1.00  0.00     0.064 A 
ATOM     94  C   UNL A   1      43.368  27.584  36.296  1.00  0.00     0.173 A 
ATOM     95  C   UNL A   1      45.018  28.976  35.236  1.00  0.00     0.173 A 
ATOM     96  F   UNL A   1      42.091  27.237  36.521  1.00  0.00    -0.203 F 
ATOM     97  C   UNL A   1      44.378  26.905  36.971  1.00  0.00     0.198 A 
ATOM     98  C   UNL A   1      46.027  28.275  35.890  1.00  0.00     0.198 A 
ATOM     99  F   UNL A   1      45.358  29.974  34.407  1.00  0.00    -0.203 F 
ATOM    100  F   UNL A   1      44.066  25.929  37.834  1.00  0.00    -0.200 F 
ATOM    101  C   UNL A   1      45.707  27.244  36.761  1.00  0.00     0.200 A 
ATOM    102  F   UNL A   1      47.310  28.595  35.675  1.00  0.00    -0.200 F 
ATOM    103  F   UNL A   1      46.678  26.582  37.403  1.00  0.00    -0.200 F 
ENDBRANCH  70  93
ENDBRANCH  44  45
ENDBRANCH  36  39
ENDBRANCH  34  35
ENDBRANCH  33  34
ENDBRANCH   1  33
TORSDOF 14
ENDMDL
MODEL 3
REMARK VINA RESULT:     -14.2      0.469      7.099
REMARK SMILES C[C@H]1CS(=O)(=O)N(c2cccc(C(=O)Nc3ccc(O)c(C(=O)NCCCNC(=O)c4ccc(-c5c6nc(c(-c7c(F)c(F)c(F)c(F)c7F)c7ccc([nH]7)c(-c7c(F)c(F)c(F)c(F)c7F)c7nc(c(-c8c(F)c(F)c(F)c(F)c8F)c8ccc5[nH]8)C=C7)C=C6)cc4)c3)c2)C1=O
REMARK SMILES IDX 25 1 24 2 22 3 23 4 21 6 16 7 17 8 94 9 18 10 19 11 15 12
REMARK SMILES IDX 13 13 14 14 12 16 8 17 9 18 95 19 10 20 11 21 7 22 1 23 2 24
REMARK SMILES IDX 3 25 96 26 4 27 97 28 5 29 6 30 20 31 26 33 27 34 28 35
REMARK SMILES IDX 29 36 30 38 31 39 32 40 93 41 33 42 92 43 34 44 35 45 36 46
REMARK SMILES IDX 86 47 37 48 91 49 85 50 87 51 38 52 90 53 84 54 83 55 39 57
REMARK SMILES IDX 71 58 51 59 70 60 52 61 55 62 69 63 88 64 53 65 54 66 68 68
REMARK SMILES IDX 89 69 56 70 40 71 41 72 49 73 42 74 43 75 47 76 50 77 44 78
REMARK SMILES IDX 45 79 48 80 46 81 72 82 73 83 81 84 74 85 75 86 79 87 82 88
REMARK SMILES IDX 76 89 77 90 80 91 78 92 57 93 58 94 66 95 59 96 60 97 64 98
REMARK SMILES IDX 67 99 61 100 62 101 65 102 63 103
REMARK H PARENT 24 5 15 15 20 32 28 37 87 56 55 67
REMARK Flexibility Score: inf
ROOT
ATOM      1  C   UNL A   1      32.159  30.617  26.699  1.00  0.00     0.118 C 
ENDROOT
BRANCH   1   2
ATOM      2  N   UNL A   1      32.947  30.294  25.523  1.00  0.00    -0.352 N 
ATOM      3  C   UNL A   1      32.747  29.381  24.522  1.00  0.00     0.255 C 
ATOM      4  O   UNL A   1      33.465  29.453  23.523  1.00  0.00    -0.269 OA
ATOM      5  H   UNL A   1      33.771  30.824  25.430  1.00  0.00     0.163 HD
BRANCH   3   6
ATOM      6  C   UNL A   1      31.648  28.384  24.527  1.00  0.00     0.083 A 
ATOM      7  C   UNL A   1      30.547  26.399  25.377  1.00  0.00     0.042 A 
ATOM      8  C   UNL A   1      29.500  26.570  24.473  1.00  0.00     0.030 A 
ATOM      9  C   UNL A   1      31.657  27.249  25.344  1.00  0.00     0.043 A 
ATOM     10  C   UNL A   1      29.493  27.683  23.634  1.00  0.00     0.049 A 
ATOM     11  C   UNL A   1      30.551  28.590  23.674  1.00  0.00     0.128 A 
BRANCH   7  12
ATOM     12  N   UNL A   1      30.422  25.400  26.350  1.00  0.00    -0.322 N 
ATOM     13  C   UNL A   1      30.533  24.028  26.218  1.00  0.00     0.255 C 
ATOM     14  O   UNL A   1      30.057  23.306  27.095  1.00  0.00    -0.269 OA
ATOM     15  H   UNL A   1      30.225  25.720  27.261  1.00  0.00     0.170 HD
BRANCH  13  16
ATOM     16  C   UNL A   1      31.319  23.387  25.108  1.00  0.00     0.042 A 
ATOM     17  C   UNL A   1      33.298  22.239  24.220  1.00  0.00     0.061 A 
ATOM     18  C   UNL A   1      32.675  22.174  22.969  1.00  0.00     0.027 A 
ATOM     19  C   UNL A   1      32.587  22.807  25.289  1.00  0.00     0.041 A 
ATOM     20  C   UNL A   1      31.388  22.685  22.785  1.00  0.00     0.003 A 
ATOM     21  C   UNL A   1      30.718  23.298  23.846  1.00  0.00     0.014 A 
BRANCH  17  22
ATOM     22  N   UNL A   1      34.687  21.889  24.337  1.00  0.00    -0.207 N 
ATOM     23  C   UNL A   1      37.433  23.823  25.166  1.00  0.00     0.019 C 
ATOM     24  C   UNL A   1      37.026  22.541  24.446  1.00  0.00     0.094 C 
ATOM     25  C   UNL A   1      36.943  21.359  25.408  1.00  0.00     0.173 C 
ATOM     26  C   UNL A   1      35.671  22.742  23.793  1.00  0.00     0.244 C 
ATOM     27  S   UNL A   1      35.271  20.758  25.423  1.00  0.00     0.242 S 
ATOM     28  O   UNL A   1      35.475  23.584  22.925  1.00  0.00    -0.273 OA
ATOM     29  O   UNL A   1      35.240  19.460  24.789  1.00  0.00    -0.206 OA
ATOM     30  O   UNL A   1      34.734  20.982  26.746  1.00  0.00    -0.206 OA
ENDBRANCH  17  22
ENDBRANCH  13  16
ENDBRANCH   7  12
BRANCH  11  31
ATOM     31  O   UNL A   1      30.438  29.682  22.854  1.00  0.00    -0.507 OA
ATOM     32  H   UNL A   1      29.651  30.191  22.856  1.00  0.00     0.293 HD
ENDBRANCH  11  31
ENDBRANCH   3   6
ENDBRANCH   1   2
BRANCH   1  33
ATOM     33  C   UNL A   1      31.842  32.099  26.770  1.00  0.00     0.042 C 
BRANCH  33  34
ATOM     34  C   UNL A   1      32.984  32.862  27.425  1.00  0.00     0.118 C 
BRANCH  34  35
ATOM     35  N   UNL A   1      32.614  34.239  27.741  1.00  0.00    -0.352 N 
ATOM     36  C   UNL A   1      33.090  35.044  28.748  1.00  0.00     0.251 C 
ATOM     37  H   UNL A   1      31.932  34.643  27.155  1.00  0.00     0.163 HD
ATOM     38  O   UNL A   1      32.552  36.114  29.010  1.00  0.00    -0.269 OA
BRANCH  36  39
ATOM     39  C   UNL A   1      34.244  34.576  29.545  1.00  0.00     0.039 A 
ATOM     40  C   UNL A   1      34.014  33.966  30.780  1.00  0.00     0.014 A 
ATOM     41  C   UNL A   1      35.538  34.668  29.027  1.00  0.00     0.014 A 
ATOM     42  C   UNL A   1      35.077  33.357  31.450  1.00  0.00     0.010 A 
ATOM     43  C   UNL A   1      36.575  33.986  29.650  1.00  0.00     0.010 A 
ATOM     44  C   UNL A   1      36.352  33.312  30.861  1.00  0.00    -0.014 A 
BRANCH  44  45
ATOM     45  C   UNL A   1      37.457  32.528  31.465  1.00  0.00     0.031 A 
ATOM     46  C   UNL A   1      38.008  32.908  32.808  1.00  0.00     0.074 A 
ATOM     47  C   UNL A   1      38.029  31.535  30.756  1.00  0.00     0.049 A 
ATOM     48  N   UNL A   1      39.025  32.404  33.460  1.00  0.00    -0.248 NA
ATOM     49  C   UNL A   1      37.348  34.027  33.498  1.00  0.00     0.031 C 
ATOM     50  C   UNL A   1      37.619  31.107  29.417  1.00  0.00     0.029 A 
ATOM     51  N   UNL A   1      39.085  30.712  31.057  1.00  0.00    -0.354 N 
ATOM     52  C   UNL A   1      39.137  33.155  34.622  1.00  0.00     0.074 A 
ATOM     53  C   UNL A   1      38.120  34.183  34.561  1.00  0.00     0.031 C 
ATOM     54  C   UNL A   1      38.391  30.081  29.027  1.00  0.00     0.029 A 
ATOM     55  C   UNL A   1      39.379  29.808  30.065  1.00  0.00     0.049 A 
ATOM     56  H   UNL A   1      39.585  30.764  31.904  1.00  0.00     0.167 HD
ATOM     57  C   UNL A   1      39.996  32.987  35.655  1.00  0.00     0.037 A 
ATOM     58  C   UNL A   1      40.343  28.871  29.998  1.00  0.00     0.037 A 
ATOM     59  C   UNL A   1      40.987  31.946  35.719  1.00  0.00     0.049 A 
ATOM     60  C   UNL A   1      41.302  28.722  31.146  1.00  0.00     0.074 A 
ATOM     61  C   UNL A   1      41.838  31.626  36.762  1.00  0.00     0.029 A 
ATOM     62  N   UNL A   1      41.267  31.059  34.688  1.00  0.00    -0.354 N 
ATOM     63  N   UNL A   1      41.343  29.377  32.280  1.00  0.00    -0.248 NA
ATOM     64  C   UNL A   1      42.357  27.709  30.999  1.00  0.00     0.031 C 
ATOM     65  C   UNL A   1      42.674  30.586  36.341  1.00  0.00     0.029 A 
ATOM     66  C   UNL A   1      42.311  30.223  35.054  1.00  0.00     0.049 A 
ATOM     67  H   UNL A   1      40.795  31.029  33.825  1.00  0.00     0.167 HD
ATOM     68  C   UNL A   1      42.412  28.848  32.990  1.00  0.00     0.074 A 
ATOM     69  C   UNL A   1      42.984  27.803  32.163  1.00  0.00     0.031 C 
ATOM     70  C   UNL A   1      42.877  29.197  34.214  1.00  0.00     0.037 A 
BRANCH  57  71
ATOM     71  C   UNL A   1      39.905  33.961  36.794  1.00  0.00     0.064 A 
ATOM     72  C   UNL A   1      39.068  33.733  37.898  1.00  0.00     0.173 A 
ATOM     73  C   UNL A   1      40.673  35.135  36.788  1.00  0.00     0.173 A 
ATOM     74  F   UNL A   1      38.304  32.631  37.950  1.00  0.00    -0.203 F 
ATOM     75  C   UNL A   1      38.972  34.663  38.930  1.00  0.00     0.198 A 
ATOM     76  C   UNL A   1      40.599  36.047  37.838  1.00  0.00     0.198 A 
ATOM     77  F   UNL A   1      41.495  35.401  35.761  1.00  0.00    -0.203 F 
ATOM     78  F   UNL A   1      38.118  34.452  39.941  1.00  0.00    -0.200 F 
ATOM     79  C   UNL A   1      39.742  35.816  38.902  1.00  0.00     0.200 A 
ATOM     80  F   UNL A   1      41.354  37.155  37.814  1.00  0.00    -0.200 F 
ATOM     81  F   UNL A   1      39.647  36.710  39.895  1.00  0.00    -0.200 F 
ENDBRANCH  57  71
BRANCH  58  82
ATOM     82  C   UNL A   1      40.425  27.981  28.812  1.00  0.00     0.064 A 
ATOM     83  C   UNL A   1      39.754  26.750  28.796  1.00  0.00     0.173 A 
ATOM     84  C   UNL A   1      41.148  28.345  27.667  1.00  0.00     0.173 A 
ATOM     85  F   UNL A   1      39.068  26.350  29.877  1.00  0.00    -0.203 F 
ATOM     86  C   UNL A   1      39.809  25.914  27.682  1.00  0.00     0.198 A 
ATOM     87  C   UNL A   1      41.181  27.521  26.544  1.00  0.00     0.198 A 
ATOM     88  F   UNL A   1      41.804  29.514  27.631  1.00  0.00    -0.203 F 
ATOM     89  F   UNL A   1      39.184  24.729  27.706  1.00  0.00    -0.200 F 
ATOM     90  C   UNL A   1      40.516  26.304  26.554  1.00  0.00     0.200 A 
ATOM     91  F   UNL A   1      41.853  27.906  25.452  1.00  0.00    -0.200 F 
ATOM     92  F   UNL A   1      40.558  25.505  25.480  1.00  0.00    -0.200 F 
ENDBRANCH  58  82
BRANCH  70  93
ATOM     93  C   UNL A   1      44.064  28.442  34.738  1.00  0.00     0.064 A 
ATOM     94  C   UNL A   1      45.372  28.913  34.551  1.00  0.00     0.173 A 
ATOM     95  C   UNL A   1      43.890  27.259  35.472  1.00  0.00     0.173 A 
ATOM     96  F   UNL A   1      45.591  30.029  33.839  1.00  0.00    -0.203 F 
ATOM     97  C   UNL A   1      46.463  28.219  35.065  1.00  0.00     0.198 A 
ATOM     98  C   UNL A   1      44.981  26.584  36.011  1.00  0.00     0.198 A 
ATOM     99  F   UNL A   1      42.660  26.768  35.684  1.00  0.00    -0.203 F 
ATOM    100  F   UNL A   1      47.706  28.665  34.838  1.00  0.00    -0.200 F 
ATOM    101  C   UNL A   1      46.267  27.060  35.802  1.00  0.00     0.200 A 
ATOM    102  F   UNL A   1      44.790  25.472  36.734  1.00  0.00    -0.200 F 
ATOM    103  F   UNL A   1      47.318  26.400  36.306  1.00  0.00    -0.200 F 
ENDBRANCH  70  93
ENDBRANCH  44  45
ENDBRANCH  36  39
ENDBRANCH  34  35
ENDBRANCH  33  34
ENDBRANCH   1  33
TORSDOF 14
ENDMDL
