MODEL 1
REMARK VINA RESULT:     -12.9      0.000      0.000
REMARK SMILES Cc1nc(-c2ccc(S(=O)(=O)N3CC[NH2+][C@H](C(=O)NCCCNC(=O)c4ccc(-c5c6nc(c(-c7c(F)c(F)c(F)c(F)c7F)c7ccc([nH]7)c(-c7c(F)c(F)c(F)c(F)c7F)c7nc(c(-c8c(F)c(F)c(F)c(F)c8F)c8ccc5[nH]8)C=C7)C=C6)cc4)C3)s2)cs1
REMARK SMILES IDX 20 1 19 2 17 3 18 4 16 6 12 7 13 8 89 9 14 10 15 11 9 14
REMARK SMILES IDX 10 15 11 16 8 17 5 18 6 19 90 20 7 21 4 22 1 23 2 24 3 25
REMARK SMILES IDX 92 26 91 27 21 28 22 29 23 30 24 31 25 33 26 34 27 35 88 36
REMARK SMILES IDX 28 37 87 38 29 39 30 40 31 41 81 42 32 43 86 44 80 45 82 46
REMARK SMILES IDX 33 47 85 48 79 49 78 50 34 52 66 53 46 54 65 55 47 56 50 57
REMARK SMILES IDX 64 58 83 59 48 60 49 61 63 63 84 64 51 65 35 66 36 67 44 68
REMARK SMILES IDX 37 69 38 70 42 71 45 72 39 73 40 74 43 75 41 76 67 77 68 78
REMARK SMILES IDX 76 79 69 80 70 81 74 82 77 83 71 84 72 85 75 86 73 87 52 88
REMARK SMILES IDX 53 89 61 90 54 91 55 92 59 93 62 94 56 95 57 96 60 97 58 98
REMARK H PARENT 19 5 15 12 15 13 23 32 82 51 50 62
REMARK Flexibility Score: inf
ROOT
ATOM      1  C   UNL A   1      31.582  30.324  25.755  1.00  0.00     0.118 C 
ENDROOT
BRANCH   1   2
ATOM      2  N   UNL A   1      31.691  29.525  26.961  1.00  0.00    -0.351 N 
ATOM      3  C   UNL A   1      31.577  28.179  27.132  1.00  0.00     0.279 C 
ATOM      4  O   UNL A   1      31.167  27.805  28.238  1.00  0.00    -0.268 OA
ATOM      5  H   UNL A   1      31.875  30.035  27.783  1.00  0.00     0.163 HD
BRANCH   3   6
ATOM      6  C   UNL A   1      32.060  27.164  26.062  1.00  0.00     0.287 C 
ATOM      7  N   UNL A   1      32.068  24.933  25.042  1.00  0.00    -0.185 NA
ATOM      8  C   UNL A   1      33.531  24.766  25.105  1.00  0.00     0.164 C 
ATOM      9  C   UNL A   1      31.564  25.729  26.185  1.00  0.00     0.178 C 
ATOM     10  C   UNL A   1      34.259  26.101  25.358  1.00  0.00     0.278 C 
ATOM     11  N   UNL A   1      33.557  27.216  26.017  1.00  0.00    -0.334 N 
ATOM     12  H   UNL A   1      33.817  28.071  25.528  1.00  0.00     0.347 HD
ATOM     13  H   UNL A   1      33.847  27.163  26.993  1.00  0.00     0.347 HD
BRANCH   7  14
ATOM     14  S   UNL A   1      31.274  25.009  23.545  1.00  0.00     0.253 S 
ATOM     15  O   UNL A   1      30.466  23.806  23.450  1.00  0.00    -0.206 OA
ATOM     16  O   UNL A   1      32.270  25.334  22.551  1.00  0.00    -0.206 OA
BRANCH  14  17
ATOM     17  C   UNL A   1      30.090  26.351  23.423  1.00  0.00     0.135 A 
ATOM     18  C   UNL A   1      29.214  28.621  22.926  1.00  0.00     0.055 A 
ATOM     19  C   UNL A   1      28.309  27.855  23.619  1.00  0.00     0.023 A 
ATOM     20  S   UNL A   1      30.631  27.750  22.556  1.00  0.00    -0.121 S 
ATOM     21  C   UNL A   1      28.805  26.557  23.882  1.00  0.00     0.034 A 
BRANCH  18  22
ATOM     22  C   UNL A   1      28.909  30.051  22.621  1.00  0.00     0.091 A 
ATOM     23  C   UNL A   1      27.909  32.337  19.967  1.00  0.00     0.079 C 
ATOM     24  C   UNL A   1      28.336  31.677  21.230  1.00  0.00     0.090 A 
ATOM     25  N   UNL A   1      28.688  30.416  21.301  1.00  0.00    -0.241 NA
ATOM     26  S   UNL A   1      28.391  32.535  22.716  1.00  0.00    -0.127 S 
ATOM     27  C   UNL A   1      28.807  31.077  23.534  1.00  0.00     0.096 A 
ENDBRANCH  18  22
ENDBRANCH  14  17
ENDBRANCH   7  14
ENDBRANCH   3   6
ENDBRANCH   1   2
BRANCH   1  28
ATOM     28  C   UNL A   1      31.416  31.800  26.127  1.00  0.00     0.042 C 
BRANCH  28  29
ATOM     29  C   UNL A   1      32.366  32.240  27.241  1.00  0.00     0.118 C 
BRANCH  29  30
ATOM     30  N   UNL A   1      32.274  33.668  27.496  1.00  0.00    -0.352 N 
ATOM     31  C   UNL A   1      32.999  34.441  28.366  1.00  0.00     0.251 C 
ATOM     32  H   UNL A   1      31.595  34.149  26.969  1.00  0.00     0.163 HD
ATOM     33  O   UNL A   1      32.645  35.592  28.601  1.00  0.00    -0.269 OA
BRANCH  31  34
ATOM     34  C   UNL A   1      34.200  33.892  29.032  1.00  0.00     0.039 A 
ATOM     35  C   UNL A   1      34.030  32.899  30.003  1.00  0.00     0.014 A 
ATOM     36  C   UNL A   1      35.476  34.381  28.743  1.00  0.00     0.014 A 
ATOM     37  C   UNL A   1      35.145  32.373  30.659  1.00  0.00     0.010 A 
ATOM     38  C   UNL A   1      36.592  33.817  29.358  1.00  0.00     0.010 A 
ATOM     39  C   UNL A   1      36.436  32.816  30.329  1.00  0.00    -0.014 A 
BRANCH  39  40
ATOM     40  C   UNL A   1      37.632  32.251  31.002  1.00  0.00     0.031 A 
ATOM     41  C   UNL A   1      38.453  31.194  30.320  1.00  0.00     0.074 A 
ATOM     42  C   UNL A   1      37.943  32.651  32.249  1.00  0.00     0.049 A 
ATOM     43  N   UNL A   1      39.500  30.542  30.764  1.00  0.00    -0.248 NA
ATOM     44  C   UNL A   1      38.028  30.797  28.969  1.00  0.00     0.031 C 
ATOM     45  C   UNL A   1      37.198  33.642  33.028  1.00  0.00     0.029 A 
ATOM     46  N   UNL A   1      38.964  32.271  33.082  1.00  0.00    -0.354 N 
ATOM     47  C   UNL A   1      39.840  29.645  29.759  1.00  0.00     0.074 A 
ATOM     48  C   UNL A   1      38.867  29.807  28.701  1.00  0.00     0.031 C 
ATOM     49  C   UNL A   1      37.802  33.809  34.216  1.00  0.00     0.029 A 
ATOM     50  C   UNL A   1      38.954  32.916  34.294  1.00  0.00     0.049 A 
ATOM     51  H   UNL A   1      39.640  31.598  32.835  1.00  0.00     0.167 HD
ATOM     52  C   UNL A   1      40.881  28.779  29.718  1.00  0.00     0.037 A 
ATOM     53  C   UNL A   1      39.782  32.797  35.349  1.00  0.00     0.037 A 
ATOM     54  C   UNL A   1      41.868  28.652  30.759  1.00  0.00     0.049 A 
ATOM     55  C   UNL A   1      40.934  31.834  35.273  1.00  0.00     0.074 A 
ATOM     56  C   UNL A   1      43.007  27.865  30.776  1.00  0.00     0.029 A 
ATOM     57  N   UNL A   1      41.831  29.329  31.968  1.00  0.00    -0.354 N 
ATOM     58  N   UNL A   1      41.290  31.045  34.290  1.00  0.00    -0.248 NA
ATOM     59  C   UNL A   1      41.802  31.750  36.456  1.00  0.00     0.031 C 
ATOM     60  C   UNL A   1      43.636  28.036  32.014  1.00  0.00     0.029 A 
ATOM     61  C   UNL A   1      42.913  28.960  32.751  1.00  0.00     0.049 A 
ATOM     62  H   UNL A   1      41.137  29.976  32.232  1.00  0.00     0.167 HD
ATOM     63  C   UNL A   1      42.437  30.393  34.720  1.00  0.00     0.074 A 
ATOM     64  C   UNL A   1      42.723  30.887  36.052  1.00  0.00     0.031 C 
ATOM     65  C   UNL A   1      43.186  29.468  34.072  1.00  0.00     0.037 A 
BRANCH  52  66
ATOM     66  C   UNL A   1      41.003  27.898  28.509  1.00  0.00     0.064 A 
ATOM     67  C   UNL A   1      41.859  28.219  27.445  1.00  0.00     0.173 A 
ATOM     68  C   UNL A   1      40.272  26.703  28.425  1.00  0.00     0.173 A 
ATOM     69  F   UNL A   1      42.573  29.355  27.472  1.00  0.00    -0.203 F 
ATOM     70  C   UNL A   1      41.955  27.393  26.329  1.00  0.00     0.198 A 
ATOM     71  C   UNL A   1      40.391  25.866  27.319  1.00  0.00     0.198 A 
ATOM     72  F   UNL A   1      39.442  26.346  29.417  1.00  0.00    -0.203 F 
ATOM     73  F   UNL A   1      42.741  27.746  25.301  1.00  0.00    -0.200 F 
ATOM     74  C   UNL A   1      41.226  26.215  26.268  1.00  0.00     0.200 A 
ATOM     75  F   UNL A   1      39.694  24.722  27.268  1.00  0.00    -0.200 F 
ATOM     76  F   UNL A   1      41.321  25.420  25.193  1.00  0.00    -0.200 F 
ENDBRANCH  52  66
BRANCH  53  77
ATOM     77  C   UNL A   1      39.575  33.645  36.551  1.00  0.00     0.064 A 
ATOM     78  C   UNL A   1      38.830  33.171  37.639  1.00  0.00     0.173 A 
ATOM     79  C   UNL A   1      40.116  34.936  36.640  1.00  0.00     0.173 A 
ATOM     80  F   UNL A   1      38.275  31.952  37.590  1.00  0.00    -0.203 F 
ATOM     81  C   UNL A   1      38.620  33.962  38.767  1.00  0.00     0.198 A 
ATOM     82  C   UNL A   1      39.927  35.716  37.778  1.00  0.00     0.198 A 
ATOM     83  F   UNL A   1      40.840  35.432  35.627  1.00  0.00    -0.203 F 
ATOM     84  F   UNL A   1      37.873  33.499  39.777  1.00  0.00    -0.200 F 
ATOM     85  C   UNL A   1      39.174  35.232  38.838  1.00  0.00     0.200 A 
ATOM     86  F   UNL A   1      40.474  36.937  37.849  1.00  0.00    -0.200 F 
ATOM     87  F   UNL A   1      38.978  35.990  39.925  1.00  0.00    -0.200 F 
ENDBRANCH  53  77
BRANCH  65  88
ATOM     88  C   UNL A   1      44.406  28.956  34.778  1.00  0.00     0.064 A 
ATOM     89  C   UNL A   1      45.648  29.595  34.656  1.00  0.00     0.173 A 
ATOM     90  C   UNL A   1      44.323  27.832  35.614  1.00  0.00     0.173 A 
ATOM     91  F   UNL A   1      45.781  30.663  33.855  1.00  0.00    -0.203 F 
ATOM     92  C   UNL A   1      46.769  29.113  35.326  1.00  0.00     0.198 A 
ATOM     93  C   UNL A   1      45.439  27.369  36.304  1.00  0.00     0.198 A 
ATOM     94  F   UNL A   1      43.156  27.189  35.767  1.00  0.00    -0.203 F 
ATOM     95  F   UNL A   1      47.956  29.711  35.158  1.00  0.00    -0.200 F 
ATOM     96  C   UNL A   1      46.663  28.005  36.154  1.00  0.00     0.200 A 
ATOM     97  F   UNL A   1      45.333  26.305  37.112  1.00  0.00    -0.200 F 
ATOM     98  F   UNL A   1      47.741  27.546  36.801  1.00  0.00    -0.200 F 
ENDBRANCH  65  88
ENDBRANCH  39  40
ENDBRANCH  31  34
ENDBRANCH  29  30
ENDBRANCH  28  29
ENDBRANCH   1  28
TORSDOF 13
ENDMDL
MODEL 2
REMARK VINA RESULT:     -12.9      5.797     11.249
REMARK SMILES Cc1nc(-c2ccc(S(=O)(=O)N3CC[NH2+][C@H](C(=O)NCCCNC(=O)c4ccc(-c5c6nc(c(-c7c(F)c(F)c(F)c(F)c7F)c7ccc([nH]7)c(-c7c(F)c(F)c(F)c(F)c7F)c7nc(c(-c8c(F)c(F)c(F)c(F)c8F)c8ccc5[nH]8)C=C7)C=C6)cc4)C3)s2)cs1
REMARK SMILES IDX 20 1 19 2 17 3 18 4 16 6 12 7 13 8 89 9 14 10 15 11 9 14
REMARK SMILES IDX 10 15 11 16 8 17 5 18 6 19 90 20 7 21 4 22 1 23 2 24 3 25
REMARK SMILES IDX 92 26 91 27 21 28 22 29 23 30 24 31 25 33 26 34 27 35 88 36
REMARK SMILES IDX 28 37 87 38 29 39 30 40 31 41 81 42 32 43 86 44 80 45 82 46
REMARK SMILES IDX 33 47 85 48 79 49 78 50 34 52 66 53 46 54 65 55 47 56 50 57
REMARK SMILES IDX 64 58 83 59 48 60 49 61 63 63 84 64 51 65 35 66 36 67 44 68
REMARK SMILES IDX 37 69 38 70 42 71 45 72 39 73 40 74 43 75 41 76 67 77 68 78
REMARK SMILES IDX 76 79 69 80 70 81 74 82 77 83 71 84 72 85 75 86 73 87 52 88
REMARK SMILES IDX 53 89 61 90 54 91 55 92 59 93 62 94 56 95 57 96 60 97 58 98
REMARK H PARENT 19 5 15 12 15 13 23 32 82 51 50 62
REMARK Flexibility Score: inf
ROOT
ATOM      1  C   UNL A   1      36.722  20.450  24.923  1.00  0.00     0.118 C 
ENDROOT
BRANCH   1   2
ATOM      2  N   UNL A   1      37.091  21.657  24.207  1.00  0.00    -0.351 N 
ATOM      3  C   UNL A   1      36.305  22.635  23.677  1.00  0.00     0.279 C 
ATOM      4  O   UNL A   1      36.764  23.226  22.692  1.00  0.00    -0.268 OA
ATOM      5  H   UNL A   1      38.059  21.789  24.085  1.00  0.00     0.163 HD
BRANCH   3   6
ATOM      6  C   UNL A   1      34.977  23.082  24.344  1.00  0.00     0.287 C 
ATOM      7  N   UNL A   1      33.039  24.576  24.521  1.00  0.00    -0.185 NA
ATOM      8  C   UNL A   1      33.253  24.899  25.943  1.00  0.00     0.164 C 
ATOM      9  C   UNL A   1      34.324  24.353  23.817  1.00  0.00     0.178 C 
ATOM     10  C   UNL A   1      34.222  23.912  26.624  1.00  0.00     0.278 C 
ATOM     11  N   UNL A   1      35.205  23.165  25.822  1.00  0.00    -0.334 N 
ATOM     12  H   UNL A   1      35.230  22.211  26.181  1.00  0.00     0.347 HD
ATOM     13  H   UNL A   1      36.073  23.693  25.920  1.00  0.00     0.347 HD
BRANCH   7  14
ATOM     14  S   UNL A   1      31.650  23.737  24.026  1.00  0.00     0.253 S 
ATOM     15  O   UNL A   1      31.263  24.306  22.748  1.00  0.00    -0.206 OA
ATOM     16  O   UNL A   1      30.744  23.716  25.151  1.00  0.00    -0.206 OA
BRANCH  14  17
ATOM     17  C   UNL A   1      31.941  22.003  23.674  1.00  0.00     0.135 A 
ATOM     18  C   UNL A   1      32.590  19.641  24.078  1.00  0.00     0.055 A 
ATOM     19  C   UNL A   1      32.363  19.897  22.748  1.00  0.00     0.023 A 
ATOM     20  S   UNL A   1      32.282  21.007  25.049  1.00  0.00    -0.121 S 
ATOM     21  C   UNL A   1      31.974  21.238  22.526  1.00  0.00     0.034 A 
BRANCH  18  22
ATOM     22  C   UNL A   1      33.088  18.300  24.510  1.00  0.00     0.091 A 
ATOM     23  C   UNL A   1      32.063  15.111  25.943  1.00  0.00     0.079 C 
ATOM     24  C   UNL A   1      32.782  16.284  25.375  1.00  0.00     0.090 A 
ATOM     25  N   UNL A   1      32.212  17.446  25.163  1.00  0.00    -0.241 NA
ATOM     26  S   UNL A   1      34.440  16.195  24.940  1.00  0.00    -0.127 S 
ATOM     27  C   UNL A   1      34.355  17.797  24.315  1.00  0.00     0.096 A 
ENDBRANCH  18  22
ENDBRANCH  14  17
ENDBRANCH   7  14
ENDBRANCH   3   6
ENDBRANCH   1   2
BRANCH   1  28
ATOM     28  C   UNL A   1      37.922  19.500  24.984  1.00  0.00     0.042 C 
BRANCH  28  29
ATOM     29  C   UNL A   1      39.107  20.092  25.747  1.00  0.00     0.118 C 
BRANCH  29  30
ATOM     30  N   UNL A   1      40.190  19.133  25.891  1.00  0.00    -0.352 N 
ATOM     31  C   UNL A   1      41.527  19.360  26.087  1.00  0.00     0.251 C 
ATOM     32  H   UNL A   1      39.925  18.185  25.839  1.00  0.00     0.163 HD
ATOM     33  O   UNL A   1      42.326  18.434  25.977  1.00  0.00    -0.269 OA
BRANCH  31  34
ATOM     34  C   UNL A   1      42.015  20.715  26.421  1.00  0.00     0.039 A 
ATOM     35  C   UNL A   1      42.256  21.614  25.377  1.00  0.00     0.014 A 
ATOM     36  C   UNL A   1      42.281  21.084  27.742  1.00  0.00     0.014 A 
ATOM     37  C   UNL A   1      42.732  22.896  25.661  1.00  0.00     0.010 A 
ATOM     38  C   UNL A   1      42.703  22.382  28.028  1.00  0.00     0.010 A 
ATOM     39  C   UNL A   1      42.942  23.295  26.991  1.00  0.00    -0.014 A 
BRANCH  39  40
ATOM     40  C   UNL A   1      43.426  24.661  27.309  1.00  0.00     0.031 A 
ATOM     41  C   UNL A   1      42.487  25.679  27.892  1.00  0.00     0.074 A 
ATOM     42  C   UNL A   1      44.697  24.999  27.022  1.00  0.00     0.049 A 
ATOM     43  N   UNL A   1      42.706  26.935  28.190  1.00  0.00    -0.248 NA
ATOM     44  C   UNL A   1      41.109  25.232  28.152  1.00  0.00     0.031 C 
ATOM     45  C   UNL A   1      45.691  24.109  26.419  1.00  0.00     0.029 A 
ATOM     46  N   UNL A   1      45.369  26.183  27.194  1.00  0.00    -0.354 N 
ATOM     47  C   UNL A   1      41.492  27.433  28.647  1.00  0.00     0.074 A 
ATOM     48  C   UNL A   1      40.531  26.356  28.550  1.00  0.00     0.031 C 
ATOM     49  C   UNL A   1      46.853  24.772  26.294  1.00  0.00     0.029 A 
ATOM     50  C   UNL A   1      46.676  26.138  26.777  1.00  0.00     0.049 A 
ATOM     51  H   UNL A   1      44.953  26.988  27.579  1.00  0.00     0.167 HD
ATOM     52  C   UNL A   1      41.212  28.670  29.121  1.00  0.00     0.037 A 
ATOM     53  C   UNL A   1      47.624  27.094  26.783  1.00  0.00     0.037 A 
ATOM     54  C   UNL A   1      42.184  29.725  29.251  1.00  0.00     0.049 A 
ATOM     55  C   UNL A   1      47.288  28.457  27.323  1.00  0.00     0.074 A 
ATOM     56  C   UNL A   1      42.020  30.986  29.798  1.00  0.00     0.029 A 
ATOM     57  N   UNL A   1      43.502  29.640  28.828  1.00  0.00    -0.354 N 
ATOM     58  N   UNL A   1      46.159  28.895  27.821  1.00  0.00    -0.248 NA
ATOM     59  C   UNL A   1      48.364  29.458  27.303  1.00  0.00     0.031 C 
ATOM     60  C   UNL A   1      43.229  31.679  29.666  1.00  0.00     0.029 A 
ATOM     61  C   UNL A   1      44.157  30.835  29.077  1.00  0.00     0.049 A 
ATOM     62  H   UNL A   1      43.911  28.847  28.411  1.00  0.00     0.167 HD
ATOM     63  C   UNL A   1      46.392  30.208  28.201  1.00  0.00     0.074 A 
ATOM     64  C   UNL A   1      47.777  30.494  27.884  1.00  0.00     0.031 C 
ATOM     65  C   UNL A   1      45.538  31.099  28.762  1.00  0.00     0.037 A 
BRANCH  52  66
ATOM     66  C   UNL A   1      39.796  28.952  29.530  1.00  0.00     0.064 A 
ATOM     67  C   UNL A   1      38.842  29.421  28.615  1.00  0.00     0.173 A 
ATOM     68  C   UNL A   1      39.381  28.726  30.852  1.00  0.00     0.173 A 
ATOM     69  F   UNL A   1      39.190  29.663  27.342  1.00  0.00    -0.203 F 
ATOM     70  C   UNL A   1      37.534  29.683  29.014  1.00  0.00     0.198 A 
ATOM     71  C   UNL A   1      38.065  28.962  31.240  1.00  0.00     0.198 A 
ATOM     72  F   UNL A   1      40.252  28.272  31.766  1.00  0.00    -0.203 F 
ATOM     73  F   UNL A   1      36.653  30.180  28.134  1.00  0.00    -0.200 F 
ATOM     74  C   UNL A   1      37.145  29.449  30.324  1.00  0.00     0.200 A 
ATOM     75  F   UNL A   1      37.689  28.725  32.505  1.00  0.00    -0.200 F 
ATOM     76  F   UNL A   1      35.885  29.699  30.707  1.00  0.00    -0.200 F 
ENDBRANCH  52  66
BRANCH  53  77
ATOM     77  C   UNL A   1      48.994  26.781  26.301  1.00  0.00     0.064 A 
ATOM     78  C   UNL A   1      49.350  27.008  24.965  1.00  0.00     0.173 A 
ATOM     79  C   UNL A   1      49.971  26.257  27.160  1.00  0.00     0.173 A 
ATOM     80  F   UNL A   1      48.442  27.487  24.103  1.00  0.00    -0.203 F 
ATOM     81  C   UNL A   1      50.628  26.708  24.500  1.00  0.00     0.198 A 
ATOM     82  C   UNL A   1      51.257  25.981  26.700  1.00  0.00     0.198 A 
ATOM     83  F   UNL A   1      49.681  26.028  28.448  1.00  0.00    -0.203 F 
ATOM     84  F   UNL A   1      50.930  26.899  23.209  1.00  0.00    -0.200 F 
ATOM     85  C   UNL A   1      51.583  26.201  25.369  1.00  0.00     0.200 A 
ATOM     86  F   UNL A   1      52.180  25.504  27.545  1.00  0.00    -0.200 F 
ATOM     87  F   UNL A   1      52.814  25.918  24.923  1.00  0.00    -0.200 F 
ENDBRANCH  53  77
BRANCH  65  88
ATOM     88  C   UNL A   1      46.086  32.453  29.101  1.00  0.00     0.064 A 
ATOM     89  C   UNL A   1      46.014  33.523  28.197  1.00  0.00     0.173 A 
ATOM     90  C   UNL A   1      46.661  32.691  30.359  1.00  0.00     0.173 A 
ATOM     91  F   UNL A   1      45.488  33.339  26.977  1.00  0.00    -0.203 F 
ATOM     92  C   UNL A   1      46.519  34.776  28.531  1.00  0.00     0.198 A 
ATOM     93  C   UNL A   1      47.140  33.953  30.699  1.00  0.00     0.198 A 
ATOM     94  F   UNL A   1      46.749  31.702  31.260  1.00  0.00    -0.203 F 
ATOM     95  F   UNL A   1      46.481  35.772  27.635  1.00  0.00    -0.200 F 
ATOM     96  C   UNL A   1      47.075  34.992  29.784  1.00  0.00     0.200 A 
ATOM     97  F   UNL A   1      47.667  34.163  31.914  1.00  0.00    -0.200 F 
ATOM     98  F   UNL A   1      47.556  36.200  30.104  1.00  0.00    -0.200 F 
ENDBRANCH  65  88
ENDBRANCH  39  40
ENDBRANCH  31  34
ENDBRANCH  29  30
ENDBRANCH  28  29
ENDBRANCH   1  28
TORSDOF 13
ENDMDL
MODEL 3
REMARK VINA RESULT:     -12.7      1.944      7.587
REMARK SMILES Cc1nc(-c2ccc(S(=O)(=O)N3CC[NH2+][C@H](C(=O)NCCCNC(=O)c4ccc(-c5c6nc(c(-c7c(F)c(F)c(F)c(F)c7F)c7ccc([nH]7)c(-c7c(F)c(F)c(F)c(F)c7F)c7nc(c(-c8c(F)c(F)c(F)c(F)c8F)c8ccc5[nH]8)C=C7)C=C6)cc4)C3)s2)cs1
REMARK SMILES IDX 20 1 19 2 17 3 18 4 16 6 12 7 13 8 89 9 14 10 15 11 9 14
REMARK SMILES IDX 10 15 11 16 8 17 5 18 6 19 90 20 7 21 4 22 1 23 2 24 3 25
REMARK SMILES IDX 92 26 91 27 21 28 22 29 23 30 24 31 25 33 26 34 27 35 88 36
REMARK SMILES IDX 28 37 87 38 29 39 30 40 31 41 81 42 32 43 86 44 80 45 82 46
REMARK SMILES IDX 33 47 85 48 79 49 78 50 34 52 66 53 46 54 65 55 47 56 50 57
REMARK SMILES IDX 64 58 83 59 48 60 49 61 63 63 84 64 51 65 35 66 36 67 44 68
REMARK SMILES IDX 37 69 38 70 42 71 45 72 39 73 40 74 43 75 41 76 67 77 68 78
REMARK SMILES IDX 76 79 69 80 70 81 74 82 77 83 71 84 72 85 75 86 73 87 52 88
REMARK SMILES IDX 53 89 61 90 54 91 55 92 59 93 62 94 56 95 57 96 60 97 58 98
REMARK H PARENT 19 5 15 12 15 13 23 32 82 51 50 62
REMARK Flexibility Score: inf
ROOT
ATOM      1  C   UNL A   1      31.306  27.131  26.099  1.00  0.00     0.118 C 
ENDROOT
BRANCH   1   2
ATOM      2  N   UNL A   1      31.370  25.908  26.877  1.00  0.00    -0.351 N 
ATOM      3  C   UNL A   1      31.386  24.609  26.465  1.00  0.00     0.279 C 
ATOM      4  O   UNL A   1      30.902  23.785  27.251  1.00  0.00    -0.268 OA
ATOM      5  H   UNL A   1      31.408  26.036  27.852  1.00  0.00     0.163 HD
BRANCH   3   6
ATOM      6  C   UNL A   1      32.090  24.163  25.157  1.00  0.00     0.287 C 
ATOM      7  N   UNL A   1      32.116  23.781  22.733  1.00  0.00    -0.185 NA
ATOM      8  C   UNL A   1      32.549  22.376  22.828  1.00  0.00     0.164 C 
ATOM      9  C   UNL A   1      31.258  24.162  23.881  1.00  0.00     0.178 C 
ATOM     10  C   UNL A   1      33.112  22.032  24.221  1.00  0.00     0.278 C 
ATOM     11  N   UNL A   1      32.711  22.821  25.399  1.00  0.00    -0.334 N 
ATOM     12  H   UNL A   1      33.545  22.969  25.965  1.00  0.00     0.347 HD
ATOM     13  H   UNL A   1      31.973  22.271  25.839  1.00  0.00     0.347 HD
BRANCH   7  14
ATOM     14  S   UNL A   1      33.113  24.943  22.003  1.00  0.00     0.253 S 
ATOM     15  O   UNL A   1      32.902  24.821  20.572  1.00  0.00    -0.206 OA
ATOM     16  O   UNL A   1      34.426  24.806  22.590  1.00  0.00    -0.206 OA
BRANCH  14  17
ATOM     17  C   UNL A   1      32.648  26.634  22.380  1.00  0.00     0.135 A 
ATOM     18  C   UNL A   1      31.191  28.630  22.622  1.00  0.00     0.055 A 
ATOM     19  C   UNL A   1      32.519  28.932  22.793  1.00  0.00     0.023 A 
ATOM     20  S   UNL A   1      30.947  26.962  22.372  1.00  0.00    -0.121 S 
ATOM     21  C   UNL A   1      33.343  27.790  22.674  1.00  0.00     0.034 A 
BRANCH  18  22
ATOM     22  C   UNL A   1      30.166  29.716  22.632  1.00  0.00     0.091 A 
ATOM     23  C   UNL A   1      28.023  31.749  20.499  1.00  0.00     0.079 C 
ATOM     24  C   UNL A   1      28.775  31.105  21.610  1.00  0.00     0.090 A 
ATOM     25  N   UNL A   1      29.743  30.241  21.420  1.00  0.00    -0.241 NA
ATOM     26  S   UNL A   1      28.416  31.448  23.254  1.00  0.00    -0.127 S 
ATOM     27  C   UNL A   1      29.566  30.264  23.744  1.00  0.00     0.096 A 
ENDBRANCH  18  22
ENDBRANCH  14  17
ENDBRANCH   7  14
ENDBRANCH   3   6
ENDBRANCH   1   2
BRANCH   1  28
ATOM     28  C   UNL A   1      31.818  28.304  26.939  1.00  0.00     0.042 C 
BRANCH  28  29
ATOM     29  C   UNL A   1      32.965  29.058  26.265  1.00  0.00     0.118 C 
BRANCH  29  30
ATOM     30  N   UNL A   1      32.804  30.498  26.378  1.00  0.00    -0.352 N 
ATOM     31  C   UNL A   1      33.472  31.384  27.183  1.00  0.00     0.251 C 
ATOM     32  H   UNL A   1      32.117  30.894  25.793  1.00  0.00     0.163 HD
ATOM     33  O   UNL A   1      33.061  32.535  27.297  1.00  0.00    -0.269 OA
BRANCH  31  34
ATOM     34  C   UNL A   1      34.679  30.959  27.923  1.00  0.00     0.039 A 
ATOM     35  C   UNL A   1      35.760  31.842  28.001  1.00  0.00     0.014 A 
ATOM     36  C   UNL A   1      34.768  29.686  28.491  1.00  0.00     0.014 A 
ATOM     37  C   UNL A   1      36.920  31.461  28.681  1.00  0.00     0.010 A 
ATOM     38  C   UNL A   1      35.904  29.328  29.217  1.00  0.00     0.010 A 
ATOM     39  C   UNL A   1      36.993  30.207  29.309  1.00  0.00    -0.014 A 
BRANCH  39  40
ATOM     40  C   UNL A   1      38.210  29.797  30.053  1.00  0.00     0.031 A 
ATOM     41  C   UNL A   1      38.457  30.317  31.440  1.00  0.00     0.074 A 
ATOM     42  C   UNL A   1      39.116  29.001  29.456  1.00  0.00     0.049 A 
ATOM     43  N   UNL A   1      39.483  30.116  32.231  1.00  0.00    -0.248 NA
ATOM     44  C   UNL A   1      37.427  31.201  32.008  1.00  0.00     0.031 C 
ATOM     45  C   UNL A   1      39.005  28.465  28.098  1.00  0.00     0.029 A 
ATOM     46  N   UNL A   1      40.312  28.508  29.912  1.00  0.00    -0.354 N 
ATOM     47  C   UNL A   1      39.232  30.866  33.373  1.00  0.00     0.074 A 
ATOM     48  C   UNL A   1      37.980  31.557  33.158  1.00  0.00     0.031 C 
ATOM     49  C   UNL A   1      40.077  27.698  27.841  1.00  0.00     0.029 A 
ATOM     50  C   UNL A   1      40.963  27.714  29.001  1.00  0.00     0.049 A 
ATOM     51  H   UNL A   1      40.671  28.705  30.808  1.00  0.00     0.167 HD
ATOM     52  C   UNL A   1      39.973  30.954  34.503  1.00  0.00     0.037 A 
ATOM     53  C   UNL A   1      42.144  27.074  29.092  1.00  0.00     0.037 A 
ATOM     54  C   UNL A   1      41.199  30.232  34.726  1.00  0.00     0.049 A 
ATOM     55  C   UNL A   1      42.941  27.181  30.362  1.00  0.00     0.074 A 
ATOM     56  C   UNL A   1      41.979  30.187  35.868  1.00  0.00     0.029 A 
ATOM     57  N   UNL A   1      41.823  29.429  33.783  1.00  0.00    -0.354 N 
ATOM     58  N   UNL A   1      42.660  27.833  31.463  1.00  0.00    -0.248 NA
ATOM     59  C   UNL A   1      44.221  26.460  30.401  1.00  0.00     0.031 C 
ATOM     60  C   UNL A   1      43.098  29.391  35.601  1.00  0.00     0.029 A 
ATOM     61  C   UNL A   1      42.993  28.905  34.308  1.00  0.00     0.049 A 
ATOM     62  H   UNL A   1      41.485  29.258  32.874  1.00  0.00     0.167 HD
ATOM     63  C   UNL A   1      43.708  27.579  32.336  1.00  0.00     0.074 A 
ATOM     64  C   UNL A   1      44.628  26.703  31.638  1.00  0.00     0.031 C 
ATOM     65  C   UNL A   1      43.893  28.029  33.601  1.00  0.00     0.037 A 
BRANCH  52  66
ATOM     66  C   UNL A   1      39.478  31.867  35.587  1.00  0.00     0.064 A 
ATOM     67  C   UNL A   1      38.556  31.436  36.552  1.00  0.00     0.173 A 
ATOM     68  C   UNL A   1      39.953  33.185  35.677  1.00  0.00     0.173 A 
ATOM     69  F   UNL A   1      38.064  30.189  36.505  1.00  0.00    -0.203 F 
ATOM     70  C   UNL A   1      38.103  32.299  37.547  1.00  0.00     0.198 A 
ATOM     71  C   UNL A   1      39.519  34.036  36.689  1.00  0.00     0.198 A 
ATOM     72  F   UNL A   1      40.840  33.647  34.783  1.00  0.00    -0.203 F 
ATOM     73  F   UNL A   1      37.182  31.880  38.427  1.00  0.00    -0.200 F 
ATOM     74  C   UNL A   1      38.588  33.596  37.618  1.00  0.00     0.200 A 
ATOM     75  F   UNL A   1      39.997  35.286  36.763  1.00  0.00    -0.200 F 
ATOM     76  F   UNL A   1      38.153  34.424  38.578  1.00  0.00    -0.200 F 
ENDBRANCH  52  66
BRANCH  53  77
ATOM     77  C   UNL A   1      42.621  26.237  27.961  1.00  0.00     0.064 A 
ATOM     78  C   UNL A   1      42.205  24.905  27.833  1.00  0.00     0.173 A 
ATOM     79  C   UNL A   1      43.492  26.747  26.988  1.00  0.00     0.173 A 
ATOM     80  F   UNL A   1      41.390  24.367  28.751  1.00  0.00    -0.203 F 
ATOM     81  C   UNL A   1      42.655  24.108  26.783  1.00  0.00     0.198 A 
ATOM     82  C   UNL A   1      43.922  25.957  25.924  1.00  0.00     0.198 A 
ATOM     83  F   UNL A   1      43.914  28.017  27.063  1.00  0.00    -0.203 F 
ATOM     84  F   UNL A   1      42.272  22.827  26.706  1.00  0.00    -0.200 F 
ATOM     85  C   UNL A   1      43.508  24.636  25.825  1.00  0.00     0.200 A 
ATOM     86  F   UNL A   1      44.735  26.475  24.994  1.00  0.00    -0.200 F 
ATOM     87  F   UNL A   1      43.936  23.872  24.812  1.00  0.00    -0.200 F 
ENDBRANCH  53  77
BRANCH  65  88
ATOM     88  C   UNL A   1      45.118  27.554  34.325  1.00  0.00     0.064 A 
ATOM     89  C   UNL A   1      46.320  28.275  34.285  1.00  0.00     0.173 A 
ATOM     90  C   UNL A   1      45.078  26.381  35.093  1.00  0.00     0.173 A 
ATOM     91  F   UNL A   1      46.411  29.394  33.551  1.00  0.00    -0.203 F 
ATOM     92  C   UNL A   1      47.445  27.826  34.970  1.00  0.00     0.198 A 
ATOM     93  C   UNL A   1      46.198  25.949  35.799  1.00  0.00     0.198 A 
ATOM     94  F   UNL A   1      43.951  25.658  35.166  1.00  0.00    -0.203 F 
ATOM     95  F   UNL A   1      48.597  28.506  34.881  1.00  0.00    -0.200 F 
ATOM     96  C   UNL A   1      47.382  26.668  35.732  1.00  0.00     0.200 A 
ATOM     97  F   UNL A   1      46.132  24.836  36.542  1.00  0.00    -0.200 F 
ATOM     98  F   UNL A   1      48.465  26.240  36.393  1.00  0.00    -0.200 F 
ENDBRANCH  65  88
ENDBRANCH  39  40
ENDBRANCH  31  34
ENDBRANCH  29  30
ENDBRANCH  28  29
ENDBRANCH   1  28
TORSDOF 13
ENDMDL
